MODEL 1
REMARK VINA RESULT:     -10.8      0.000      0.000
REMARK SMILES CC[C@H](CCO)CNc1cc(C(=O)NCCCCNC(=O)c2ccc(-c3c4nc(c(-c5cc(S(=O)(=O)[O-])ccc5F)c5ccc([nH]5)c(-c5cc(S(=O)(=O)[O-])ccc5F)c5nc(c(-c6cc(S(=O)(=O)[O-])ccc6F)c6ccc3[nH]6)C=C5)C=C4)cc2)ccn1
REMARK SMILES IDX 15 1 14 2 12 3 13 4 11 6 9 7 10 8 87 9 86 10 85 11 8 12 7 14
REMARK SMILES IDX 3 15 2 16 1 17 4 18 5 19 6 20 16 22 17 23 18 24 19 25 20 26
REMARK SMILES IDX 21 28 22 29 23 30 84 31 24 32 83 33 25 34 26 35 27 36 77 37
REMARK SMILES IDX 28 38 82 39 76 40 78 41 29 42 81 43 75 44 74 45 30 47 62 48
REMARK SMILES IDX 42 49 61 50 43 51 46 52 60 53 79 54 44 55 45 56 59 58 80 59
REMARK SMILES IDX 47 60 31 61 32 62 40 63 33 64 39 65 41 66 38 67 34 68 35 69
REMARK SMILES IDX 36 70 37 71 63 72 64 73 72 74 65 75 71 76 73 77 70 78 66 79
REMARK SMILES IDX 67 80 68 81 69 82 48 83 49 84 57 85 50 86 56 87 58 88 55 89
REMARK SMILES IDX 51 90 52 91 53 92 54 93
REMARK H PARENT 14 5 8 13 6 21 19 27 78 46 46 57
REMARK Flexibility Score: inf
ROOT
ATOM      1  C   UNL A   1      36.713  22.890  24.410  1.00  0.00     0.116 C 
ENDROOT
BRANCH   1   2
ATOM      2  N   UNL A   1      35.810  23.333  23.365  1.00  0.00    -0.352 N 
ATOM      3  C   UNL A   1      34.490  23.076  23.101  1.00  0.00     0.251 C 
ATOM      4  O   UNL A   1      33.990  23.633  22.121  1.00  0.00    -0.269 OA
ATOM      5  H   UNL A   1      36.230  23.942  22.714  1.00  0.00     0.163 HD
BRANCH   3   6
ATOM      6  C   UNL A   1      33.618  22.216  23.949  1.00  0.00     0.044 A 
ATOM      7  C   UNL A   1      33.089  20.273  25.261  1.00  0.00     0.126 A 
ATOM      8  C   UNL A   1      33.934  20.931  24.378  1.00  0.00     0.060 A 
ATOM      9  N   UNL A   1      31.896  20.779  25.616  1.00  0.00    -0.240 NA
ATOM     10  C   UNL A   1      31.560  21.993  25.133  1.00  0.00     0.114 A 
ATOM     11  C   UNL A   1      32.384  22.750  24.326  1.00  0.00     0.034 A 
BRANCH   7  12
ATOM     12  N   UNL A   1      33.429  19.084  25.870  1.00  0.00    -0.370 N 
ATOM     13  H   UNL A   1      34.105  19.086  26.587  1.00  0.00     0.162 HD
BRANCH  12  14
ATOM     14  C   UNL A   1      32.813  17.828  25.474  1.00  0.00     0.118 C 
BRANCH  14  15
ATOM     15  C   UNL A   1      33.883  16.839  24.944  1.00  0.00     0.010 C 
BRANCH  15  16
ATOM     16  C   UNL A   1      34.128  17.124  23.443  1.00  0.00     0.002 C 
ATOM     17  C   UNL A   1      32.910  17.644  22.692  1.00  0.00     0.004 C 
ENDBRANCH  15  16
BRANCH  15  18
ATOM     18  C   UNL A   1      33.421  15.385  25.212  1.00  0.00     0.033 C 
BRANCH  18  19
ATOM     19  C   UNL A   1      31.992  15.214  25.715  1.00  0.00     0.156 C 
BRANCH  19  20
ATOM     20  O   UNL A   1      31.968  14.716  27.044  1.00  0.00    -0.396 OA
ATOM     21  H   UNL A   1      32.783  14.976  27.500  1.00  0.00     0.210 HD
ENDBRANCH  19  20
ENDBRANCH  18  19
ENDBRANCH  15  18
ENDBRANCH  14  15
ENDBRANCH  12  14
ENDBRANCH   7  12
ENDBRANCH   3   6
ENDBRANCH   1   2
BRANCH   1  22
ATOM     22  C   UNL A   1      37.346  21.545  24.045  1.00  0.00     0.023 C 
BRANCH  22  23
ATOM     23  C   UNL A   1      37.706  20.676  25.253  1.00  0.00     0.023 C 
BRANCH  23  24
ATOM     24  C   UNL A   1      39.092  20.930  25.842  1.00  0.00     0.116 C 
BRANCH  24  25
ATOM     25  N   UNL A   1      39.932  19.742  25.866  1.00  0.00    -0.352 N 
ATOM     26  C   UNL A   1      41.288  19.655  26.080  1.00  0.00     0.251 C 
ATOM     27  H   UNL A   1      39.469  18.888  25.707  1.00  0.00     0.163 HD
ATOM     28  O   UNL A   1      41.856  18.576  25.967  1.00  0.00    -0.269 OA
BRANCH  26  29
ATOM     29  C   UNL A   1      42.050  20.882  26.396  1.00  0.00     0.039 A 
ATOM     30  C   UNL A   1      42.477  21.694  25.344  1.00  0.00     0.014 A 
ATOM     31  C   UNL A   1      42.295  21.252  27.721  1.00  0.00     0.014 A 
ATOM     32  C   UNL A   1      43.079  22.923  25.622  1.00  0.00     0.010 A 
ATOM     33  C   UNL A   1      42.842  22.502  27.996  1.00  0.00     0.010 A 
ATOM     34  C   UNL A   1      43.224  23.356  26.950  1.00  0.00    -0.014 A 
BRANCH  34  35
ATOM     35  C   UNL A   1      43.733  24.715  27.263  1.00  0.00     0.031 A 
ATOM     36  C   UNL A   1      42.802  25.775  27.778  1.00  0.00     0.074 A 
ATOM     37  C   UNL A   1      45.023  25.011  27.004  1.00  0.00     0.049 A 
ATOM     38  N   UNL A   1      43.041  27.037  28.027  1.00  0.00    -0.248 NA
ATOM     39  C   UNL A   1      41.411  25.366  28.018  1.00  0.00     0.031 C 
ATOM     40  C   UNL A   1      46.010  24.076  26.458  1.00  0.00     0.029 A 
ATOM     41  N   UNL A   1      45.723  26.182  27.149  1.00  0.00    -0.354 N 
ATOM     42  C   UNL A   1      41.831  27.577  28.444  1.00  0.00     0.074 A 
ATOM     43  C   UNL A   1      40.848  26.516  28.360  1.00  0.00     0.031 C 
ATOM     44  C   UNL A   1      47.189  24.704  26.330  1.00  0.00     0.029 A 
ATOM     45  C   UNL A   1      47.035  26.096  26.743  1.00  0.00     0.049 A 
ATOM     46  H   UNL A   1      45.324  27.006  27.511  1.00  0.00     0.167 HD
ATOM     47  C   UNL A   1      41.569  28.836  28.876  1.00  0.00     0.034 A 
ATOM     48  C   UNL A   1      48.000  27.035  26.696  1.00  0.00     0.034 A 
ATOM     49  C   UNL A   1      42.561  29.880  28.959  1.00  0.00     0.049 A 
ATOM     50  C   UNL A   1      47.679  28.431  27.160  1.00  0.00     0.074 A 
ATOM     51  C   UNL A   1      42.419  31.171  29.438  1.00  0.00     0.029 A 
ATOM     52  N   UNL A   1      43.882  29.757  28.543  1.00  0.00    -0.354 N 
ATOM     53  N   UNL A   1      46.542  28.913  27.605  1.00  0.00    -0.248 NA
ATOM     54  C   UNL A   1      48.776  29.408  27.125  1.00  0.00     0.031 C 
ATOM     55  C   UNL A   1      43.632  31.845  29.256  1.00  0.00     0.029 A 
ATOM     56  C   UNL A   1      44.555  30.957  28.725  1.00  0.00     0.049 A 
ATOM     57  H   UNL A   1      44.282  28.938  28.173  1.00  0.00     0.167 HD
ATOM     58  C   UNL A   1      46.794  30.243  27.925  1.00  0.00     0.074 A 
ATOM     59  C   UNL A   1      48.194  30.482  27.638  1.00  0.00     0.031 C 
ATOM     60  C   UNL A   1      45.946  31.184  28.415  1.00  0.00     0.034 A 
BRANCH  47  61
ATOM     61  C   UNL A   1      40.144  29.152  29.264  1.00  0.00     0.023 A 
ATOM     62  C   UNL A   1      39.734  29.172  30.609  1.00  0.00     0.031 A 
ATOM     63  C   UNL A   1      39.176  29.412  28.278  1.00  0.00     0.131 A 
ATOM     64  C   UNL A   1      38.381  29.367  30.927  1.00  0.00     0.055 A 
ATOM     65  C   UNL A   1      37.847  29.685  28.605  1.00  0.00     0.041 A 
ATOM     66  F   UNL A   1      39.504  29.387  26.976  1.00  0.00    -0.206 F 
ATOM     67  C   UNL A   1      37.439  29.649  29.935  1.00  0.00     0.022 A 
BRANCH  64  68
ATOM     68  S   UNL A   1      37.849  29.109  32.641  1.00  0.00     0.124 S 
ATOM     69  O   UNL A   1      36.500  29.671  32.617  1.00  0.00    -0.237 OA
ATOM     70  O   UNL A   1      37.936  27.661  32.785  1.00  0.00    -0.237 OA
ATOM     71  O   UNL A   1      38.820  29.874  33.420  1.00  0.00    -0.744 OA
ENDBRANCH  64  68
ENDBRANCH  47  61
BRANCH  48  72
ATOM     72  C   UNL A   1      49.355  26.697  26.178  1.00  0.00     0.023 A 
ATOM     73  C   UNL A   1      49.771  27.132  24.910  1.00  0.00     0.031 A 
ATOM     74  C   UNL A   1      50.240  25.902  26.927  1.00  0.00     0.131 A 
ATOM     75  C   UNL A   1      51.021  26.733  24.409  1.00  0.00     0.055 A 
ATOM     76  C   UNL A   1      51.501  25.547  26.445  1.00  0.00     0.041 A 
ATOM     77  F   UNL A   1      49.893  25.467  28.149  1.00  0.00    -0.206 F 
ATOM     78  C   UNL A   1      51.892  25.954  25.172  1.00  0.00     0.022 A 
BRANCH  75  79
ATOM     79  S   UNL A   1      51.459  27.188  22.709  1.00  0.00     0.124 S 
ATOM     80  O   UNL A   1      52.551  26.263  22.426  1.00  0.00    -0.237 OA
ATOM     81  O   UNL A   1      50.208  26.942  21.999  1.00  0.00    -0.237 OA
ATOM     82  O   UNL A   1      51.844  28.593  22.821  1.00  0.00    -0.744 OA
ENDBRANCH  75  79
ENDBRANCH  48  72
BRANCH  60  83
ATOM     83  C   UNL A   1      46.532  32.544  28.701  1.00  0.00     0.023 A 
ATOM     84  C   UNL A   1      46.537  33.563  27.732  1.00  0.00     0.031 A 
ATOM     85  C   UNL A   1      47.110  32.816  29.953  1.00  0.00     0.131 A 
ATOM     86  C   UNL A   1      47.160  34.788  28.011  1.00  0.00     0.055 A 
ATOM     87  C   UNL A   1      47.678  34.057  30.245  1.00  0.00     0.041 A 
ATOM     88  F   UNL A   1      47.133  31.879  30.914  1.00  0.00    -0.206 F 
ATOM     89  C   UNL A   1      47.716  35.047  29.267  1.00  0.00     0.022 A 
BRANCH  86  90
ATOM     90  S   UNL A   1      47.310  36.013  26.682  1.00  0.00     0.124 S 
ATOM     91  O   UNL A   1      46.506  35.412  25.623  1.00  0.00    -0.237 OA
ATOM     92  O   UNL A   1      46.755  37.213  27.299  1.00  0.00    -0.237 OA
ATOM     93  O   UNL A   1      48.747  36.060  26.419  1.00  0.00    -0.744 OA
ENDBRANCH  86  90
ENDBRANCH  60  83
ENDBRANCH  34  35
ENDBRANCH  26  29
ENDBRANCH  24  25
ENDBRANCH  23  24
ENDBRANCH  22  23
ENDBRANCH   1  22
TORSDOF 21
ENDMDL
MODEL 2
REMARK VINA RESULT:     -10.1      6.490     11.531
REMARK SMILES CC[C@H](CCO)CNc1cc(C(=O)NCCCCNC(=O)c2ccc(-c3c4nc(c(-c5cc(S(=O)(=O)[O-])ccc5F)c5ccc([nH]5)c(-c5cc(S(=O)(=O)[O-])ccc5F)c5nc(c(-c6cc(S(=O)(=O)[O-])ccc6F)c6ccc3[nH]6)C=C5)C=C4)cc2)ccn1
REMARK SMILES IDX 15 1 14 2 12 3 13 4 11 6 9 7 10 8 87 9 86 10 85 11 8 12 7 14
REMARK SMILES IDX 3 15 2 16 1 17 4 18 5 19 6 20 16 22 17 23 18 24 19 25 20 26
REMARK SMILES IDX 21 28 22 29 23 30 84 31 24 32 83 33 25 34 26 35 27 36 77 37
REMARK SMILES IDX 28 38 82 39 76 40 78 41 29 42 81 43 75 44 74 45 30 47 62 48
REMARK SMILES IDX 42 49 61 50 43 51 46 52 60 53 79 54 44 55 45 56 59 58 80 59
REMARK SMILES IDX 47 60 31 61 32 62 40 63 33 64 39 65 41 66 38 67 34 68 35 69
REMARK SMILES IDX 36 70 37 71 63 72 64 73 72 74 65 75 71 76 73 77 70 78 66 79
REMARK SMILES IDX 67 80 68 81 69 82 48 83 49 84 57 85 50 86 56 87 58 88 55 89
REMARK SMILES IDX 51 90 52 91 53 92 54 93
REMARK H PARENT 14 5 8 13 6 21 19 27 78 46 46 57
REMARK Flexibility Score: inf
ROOT
ATOM      1  C   UNL A   1      32.234  28.782  26.006  1.00  0.00     0.116 C 
ENDROOT
BRANCH   1   2
ATOM      2  N   UNL A   1      31.121  28.904  25.084  1.00  0.00    -0.352 N 
ATOM      3  C   UNL A   1      30.876  28.379  23.842  1.00  0.00     0.251 C 
ATOM      4  O   UNL A   1      29.800  28.664  23.310  1.00  0.00    -0.269 OA
ATOM      5  H   UNL A   1      30.396  29.481  25.418  1.00  0.00     0.163 HD
BRANCH   3   6
ATOM      6  C   UNL A   1      31.795  27.450  23.127  1.00  0.00     0.044 A 
ATOM      7  C   UNL A   1      32.487  25.327  22.238  1.00  0.00     0.126 A 
ATOM      8  C   UNL A   1      31.624  26.073  23.029  1.00  0.00     0.060 A 
ATOM      9  N   UNL A   1      33.575  25.868  21.666  1.00  0.00    -0.240 NA
ATOM     10  C   UNL A   1      33.779  27.191  21.830  1.00  0.00     0.114 A 
ATOM     11  C   UNL A   1      32.918  28.017  22.523  1.00  0.00     0.034 A 
BRANCH   7  12
ATOM     12  N   UNL A   1      32.267  23.998  21.947  1.00  0.00    -0.370 N 
ATOM     13  H   UNL A   1      31.398  23.724  21.573  1.00  0.00     0.162 HD
BRANCH  12  14
ATOM     14  C   UNL A   1      33.291  22.992  22.180  1.00  0.00     0.118 C 
BRANCH  14  15
ATOM     15  C   UNL A   1      33.366  22.630  23.686  1.00  0.00     0.010 C 
BRANCH  15  16
ATOM     16  C   UNL A   1      34.750  23.055  24.234  1.00  0.00     0.002 C 
ATOM     17  C   UNL A   1      34.748  24.364  25.009  1.00  0.00     0.004 C 
ENDBRANCH  15  16
BRANCH  15  18
ATOM     18  C   UNL A   1      33.086  21.117  23.867  1.00  0.00     0.033 C 
BRANCH  18  19
ATOM     19  C   UNL A   1      32.785  20.653  25.288  1.00  0.00     0.156 C 
BRANCH  19  20
ATOM     20  O   UNL A   1      31.490  21.060  25.701  1.00  0.00    -0.396 OA
ATOM     21  H   UNL A   1      31.385  20.887  26.650  1.00  0.00     0.210 HD
ENDBRANCH  19  20
ENDBRANCH  18  19
ENDBRANCH  15  18
ENDBRANCH  14  15
ENDBRANCH  12  14
ENDBRANCH   7  12
ENDBRANCH   3   6
ENDBRANCH   1   2
BRANCH   1  22
ATOM     22  C   UNL A   1      32.035  29.692  27.220  1.00  0.00     0.023 C 
BRANCH  22  23
ATOM     23  C   UNL A   1      31.842  31.170  26.867  1.00  0.00     0.023 C 
BRANCH  23  24
ATOM     24  C   UNL A   1      33.027  32.074  27.200  1.00  0.00     0.116 C 
BRANCH  24  25
ATOM     25  N   UNL A   1      32.642  33.452  27.462  1.00  0.00    -0.352 N 
ATOM     26  C   UNL A   1      33.185  34.338  28.364  1.00  0.00     0.251 C 
ATOM     27  H   UNL A   1      31.893  33.796  26.924  1.00  0.00     0.163 HD
ATOM     28  O   UNL A   1      32.671  35.438  28.526  1.00  0.00    -0.269 OA
BRANCH  26  29
ATOM     29  C   UNL A   1      34.359  33.926  29.164  1.00  0.00     0.039 A 
ATOM     30  C   UNL A   1      34.167  33.042  30.228  1.00  0.00     0.014 A 
ATOM     31  C   UNL A   1      35.642  34.369  28.834  1.00  0.00     0.014 A 
ATOM     32  C   UNL A   1      35.274  32.535  30.910  1.00  0.00     0.010 A 
ATOM     33  C   UNL A   1      36.746  33.819  29.478  1.00  0.00     0.010 A 
ATOM     34  C   UNL A   1      36.574  32.884  30.511  1.00  0.00    -0.014 A 
BRANCH  34  35
ATOM     35  C   UNL A   1      37.764  32.251  31.132  1.00  0.00     0.031 A 
ATOM     36  C   UNL A   1      38.525  31.182  30.400  1.00  0.00     0.074 A 
ATOM     37  C   UNL A   1      38.107  32.589  32.392  1.00  0.00     0.049 A 
ATOM     38  N   UNL A   1      39.533  30.456  30.810  1.00  0.00    -0.248 NA
ATOM     39  C   UNL A   1      38.071  30.870  29.038  1.00  0.00     0.031 C 
ATOM     40  C   UNL A   1      37.415  33.580  33.219  1.00  0.00     0.029 A 
ATOM     41  N   UNL A   1      39.113  32.127  33.203  1.00  0.00    -0.354 N 
ATOM     42  C   UNL A   1      39.831  29.595  29.761  1.00  0.00     0.074 A 
ATOM     43  C   UNL A   1      38.858  29.853  28.719  1.00  0.00     0.031 C 
ATOM     44  C   UNL A   1      38.025  33.663  34.411  1.00  0.00     0.029 A 
ATOM     45  C   UNL A   1      39.124  32.703  34.452  1.00  0.00     0.049 A 
ATOM     46  H   UNL A   1      39.766  31.448  32.918  1.00  0.00     0.167 HD
ATOM     47  C   UNL A   1      40.835  28.688  29.669  1.00  0.00     0.034 A 
ATOM     48  C   UNL A   1      39.920  32.475  35.515  1.00  0.00     0.034 A 
ATOM     49  C   UNL A   1      41.800  28.448  30.715  1.00  0.00     0.049 A 
ATOM     50  C   UNL A   1      41.014  31.446  35.396  1.00  0.00     0.074 A 
ATOM     51  C   UNL A   1      42.892  27.597  30.704  1.00  0.00     0.029 A 
ATOM     52  N   UNL A   1      41.784  29.052  31.967  1.00  0.00    -0.354 N 
ATOM     53  N   UNL A   1      41.318  30.678  34.376  1.00  0.00    -0.248 NA
ATOM     54  C   UNL A   1      41.879  31.262  36.569  1.00  0.00     0.031 C 
ATOM     55  C   UNL A   1      43.497  27.641  31.965  1.00  0.00     0.029 A 
ATOM     56  C   UNL A   1      42.826  28.570  32.744  1.00  0.00     0.049 A 
ATOM     57  H   UNL A   1      41.127  29.725  32.259  1.00  0.00     0.167 HD
ATOM     58  C   UNL A   1      42.425  29.937  34.778  1.00  0.00     0.074 A 
ATOM     59  C   UNL A   1      42.743  30.362  36.126  1.00  0.00     0.031 C 
ATOM     60  C   UNL A   1      43.118  28.991  34.094  1.00  0.00     0.034 A 
BRANCH  47  61
ATOM     61  C   UNL A   1      40.917  27.872  28.400  1.00  0.00     0.023 A 
ATOM     62  C   UNL A   1      40.435  26.553  28.341  1.00  0.00     0.031 A 
ATOM     63  C   UNL A   1      41.506  28.411  27.243  1.00  0.00     0.131 A 
ATOM     64  C   UNL A   1      40.621  25.791  27.177  1.00  0.00     0.055 A 
ATOM     65  C   UNL A   1      41.616  27.674  26.062  1.00  0.00     0.041 A 
ATOM     66  F   UNL A   1      42.002  29.658  27.245  1.00  0.00    -0.206 F 
ATOM     67  C   UNL A   1      41.185  26.351  26.029  1.00  0.00     0.022 A 
BRANCH  64  68
ATOM     68  S   UNL A   1      40.241  24.019  27.233  1.00  0.00     0.124 S 
ATOM     69  O   UNL A   1      41.024  23.586  28.387  1.00  0.00    -0.237 OA
ATOM     70  O   UNL A   1      38.793  24.012  27.404  1.00  0.00    -0.237 OA
ATOM     71  O   UNL A   1      40.719  23.525  25.944  1.00  0.00    -0.744 OA
ENDBRANCH  64  68
ENDBRANCH  47  61
BRANCH  48  72
ATOM     72  C   UNL A   1      39.708  33.217  36.789  1.00  0.00     0.023 A 
ATOM     73  C   UNL A   1      38.893  32.691  37.803  1.00  0.00     0.031 A 
ATOM     74  C   UNL A   1      40.287  34.482  36.995  1.00  0.00     0.131 A 
ATOM     75  C   UNL A   1      38.642  33.445  38.961  1.00  0.00     0.055 A 
ATOM     76  C   UNL A   1      40.074  35.207  38.169  1.00  0.00     0.041 A 
ATOM     77  F   UNL A   1      41.081  35.026  36.059  1.00  0.00    -0.206 F 
ATOM     78  C   UNL A   1      39.236  34.694  39.155  1.00  0.00     0.022 A 
BRANCH  75  79
ATOM     79  S   UNL A   1      37.464  32.799  40.178  1.00  0.00     0.124 S 
ATOM     80  O   UNL A   1      38.124  31.572  40.610  1.00  0.00    -0.237 OA
ATOM     81  O   UNL A   1      37.416  33.882  41.156  1.00  0.00    -0.237 OA
ATOM     82  O   UNL A   1      36.241  32.609  39.401  1.00  0.00    -0.744 OA
ENDBRANCH  75  79
ENDBRANCH  48  72
BRANCH  60  83
ATOM     83  C   UNL A   1      44.311  28.385  34.792  1.00  0.00     0.023 A 
ATOM     84  C   UNL A   1      44.205  27.194  35.532  1.00  0.00     0.031 A 
ATOM     85  C   UNL A   1      45.563  29.020  34.731  1.00  0.00     0.131 A 
ATOM     86  C   UNL A   1      45.319  26.704  36.228  1.00  0.00     0.055 A 
ATOM     87  C   UNL A   1      46.683  28.497  35.380  1.00  0.00     0.041 A 
ATOM     88  F   UNL A   1      45.719  30.160  34.040  1.00  0.00    -0.206 F 
ATOM     89  C   UNL A   1      46.561  27.340  36.145  1.00  0.00     0.022 A 
BRANCH  86  90
ATOM     90  S   UNL A   1      45.106  25.271  37.318  1.00  0.00     0.124 S 
ATOM     91  O   UNL A   1      45.930  24.262  36.659  1.00  0.00    -0.237 OA
ATOM     92  O   UNL A   1      45.609  25.770  38.594  1.00  0.00    -0.237 OA
ATOM     93  O   UNL A   1      43.666  25.019  37.277  1.00  0.00    -0.744 OA
ENDBRANCH  86  90
ENDBRANCH  60  83
ENDBRANCH  34  35
ENDBRANCH  26  29
ENDBRANCH  24  25
ENDBRANCH  23  24
ENDBRANCH  22  23
ENDBRANCH   1  22
TORSDOF 21
ENDMDL
MODEL 3
REMARK VINA RESULT:     -10.0      2.965      8.758
REMARK SMILES CC[C@H](CCO)CNc1cc(C(=O)NCCCCNC(=O)c2ccc(-c3c4nc(c(-c5cc(S(=O)(=O)[O-])ccc5F)c5ccc([nH]5)c(-c5cc(S(=O)(=O)[O-])ccc5F)c5nc(c(-c6cc(S(=O)(=O)[O-])ccc6F)c6ccc3[nH]6)C=C5)C=C4)cc2)ccn1
REMARK SMILES IDX 15 1 14 2 12 3 13 4 11 6 9 7 10 8 87 9 86 10 85 11 8 12 7 14
REMARK SMILES IDX 3 15 2 16 1 17 4 18 5 19 6 20 16 22 17 23 18 24 19 25 20 26
REMARK SMILES IDX 21 28 22 29 23 30 84 31 24 32 83 33 25 34 26 35 27 36 77 37
REMARK SMILES IDX 28 38 82 39 76 40 78 41 29 42 81 43 75 44 74 45 30 47 62 48
REMARK SMILES IDX 42 49 61 50 43 51 46 52 60 53 79 54 44 55 45 56 59 58 80 59
REMARK SMILES IDX 47 60 31 61 32 62 40 63 33 64 39 65 41 66 38 67 34 68 35 69
REMARK SMILES IDX 36 70 37 71 63 72 64 73 72 74 65 75 71 76 73 77 70 78 66 79
REMARK SMILES IDX 67 80 68 81 69 82 48 83 49 84 57 85 50 86 56 87 58 88 55 89
REMARK SMILES IDX 51 90 52 91 53 92 54 93
REMARK H PARENT 14 5 8 13 6 21 19 27 78 46 46 57
REMARK Flexibility Score: inf
ROOT
ATOM      1  C   UNL A   1      35.784  23.274  24.350  1.00  0.00     0.116 C 
ENDROOT
BRANCH   1   2
ATOM      2  N   UNL A   1      35.014  23.233  23.121  1.00  0.00    -0.352 N 
ATOM      3  C   UNL A   1      33.707  23.523  22.828  1.00  0.00     0.251 C 
ATOM      4  O   UNL A   1      33.350  23.403  21.654  1.00  0.00    -0.269 OA
ATOM      5  H   UNL A   1      35.536  22.936  22.340  1.00  0.00     0.163 HD
BRANCH   3   6
ATOM      6  C   UNL A   1      32.716  24.024  23.822  1.00  0.00     0.044 A 
ATOM      7  C   UNL A   1      31.548  25.712  25.072  1.00  0.00     0.126 A 
ATOM      8  C   UNL A   1      32.586  25.349  24.225  1.00  0.00     0.060 A 
ATOM      9  N   UNL A   1      30.736  24.801  25.633  1.00  0.00    -0.240 NA
ATOM     10  C   UNL A   1      30.918  23.507  25.300  1.00  0.00     0.114 A 
ATOM     11  C   UNL A   1      31.865  23.077  24.395  1.00  0.00     0.034 A 
BRANCH   7  12
ATOM     12  N   UNL A   1      31.248  27.026  25.360  1.00  0.00    -0.370 N 
ATOM     13  H   UNL A   1      31.136  27.300  26.299  1.00  0.00     0.162 HD
BRANCH  12  14
ATOM     14  C   UNL A   1      31.094  28.016  24.305  1.00  0.00     0.118 C 
BRANCH  14  15
ATOM     15  C   UNL A   1      32.104  29.176  24.494  1.00  0.00     0.010 C 
BRANCH  15  16
ATOM     16  C   UNL A   1      33.541  28.615  24.358  1.00  0.00     0.002 C 
ATOM     17  C   UNL A   1      34.086  28.612  22.937  1.00  0.00     0.004 C 
ENDBRANCH  15  16
BRANCH  15  18
ATOM     18  C   UNL A   1      31.854  29.861  25.860  1.00  0.00     0.033 C 
BRANCH  18  19
ATOM     19  C   UNL A   1      32.970  29.737  26.892  1.00  0.00     0.156 C 
BRANCH  19  20
ATOM     20  O   UNL A   1      32.809  28.574  27.689  1.00  0.00    -0.396 OA
ATOM     21  H   UNL A   1      32.871  27.787  27.127  1.00  0.00     0.210 HD
ENDBRANCH  19  20
ENDBRANCH  18  19
ENDBRANCH  15  18
ENDBRANCH  14  15
ENDBRANCH  12  14
ENDBRANCH   7  12
ENDBRANCH   3   6
ENDBRANCH   1   2
BRANCH   1  22
ATOM     22  C   UNL A   1      35.338  22.165  25.306  1.00  0.00     0.023 C 
BRANCH  22  23
ATOM     23  C   UNL A   1      36.262  20.944  25.320  1.00  0.00     0.023 C 
BRANCH  23  24
ATOM     24  C   UNL A   1      37.721  21.232  24.972  1.00  0.00     0.116 C 
BRANCH  24  25
ATOM     25  N   UNL A   1      38.644  20.238  25.497  1.00  0.00    -0.352 N 
ATOM     26  C   UNL A   1      39.761  20.430  26.278  1.00  0.00     0.251 C 
ATOM     27  H   UNL A   1      38.443  19.303  25.262  1.00  0.00     0.163 HD
ATOM     28  O   UNL A   1      40.486  19.482  26.551  1.00  0.00    -0.269 OA
BRANCH  26  29
ATOM     29  C   UNL A   1      40.096  21.796  26.734  1.00  0.00     0.039 A 
ATOM     30  C   UNL A   1      41.056  21.951  27.736  1.00  0.00     0.014 A 
ATOM     31  C   UNL A   1      39.504  22.915  26.142  1.00  0.00     0.014 A 
ATOM     32  C   UNL A   1      41.486  23.232  28.087  1.00  0.00     0.010 A 
ATOM     33  C   UNL A   1      39.974  24.187  26.452  1.00  0.00     0.010 A 
ATOM     34  C   UNL A   1      40.982  24.357  27.415  1.00  0.00    -0.014 A 
BRANCH  34  35
ATOM     35  C   UNL A   1      41.524  25.714  27.677  1.00  0.00     0.031 A 
ATOM     36  C   UNL A   1      42.915  26.073  27.237  1.00  0.00     0.074 A 
ATOM     37  C   UNL A   1      40.785  26.594  28.382  1.00  0.00     0.049 A 
ATOM     38  N   UNL A   1      43.591  27.173  27.449  1.00  0.00    -0.248 NA
ATOM     39  C   UNL A   1      43.651  25.047  26.486  1.00  0.00     0.031 C 
ATOM     40  C   UNL A   1      39.439  26.341  28.902  1.00  0.00     0.029 A 
ATOM     41  N   UNL A   1      41.064  27.871  28.798  1.00  0.00    -0.354 N 
ATOM     42  C   UNL A   1      44.836  26.971  26.865  1.00  0.00     0.074 A 
ATOM     43  C   UNL A   1      44.837  25.620  26.341  1.00  0.00     0.031 C 
ATOM     44  C   UNL A   1      39.005  27.432  29.551  1.00  0.00     0.029 A 
ATOM     45  C   UNL A   1      40.053  28.447  29.533  1.00  0.00     0.049 A 
ATOM     46  H   UNL A   1      41.908  28.333  28.589  1.00  0.00     0.167 HD
ATOM     47  C   UNL A   1      45.873  27.838  26.759  1.00  0.00     0.034 A 
ATOM     48  C   UNL A   1      39.985  29.649  30.136  1.00  0.00     0.034 A 
ATOM     49  C   UNL A   1      45.853  29.183  27.282  1.00  0.00     0.049 A 
ATOM     50  C   UNL A   1      41.158  30.587  30.023  1.00  0.00     0.074 A 
ATOM     51  C   UNL A   1      46.823  30.165  27.178  1.00  0.00     0.029 A 
ATOM     52  N   UNL A   1      44.811  29.735  28.018  1.00  0.00    -0.354 N 
ATOM     53  N   UNL A   1      42.309  30.401  29.420  1.00  0.00    -0.248 NA
ATOM     54  C   UNL A   1      41.019  31.901  30.666  1.00  0.00     0.031 C 
ATOM     55  C   UNL A   1      46.396  31.285  27.901  1.00  0.00     0.029 A 
ATOM     56  C   UNL A   1      45.128  31.030  28.401  1.00  0.00     0.049 A 
ATOM     57  H   UNL A   1      43.969  29.273  28.237  1.00  0.00     0.167 HD
ATOM     58  C   UNL A   1      43.021  31.585  29.589  1.00  0.00     0.074 A 
ATOM     59  C   UNL A   1      42.163  32.482  30.337  1.00  0.00     0.031 C 
ATOM     60  C   UNL A   1      44.270  31.904  29.163  1.00  0.00     0.034 A 
BRANCH  47  61
ATOM     61  C   UNL A   1      47.124  27.342  26.073  1.00  0.00     0.023 A 
ATOM     62  C   UNL A   1      48.136  26.673  26.783  1.00  0.00     0.031 A 
ATOM     63  C   UNL A   1      47.319  27.561  24.698  1.00  0.00     0.131 A 
ATOM     64  C   UNL A   1      49.329  26.317  26.134  1.00  0.00     0.055 A 
ATOM     65  C   UNL A   1      48.474  27.133  24.041  1.00  0.00     0.041 A 
ATOM     66  F   UNL A   1      46.396  28.212  23.972  1.00  0.00    -0.206 F 
ATOM     67  C   UNL A   1      49.494  26.520  24.762  1.00  0.00     0.022 A 
BRANCH  64  68
ATOM     68  S   UNL A   1      50.713  25.712  27.137  1.00  0.00     0.124 S 
ATOM     69  O   UNL A   1      50.737  26.689  28.224  1.00  0.00    -0.237 OA
ATOM     70  O   UNL A   1      50.279  24.368  27.497  1.00  0.00    -0.237 OA
ATOM     71  O   UNL A   1      51.852  25.778  26.225  1.00  0.00    -0.744 OA
ENDBRANCH  64  68
ENDBRANCH  47  61
BRANCH  48  72
ATOM     72  C   UNL A   1      38.774  30.035  30.913  1.00  0.00     0.023 A 
ATOM     73  C   UNL A   1      37.790  30.864  30.352  1.00  0.00     0.031 A 
ATOM     74  C   UNL A   1      38.602  29.611  32.243  1.00  0.00     0.131 A 
ATOM     75  C   UNL A   1      36.699  31.280  31.131  1.00  0.00     0.055 A 
ATOM     76  C   UNL A   1      37.490  29.989  32.998  1.00  0.00     0.041 A 
ATOM     77  F   UNL A   1      39.510  28.811  32.824  1.00  0.00    -0.206 F 
ATOM     78  C   UNL A   1      36.536  30.839  32.445  1.00  0.00     0.022 A 
BRANCH  75  79
ATOM     79  S   UNL A   1      35.531  32.471  30.420  1.00  0.00     0.124 S 
ATOM     80  O   UNL A   1      35.328  31.928  29.082  1.00  0.00    -0.237 OA
ATOM     81  O   UNL A   1      34.398  32.366  31.335  1.00  0.00    -0.237 OA
ATOM     82  O   UNL A   1      36.259  33.737  30.476  1.00  0.00    -0.744 OA
ENDBRANCH  75  79
ENDBRANCH  48  72
BRANCH  60  83
ATOM     83  C   UNL A   1      44.758  33.298  29.473  1.00  0.00     0.023 A 
ATOM     84  C   UNL A   1      44.408  34.397  28.668  1.00  0.00     0.031 A 
ATOM     85  C   UNL A   1      45.601  33.523  30.575  1.00  0.00     0.131 A 
ATOM     86  C   UNL A   1      44.944  35.663  28.945  1.00  0.00     0.055 A 
ATOM     87  C   UNL A   1      46.086  34.796  30.879  1.00  0.00     0.041 A 
ATOM     88  F   UNL A   1      45.968  32.509  31.374  1.00  0.00    -0.206 F 
ATOM     89  C   UNL A   1      45.769  35.872  30.055  1.00  0.00     0.022 A 
BRANCH  86  90
ATOM     90  S   UNL A   1      44.620  37.019  27.786  1.00  0.00     0.124 S 
ATOM     91  O   UNL A   1      45.960  37.553  27.562  1.00  0.00    -0.237 OA
ATOM     92  O   UNL A   1      44.014  36.326  26.655  1.00  0.00    -0.237 OA
ATOM     93  O   UNL A   1      43.719  37.898  28.529  1.00  0.00    -0.744 OA
ENDBRANCH  86  90
ENDBRANCH  60  83
ENDBRANCH  34  35
ENDBRANCH  26  29
ENDBRANCH  24  25
ENDBRANCH  23  24
ENDBRANCH  22  23
ENDBRANCH   1  22
TORSDOF 21
ENDMDL
