MODEL 1
REMARK VINA RESULT:     -12.6      0.000      0.000
REMARK SMILES COc1ccc(NC(=O)c2nn(C)cc2C(=O)NCCCCNC(=O)c2ccc(-c3c4nc(c(-c5cc(S(=O)(=O)[O-])ccc5F)c5ccc([nH]5)c(-c5cc(S(=O)(=O)[O-])ccc5F)c5nc(c(-c6cc(S(=O)(=O)[O-])ccc6F)c6ccc3[nH]6)C=C5)C=C4)cc2)c(C)c1
REMARK SMILES IDX 20 1 19 2 18 3 16 4 17 5 15 7 10 8 11 9 12 10 14 11 13 12
REMARK SMILES IDX 8 13 7 14 9 16 6 17 3 18 4 19 91 20 5 21 89 22 90 23 2 24
REMARK SMILES IDX 1 25 21 26 22 27 23 28 24 29 25 31 26 32 27 33 88 34 28 35
REMARK SMILES IDX 87 36 29 37 30 38 31 39 81 40 32 41 86 42 80 43 82 44 33 45
REMARK SMILES IDX 85 46 79 47 78 48 34 50 66 51 46 52 65 53 47 54 50 55 64 56
REMARK SMILES IDX 83 57 48 58 49 59 63 61 84 62 51 63 35 64 36 65 44 66 37 67
REMARK SMILES IDX 43 68 45 69 42 70 38 71 39 72 40 73 41 74 67 75 68 76 76 77
REMARK SMILES IDX 69 78 75 79 77 80 74 81 70 82 71 83 72 84 73 85 52 86 53 87
REMARK SMILES IDX 61 88 54 89 60 90 62 91 59 92 55 93 56 94 57 95 58 96
REMARK H PARENT 18 6 7 15 23 30 82 49 50 60
REMARK Flexibility Score: inf
ROOT
ATOM      1  C   UNL A   1      33.083  29.222  26.442  1.00  0.00     0.023 C 
ENDROOT
BRANCH   1   2
ATOM      2  C   UNL A   1      34.086  28.305  25.732  1.00  0.00     0.116 C 
BRANCH   2   3
ATOM      3  N   UNL A   1      33.983  26.898  26.107  1.00  0.00    -0.352 N 
ATOM      4  C   UNL A   1      33.158  25.858  25.727  1.00  0.00     0.255 C 
ATOM      5  O   UNL A   1      33.388  24.762  26.214  1.00  0.00    -0.269 OA
ATOM      6  H   UNL A   1      34.651  26.632  26.779  1.00  0.00     0.163 HD
BRANCH   4   7
ATOM      7  C   UNL A   1      32.016  26.061  24.842  1.00  0.00     0.090 A 
ATOM      8  C   UNL A   1      32.039  26.031  23.397  1.00  0.00     0.163 A 
ATOM      9  N   UNL A   1      30.797  26.178  22.885  1.00  0.00    -0.167 NA
ATOM     10  N   UNL A   1      30.018  26.341  23.959  1.00  0.00    -0.274 N 
ATOM     11  C   UNL A   1      30.705  26.376  25.131  1.00  0.00     0.123 A 
ATOM     12  C   UNL A   1      28.585  26.392  23.805  1.00  0.00     0.173 C 
BRANCH   8  13
ATOM     13  C   UNL A   1      33.176  25.845  22.484  1.00  0.00     0.277 C 
ATOM     14  N   UNL A   1      33.844  24.639  22.385  1.00  0.00    -0.320 N 
ATOM     15  H   UNL A   1      34.646  24.678  21.816  1.00  0.00     0.170 HD
ATOM     16  O   UNL A   1      33.579  26.763  21.761  1.00  0.00    -0.267 OA
BRANCH  14  17
ATOM     17  C   UNL A   1      33.605  23.367  22.934  1.00  0.00     0.044 A 
ATOM     18  C   UNL A   1      33.008  20.946  24.263  1.00  0.00     0.119 A 
ATOM     19  C   UNL A   1      32.132  21.460  23.319  1.00  0.00     0.048 A 
ATOM     20  C   UNL A   1      34.224  21.596  24.473  1.00  0.00     0.052 A 
ATOM     21  C   UNL A   1      32.441  22.647  22.651  1.00  0.00     0.030 A 
ATOM     22  C   UNL A   1      34.555  22.790  23.799  1.00  0.00    -0.024 A 
ATOM     23  C   UNL A   1      35.934  23.340  24.052  1.00  0.00     0.047 C 
BRANCH  18  24
ATOM     24  O   UNL A   1      32.807  19.826  25.019  1.00  0.00    -0.497 OA
ATOM     25  C   UNL A   1      32.629  18.607  24.307  1.00  0.00     0.278 C 
ENDBRANCH  18  24
ENDBRANCH  14  17
ENDBRANCH   8  13
ENDBRANCH   4   7
ENDBRANCH   2   3
ENDBRANCH   1   2
BRANCH   1  26
ATOM     26  C   UNL A   1      33.613  30.604  26.821  1.00  0.00     0.023 C 
BRANCH  26  27
ATOM     27  C   UNL A   1      34.308  30.685  28.175  1.00  0.00     0.116 C 
BRANCH  27  28
ATOM     28  N   UNL A   1      35.403  31.646  28.269  1.00  0.00    -0.352 N 
ATOM     29  C   UNL A   1      36.741  31.429  28.574  1.00  0.00     0.251 C 
ATOM     30  H   UNL A   1      35.158  32.583  28.092  1.00  0.00     0.163 HD
ATOM     31  O   UNL A   1      37.498  32.371  28.794  1.00  0.00    -0.269 OA
BRANCH  29  32
ATOM     32  C   UNL A   1      37.300  30.056  28.476  1.00  0.00     0.039 A 
ATOM     33  C   UNL A   1      37.260  29.267  29.636  1.00  0.00     0.014 A 
ATOM     34  C   UNL A   1      38.141  29.717  27.428  1.00  0.00     0.014 A 
ATOM     35  C   UNL A   1      38.284  28.360  29.873  1.00  0.00     0.010 A 
ATOM     36  C   UNL A   1      39.242  28.954  27.726  1.00  0.00     0.010 A 
ATOM     37  C   UNL A   1      39.342  28.338  28.977  1.00  0.00    -0.014 A 
BRANCH  37  38
ATOM     38  C   UNL A   1      40.644  27.755  29.242  1.00  0.00     0.031 A 
ATOM     39  C   UNL A   1      40.871  26.358  28.843  1.00  0.00     0.074 A 
ATOM     40  C   UNL A   1      41.652  28.582  29.598  1.00  0.00     0.049 A 
ATOM     41  N   UNL A   1      41.931  25.686  29.098  1.00  0.00    -0.248 NA
ATOM     42  C   UNL A   1      39.861  25.580  28.130  1.00  0.00     0.031 C 
ATOM     43  C   UNL A   1      43.089  28.340  29.515  1.00  0.00     0.029 A 
ATOM     44  N   UNL A   1      41.542  29.750  30.355  1.00  0.00    -0.354 N 
ATOM     45  C   UNL A   1      41.888  24.530  28.352  1.00  0.00     0.074 A 
ATOM     46  C   UNL A   1      40.544  24.471  27.842  1.00  0.00     0.031 C 
ATOM     47  C   UNL A   1      43.715  29.137  30.397  1.00  0.00     0.029 A 
ATOM     48  C   UNL A   1      42.682  29.787  31.183  1.00  0.00     0.049 A 
ATOM     49  H   UNL A   1      40.815  30.413  30.318  1.00  0.00     0.167 HD
ATOM     50  C   UNL A   1      43.054  23.852  28.165  1.00  0.00     0.034 A 
ATOM     51  C   UNL A   1      42.542  29.652  32.536  1.00  0.00     0.034 A 
ATOM     52  C   UNL A   1      44.083  24.374  29.072  1.00  0.00     0.049 A 
ATOM     53  C   UNL A   1      43.199  28.395  33.068  1.00  0.00     0.074 A 
ATOM     54  C   UNL A   1      45.154  25.236  28.909  1.00  0.00     0.029 A 
ATOM     55  N   UNL A   1      43.862  24.280  30.444  1.00  0.00    -0.354 N 
ATOM     56  N   UNL A   1      43.482  27.344  32.343  1.00  0.00    -0.248 NA
ATOM     57  C   UNL A   1      43.645  28.254  34.449  1.00  0.00     0.031 C 
ATOM     58  C   UNL A   1      45.500  25.743  30.195  1.00  0.00     0.029 A 
ATOM     59  C   UNL A   1      44.675  25.152  31.138  1.00  0.00     0.049 A 
ATOM     60  H   UNL A   1      43.210  23.671  30.863  1.00  0.00     0.167 HD
ATOM     61  C   UNL A   1      44.155  26.420  33.105  1.00  0.00     0.074 A 
ATOM     62  C   UNL A   1      44.235  27.047  34.415  1.00  0.00     0.031 C 
ATOM     63  C   UNL A   1      44.601  25.227  32.594  1.00  0.00     0.034 A 
BRANCH  50  64
ATOM     64  C   UNL A   1      43.353  22.908  27.017  1.00  0.00     0.023 A 
ATOM     65  C   UNL A   1      42.787  21.614  27.052  1.00  0.00     0.031 A 
ATOM     66  C   UNL A   1      44.227  23.139  25.933  1.00  0.00     0.131 A 
ATOM     67  C   UNL A   1      43.132  20.626  26.107  1.00  0.00     0.055 A 
ATOM     68  C   UNL A   1      44.580  22.155  25.000  1.00  0.00     0.041 A 
ATOM     69  F   UNL A   1      44.779  24.329  25.690  1.00  0.00    -0.206 F 
ATOM     70  C   UNL A   1      44.040  20.885  25.088  1.00  0.00     0.022 A 
BRANCH  67  71
ATOM     71  S   UNL A   1      42.394  18.977  26.246  1.00  0.00     0.124 S 
ATOM     72  O   UNL A   1      41.045  19.202  25.739  1.00  0.00    -0.237 OA
ATOM     73  O   UNL A   1      43.275  18.172  25.409  1.00  0.00    -0.237 OA
ATOM     74  O   UNL A   1      42.475  18.690  27.678  1.00  0.00    -0.744 OA
ENDBRANCH  67  71
ENDBRANCH  50  64
BRANCH  51  75
ATOM     75  C   UNL A   1      41.297  30.312  33.038  1.00  0.00     0.023 A 
ATOM     76  C   UNL A   1      41.292  31.727  33.013  1.00  0.00     0.031 A 
ATOM     77  C   UNL A   1      40.059  29.657  33.048  1.00  0.00     0.131 A 
ATOM     78  C   UNL A   1      40.100  32.427  32.779  1.00  0.00     0.055 A 
ATOM     79  C   UNL A   1      38.859  30.373  32.905  1.00  0.00     0.041 A 
ATOM     80  F   UNL A   1      39.992  28.317  33.041  1.00  0.00    -0.206 F 
ATOM     81  C   UNL A   1      38.879  31.757  32.711  1.00  0.00     0.022 A 
BRANCH  78  82
ATOM     82  S   UNL A   1      40.227  34.176  32.290  1.00  0.00     0.124 S 
ATOM     83  O   UNL A   1      40.924  34.086  31.012  1.00  0.00    -0.237 OA
ATOM     84  O   UNL A   1      38.825  34.589  32.222  1.00  0.00    -0.237 OA
ATOM     85  O   UNL A   1      40.985  34.791  33.375  1.00  0.00    -0.744 OA
ENDBRANCH  78  82
ENDBRANCH  51  75
BRANCH  63  86
ATOM     86  C   UNL A   1      45.092  24.036  33.405  1.00  0.00     0.023 A 
ATOM     87  C   UNL A   1      46.402  23.916  33.885  1.00  0.00     0.031 A 
ATOM     88  C   UNL A   1      44.211  22.994  33.800  1.00  0.00     0.131 A 
ATOM     89  C   UNL A   1      46.818  22.786  34.614  1.00  0.00     0.055 A 
ATOM     90  C   UNL A   1      44.601  21.921  34.608  1.00  0.00     0.041 A 
ATOM     91  F   UNL A   1      42.922  22.971  33.432  1.00  0.00    -0.206 F 
ATOM     92  C   UNL A   1      45.921  21.800  35.005  1.00  0.00     0.022 A 
BRANCH  89  93
ATOM     93  S   UNL A   1      48.586  22.607  34.959  1.00  0.00     0.124 S 
ATOM     94  O   UNL A   1      48.663  23.048  36.350  1.00  0.00    -0.237 OA
ATOM     95  O   UNL A   1      48.807  21.183  34.735  1.00  0.00    -0.237 OA
ATOM     96  O   UNL A   1      49.219  23.497  33.990  1.00  0.00    -0.744 OA
ENDBRANCH  89  93
ENDBRANCH  63  86
ENDBRANCH  37  38
ENDBRANCH  29  32
ENDBRANCH  27  28
ENDBRANCH  26  27
ENDBRANCH   1  26
TORSDOF 17
ENDMDL
MODEL 2
REMARK VINA RESULT:     -12.5      1.354      2.848
REMARK SMILES COc1ccc(NC(=O)c2nn(C)cc2C(=O)NCCCCNC(=O)c2ccc(-c3c4nc(c(-c5cc(S(=O)(=O)[O-])ccc5F)c5ccc([nH]5)c(-c5cc(S(=O)(=O)[O-])ccc5F)c5nc(c(-c6cc(S(=O)(=O)[O-])ccc6F)c6ccc3[nH]6)C=C5)C=C4)cc2)c(C)c1
REMARK SMILES IDX 20 1 19 2 18 3 16 4 17 5 15 7 10 8 11 9 12 10 14 11 13 12
REMARK SMILES IDX 8 13 7 14 9 16 6 17 3 18 4 19 91 20 5 21 89 22 90 23 2 24
REMARK SMILES IDX 1 25 21 26 22 27 23 28 24 29 25 31 26 32 27 33 88 34 28 35
REMARK SMILES IDX 87 36 29 37 30 38 31 39 81 40 32 41 86 42 80 43 82 44 33 45
REMARK SMILES IDX 85 46 79 47 78 48 34 50 66 51 46 52 65 53 47 54 50 55 64 56
REMARK SMILES IDX 83 57 48 58 49 59 63 61 84 62 51 63 35 64 36 65 44 66 37 67
REMARK SMILES IDX 43 68 45 69 42 70 38 71 39 72 40 73 41 74 67 75 68 76 76 77
REMARK SMILES IDX 69 78 75 79 77 80 74 81 70 82 71 83 72 84 73 85 52 86 53 87
REMARK SMILES IDX 61 88 54 89 60 90 62 91 59 92 55 93 56 94 57 95 58 96
REMARK H PARENT 18 6 7 15 23 30 82 49 50 60
REMARK Flexibility Score: inf
ROOT
ATOM      1  C   UNL A   1      34.040  28.119  26.331  1.00  0.00     0.023 C 
ENDROOT
BRANCH   1   2
ATOM      2  C   UNL A   1      33.192  27.366  25.298  1.00  0.00     0.116 C 
BRANCH   2   3
ATOM      3  N   UNL A   1      33.966  26.575  24.347  1.00  0.00    -0.352 N 
ATOM      4  C   UNL A   1      34.131  25.221  24.129  1.00  0.00     0.255 C 
ATOM      5  O   UNL A   1      34.832  24.894  23.184  1.00  0.00    -0.269 OA
ATOM      6  H   UNL A   1      34.485  27.130  23.722  1.00  0.00     0.163 HD
BRANCH   4   7
ATOM      7  C   UNL A   1      33.560  24.219  25.022  1.00  0.00     0.090 A 
ATOM      8  C   UNL A   1      32.644  23.165  24.649  1.00  0.00     0.163 A 
ATOM      9  N   UNL A   1      32.369  22.361  25.699  1.00  0.00    -0.167 NA
ATOM     10  N   UNL A   1      33.046  22.907  26.715  1.00  0.00    -0.274 N 
ATOM     11  C   UNL A   1      33.686  24.060  26.386  1.00  0.00     0.123 A 
ATOM     12  C   UNL A   1      33.102  22.230  27.987  1.00  0.00     0.173 C 
BRANCH   8  13
ATOM     13  C   UNL A   1      32.039  22.871  23.341  1.00  0.00     0.277 C 
ATOM     14  N   UNL A   1      31.221  23.779  22.695  1.00  0.00    -0.320 N 
ATOM     15  H   UNL A   1      30.801  23.421  21.880  1.00  0.00     0.170 HD
ATOM     16  O   UNL A   1      32.244  21.799  22.762  1.00  0.00    -0.267 OA
BRANCH  14  17
ATOM     17  C   UNL A   1      30.870  25.113  22.970  1.00  0.00     0.044 A 
ATOM     18  C   UNL A   1      29.936  27.751  23.349  1.00  0.00     0.119 A 
ATOM     19  C   UNL A   1      29.607  26.756  24.257  1.00  0.00     0.048 A 
ATOM     20  C   UNL A   1      30.807  27.445  22.304  1.00  0.00     0.052 A 
ATOM     21  C   UNL A   1      30.087  25.457  24.075  1.00  0.00     0.030 A 
ATOM     22  C   UNL A   1      31.308  26.140  22.113  1.00  0.00    -0.024 A 
ATOM     23  C   UNL A   1      32.307  25.966  20.999  1.00  0.00     0.047 C 
BRANCH  18  24
ATOM     24  O   UNL A   1      29.497  29.045  23.383  1.00  0.00    -0.497 OA
ATOM     25  C   UNL A   1      28.522  29.407  22.411  1.00  0.00     0.278 C 
ENDBRANCH  18  24
ENDBRANCH  14  17
ENDBRANCH   8  13
ENDBRANCH   4   7
ENDBRANCH   2   3
ENDBRANCH   1   2
BRANCH   1  26
ATOM     26  C   UNL A   1      33.992  29.642  26.233  1.00  0.00     0.023 C 
BRANCH  26  27
ATOM     27  C   UNL A   1      33.920  30.377  27.567  1.00  0.00     0.116 C 
BRANCH  27  28
ATOM     28  N   UNL A   1      34.957  31.379  27.796  1.00  0.00    -0.352 N 
ATOM     29  C   UNL A   1      36.231  31.221  28.329  1.00  0.00     0.251 C 
ATOM     30  H   UNL A   1      34.721  32.298  27.535  1.00  0.00     0.163 HD
ATOM     31  O   UNL A   1      36.914  32.197  28.626  1.00  0.00    -0.269 OA
BRANCH  29  32
ATOM     32  C   UNL A   1      36.835  29.865  28.392  1.00  0.00     0.039 A 
ATOM     33  C   UNL A   1      36.887  29.249  29.651  1.00  0.00     0.014 A 
ATOM     34  C   UNL A   1      37.630  29.406  27.354  1.00  0.00     0.014 A 
ATOM     35  C   UNL A   1      37.957  28.415  29.952  1.00  0.00     0.010 A 
ATOM     36  C   UNL A   1      38.773  28.726  27.690  1.00  0.00     0.010 A 
ATOM     37  C   UNL A   1      38.964  28.297  29.007  1.00  0.00    -0.014 A 
BRANCH  37  38
ATOM     38  C   UNL A   1      40.299  27.797  29.275  1.00  0.00     0.031 A 
ATOM     39  C   UNL A   1      40.618  26.422  28.861  1.00  0.00     0.074 A 
ATOM     40  C   UNL A   1      41.250  28.683  29.645  1.00  0.00     0.049 A 
ATOM     41  N   UNL A   1      41.718  25.817  29.116  1.00  0.00    -0.248 NA
ATOM     42  C   UNL A   1      39.665  25.588  28.134  1.00  0.00     0.031 C 
ATOM     43  C   UNL A   1      42.700  28.535  29.568  1.00  0.00     0.029 A 
ATOM     44  N   UNL A   1      41.061  29.833  30.414  1.00  0.00    -0.354 N 
ATOM     45  C   UNL A   1      41.755  24.669  28.357  1.00  0.00     0.074 A 
ATOM     46  C   UNL A   1      40.420  24.529  27.838  1.00  0.00     0.031 C 
ATOM     47  C   UNL A   1      43.268  29.361  30.463  1.00  0.00     0.029 A 
ATOM     48  C   UNL A   1      42.192  29.935  31.250  1.00  0.00     0.049 A 
ATOM     49  H   UNL A   1      40.293  30.448  30.380  1.00  0.00     0.167 HD
ATOM     50  C   UNL A   1      42.963  24.069  28.170  1.00  0.00     0.034 A 
ATOM     51  C   UNL A   1      42.053  29.776  32.600  1.00  0.00     0.034 A 
ATOM     52  C   UNL A   1      43.950  24.647  29.089  1.00  0.00     0.049 A 
ATOM     53  C   UNL A   1      42.787  28.558  33.123  1.00  0.00     0.074 A 
ATOM     54  C   UNL A   1      44.964  25.578  28.942  1.00  0.00     0.029 A 
ATOM     55  N   UNL A   1      43.728  24.523  30.458  1.00  0.00    -0.354 N 
ATOM     56  N   UNL A   1      43.142  27.536  32.388  1.00  0.00    -0.248 NA
ATOM     57  C   UNL A   1      43.233  28.431  34.505  1.00  0.00     0.031 C 
ATOM     58  C   UNL A   1      45.270  26.092  30.236  1.00  0.00     0.029 A 
ATOM     59  C   UNL A   1      44.480  25.439  31.167  1.00  0.00     0.049 A 
ATOM     60  H   UNL A   1      43.116  23.869  30.867  1.00  0.00     0.167 HD
ATOM     61  C   UNL A   1      43.868  26.648  33.144  1.00  0.00     0.074 A 
ATOM     62  C   UNL A   1      43.900  27.264  34.461  1.00  0.00     0.031 C 
ATOM     63  C   UNL A   1      44.394  25.492  32.623  1.00  0.00     0.034 A 
BRANCH  50  64
ATOM     64  C   UNL A   1      43.329  23.159  27.014  1.00  0.00     0.023 A 
ATOM     65  C   UNL A   1      42.840  21.834  27.027  1.00  0.00     0.031 A 
ATOM     66  C   UNL A   1      44.198  23.456  25.942  1.00  0.00     0.131 A 
ATOM     67  C   UNL A   1      43.253  20.881  26.074  1.00  0.00     0.055 A 
ATOM     68  C   UNL A   1      44.618  22.506  25.001  1.00  0.00     0.041 A 
ATOM     69  F   UNL A   1      44.680  24.680  25.719  1.00  0.00    -0.206 F 
ATOM     70  C   UNL A   1      44.153  21.206  25.068  1.00  0.00     0.022 A 
BRANCH  67  71
ATOM     71  S   UNL A   1      42.612  19.189  26.186  1.00  0.00     0.124 S 
ATOM     72  O   UNL A   1      42.360  19.050  27.616  1.00  0.00    -0.237 OA
ATOM     73  O   UNL A   1      41.438  19.246  25.323  1.00  0.00    -0.237 OA
ATOM     74  O   UNL A   1      43.714  18.376  25.671  1.00  0.00    -0.744 OA
ENDBRANCH  67  71
ENDBRANCH  50  64
BRANCH  51  75
ATOM     75  C   UNL A   1      40.765  30.348  33.101  1.00  0.00     0.023 A 
ATOM     76  C   UNL A   1      40.693  31.760  33.152  1.00  0.00     0.031 A 
ATOM     77  C   UNL A   1      39.560  29.637  33.041  1.00  0.00     0.131 A 
ATOM     78  C   UNL A   1      39.475  32.416  32.923  1.00  0.00     0.055 A 
ATOM     79  C   UNL A   1      38.331  30.302  32.903  1.00  0.00     0.041 A 
ATOM     80  F   UNL A   1      39.558  28.298  32.960  1.00  0.00    -0.206 F 
ATOM     81  C   UNL A   1      38.290  31.694  32.784  1.00  0.00     0.022 A 
BRANCH  78  82
ATOM     82  S   UNL A   1      39.530  34.193  32.532  1.00  0.00     0.124 S 
ATOM     83  O   UNL A   1      39.112  34.797  33.791  1.00  0.00    -0.237 OA
ATOM     84  O   UNL A   1      40.932  34.393  32.164  1.00  0.00    -0.237 OA
ATOM     85  O   UNL A   1      38.590  34.339  31.424  1.00  0.00    -0.744 OA
ENDBRANCH  78  82
ENDBRANCH  51  75
BRANCH  63  86
ATOM     86  C   UNL A   1      44.956  24.327  33.425  1.00  0.00     0.023 A 
ATOM     87  C   UNL A   1      46.293  24.244  33.834  1.00  0.00     0.031 A 
ATOM     88  C   UNL A   1      44.123  23.272  33.883  1.00  0.00     0.131 A 
ATOM     89  C   UNL A   1      46.774  23.137  34.556  1.00  0.00     0.055 A 
ATOM     90  C   UNL A   1      44.582  22.221  34.685  1.00  0.00     0.041 A 
ATOM     91  F   UNL A   1      42.817  23.213  33.588  1.00  0.00    -0.206 F 
ATOM     92  C   UNL A   1      45.923  22.137  35.011  1.00  0.00     0.022 A 
BRANCH  89  93
ATOM     93  S   UNL A   1      48.562  23.004  34.806  1.00  0.00     0.124 S 
ATOM     94  O   UNL A   1      49.064  24.067  33.939  1.00  0.00    -0.237 OA
ATOM     95  O   UNL A   1      48.697  23.241  36.239  1.00  0.00    -0.237 OA
ATOM     96  O   UNL A   1      48.872  21.646  34.367  1.00  0.00    -0.744 OA
ENDBRANCH  89  93
ENDBRANCH  63  86
ENDBRANCH  37  38
ENDBRANCH  29  32
ENDBRANCH  27  28
ENDBRANCH  26  27
ENDBRANCH   1  26
TORSDOF 17
ENDMDL
MODEL 3
REMARK VINA RESULT:     -12.4      1.313      2.109
REMARK SMILES COc1ccc(NC(=O)c2nn(C)cc2C(=O)NCCCCNC(=O)c2ccc(-c3c4nc(c(-c5cc(S(=O)(=O)[O-])ccc5F)c5ccc([nH]5)c(-c5cc(S(=O)(=O)[O-])ccc5F)c5nc(c(-c6cc(S(=O)(=O)[O-])ccc6F)c6ccc3[nH]6)C=C5)C=C4)cc2)c(C)c1
REMARK SMILES IDX 20 1 19 2 18 3 16 4 17 5 15 7 10 8 11 9 12 10 14 11 13 12
REMARK SMILES IDX 8 13 7 14 9 16 6 17 3 18 4 19 91 20 5 21 89 22 90 23 2 24
REMARK SMILES IDX 1 25 21 26 22 27 23 28 24 29 25 31 26 32 27 33 88 34 28 35
REMARK SMILES IDX 87 36 29 37 30 38 31 39 81 40 32 41 86 42 80 43 82 44 33 45
REMARK SMILES IDX 85 46 79 47 78 48 34 50 66 51 46 52 65 53 47 54 50 55 64 56
REMARK SMILES IDX 83 57 48 58 49 59 63 61 84 62 51 63 35 64 36 65 44 66 37 67
REMARK SMILES IDX 43 68 45 69 42 70 38 71 39 72 40 73 41 74 67 75 68 76 76 77
REMARK SMILES IDX 69 78 75 79 77 80 74 81 70 82 71 83 72 84 73 85 52 86 53 87
REMARK SMILES IDX 61 88 54 89 60 90 62 91 59 92 55 93 56 94 57 95 58 96
REMARK H PARENT 18 6 7 15 23 30 82 49 50 60
REMARK Flexibility Score: inf
ROOT
ATOM      1  C   UNL A   1      32.626  29.138  26.511  1.00  0.00     0.023 C 
ENDROOT
BRANCH   1   2
ATOM      2  C   UNL A   1      32.687  27.628  26.772  1.00  0.00     0.116 C 
BRANCH   2   3
ATOM      3  N   UNL A   1      31.383  26.977  26.843  1.00  0.00    -0.352 N 
ATOM      4  C   UNL A   1      30.777  25.954  26.140  1.00  0.00     0.255 C 
ATOM      5  O   UNL A   1      29.664  25.614  26.507  1.00  0.00    -0.269 OA
ATOM      6  H   UNL A   1      30.808  27.350  27.549  1.00  0.00     0.163 HD
BRANCH   4   7
ATOM      7  C   UNL A   1      31.398  25.349  24.966  1.00  0.00     0.090 A 
ATOM      8  C   UNL A   1      31.648  23.941  24.763  1.00  0.00     0.163 A 
ATOM      9  N   UNL A   1      32.165  23.707  23.536  1.00  0.00    -0.167 NA
ATOM     10  N   UNL A   1      32.283  24.924  22.994  1.00  0.00    -0.274 N 
ATOM     11  C   UNL A   1      31.933  25.932  23.836  1.00  0.00     0.123 A 
ATOM     12  C   UNL A   1      32.678  25.060  21.614  1.00  0.00     0.173 C 
BRANCH   8  13
ATOM     13  C   UNL A   1      31.399  22.807  25.666  1.00  0.00     0.277 C 
ATOM     14  N   UNL A   1      32.421  21.986  26.105  1.00  0.00    -0.320 N 
ATOM     15  H   UNL A   1      32.107  21.207  26.619  1.00  0.00     0.170 HD
ATOM     16  O   UNL A   1      30.262  22.544  26.073  1.00  0.00    -0.267 OA
BRANCH  14  17
ATOM     17  C   UNL A   1      33.819  22.042  25.966  1.00  0.00     0.044 A 
ATOM     18  C   UNL A   1      36.582  22.275  25.429  1.00  0.00     0.119 A 
ATOM     19  C   UNL A   1      35.928  23.253  26.162  1.00  0.00     0.048 A 
ATOM     20  C   UNL A   1      35.873  21.137  25.045  1.00  0.00     0.052 A 
ATOM     21  C   UNL A   1      34.565  23.123  26.442  1.00  0.00     0.030 A 
ATOM     22  C   UNL A   1      34.499  20.987  25.328  1.00  0.00    -0.024 A 
ATOM     23  C   UNL A   1      33.876  19.674  24.934  1.00  0.00     0.047 C 
BRANCH  18  24
ATOM     24  O   UNL A   1      37.894  22.301  25.046  1.00  0.00    -0.497 OA
ATOM     25  C   UNL A   1      38.834  21.784  25.980  1.00  0.00     0.278 C 
ENDBRANCH  18  24
ENDBRANCH  14  17
ENDBRANCH   8  13
ENDBRANCH   4   7
ENDBRANCH   2   3
ENDBRANCH   1   2
BRANCH   1  26
ATOM     26  C   UNL A   1      33.951  29.883  26.661  1.00  0.00     0.023 C 
BRANCH  26  27
ATOM     27  C   UNL A   1      34.181  30.531  28.021  1.00  0.00     0.116 C 
BRANCH  27  28
ATOM     28  N   UNL A   1      35.257  31.517  28.080  1.00  0.00    -0.352 N 
ATOM     29  C   UNL A   1      36.597  31.338  28.403  1.00  0.00     0.251 C 
ATOM     30  H   UNL A   1      34.997  32.440  27.860  1.00  0.00     0.163 HD
ATOM     31  O   UNL A   1      37.334  32.303  28.586  1.00  0.00    -0.269 OA
BRANCH  29  32
ATOM     32  C   UNL A   1      37.182  29.974  28.370  1.00  0.00     0.039 A 
ATOM     33  C   UNL A   1      37.171  29.246  29.570  1.00  0.00     0.014 A 
ATOM     34  C   UNL A   1      38.018  29.596  27.330  1.00  0.00     0.014 A 
ATOM     35  C   UNL A   1      38.217  28.373  29.841  1.00  0.00     0.010 A 
ATOM     36  C   UNL A   1      39.137  28.872  27.654  1.00  0.00     0.010 A 
ATOM     37  C   UNL A   1      39.264  28.324  28.934  1.00  0.00    -0.014 A 
BRANCH  37  38
ATOM     38  C   UNL A   1      40.580  27.782  29.213  1.00  0.00     0.031 A 
ATOM     39  C   UNL A   1      40.857  26.395  28.808  1.00  0.00     0.074 A 
ATOM     40  C   UNL A   1      41.557  28.637  29.587  1.00  0.00     0.049 A 
ATOM     41  N   UNL A   1      41.934  25.755  29.074  1.00  0.00    -0.248 NA
ATOM     42  C   UNL A   1      39.882  25.589  28.077  1.00  0.00     0.031 C 
ATOM     43  C   UNL A   1      43.001  28.442  29.522  1.00  0.00     0.029 A 
ATOM     44  N   UNL A   1      41.400  29.797  30.350  1.00  0.00    -0.354 N 
ATOM     45  C   UNL A   1      41.938  24.603  28.320  1.00  0.00     0.074 A 
ATOM     46  C   UNL A   1      40.603  24.505  27.792  1.00  0.00     0.031 C 
ATOM     47  C   UNL A   1      43.590  29.252  30.416  1.00  0.00     0.029 A 
ATOM     48  C   UNL A   1      42.527  29.865  31.193  1.00  0.00     0.049 A 
ATOM     49  H   UNL A   1      40.653  30.437  30.307  1.00  0.00     0.167 HD
ATOM     50  C   UNL A   1      43.128  23.964  28.144  1.00  0.00     0.034 A 
ATOM     51  C   UNL A   1      42.374  29.717  32.543  1.00  0.00     0.034 A 
ATOM     52  C   UNL A   1      44.127  24.513  29.068  1.00  0.00     0.049 A 
ATOM     53  C   UNL A   1      43.064  28.478  33.076  1.00  0.00     0.074 A 
ATOM     54  C   UNL A   1      45.172  25.410  28.925  1.00  0.00     0.029 A 
ATOM     55  N   UNL A   1      43.891  24.403  30.436  1.00  0.00    -0.354 N 
ATOM     56  N   UNL A   1      43.390  27.441  32.349  1.00  0.00    -0.248 NA
ATOM     57  C   UNL A   1      43.495  28.342  34.462  1.00  0.00     0.031 C 
ATOM     58  C   UNL A   1      45.485  25.919  30.218  1.00  0.00     0.029 A 
ATOM     59  C   UNL A   1      44.667  25.296  31.146  1.00  0.00     0.049 A 
ATOM     60  H   UNL A   1      43.254  23.771  30.843  1.00  0.00     0.167 HD
ATOM     61  C   UNL A   1      44.081  26.534  33.114  1.00  0.00     0.074 A 
ATOM     62  C   UNL A   1      44.124  27.154  34.428  1.00  0.00     0.031 C 
ATOM     63  C   UNL A   1      44.572  25.359  32.602  1.00  0.00     0.034 A 
BRANCH  50  64
ATOM     64  C   UNL A   1      43.472  23.037  26.995  1.00  0.00     0.023 A 
ATOM     65  C   UNL A   1      42.899  21.746  26.984  1.00  0.00     0.031 A 
ATOM     66  C   UNL A   1      44.392  23.282  25.953  1.00  0.00     0.131 A 
ATOM     67  C   UNL A   1      43.280  20.772  26.039  1.00  0.00     0.055 A 
ATOM     68  C   UNL A   1      44.781  22.311  25.020  1.00  0.00     0.041 A 
ATOM     69  F   UNL A   1      44.959  24.473  25.754  1.00  0.00    -0.206 F 
ATOM     70  C   UNL A   1      44.232  21.043  25.064  1.00  0.00     0.022 A 
BRANCH  67  71
ATOM     71  S   UNL A   1      42.529  19.124  26.119  1.00  0.00     0.124 S 
ATOM     72  O   UNL A   1      43.502  18.309  25.399  1.00  0.00    -0.237 OA
ATOM     73  O   UNL A   1      42.432  18.899  27.556  1.00  0.00    -0.237 OA
ATOM     74  O   UNL A   1      41.248  19.304  25.436  1.00  0.00    -0.744 OA
ENDBRANCH  67  71
ENDBRANCH  50  64
BRANCH  51  75
ATOM     75  C   UNL A   1      41.102  30.334  33.033  1.00  0.00     0.023 A 
ATOM     76  C   UNL A   1      41.070  31.747  33.062  1.00  0.00     0.031 A 
ATOM     77  C   UNL A   1      39.877  29.655  32.980  1.00  0.00     0.131 A 
ATOM     78  C   UNL A   1      39.871  32.434  32.819  1.00  0.00     0.055 A 
ATOM     79  C   UNL A   1      38.668  30.354  32.829  1.00  0.00     0.041 A 
ATOM     80  F   UNL A   1      39.836  28.316  32.920  1.00  0.00    -0.206 F 
ATOM     81  C   UNL A   1      38.667  31.744  32.689  1.00  0.00     0.022 A 
BRANCH  78  82
ATOM     82  S   UNL A   1      39.978  34.202  32.401  1.00  0.00     0.124 S 
ATOM     83  O   UNL A   1      40.810  34.184  31.204  1.00  0.00    -0.237 OA
ATOM     84  O   UNL A   1      38.575  34.565  32.196  1.00  0.00    -0.237 OA
ATOM     85  O   UNL A   1      40.590  34.807  33.580  1.00  0.00    -0.744 OA
ENDBRANCH  78  82
ENDBRANCH  51  75
BRANCH  63  86
ATOM     86  C   UNL A   1      45.090  24.180  33.412  1.00  0.00     0.023 A 
ATOM     87  C   UNL A   1      46.367  24.137  33.986  1.00  0.00     0.031 A 
ATOM     88  C   UNL A   1      44.264  23.063  33.708  1.00  0.00     0.131 A 
ATOM     89  C   UNL A   1      46.812  23.016  34.710  1.00  0.00     0.055 A 
ATOM     90  C   UNL A   1      44.673  21.993  34.511  1.00  0.00     0.041 A 
ATOM     91  F   UNL A   1      43.011  22.959  33.243  1.00  0.00    -0.206 F 
ATOM     92  C   UNL A   1      45.965  21.954  35.003  1.00  0.00     0.022 A 
BRANCH  89  93
ATOM     93  S   UNL A   1      48.558  22.954  35.183  1.00  0.00     0.124 S 
ATOM     94  O   UNL A   1      49.184  22.485  33.950  1.00  0.00    -0.237 OA
ATOM     95  O   UNL A   1      48.835  24.341  35.544  1.00  0.00    -0.237 OA
ATOM     96  O   UNL A   1      48.582  22.005  36.292  1.00  0.00    -0.744 OA
ENDBRANCH  89  93
ENDBRANCH  63  86
ENDBRANCH  37  38
ENDBRANCH  29  32
ENDBRANCH  27  28
ENDBRANCH  26  27
ENDBRANCH   1  26
TORSDOF 17
ENDMDL
