MODEL 1
REMARK VINA RESULT:     -13.0      0.000      0.000
REMARK SMILES Cc1cccc2c1N=CN1C2=[NH+]NC(=O)[C@@H]1CC(=O)NCCCCNC(=O)c1ccc(-c2c3nc(c(-c4cc(S(=O)(=O)[O-])ccc4F)c4ccc([nH]4)c(-c4cc(S(=O)(=O)[O-])ccc4F)c4nc(c(-c5cc(S(=O)(=O)[O-])ccc5F)c5ccc2[nH]5)C=C4)C=C3)cc1
REMARK SMILES IDX 23 1 22 2 21 3 20 4 18 5 19 6 17 8 16 9 1 10 2 11 3 12 7 13
REMARK SMILES IDX 4 14 6 15 8 16 5 17 11 18 9 19 10 20 12 21 13 22 14 24 15 26
REMARK SMILES IDX 24 27 25 28 26 29 27 31 28 32 29 33 90 34 30 35 89 36 31 37
REMARK SMILES IDX 32 38 33 39 83 40 34 41 88 42 82 43 84 44 35 45 87 46 81 47
REMARK SMILES IDX 80 48 36 50 68 51 48 52 67 53 49 54 52 55 66 56 85 57 50 58
REMARK SMILES IDX 51 59 65 61 86 62 53 63 37 64 38 65 46 66 39 67 45 68 47 69
REMARK SMILES IDX 44 70 40 71 41 72 42 73 43 74 69 75 70 76 78 77 71 78 77 79
REMARK SMILES IDX 79 80 76 81 72 82 73 83 74 84 75 85 54 86 55 87 63 88 56 89
REMARK SMILES IDX 62 90 64 91 61 92 57 93 58 94 59 95 60 96
REMARK H PARENT 20 7 12 23 13 25 25 30 84 49 52 60
REMARK Flexibility Score: inf
ROOT
ATOM      1  C   UNL A   1      34.819  21.818  25.946  1.00  0.00     0.023 C 
ENDROOT
BRANCH   1   2
ATOM      2  C   UNL A   1      34.551  20.888  24.781  1.00  0.00     0.023 C 
BRANCH   2   3
ATOM      3  C   UNL A   1      33.357  21.212  23.905  1.00  0.00     0.116 C 
BRANCH   3   4
ATOM      4  N   UNL A   1      32.244  21.640  24.721  1.00  0.00    -0.356 N 
ATOM      5  C   UNL A   1      31.470  22.755  24.610  1.00  0.00     0.224 C 
ATOM      6  O   UNL A   1      30.574  22.919  25.437  1.00  0.00    -0.275 OA
ATOM      7  H   UNL A   1      32.011  21.038  25.464  1.00  0.00     0.163 HD
BRANCH   5   8
ATOM      8  C   UNL A   1      31.636  23.704  23.434  1.00  0.00     0.160 C 
BRANCH   8   9
ATOM      9  C   UNL A   1      32.237  25.103  23.675  1.00  0.00     0.284 C 
ATOM     10  C   UNL A   1      26.685  28.319  23.490  1.00  0.00     0.047 C 
ATOM     11  C   UNL A   1      28.048  28.736  23.013  1.00  0.00    -0.024 A 
ATOM     12  C   UNL A   1      28.154  29.779  22.076  1.00  0.00     0.006 A 
ATOM     13  C   UNL A   1      29.200  28.016  23.387  1.00  0.00     0.085 A 
ATOM     14  C   UNL A   1      29.387  30.130  21.528  1.00  0.00     0.001 A 
ATOM     15  C   UNL A   1      30.427  28.342  22.769  1.00  0.00     0.092 A 
ATOM     16  N   UNL A   1      29.075  26.933  24.293  1.00  0.00    -0.215 NA
ATOM     17  C   UNL A   1      30.528  29.409  21.868  1.00  0.00     0.019 A 
ATOM     18  C   UNL A   1      31.545  27.351  22.907  1.00  0.00     0.309 C 
ATOM     19  C   UNL A   1      30.081  26.123  24.363  1.00  0.00     0.317 C 
ATOM     20  N   UNL A   1      31.250  26.206  23.641  1.00  0.00    -0.203 N 
ATOM     21  N   UNL A   1      32.650  27.584  22.265  1.00  0.00    -0.169 N 
ATOM     22  N   UNL A   1      33.588  26.609  22.251  1.00  0.00    -0.193 N 
ATOM     23  H   UNL A   1      32.800  28.442  21.805  1.00  0.00     0.340 HD
ATOM     24  C   UNL A   1      33.473  25.371  22.823  1.00  0.00     0.300 C 
ATOM     25  H   UNL A   1      34.434  26.809  21.786  1.00  0.00     0.216 HD
ATOM     26  O   UNL A   1      34.390  24.556  22.724  1.00  0.00    -0.267 OA
ENDBRANCH   8   9
ENDBRANCH   5   8
ENDBRANCH   3   4
ENDBRANCH   2   3
ENDBRANCH   1   2
BRANCH   1  27
ATOM     27  C   UNL A   1      36.264  22.263  26.054  1.00  0.00     0.116 C 
BRANCH  27  28
ATOM     28  N   UNL A   1      37.230  21.210  25.739  1.00  0.00    -0.352 N 
ATOM     29  C   UNL A   1      38.594  21.241  25.912  1.00  0.00     0.251 C 
ATOM     30  H   UNL A   1      36.859  20.381  25.360  1.00  0.00     0.163 HD
ATOM     31  O   UNL A   1      39.313  20.316  25.548  1.00  0.00    -0.269 OA
BRANCH  29  32
ATOM     32  C   UNL A   1      39.169  22.451  26.518  1.00  0.00     0.039 A 
ATOM     33  C   UNL A   1      40.224  22.321  27.421  1.00  0.00     0.014 A 
ATOM     34  C   UNL A   1      38.769  23.702  26.040  1.00  0.00     0.014 A 
ATOM     35  C   UNL A   1      40.940  23.457  27.795  1.00  0.00     0.010 A 
ATOM     36  C   UNL A   1      39.538  24.813  26.341  1.00  0.00     0.010 A 
ATOM     37  C   UNL A   1      40.622  24.700  27.226  1.00  0.00    -0.014 A 
BRANCH  37  38
ATOM     38  C   UNL A   1      41.364  25.932  27.574  1.00  0.00     0.031 A 
ATOM     39  C   UNL A   1      40.668  26.974  28.398  1.00  0.00     0.074 A 
ATOM     40  C   UNL A   1      42.590  26.151  27.064  1.00  0.00     0.049 A 
ATOM     41  N   UNL A   1      41.048  28.188  28.686  1.00  0.00    -0.248 NA
ATOM     42  C   UNL A   1      39.340  26.614  28.930  1.00  0.00     0.031 C 
ATOM     43  C   UNL A   1      43.331  25.222  26.211  1.00  0.00     0.029 A 
ATOM     44  N   UNL A   1      43.421  27.238  27.173  1.00  0.00    -0.354 N 
ATOM     45  C   UNL A   1      39.998  28.744  29.404  1.00  0.00     0.074 A 
ATOM     46  C   UNL A   1      38.941  27.762  29.456  1.00  0.00     0.031 C 
ATOM     47  C   UNL A   1      44.512  25.773  25.883  1.00  0.00     0.029 A 
ATOM     48  C   UNL A   1      44.597  27.107  26.471  1.00  0.00     0.049 A 
ATOM     49  H   UNL A   1      43.197  28.037  27.704  1.00  0.00     0.167 HD
ATOM     50  C   UNL A   1      39.937  29.958  29.996  1.00  0.00     0.034 A 
ATOM     51  C   UNL A   1      45.621  27.972  26.317  1.00  0.00     0.034 A 
ATOM     52  C   UNL A   1      41.020  30.900  29.975  1.00  0.00     0.049 A 
ATOM     53  C   UNL A   1      45.547  29.309  27.013  1.00  0.00     0.074 A 
ATOM     54  C   UNL A   1      41.097  32.128  30.603  1.00  0.00     0.029 A 
ATOM     55  N   UNL A   1      42.221  30.710  29.306  1.00  0.00    -0.354 N 
ATOM     56  N   UNL A   1      44.580  29.795  27.757  1.00  0.00    -0.248 NA
ATOM     57  C   UNL A   1      46.696  30.212  26.860  1.00  0.00     0.031 C 
ATOM     58  C   UNL A   1      42.332  32.696  30.288  1.00  0.00     0.029 A 
ATOM     59  C   UNL A   1      43.043  31.804  29.498  1.00  0.00     0.049 A 
ATOM     60  H   UNL A   1      42.452  29.915  28.773  1.00  0.00     0.167 HD
ATOM     61  C   UNL A   1      45.011  31.048  28.178  1.00  0.00     0.074 A 
ATOM     62  C   UNL A   1      46.333  31.241  27.618  1.00  0.00     0.031 C 
ATOM     63  C   UNL A   1      44.370  31.960  28.951  1.00  0.00     0.034 A 
BRANCH  50  64
ATOM     64  C   UNL A   1      38.682  30.322  30.742  1.00  0.00     0.023 A 
ATOM     65  C   UNL A   1      37.676  31.071  30.110  1.00  0.00     0.031 A 
ATOM     66  C   UNL A   1      38.518  29.990  32.099  1.00  0.00     0.131 A 
ATOM     67  C   UNL A   1      36.553  31.480  30.841  1.00  0.00     0.055 A 
ATOM     68  C   UNL A   1      37.382  30.367  32.812  1.00  0.00     0.041 A 
ATOM     69  F   UNL A   1      39.451  29.267  32.742  1.00  0.00    -0.206 F 
ATOM     70  C   UNL A   1      36.397  31.123  32.185  1.00  0.00     0.022 A 
BRANCH  67  71
ATOM     71  S   UNL A   1      35.264  32.502  30.083  1.00  0.00     0.124 S 
ATOM     72  O   UNL A   1      34.342  32.704  31.200  1.00  0.00    -0.237 OA
ATOM     73  O   UNL A   1      36.017  33.684  29.674  1.00  0.00    -0.237 OA
ATOM     74  O   UNL A   1      34.749  31.672  29.001  1.00  0.00    -0.744 OA
ENDBRANCH  67  71
ENDBRANCH  50  64
BRANCH  51  75
ATOM     75  C   UNL A   1      46.818  27.555  25.533  1.00  0.00     0.023 A 
ATOM     76  C   UNL A   1      47.000  27.966  24.201  1.00  0.00     0.031 A 
ATOM     77  C   UNL A   1      47.743  26.650  26.080  1.00  0.00     0.131 A 
ATOM     78  C   UNL A   1      48.052  27.429  23.445  1.00  0.00     0.055 A 
ATOM     79  C   UNL A   1      48.822  26.160  25.340  1.00  0.00     0.041 A 
ATOM     80  F   UNL A   1      47.600  26.220  27.343  1.00  0.00    -0.206 F 
ATOM     81  C   UNL A   1      48.973  26.541  24.011  1.00  0.00     0.022 A 
BRANCH  78  82
ATOM     82  S   UNL A   1      48.209  27.792  21.674  1.00  0.00     0.124 S 
ATOM     83  O   UNL A   1      46.914  28.391  21.367  1.00  0.00    -0.237 OA
ATOM     84  O   UNL A   1      49.346  28.708  21.662  1.00  0.00    -0.237 OA
ATOM     85  O   UNL A   1      48.455  26.484  21.076  1.00  0.00    -0.744 OA
ENDBRANCH  78  82
ENDBRANCH  51  75
BRANCH  63  86
ATOM     86  C   UNL A   1      45.067  33.255  29.267  1.00  0.00     0.023 A 
ATOM     87  C   UNL A   1      44.964  34.339  28.374  1.00  0.00     0.031 A 
ATOM     88  C   UNL A   1      45.973  33.347  30.336  1.00  0.00     0.131 A 
ATOM     89  C   UNL A   1      45.799  35.450  28.536  1.00  0.00     0.055 A 
ATOM     90  C   UNL A   1      46.772  34.476  30.517  1.00  0.00     0.041 A 
ATOM     91  F   UNL A   1      46.108  32.331  31.202  1.00  0.00    -0.206 F 
ATOM     92  C   UNL A   1      46.697  35.528  29.607  1.00  0.00     0.022 A 
BRANCH  89  93
ATOM     93  S   UNL A   1      45.803  36.797  27.323  1.00  0.00     0.124 S 
ATOM     94  O   UNL A   1      46.475  36.179  26.183  1.00  0.00    -0.237 OA
ATOM     95  O   UNL A   1      44.375  37.051  27.144  1.00  0.00    -0.237 OA
ATOM     96  O   UNL A   1      46.554  37.861  27.982  1.00  0.00    -0.744 OA
ENDBRANCH  89  93
ENDBRANCH  63  86
ENDBRANCH  37  38
ENDBRANCH  29  32
ENDBRANCH  27  28
ENDBRANCH   1  27
TORSDOF 15
ENDMDL
MODEL 2
REMARK VINA RESULT:     -12.9      1.235      7.635
REMARK SMILES Cc1cccc2c1N=CN1C2=[NH+]NC(=O)[C@@H]1CC(=O)NCCCCNC(=O)c1ccc(-c2c3nc(c(-c4cc(S(=O)(=O)[O-])ccc4F)c4ccc([nH]4)c(-c4cc(S(=O)(=O)[O-])ccc4F)c4nc(c(-c5cc(S(=O)(=O)[O-])ccc5F)c5ccc2[nH]5)C=C4)C=C3)cc1
REMARK SMILES IDX 23 1 22 2 21 3 20 4 18 5 19 6 17 8 16 9 1 10 2 11 3 12 7 13
REMARK SMILES IDX 4 14 6 15 8 16 5 17 11 18 9 19 10 20 12 21 13 22 14 24 15 26
REMARK SMILES IDX 24 27 25 28 26 29 27 31 28 32 29 33 90 34 30 35 89 36 31 37
REMARK SMILES IDX 32 38 33 39 83 40 34 41 88 42 82 43 84 44 35 45 87 46 81 47
REMARK SMILES IDX 80 48 36 50 68 51 48 52 67 53 49 54 52 55 66 56 85 57 50 58
REMARK SMILES IDX 51 59 65 61 86 62 53 63 37 64 38 65 46 66 39 67 45 68 47 69
REMARK SMILES IDX 44 70 40 71 41 72 42 73 43 74 69 75 70 76 78 77 71 78 77 79
REMARK SMILES IDX 79 80 76 81 72 82 73 83 74 84 75 85 54 86 55 87 63 88 56 89
REMARK SMILES IDX 62 90 64 91 61 92 57 93 58 94 59 95 60 96
REMARK H PARENT 20 7 12 23 13 25 25 30 84 49 52 60
REMARK Flexibility Score: inf
ROOT
ATOM      1  C   UNL A   1      35.751  21.468  24.591  1.00  0.00     0.023 C 
ENDROOT
BRANCH   1   2
ATOM      2  C   UNL A   1      35.212  20.109  24.984  1.00  0.00     0.023 C 
BRANCH   2   3
ATOM      3  C   UNL A   1      33.767  20.049  25.441  1.00  0.00     0.116 C 
BRANCH   3   4
ATOM      4  N   UNL A   1      33.597  20.820  26.652  1.00  0.00    -0.356 N 
ATOM      5  C   UNL A   1      32.874  21.955  26.859  1.00  0.00     0.224 C 
ATOM      6  O   UNL A   1      32.886  22.447  27.986  1.00  0.00    -0.275 OA
ATOM      7  H   UNL A   1      34.072  20.473  27.441  1.00  0.00     0.163 HD
BRANCH   5   8
ATOM      8  C   UNL A   1      31.990  22.526  25.762  1.00  0.00     0.160 C 
BRANCH   8   9
ATOM      9  C   UNL A   1      32.639  23.314  24.606  1.00  0.00     0.284 C 
ATOM     10  C   UNL A   1      31.780  29.151  27.136  1.00  0.00     0.047 C 
ATOM     11  C   UNL A   1      31.733  28.715  25.697  1.00  0.00    -0.024 A 
ATOM     12  C   UNL A   1      31.074  29.528  24.759  1.00  0.00     0.006 A 
ATOM     13  C   UNL A   1      32.219  27.453  25.305  1.00  0.00     0.085 A 
ATOM     14  C   UNL A   1      30.915  29.115  23.437  1.00  0.00     0.001 A 
ATOM     15  C   UNL A   1      31.988  27.025  23.980  1.00  0.00     0.092 A 
ATOM     16  N   UNL A   1      32.838  26.618  26.271  1.00  0.00    -0.215 NA
ATOM     17  C   UNL A   1      31.367  27.859  23.043  1.00  0.00     0.019 A 
ATOM     18  C   UNL A   1      32.189  25.566  23.688  1.00  0.00     0.309 C 
ATOM     19  C   UNL A   1      32.983  25.375  25.947  1.00  0.00     0.317 C 
ATOM     20  N   UNL A   1      32.590  24.785  24.767  1.00  0.00    -0.203 N 
ATOM     21  N   UNL A   1      31.887  25.135  22.501  1.00  0.00    -0.169 N 
ATOM     22  N   UNL A   1      31.904  23.797  22.294  1.00  0.00    -0.193 N 
ATOM     23  H   UNL A   1      31.655  25.759  21.776  1.00  0.00     0.340 HD
ATOM     24  C   UNL A   1      32.176  22.839  23.233  1.00  0.00     0.300 C 
ATOM     25  H   UNL A   1      31.701  23.483  21.382  1.00  0.00     0.216 HD
ATOM     26  O   UNL A   1      32.138  21.647  22.930  1.00  0.00    -0.267 OA
ENDBRANCH   8   9
ENDBRANCH   5   8
ENDBRANCH   3   4
ENDBRANCH   2   3
ENDBRANCH   1   2
BRANCH   1  27
ATOM     27  C   UNL A   1      36.970  21.896  25.385  1.00  0.00     0.116 C 
BRANCH  27  28
ATOM     28  N   UNL A   1      37.978  20.846  25.528  1.00  0.00    -0.352 N 
ATOM     29  C   UNL A   1      39.239  20.958  26.066  1.00  0.00     0.251 C 
ATOM     30  H   UNL A   1      37.725  19.953  25.200  1.00  0.00     0.163 HD
ATOM     31  O   UNL A   1      40.026  20.017  26.072  1.00  0.00    -0.269 OA
BRANCH  29  32
ATOM     32  C   UNL A   1      39.628  22.272  26.603  1.00  0.00     0.039 A 
ATOM     33  C   UNL A   1      40.704  22.350  27.487  1.00  0.00     0.014 A 
ATOM     34  C   UNL A   1      39.031  23.420  26.077  1.00  0.00     0.014 A 
ATOM     35  C   UNL A   1      41.239  23.600  27.793  1.00  0.00     0.010 A 
ATOM     36  C   UNL A   1      39.622  24.650  26.310  1.00  0.00     0.010 A 
ATOM     37  C   UNL A   1      40.724  24.750  27.175  1.00  0.00    -0.014 A 
BRANCH  37  38
ATOM     38  C   UNL A   1      41.270  26.097  27.448  1.00  0.00     0.031 A 
ATOM     39  C   UNL A   1      42.647  26.421  26.950  1.00  0.00     0.074 A 
ATOM     40  C   UNL A   1      40.587  26.962  28.221  1.00  0.00     0.049 A 
ATOM     41  N   UNL A   1      43.393  27.461  27.204  1.00  0.00    -0.248 NA
ATOM     42  C   UNL A   1      43.290  25.413  26.087  1.00  0.00     0.031 C 
ATOM     43  C   UNL A   1      39.263  26.720  28.795  1.00  0.00     0.029 A 
ATOM     44  N   UNL A   1      40.924  28.211  28.675  1.00  0.00    -0.354 N 
ATOM     45  C   UNL A   1      44.598  27.219  26.559  1.00  0.00     0.074 A 
ATOM     46  C   UNL A   1      44.510  25.910  25.955  1.00  0.00     0.031 C 
ATOM     47  C   UNL A   1      38.895  27.793  29.515  1.00  0.00     0.029 A 
ATOM     48  C   UNL A   1      39.970  28.781  29.486  1.00  0.00     0.049 A 
ATOM     49  H   UNL A   1      41.770  28.659  28.443  1.00  0.00     0.167 HD
ATOM     50  C   UNL A   1      45.672  28.033  26.454  1.00  0.00     0.034 A 
ATOM     51  C   UNL A   1      39.970  29.965  30.134  1.00  0.00     0.034 A 
ATOM     52  C   UNL A   1      45.719  29.352  27.020  1.00  0.00     0.049 A 
ATOM     53  C   UNL A   1      41.164  30.873  29.977  1.00  0.00     0.074 A 
ATOM     54  C   UNL A   1      46.724  30.293  26.912  1.00  0.00     0.029 A 
ATOM     55  N   UNL A   1      44.709  29.921  27.783  1.00  0.00    -0.354 N 
ATOM     56  N   UNL A   1      42.269  30.667  29.297  1.00  0.00    -0.248 NA
ATOM     57  C   UNL A   1      41.117  32.172  30.661  1.00  0.00     0.031 C 
ATOM     58  C   UNL A   1      46.338  31.420  27.637  1.00  0.00     0.029 A 
ATOM     59  C   UNL A   1      45.072  31.199  28.163  1.00  0.00     0.049 A 
ATOM     60  H   UNL A   1      43.862  29.480  28.019  1.00  0.00     0.167 HD
ATOM     61  C   UNL A   1      43.037  31.815  29.454  1.00  0.00     0.074 A 
ATOM     62  C   UNL A   1      42.265  32.720  30.280  1.00  0.00     0.031 C 
ATOM     63  C   UNL A   1      44.271  32.093  28.965  1.00  0.00     0.034 A 
BRANCH  50  64
ATOM     64  C   UNL A   1      46.862  27.544  25.674  1.00  0.00     0.023 A 
ATOM     65  C   UNL A   1      47.020  27.905  24.326  1.00  0.00     0.031 A 
ATOM     66  C   UNL A   1      47.797  26.664  26.246  1.00  0.00     0.131 A 
ATOM     67  C   UNL A   1      48.083  27.373  23.586  1.00  0.00     0.055 A 
ATOM     68  C   UNL A   1      48.875  26.165  25.516  1.00  0.00     0.041 A 
ATOM     69  F   UNL A   1      47.691  26.298  27.535  1.00  0.00    -0.206 F 
ATOM     70  C   UNL A   1      49.017  26.513  24.177  1.00  0.00     0.022 A 
BRANCH  67  71
ATOM     71  S   UNL A   1      48.286  27.759  21.828  1.00  0.00     0.124 S 
ATOM     72  O   UNL A   1      46.990  28.350  21.496  1.00  0.00    -0.237 OA
ATOM     73  O   UNL A   1      49.409  28.692  21.851  1.00  0.00    -0.237 OA
ATOM     74  O   UNL A   1      48.548  26.464  21.212  1.00  0.00    -0.744 OA
ENDBRANCH  67  71
ENDBRANCH  50  64
BRANCH  51  75
ATOM     75  C   UNL A   1      38.768  30.369  30.917  1.00  0.00     0.023 A 
ATOM     76  C   UNL A   1      37.684  31.027  30.307  1.00  0.00     0.031 A 
ATOM     77  C   UNL A   1      38.737  30.194  32.311  1.00  0.00     0.131 A 
ATOM     78  C   UNL A   1      36.643  31.531  31.099  1.00  0.00     0.055 A 
ATOM     79  C   UNL A   1      37.671  30.649  33.089  1.00  0.00     0.041 A 
ATOM     80  F   UNL A   1      39.756  29.584  32.936  1.00  0.00    -0.206 F 
ATOM     81  C   UNL A   1      36.622  31.334  32.483  1.00  0.00     0.022 A 
BRANCH  78  82
ATOM     82  S   UNL A   1      35.325  32.544  30.372  1.00  0.00     0.124 S 
ATOM     83  O   UNL A   1      36.013  33.805  30.114  1.00  0.00    -0.237 OA
ATOM     84  O   UNL A   1      34.974  31.764  29.188  1.00  0.00    -0.237 OA
ATOM     85  O   UNL A   1      34.306  32.585  31.416  1.00  0.00    -0.744 OA
ENDBRANCH  78  82
ENDBRANCH  51  75
BRANCH  63  86
ATOM     86  C   UNL A   1      44.888  33.428  29.282  1.00  0.00     0.023 A 
ATOM     87  C   UNL A   1      44.736  34.499  28.380  1.00  0.00     0.031 A 
ATOM     88  C   UNL A   1      45.773  33.579  30.362  1.00  0.00     0.131 A 
ATOM     89  C   UNL A   1      45.502  35.657  28.547  1.00  0.00     0.055 A 
ATOM     90  C   UNL A   1      46.502  34.753  30.548  1.00  0.00     0.041 A 
ATOM     91  F   UNL A   1      45.954  32.577  31.237  1.00  0.00    -0.206 F 
ATOM     92  C   UNL A   1      46.380  35.794  29.629  1.00  0.00     0.022 A 
BRANCH  89  93
ATOM     93  S   UNL A   1      45.446  36.996  27.325  1.00  0.00     0.124 S 
ATOM     94  O   UNL A   1      46.363  36.509  26.297  1.00  0.00    -0.237 OA
ATOM     95  O   UNL A   1      44.034  37.006  26.950  1.00  0.00    -0.237 OA
ATOM     96  O   UNL A   1      45.910  38.166  28.064  1.00  0.00    -0.744 OA
ENDBRANCH  89  93
ENDBRANCH  63  86
ENDBRANCH  37  38
ENDBRANCH  29  32
ENDBRANCH  27  28
ENDBRANCH   1  27
TORSDOF 15
ENDMDL
MODEL 3
REMARK VINA RESULT:     -12.8      1.271      1.796
REMARK SMILES Cc1cccc2c1N=CN1C2=[NH+]NC(=O)[C@@H]1CC(=O)NCCCCNC(=O)c1ccc(-c2c3nc(c(-c4cc(S(=O)(=O)[O-])ccc4F)c4ccc([nH]4)c(-c4cc(S(=O)(=O)[O-])ccc4F)c4nc(c(-c5cc(S(=O)(=O)[O-])ccc5F)c5ccc2[nH]5)C=C4)C=C3)cc1
REMARK SMILES IDX 23 1 22 2 21 3 20 4 18 5 19 6 17 8 16 9 1 10 2 11 3 12 7 13
REMARK SMILES IDX 4 14 6 15 8 16 5 17 11 18 9 19 10 20 12 21 13 22 14 24 15 26
REMARK SMILES IDX 24 27 25 28 26 29 27 31 28 32 29 33 90 34 30 35 89 36 31 37
REMARK SMILES IDX 32 38 33 39 83 40 34 41 88 42 82 43 84 44 35 45 87 46 81 47
REMARK SMILES IDX 80 48 36 50 68 51 48 52 67 53 49 54 52 55 66 56 85 57 50 58
REMARK SMILES IDX 51 59 65 61 86 62 53 63 37 64 38 65 46 66 39 67 45 68 47 69
REMARK SMILES IDX 44 70 40 71 41 72 42 73 43 74 69 75 70 76 78 77 71 78 77 79
REMARK SMILES IDX 79 80 76 81 72 82 73 83 74 84 75 85 54 86 55 87 63 88 56 89
REMARK SMILES IDX 62 90 64 91 61 92 57 93 58 94 59 95 60 96
REMARK H PARENT 20 7 12 23 13 25 25 30 84 49 52 60
REMARK Flexibility Score: inf
ROOT
ATOM      1  C   UNL A   1      35.853  21.702  24.667  1.00  0.00     0.023 C 
ENDROOT
BRANCH   1   2
ATOM      2  C   UNL A   1      35.351  20.307  24.972  1.00  0.00     0.023 C 
BRANCH   2   3
ATOM      3  C   UNL A   1      33.929  20.184  25.483  1.00  0.00     0.116 C 
BRANCH   3   4
ATOM      4  N   UNL A   1      33.769  20.952  26.697  1.00  0.00    -0.356 N 
ATOM      5  C   UNL A   1      33.017  22.065  26.922  1.00  0.00     0.224 C 
ATOM      6  O   UNL A   1      33.046  22.561  28.048  1.00  0.00    -0.275 OA
ATOM      7  H   UNL A   1      34.277  20.623  27.473  1.00  0.00     0.163 HD
BRANCH   5   8
ATOM      8  C   UNL A   1      32.086  22.606  25.850  1.00  0.00     0.160 C 
BRANCH   8   9
ATOM      9  C   UNL A   1      32.677  23.400  24.669  1.00  0.00     0.284 C 
ATOM     10  C   UNL A   1      31.880  29.227  27.239  1.00  0.00     0.047 C 
ATOM     11  C   UNL A   1      31.774  28.792  25.804  1.00  0.00    -0.024 A 
ATOM     12  C   UNL A   1      31.069  29.601  24.896  1.00  0.00     0.006 A 
ATOM     13  C   UNL A   1      32.254  27.535  25.390  1.00  0.00     0.085 A 
ATOM     14  C   UNL A   1      30.857  29.188  23.581  1.00  0.00     0.001 A 
ATOM     15  C   UNL A   1      31.969  27.106  24.075  1.00  0.00     0.092 A 
ATOM     16  N   UNL A   1      32.920  26.704  26.327  1.00  0.00    -0.215 NA
ATOM     17  C   UNL A   1      31.302  27.936  23.167  1.00  0.00     0.019 A 
ATOM     18  C   UNL A   1      32.169  25.649  23.773  1.00  0.00     0.309 C 
ATOM     19  C   UNL A   1      33.061  25.462  25.996  1.00  0.00     0.317 C 
ATOM     20  N   UNL A   1      32.623  24.870  24.833  1.00  0.00    -0.203 N 
ATOM     21  N   UNL A   1      31.821  25.216  22.599  1.00  0.00    -0.169 N 
ATOM     22  N   UNL A   1      31.840  23.879  22.390  1.00  0.00    -0.193 N 
ATOM     23  H   UNL A   1      31.553  25.839  21.886  1.00  0.00     0.340 HD
ATOM     24  C   UNL A   1      32.159  22.922  23.316  1.00  0.00     0.300 C 
ATOM     25  H   UNL A   1      31.601  23.564  21.488  1.00  0.00     0.216 HD
ATOM     26  O   UNL A   1      32.119  21.730  23.013  1.00  0.00    -0.267 OA
ENDBRANCH   8   9
ENDBRANCH   5   8
ENDBRANCH   3   4
ENDBRANCH   2   3
ENDBRANCH   1   2
BRANCH   1  27
ATOM     27  C   UNL A   1      37.138  22.062  25.387  1.00  0.00     0.116 C 
BRANCH  27  28
ATOM     28  N   UNL A   1      38.061  20.938  25.540  1.00  0.00    -0.352 N 
ATOM     29  C   UNL A   1      39.310  20.948  26.114  1.00  0.00     0.251 C 
ATOM     30  H   UNL A   1      37.752  20.071  25.190  1.00  0.00     0.163 HD
ATOM     31  O   UNL A   1      40.025  19.951  26.127  1.00  0.00    -0.269 OA
BRANCH  29  32
ATOM     32  C   UNL A   1      39.780  22.221  26.684  1.00  0.00     0.039 A 
ATOM     33  C   UNL A   1      40.784  22.200  27.652  1.00  0.00     0.014 A 
ATOM     34  C   UNL A   1      39.340  23.419  26.114  1.00  0.00     0.014 A 
ATOM     35  C   UNL A   1      41.411  23.395  28.002  1.00  0.00     0.010 A 
ATOM     36  C   UNL A   1      40.027  24.587  26.396  1.00  0.00     0.010 A 
ATOM     37  C   UNL A   1      41.060  24.585  27.347  1.00  0.00    -0.014 A 
BRANCH  37  38
ATOM     38  C   UNL A   1      41.710  25.875  27.666  1.00  0.00     0.031 A 
ATOM     39  C   UNL A   1      40.926  26.896  28.436  1.00  0.00     0.074 A 
ATOM     40  C   UNL A   1      42.932  26.158  27.178  1.00  0.00     0.049 A 
ATOM     41  N   UNL A   1      41.218  28.142  28.689  1.00  0.00    -0.248 NA
ATOM     42  C   UNL A   1      39.612  26.467  28.950  1.00  0.00     0.031 C 
ATOM     43  C   UNL A   1      43.754  25.252  26.376  1.00  0.00     0.029 A 
ATOM     44  N   UNL A   1      43.686  27.301  27.266  1.00  0.00    -0.354 N 
ATOM     45  C   UNL A   1      40.116  28.651  29.363  1.00  0.00     0.074 A 
ATOM     46  C   UNL A   1      39.125  27.603  29.425  1.00  0.00     0.031 C 
ATOM     47  C   UNL A   1      44.904  25.869  26.056  1.00  0.00     0.029 A 
ATOM     48  C   UNL A   1      44.886  27.225  26.597  1.00  0.00     0.049 A 
ATOM     49  H   UNL A   1      43.397  28.101  27.763  1.00  0.00     0.167 HD
ATOM     50  C   UNL A   1      39.960  29.878  29.908  1.00  0.00     0.034 A 
ATOM     51  C   UNL A   1      45.854  28.151  26.436  1.00  0.00     0.034 A 
ATOM     52  C   UNL A   1      40.979  30.889  29.879  1.00  0.00     0.049 A 
ATOM     53  C   UNL A   1      45.675  29.502  27.081  1.00  0.00     0.074 A 
ATOM     54  C   UNL A   1      40.959  32.140  30.464  1.00  0.00     0.029 A 
ATOM     55  N   UNL A   1      42.206  30.756  29.245  1.00  0.00    -0.354 N 
ATOM     56  N   UNL A   1      44.659  29.948  27.785  1.00  0.00    -0.248 NA
ATOM     57  C   UNL A   1      46.765  30.474  26.922  1.00  0.00     0.031 C 
ATOM     58  C   UNL A   1      42.161  32.778  30.157  1.00  0.00     0.029 A 
ATOM     59  C   UNL A   1      42.949  31.909  29.416  1.00  0.00     0.049 A 
ATOM     60  H   UNL A   1      42.502  29.961  28.747  1.00  0.00     0.167 HD
ATOM     61  C   UNL A   1      44.995  31.241  28.170  1.00  0.00     0.074 A 
ATOM     62  C   UNL A   1      46.316  31.502  27.634  1.00  0.00     0.031 C 
ATOM     63  C   UNL A   1      44.276  32.134  28.894  1.00  0.00     0.034 A 
BRANCH  50  64
ATOM     64  C   UNL A   1      38.665  30.183  30.612  1.00  0.00     0.023 A 
ATOM     65  C   UNL A   1      37.696  30.988  29.991  1.00  0.00     0.031 A 
ATOM     66  C   UNL A   1      38.425  29.737  31.923  1.00  0.00     0.131 A 
ATOM     67  C   UNL A   1      36.534  31.338  30.690  1.00  0.00     0.055 A 
ATOM     68  C   UNL A   1      37.251  30.057  32.602  1.00  0.00     0.041 A 
ATOM     69  F   UNL A   1      39.320  28.957  32.553  1.00  0.00    -0.206 F 
ATOM     70  C   UNL A   1      36.302  30.868  31.988  1.00  0.00     0.022 A 
BRANCH  67  71
ATOM     71  S   UNL A   1      35.290  32.428  29.952  1.00  0.00     0.124 S 
ATOM     72  O   UNL A   1      34.732  31.581  28.899  1.00  0.00    -0.237 OA
ATOM     73  O   UNL A   1      34.402  32.684  31.083  1.00  0.00    -0.237 OA
ATOM     74  O   UNL A   1      36.062  33.572  29.479  1.00  0.00    -0.744 OA
ENDBRANCH  67  71
ENDBRANCH  50  64
BRANCH  51  75
ATOM     75  C   UNL A   1      47.096  27.787  25.696  1.00  0.00     0.023 A 
ATOM     76  C   UNL A   1      47.219  28.022  24.314  1.00  0.00     0.031 A 
ATOM     77  C   UNL A   1      48.135  27.101  26.346  1.00  0.00     0.131 A 
ATOM     78  C   UNL A   1      48.333  27.527  23.622  1.00  0.00     0.055 A 
ATOM     79  C   UNL A   1      49.269  26.658  25.663  1.00  0.00     0.041 A 
ATOM     80  F   UNL A   1      48.052  26.843  27.661  1.00  0.00    -0.206 F 
ATOM     81  C   UNL A   1      49.365  26.860  24.289  1.00  0.00     0.022 A 
BRANCH  78  82
ATOM     82  S   UNL A   1      48.439  27.648  21.814  1.00  0.00     0.124 S 
ATOM     83  O   UNL A   1      49.584  28.535  21.632  1.00  0.00    -0.237 OA
ATOM     84  O   UNL A   1      48.655  26.254  21.438  1.00  0.00    -0.237 OA
ATOM     85  O   UNL A   1      47.145  28.204  21.431  1.00  0.00    -0.744 OA
ENDBRANCH  78  82
ENDBRANCH  51  75
BRANCH  63  86
ATOM     86  C   UNL A   1      44.878  33.483  29.180  1.00  0.00     0.023 A 
ATOM     87  C   UNL A   1      44.551  34.580  28.360  1.00  0.00     0.031 A 
ATOM     88  C   UNL A   1      45.905  33.632  30.126  1.00  0.00     0.131 A 
ATOM     89  C   UNL A   1      45.286  35.766  28.467  1.00  0.00     0.055 A 
ATOM     90  C   UNL A   1      46.606  34.831  30.257  1.00  0.00     0.041 A 
ATOM     91  F   UNL A   1      46.254  32.606  30.918  1.00  0.00    -0.206 F 
ATOM     92  C   UNL A   1      46.307  35.900  29.415  1.00  0.00     0.022 A 
BRANCH  89  93
ATOM     93  S   UNL A   1      44.996  37.148  27.329  1.00  0.00     0.124 S 
ATOM     94  O   UNL A   1      46.210  37.134  26.517  1.00  0.00    -0.237 OA
ATOM     95  O   UNL A   1      43.778  36.725  26.641  1.00  0.00    -0.237 OA
ATOM     96  O   UNL A   1      44.852  38.303  28.209  1.00  0.00    -0.744 OA
ENDBRANCH  89  93
ENDBRANCH  63  86
ENDBRANCH  37  38
ENDBRANCH  29  32
ENDBRANCH  27  28
ENDBRANCH   1  27
TORSDOF 15
ENDMDL
