MODEL 1
REMARK VINA RESULT:     -12.2      0.000      0.000
REMARK SMILES O=C(NCCCCNC(=O)c1nn(-c2ccc([N+](=O)[O-])cc2)cc1CCO)c1ccc(-c2c3nc(c(-c4cc(S(=O)(=O)[O-])ccc4F)c4ccc([nH]4)c(-c4cc(S(=O)(=O)[O-])ccc4F)c4nc(c(-c5cc(S(=O)(=O)[O-])ccc5F)c5ccc2[nH]5)C=C4)C=C3)cc1
REMARK SMILES IDX 5 1 4 2 3 3 1 4 2 5 28 7 29 8 90 9 30 10 89 11 31 12 32 13
REMARK SMILES IDX 33 14 83 15 34 16 88 17 82 18 84 19 35 20 87 21 81 22 80 23
REMARK SMILES IDX 36 25 68 26 48 27 67 28 49 29 52 30 66 31 85 32 50 33 51 34
REMARK SMILES IDX 65 36 86 37 53 38 37 39 38 40 46 41 39 42 45 43 47 44 44 45
REMARK SMILES IDX 40 46 41 47 42 48 43 49 69 50 70 51 78 52 71 53 77 54 79 55
REMARK SMILES IDX 76 56 72 57 73 58 74 59 75 60 54 61 55 62 63 63 56 64 62 65
REMARK SMILES IDX 64 66 61 67 57 68 58 69 59 70 60 71 6 72 7 73 8 74 9 75
REMARK SMILES IDX 10 77 11 78 12 79 24 80 13 81 23 82 25 83 26 84 27 85 14 87
REMARK SMILES IDX 15 88 22 89 16 90 21 91 17 92 18 93 19 94 20 95
REMARK H PARENT 3 6 84 24 52 35 8 76 27 86
REMARK Flexibility Score: inf
ROOT
ATOM      1  C   UNL A   1      32.680  31.181  27.236  1.00  0.00     0.023 C 
ENDROOT
BRANCH   1   2
ATOM      2  C   UNL A   1      34.122  31.387  27.690  1.00  0.00     0.116 C 
BRANCH   2   3
ATOM      3  N   UNL A   1      34.272  31.978  29.003  1.00  0.00    -0.352 N 
ATOM      4  O   UNL A   1      35.081  32.889  30.833  1.00  0.00    -0.269 OA
ATOM      5  C   UNL A   1      35.292  32.093  29.910  1.00  0.00     0.251 C 
ATOM      6  H   UNL A   1      33.440  32.399  29.320  1.00  0.00     0.163 HD
BRANCH   5   7
ATOM      7  C   UNL A   1      36.570  31.321  29.913  1.00  0.00     0.039 A 
ATOM      8  C   UNL A   1      37.858  31.844  30.019  1.00  0.00     0.014 A 
ATOM      9  C   UNL A   1      36.435  29.920  29.788  1.00  0.00     0.014 A 
ATOM     10  C   UNL A   1      38.973  30.993  29.948  1.00  0.00     0.010 A 
ATOM     11  C   UNL A   1      37.542  29.072  29.710  1.00  0.00     0.010 A 
ATOM     12  C   UNL A   1      38.822  29.608  29.771  1.00  0.00    -0.014 A 
BRANCH  12  13
ATOM     13  C   UNL A   1      40.001  28.736  29.910  1.00  0.00     0.031 A 
ATOM     14  C   UNL A   1      40.358  28.464  31.331  1.00  0.00     0.074 A 
ATOM     15  C   UNL A   1      40.663  28.083  28.925  1.00  0.00     0.049 A 
ATOM     16  N   UNL A   1      41.390  28.896  31.977  1.00  0.00    -0.248 NA
ATOM     17  C   UNL A   1      39.382  27.760  32.175  1.00  0.00     0.031 C 
ATOM     18  C   UNL A   1      40.310  27.999  27.508  1.00  0.00     0.029 A 
ATOM     19  N   UNL A   1      41.777  27.282  29.005  1.00  0.00    -0.354 N 
ATOM     20  C   UNL A   1      41.323  28.320  33.243  1.00  0.00     0.074 A 
ATOM     21  C   UNL A   1      39.986  27.803  33.364  1.00  0.00     0.031 C 
ATOM     22  C   UNL A   1      41.063  27.044  26.909  1.00  0.00     0.029 A 
ATOM     23  C   UNL A   1      42.043  26.532  27.856  1.00  0.00     0.049 A 
ATOM     24  H   UNL A   1      42.343  27.241  29.809  1.00  0.00     0.167 HD
ATOM     25  C   UNL A   1      42.449  28.120  33.984  1.00  0.00     0.034 A 
ATOM     26  C   UNL A   1      42.979  25.549  27.689  1.00  0.00     0.034 A 
ATOM     27  C   UNL A   1      43.543  28.926  33.482  1.00  0.00     0.049 A 
ATOM     28  C   UNL A   1      44.030  25.769  28.710  1.00  0.00     0.074 A 
ATOM     29  C   UNL A   1      43.727  30.278  33.255  1.00  0.00     0.029 A 
ATOM     30  N   UNL A   1      44.544  28.301  32.771  1.00  0.00    -0.354 N 
ATOM     31  N   UNL A   1      44.834  26.794  28.699  1.00  0.00    -0.248 NA
ATOM     32  C   UNL A   1      43.889  25.102  29.994  1.00  0.00     0.031 C 
ATOM     33  C   UNL A   1      44.461  30.348  32.035  1.00  0.00     0.029 A 
ATOM     34  C   UNL A   1      44.769  29.045  31.641  1.00  0.00     0.049 A 
ATOM     35  H   UNL A   1      45.013  27.474  33.027  1.00  0.00     0.167 HD
ATOM     36  C   UNL A   1      44.935  27.176  30.025  1.00  0.00     0.074 A 
ATOM     37  C   UNL A   1      44.411  26.043  30.786  1.00  0.00     0.031 C 
ATOM     38  C   UNL A   1      45.171  28.477  30.370  1.00  0.00     0.034 A 
BRANCH  25  39
ATOM     39  C   UNL A   1      42.689  26.925  34.891  1.00  0.00     0.023 A 
ATOM     40  C   UNL A   1      43.518  25.904  34.386  1.00  0.00     0.031 A 
ATOM     41  C   UNL A   1      41.935  26.583  36.037  1.00  0.00     0.131 A 
ATOM     42  C   UNL A   1      43.445  24.594  34.890  1.00  0.00     0.055 A 
ATOM     43  C   UNL A   1      41.924  25.295  36.582  1.00  0.00     0.041 A 
ATOM     44  F   UNL A   1      41.107  27.436  36.647  1.00  0.00    -0.206 F 
ATOM     45  C   UNL A   1      42.647  24.279  35.982  1.00  0.00     0.022 A 
BRANCH  42  46
ATOM     46  S   UNL A   1      44.251  23.276  33.945  1.00  0.00     0.124 S 
ATOM     47  O   UNL A   1      44.389  22.241  34.964  1.00  0.00    -0.237 OA
ATOM     48  O   UNL A   1      43.271  23.020  32.894  1.00  0.00    -0.237 OA
ATOM     49  O   UNL A   1      45.498  23.893  33.501  1.00  0.00    -0.744 OA
ENDBRANCH  42  46
ENDBRANCH  25  39
BRANCH  26  50
ATOM     50  C   UNL A   1      42.893  24.280  26.896  1.00  0.00     0.023 A 
ATOM     51  C   UNL A   1      43.907  23.837  26.007  1.00  0.00     0.031 A 
ATOM     52  C   UNL A   1      41.899  23.335  27.228  1.00  0.00     0.131 A 
ATOM     53  C   UNL A   1      43.893  22.509  25.503  1.00  0.00     0.055 A 
ATOM     54  C   UNL A   1      41.893  22.029  26.732  1.00  0.00     0.041 A 
ATOM     55  F   UNL A   1      40.943  23.622  28.124  1.00  0.00    -0.206 F 
ATOM     56  C   UNL A   1      42.897  21.606  25.875  1.00  0.00     0.022 A 
BRANCH  53  57
ATOM     57  S   UNL A   1      45.230  21.887  24.419  1.00  0.00     0.124 S 
ATOM     58  O   UNL A   1      46.288  21.579  25.372  1.00  0.00    -0.237 OA
ATOM     59  O   UNL A   1      44.599  20.753  23.755  1.00  0.00    -0.237 OA
ATOM     60  O   UNL A   1      45.512  23.024  23.539  1.00  0.00    -0.744 OA
ENDBRANCH  53  57
ENDBRANCH  26  50
BRANCH  38  61
ATOM     61  C   UNL A   1      45.693  29.435  29.318  1.00  0.00     0.023 A 
ATOM     62  C   UNL A   1      44.899  30.243  28.472  1.00  0.00     0.031 A 
ATOM     63  C   UNL A   1      47.089  29.597  29.247  1.00  0.00     0.131 A 
ATOM     64  C   UNL A   1      45.513  31.157  27.593  1.00  0.00     0.055 A 
ATOM     65  C   UNL A   1      47.692  30.518  28.395  1.00  0.00     0.041 A 
ATOM     66  F   UNL A   1      47.901  28.873  30.037  1.00  0.00    -0.206 F 
ATOM     67  C   UNL A   1      46.905  31.298  27.558  1.00  0.00     0.022 A 
BRANCH  64  68
ATOM     68  S   UNL A   1      44.519  32.169  26.449  1.00  0.00     0.124 S 
ATOM     69  O   UNL A   1      43.454  31.267  26.027  1.00  0.00    -0.237 OA
ATOM     70  O   UNL A   1      44.112  33.289  27.294  1.00  0.00    -0.237 OA
ATOM     71  O   UNL A   1      45.471  32.523  25.394  1.00  0.00    -0.744 OA
ENDBRANCH  64  68
ENDBRANCH  38  61
ENDBRANCH  12  13
ENDBRANCH   5   7
ENDBRANCH   2   3
ENDBRANCH   1   2
BRANCH   1  72
ATOM     72  C   UNL A   1      32.429  30.012  26.272  1.00  0.00     0.023 C 
BRANCH  72  73
ATOM     73  C   UNL A   1      33.639  29.151  25.889  1.00  0.00     0.116 C 
BRANCH  73  74
ATOM     74  N   UNL A   1      33.971  29.221  24.474  1.00  0.00    -0.351 N 
ATOM     75  C   UNL A   1      33.606  28.377  23.447  1.00  0.00     0.272 C 
ATOM     76  H   UNL A   1      34.541  29.981  24.212  1.00  0.00     0.163 HD
ATOM     77  O   UNL A   1      34.040  28.580  22.316  1.00  0.00    -0.267 OA
BRANCH  75  78
ATOM     78  C   UNL A   1      32.754  27.218  23.736  1.00  0.00     0.153 A 
ATOM     79  N   UNL A   1      33.269  26.017  24.056  1.00  0.00    -0.162 NA
ATOM     80  C   UNL A   1      31.328  27.198  23.800  1.00  0.00     0.006 A 
ATOM     81  N   UNL A   1      32.208  25.185  24.094  1.00  0.00    -0.240 N 
ATOM     82  C   UNL A   1      31.021  25.858  23.945  1.00  0.00     0.119 A 
BRANCH  80  83
ATOM     83  C   UNL A   1      30.367  28.341  23.665  1.00  0.00     0.068 C 
BRANCH  83  84
ATOM     84  C   UNL A   1      30.157  28.797  22.215  1.00  0.00     0.161 C 
BRANCH  84  85
ATOM     85  O   UNL A   1      31.107  29.773  21.806  1.00  0.00    -0.396 OA
ATOM     86  H   UNL A   1      30.890  30.081  20.913  1.00  0.00     0.210 HD
ENDBRANCH  84  85
ENDBRANCH  83  84
ENDBRANCH  80  83
BRANCH  81  87
ATOM     87  C   UNL A   1      32.398  23.790  24.246  1.00  0.00     0.065 A 
ATOM     88  C   UNL A   1      31.545  23.075  25.100  1.00  0.00     0.035 A 
ATOM     89  C   UNL A   1      33.450  23.143  23.585  1.00  0.00     0.035 A 
ATOM     90  C   UNL A   1      31.728  21.702  25.279  1.00  0.00     0.088 A 
ATOM     91  C   UNL A   1      33.669  21.779  23.808  1.00  0.00     0.088 A 
ATOM     92  C   UNL A   1      32.801  21.062  24.646  1.00  0.00     0.269 A 
BRANCH  92  93
ATOM     93  N   UNL A   1      33.022  19.627  24.868  1.00  0.00     0.062 N 
ATOM     94  O   UNL A   1      32.044  18.936  25.187  1.00  0.00    -0.258 OA
ATOM     95  O   UNL A   1      34.171  19.190  24.713  1.00  0.00    -0.258 OA
ENDBRANCH  92  93
ENDBRANCH  81  87
ENDBRANCH  75  78
ENDBRANCH  73  74
ENDBRANCH  72  73
ENDBRANCH   1  72
TORSDOF 19
ENDMDL
MODEL 2
REMARK VINA RESULT:     -11.9      2.806      7.140
REMARK SMILES O=C(NCCCCNC(=O)c1nn(-c2ccc([N+](=O)[O-])cc2)cc1CCO)c1ccc(-c2c3nc(c(-c4cc(S(=O)(=O)[O-])ccc4F)c4ccc([nH]4)c(-c4cc(S(=O)(=O)[O-])ccc4F)c4nc(c(-c5cc(S(=O)(=O)[O-])ccc5F)c5ccc2[nH]5)C=C4)C=C3)cc1
REMARK SMILES IDX 5 1 4 2 3 3 1 4 2 5 28 7 29 8 90 9 30 10 89 11 31 12 32 13
REMARK SMILES IDX 33 14 83 15 34 16 88 17 82 18 84 19 35 20 87 21 81 22 80 23
REMARK SMILES IDX 36 25 68 26 48 27 67 28 49 29 52 30 66 31 85 32 50 33 51 34
REMARK SMILES IDX 65 36 86 37 53 38 37 39 38 40 46 41 39 42 45 43 47 44 44 45
REMARK SMILES IDX 40 46 41 47 42 48 43 49 69 50 70 51 78 52 71 53 77 54 79 55
REMARK SMILES IDX 76 56 72 57 73 58 74 59 75 60 54 61 55 62 63 63 56 64 62 65
REMARK SMILES IDX 64 66 61 67 57 68 58 69 59 70 60 71 6 72 7 73 8 74 9 75
REMARK SMILES IDX 10 77 11 78 12 79 24 80 13 81 23 82 25 83 26 84 27 85 14 87
REMARK SMILES IDX 15 88 22 89 16 90 21 91 17 92 18 93 19 94 20 95
REMARK H PARENT 3 6 84 24 52 35 8 76 27 86
REMARK Flexibility Score: inf
ROOT
ATOM      1  C   UNL A   1      33.807  28.254  26.834  1.00  0.00     0.023 C 
ENDROOT
BRANCH   1   2
ATOM      2  C   UNL A   1      35.019  29.149  27.079  1.00  0.00     0.116 C 
BRANCH   2   3
ATOM      3  N   UNL A   1      35.266  29.478  28.466  1.00  0.00    -0.352 N 
ATOM      4  O   UNL A   1      36.167  30.177  30.346  1.00  0.00    -0.269 OA
ATOM      5  C   UNL A   1      36.381  29.668  29.240  1.00  0.00     0.251 C 
ATOM      6  H   UNL A   1      34.433  29.595  28.977  1.00  0.00     0.163 HD
BRANCH   5   7
ATOM      7  C   UNL A   1      37.779  29.271  28.897  1.00  0.00     0.039 A 
ATOM      8  C   UNL A   1      38.490  29.631  27.753  1.00  0.00     0.014 A 
ATOM      9  C   UNL A   1      38.424  28.438  29.839  1.00  0.00     0.014 A 
ATOM     10  C   UNL A   1      39.784  29.130  27.539  1.00  0.00     0.010 A 
ATOM     11  C   UNL A   1      39.708  27.932  29.627  1.00  0.00     0.010 A 
ATOM     12  C   UNL A   1      40.390  28.261  28.462  1.00  0.00    -0.014 A 
BRANCH  12  13
ATOM     13  C   UNL A   1      41.816  27.928  28.302  1.00  0.00     0.031 A 
ATOM     14  C   UNL A   1      42.035  26.641  27.582  1.00  0.00     0.074 A 
ATOM     15  C   UNL A   1      42.882  28.706  28.604  1.00  0.00     0.049 A 
ATOM     16  N   UNL A   1      42.483  25.534  28.073  1.00  0.00    -0.248 NA
ATOM     17  C   UNL A   1      41.558  26.525  26.196  1.00  0.00     0.031 C 
ATOM     18  C   UNL A   1      42.880  30.096  29.060  1.00  0.00     0.029 A 
ATOM     19  N   UNL A   1      44.224  28.428  28.494  1.00  0.00    -0.354 N 
ATOM     20  C   UNL A   1      42.576  24.646  27.004  1.00  0.00     0.074 A 
ATOM     21  C   UNL A   1      41.818  25.242  25.937  1.00  0.00     0.031 C 
ATOM     22  C   UNL A   1      44.137  30.597  28.995  1.00  0.00     0.029 A 
ATOM     23  C   UNL A   1      45.064  29.538  28.618  1.00  0.00     0.049 A 
ATOM     24  H   UNL A   1      44.565  27.518  28.341  1.00  0.00     0.167 HD
ATOM     25  C   UNL A   1      43.463  23.611  27.026  1.00  0.00     0.034 A 
ATOM     26  C   UNL A   1      46.414  29.602  28.409  1.00  0.00     0.034 A 
ATOM     27  C   UNL A   1      43.917  23.353  28.378  1.00  0.00     0.049 A 
ATOM     28  C   UNL A   1      46.945  28.229  28.572  1.00  0.00     0.074 A 
ATOM     29  C   UNL A   1      43.287  23.062  29.574  1.00  0.00     0.029 A 
ATOM     30  N   UNL A   1      45.190  23.749  28.727  1.00  0.00    -0.354 N 
ATOM     31  N   UNL A   1      46.964  27.599  29.712  1.00  0.00    -0.248 NA
ATOM     32  C   UNL A   1      47.032  27.383  27.393  1.00  0.00     0.031 C 
ATOM     33  C   UNL A   1      44.013  23.793  30.558  1.00  0.00     0.029 A 
ATOM     34  C   UNL A   1      45.098  24.405  29.928  1.00  0.00     0.049 A 
ATOM     35  H   UNL A   1      46.013  23.590  28.210  1.00  0.00     0.167 HD
ATOM     36  C   UNL A   1      46.604  26.299  29.402  1.00  0.00     0.074 A 
ATOM     37  C   UNL A   1      46.753  26.201  27.951  1.00  0.00     0.031 C 
ATOM     38  C   UNL A   1      45.955  25.510  30.310  1.00  0.00     0.034 A 
BRANCH  25  39
ATOM     39  C   UNL A   1      44.224  23.095  25.817  1.00  0.00     0.023 A 
ATOM     40  C   UNL A   1      44.178  21.706  25.585  1.00  0.00     0.031 A 
ATOM     41  C   UNL A   1      45.214  23.798  25.093  1.00  0.00     0.131 A 
ATOM     42  C   UNL A   1      45.171  21.063  24.828  1.00  0.00     0.055 A 
ATOM     43  C   UNL A   1      46.156  23.160  24.278  1.00  0.00     0.041 A 
ATOM     44  F   UNL A   1      45.388  25.119  25.189  1.00  0.00    -0.206 F 
ATOM     45  C   UNL A   1      46.167  21.781  24.177  1.00  0.00     0.022 A 
BRANCH  42  46
ATOM     46  S   UNL A   1      45.253  19.255  24.896  1.00  0.00     0.124 S 
ATOM     47  O   UNL A   1      46.592  19.053  25.442  1.00  0.00    -0.237 OA
ATOM     48  O   UNL A   1      44.140  18.939  25.785  1.00  0.00    -0.237 OA
ATOM     49  O   UNL A   1      45.075  18.856  23.504  1.00  0.00    -0.744 OA
ENDBRANCH  42  46
ENDBRANCH  25  39
BRANCH  26  50
ATOM     50  C   UNL A   1      47.233  30.706  27.813  1.00  0.00     0.023 A 
ATOM     51  C   UNL A   1      46.684  31.773  27.055  1.00  0.00     0.031 A 
ATOM     52  C   UNL A   1      48.572  30.863  28.230  1.00  0.00     0.131 A 
ATOM     53  C   UNL A   1      47.465  32.921  26.756  1.00  0.00     0.055 A 
ATOM     54  C   UNL A   1      49.334  31.997  27.937  1.00  0.00     0.041 A 
ATOM     55  F   UNL A   1      49.162  29.954  29.022  1.00  0.00    -0.206 F 
ATOM     56  C   UNL A   1      48.781  33.037  27.207  1.00  0.00     0.022 A 
BRANCH  53  57
ATOM     57  S   UNL A   1      46.758  34.345  25.850  1.00  0.00     0.124 S 
ATOM     58  O   UNL A   1      46.500  35.301  26.920  1.00  0.00    -0.237 OA
ATOM     59  O   UNL A   1      47.822  34.687  24.914  1.00  0.00    -0.237 OA
ATOM     60  O   UNL A   1      45.556  33.789  25.225  1.00  0.00    -0.744 OA
ENDBRANCH  53  57
ENDBRANCH  26  50
BRANCH  38  61
ATOM     61  C   UNL A   1      45.957  25.912  31.770  1.00  0.00     0.023 A 
ATOM     62  C   UNL A   1      44.858  26.451  32.478  1.00  0.00     0.031 A 
ATOM     63  C   UNL A   1      47.127  25.635  32.501  1.00  0.00     0.131 A 
ATOM     64  C   UNL A   1      44.967  26.704  33.860  1.00  0.00     0.055 A 
ATOM     65  C   UNL A   1      47.223  25.863  33.871  1.00  0.00     0.041 A 
ATOM     66  F   UNL A   1      48.202  25.105  31.894  1.00  0.00    -0.206 F 
ATOM     67  C   UNL A   1      46.143  26.405  34.556  1.00  0.00     0.022 A 
BRANCH  64  68
ATOM     68  S   UNL A   1      43.588  27.453  34.787  1.00  0.00     0.124 S 
ATOM     69  O   UNL A   1      43.911  27.165  36.179  1.00  0.00    -0.237 OA
ATOM     70  O   UNL A   1      43.667  28.856  34.388  1.00  0.00    -0.237 OA
ATOM     71  O   UNL A   1      42.412  26.745  34.277  1.00  0.00    -0.744 OA
ENDBRANCH  64  68
ENDBRANCH  38  61
ENDBRANCH  12  13
ENDBRANCH   5   7
ENDBRANCH   2   3
ENDBRANCH   1   2
BRANCH   1  72
ATOM     72  C   UNL A   1      33.959  27.181  25.746  1.00  0.00     0.023 C 
BRANCH  72  73
ATOM     73  C   UNL A   1      33.377  25.795  26.046  1.00  0.00     0.116 C 
BRANCH  73  74
ATOM     74  N   UNL A   1      31.922  25.775  26.076  1.00  0.00    -0.351 N 
ATOM     75  C   UNL A   1      31.048  24.915  25.447  1.00  0.00     0.272 C 
ATOM     76  H   UNL A   1      31.502  26.478  26.624  1.00  0.00     0.163 HD
ATOM     77  O   UNL A   1      29.837  25.100  25.556  1.00  0.00    -0.267 OA
BRANCH  75  78
ATOM     78  C   UNL A   1      31.577  23.831  24.613  1.00  0.00     0.153 A 
ATOM     79  N   UNL A   1      31.420  22.536  24.943  1.00  0.00    -0.162 NA
ATOM     80  C   UNL A   1      32.234  23.963  23.352  1.00  0.00     0.006 A 
ATOM     81  N   UNL A   1      32.160  21.857  24.042  1.00  0.00    -0.240 N 
ATOM     82  C   UNL A   1      32.666  22.681  23.068  1.00  0.00     0.119 A 
BRANCH  80  83
ATOM     83  C   UNL A   1      32.479  25.204  22.548  1.00  0.00     0.068 C 
BRANCH  83  84
ATOM     84  C   UNL A   1      32.970  24.925  21.122  1.00  0.00     0.161 C 
BRANCH  84  85
ATOM     85  O   UNL A   1      33.045  26.103  20.329  1.00  0.00    -0.396 OA
ATOM     86  H   UNL A   1      33.816  26.050  19.744  1.00  0.00     0.210 HD
ENDBRANCH  84  85
ENDBRANCH  83  84
ENDBRANCH  80  83
BRANCH  81  87
ATOM     87  C   UNL A   1      32.358  20.463  24.184  1.00  0.00     0.065 A 
ATOM     88  C   UNL A   1      32.740  19.953  25.434  1.00  0.00     0.035 A 
ATOM     89  C   UNL A   1      32.218  19.612  23.080  1.00  0.00     0.035 A 
ATOM     90  C   UNL A   1      32.960  18.583  25.591  1.00  0.00     0.088 A 
ATOM     91  C   UNL A   1      32.495  18.248  23.222  1.00  0.00     0.088 A 
ATOM     92  C   UNL A   1      32.854  17.737  24.478  1.00  0.00     0.269 A 
BRANCH  92  93
ATOM     93  N   UNL A   1      33.130  16.302  24.631  1.00  0.00     0.062 N 
ATOM     94  O   UNL A   1      32.343  15.633  25.316  1.00  0.00    -0.258 OA
ATOM     95  O   UNL A   1      34.127  15.843  24.056  1.00  0.00    -0.258 OA
ENDBRANCH  92  93
ENDBRANCH  81  87
ENDBRANCH  75  78
ENDBRANCH  73  74
ENDBRANCH  72  73
ENDBRANCH   1  72
TORSDOF 19
ENDMDL
MODEL 3
REMARK VINA RESULT:     -11.9      2.386      6.975
REMARK SMILES O=C(NCCCCNC(=O)c1nn(-c2ccc([N+](=O)[O-])cc2)cc1CCO)c1ccc(-c2c3nc(c(-c4cc(S(=O)(=O)[O-])ccc4F)c4ccc([nH]4)c(-c4cc(S(=O)(=O)[O-])ccc4F)c4nc(c(-c5cc(S(=O)(=O)[O-])ccc5F)c5ccc2[nH]5)C=C4)C=C3)cc1
REMARK SMILES IDX 5 1 4 2 3 3 1 4 2 5 28 7 29 8 90 9 30 10 89 11 31 12 32 13
REMARK SMILES IDX 33 14 83 15 34 16 88 17 82 18 84 19 35 20 87 21 81 22 80 23
REMARK SMILES IDX 36 25 68 26 48 27 67 28 49 29 52 30 66 31 85 32 50 33 51 34
REMARK SMILES IDX 65 36 86 37 53 38 37 39 38 40 46 41 39 42 45 43 47 44 44 45
REMARK SMILES IDX 40 46 41 47 42 48 43 49 69 50 70 51 78 52 71 53 77 54 79 55
REMARK SMILES IDX 76 56 72 57 73 58 74 59 75 60 54 61 55 62 63 63 56 64 62 65
REMARK SMILES IDX 64 66 61 67 57 68 58 69 59 70 60 71 6 72 7 73 8 74 9 75
REMARK SMILES IDX 10 77 11 78 12 79 24 80 13 81 23 82 25 83 26 84 27 85 14 87
REMARK SMILES IDX 15 88 22 89 16 90 21 91 17 92 18 93 19 94 20 95
REMARK H PARENT 3 6 84 24 52 35 8 76 27 86
REMARK Flexibility Score: inf
ROOT
ATOM      1  C   UNL A   1      33.730  30.839  27.320  1.00  0.00     0.023 C 
ENDROOT
BRANCH   1   2
ATOM      2  C   UNL A   1      35.132  30.367  27.697  1.00  0.00     0.116 C 
BRANCH   2   3
ATOM      3  N   UNL A   1      35.308  30.027  29.093  1.00  0.00    -0.352 N 
ATOM      4  O   UNL A   1      36.137  29.711  31.105  1.00  0.00    -0.269 OA
ATOM      5  C   UNL A   1      36.374  29.706  29.891  1.00  0.00     0.251 C 
ATOM      6  H   UNL A   1      34.458  30.028  29.588  1.00  0.00     0.163 HD
BRANCH   5   7
ATOM      7  C   UNL A   1      37.738  29.303  29.433  1.00  0.00     0.039 A 
ATOM      8  C   UNL A   1      38.452  29.848  28.367  1.00  0.00     0.014 A 
ATOM      9  C   UNL A   1      38.342  28.257  30.166  1.00  0.00     0.014 A 
ATOM     10  C   UNL A   1      39.707  29.324  28.018  1.00  0.00     0.010 A 
ATOM     11  C   UNL A   1      39.586  27.729  29.817  1.00  0.00     0.010 A 
ATOM     12  C   UNL A   1      40.270  28.248  28.725  1.00  0.00    -0.014 A 
BRANCH  12  13
ATOM     13  C   UNL A   1      41.668  27.869  28.458  1.00  0.00     0.031 A 
ATOM     14  C   UNL A   1      41.791  26.584  27.714  1.00  0.00     0.074 A 
ATOM     15  C   UNL A   1      42.779  28.608  28.688  1.00  0.00     0.049 A 
ATOM     16  N   UNL A   1      42.235  25.457  28.162  1.00  0.00    -0.248 NA
ATOM     17  C   UNL A   1      41.210  26.498  26.366  1.00  0.00     0.031 C 
ATOM     18  C   UNL A   1      42.857  29.993  29.155  1.00  0.00     0.029 A 
ATOM     19  N   UNL A   1      44.099  28.287  28.479  1.00  0.00    -0.354 N 
ATOM     20  C   UNL A   1      42.220  24.578  27.082  1.00  0.00     0.074 A 
ATOM     21  C   UNL A   1      41.407  25.211  26.078  1.00  0.00     0.031 C 
ATOM     22  C   UNL A   1      44.123  30.452  29.003  1.00  0.00     0.029 A 
ATOM     23  C   UNL A   1      44.984  29.368  28.550  1.00  0.00     0.049 A 
ATOM     24  H   UNL A   1      44.398  27.368  28.293  1.00  0.00     0.167 HD
ATOM     25  C   UNL A   1      43.070  23.514  27.031  1.00  0.00     0.034 A 
ATOM     26  C   UNL A   1      46.316  29.388  28.244  1.00  0.00     0.034 A 
ATOM     27  C   UNL A   1      43.612  23.227  28.343  1.00  0.00     0.049 A 
ATOM     28  C   UNL A   1      46.811  27.996  28.356  1.00  0.00     0.074 A 
ATOM     29  C   UNL A   1      43.061  22.944  29.580  1.00  0.00     0.029 A 
ATOM     30  N   UNL A   1      44.920  23.576  28.602  1.00  0.00    -0.354 N 
ATOM     31  N   UNL A   1      46.891  27.354  29.487  1.00  0.00    -0.248 NA
ATOM     32  C   UNL A   1      46.783  27.160  27.167  1.00  0.00     0.031 C 
ATOM     33  C   UNL A   1      43.882  23.640  30.514  1.00  0.00     0.029 A 
ATOM     34  C   UNL A   1      44.938  24.222  29.812  1.00  0.00     0.049 A 
ATOM     35  H   UNL A   1      45.697  23.396  28.026  1.00  0.00     0.167 HD
ATOM     36  C   UNL A   1      46.465  26.070  29.194  1.00  0.00     0.074 A 
ATOM     37  C   UNL A   1      46.505  25.983  27.735  1.00  0.00     0.031 C 
ATOM     38  C   UNL A   1      45.857  25.294  30.139  1.00  0.00     0.034 A 
BRANCH  25  39
ATOM     39  C   UNL A   1      43.723  22.986  25.765  1.00  0.00     0.023 A 
ATOM     40  C   UNL A   1      43.786  21.586  25.622  1.00  0.00     0.031 A 
ATOM     41  C   UNL A   1      44.543  23.723  24.880  1.00  0.00     0.131 A 
ATOM     42  C   UNL A   1      44.737  20.984  24.780  1.00  0.00     0.055 A 
ATOM     43  C   UNL A   1      45.435  23.118  23.989  1.00  0.00     0.041 A 
ATOM     44  F   UNL A   1      44.596  25.058  24.876  1.00  0.00    -0.206 F 
ATOM     45  C   UNL A   1      45.569  21.741  23.966  1.00  0.00     0.022 A 
BRANCH  42  46
ATOM     46  S   UNL A   1      45.004  19.200  24.942  1.00  0.00     0.124 S 
ATOM     47  O   UNL A   1      46.322  19.167  25.567  1.00  0.00    -0.237 OA
ATOM     48  O   UNL A   1      43.880  18.805  25.785  1.00  0.00    -0.237 OA
ATOM     49  O   UNL A   1      44.950  18.724  23.563  1.00  0.00    -0.744 OA
ENDBRANCH  42  46
ENDBRANCH  25  39
BRANCH  26  50
ATOM     50  C   UNL A   1      47.127  30.471  27.599  1.00  0.00     0.023 A 
ATOM     51  C   UNL A   1      46.562  31.625  26.996  1.00  0.00     0.031 A 
ATOM     52  C   UNL A   1      48.520  30.502  27.819  1.00  0.00     0.131 A 
ATOM     53  C   UNL A   1      47.382  32.733  26.653  1.00  0.00     0.055 A 
ATOM     54  C   UNL A   1      49.321  31.597  27.483  1.00  0.00     0.041 A 
ATOM     55  F   UNL A   1      49.143  29.500  28.458  1.00  0.00    -0.206 F 
ATOM     56  C   UNL A   1      48.754  32.723  26.908  1.00  0.00     0.022 A 
BRANCH  53  57
ATOM     57  S   UNL A   1      46.669  34.264  25.949  1.00  0.00     0.124 S 
ATOM     58  O   UNL A   1      47.709  34.698  25.025  1.00  0.00    -0.237 OA
ATOM     59  O   UNL A   1      45.424  33.792  25.354  1.00  0.00    -0.237 OA
ATOM     60  O   UNL A   1      46.492  35.128  27.118  1.00  0.00    -0.744 OA
ENDBRANCH  53  57
ENDBRANCH  26  50
BRANCH  38  61
ATOM     61  C   UNL A   1      45.979  25.680  31.599  1.00  0.00     0.023 A 
ATOM     62  C   UNL A   1      47.048  25.332  32.457  1.00  0.00     0.031 A 
ATOM     63  C   UNL A   1      44.986  26.535  32.113  1.00  0.00     0.131 A 
ATOM     64  C   UNL A   1      47.082  25.829  33.775  1.00  0.00     0.055 A 
ATOM     65  C   UNL A   1      45.036  27.043  33.408  1.00  0.00     0.041 A 
ATOM     66  F   UNL A   1      43.952  26.919  31.345  1.00  0.00    -0.206 F 
ATOM     67  C   UNL A   1      46.083  26.686  34.248  1.00  0.00     0.022 A 
BRANCH  64  68
ATOM     68  S   UNL A   1      48.416  25.351  34.923  1.00  0.00     0.124 S 
ATOM     69  O   UNL A   1      49.275  26.529  34.962  1.00  0.00    -0.237 OA
ATOM     70  O   UNL A   1      47.682  25.053  36.150  1.00  0.00    -0.237 OA
ATOM     71  O   UNL A   1      49.016  24.182  34.277  1.00  0.00    -0.744 OA
ENDBRANCH  64  68
ENDBRANCH  38  61
ENDBRANCH  12  13
ENDBRANCH   5   7
ENDBRANCH   2   3
ENDBRANCH   1   2
BRANCH   1  72
ATOM     72  C   UNL A   1      33.021  30.050  26.209  1.00  0.00     0.023 C 
BRANCH  72  73
ATOM     73  C   UNL A   1      33.733  28.803  25.675  1.00  0.00     0.116 C 
BRANCH  73  74
ATOM     74  N   UNL A   1      34.024  28.869  24.250  1.00  0.00    -0.351 N 
ATOM     75  C   UNL A   1      33.563  28.071  23.226  1.00  0.00     0.272 C 
ATOM     76  H   UNL A   1      34.641  29.588  23.980  1.00  0.00     0.163 HD
ATOM     77  O   UNL A   1      33.974  28.259  22.083  1.00  0.00    -0.267 OA
BRANCH  75  78
ATOM     78  C   UNL A   1      32.635  26.975  23.528  1.00  0.00     0.153 A 
ATOM     79  N   UNL A   1      33.068  25.731  23.804  1.00  0.00    -0.162 NA
ATOM     80  C   UNL A   1      31.216  27.064  23.652  1.00  0.00     0.006 A 
ATOM     81  N   UNL A   1      31.948  24.982  23.871  1.00  0.00    -0.240 N 
ATOM     82  C   UNL A   1      30.812  25.749  23.784  1.00  0.00     0.119 A 
BRANCH  80  83
ATOM     83  C   UNL A   1      30.342  28.280  23.578  1.00  0.00     0.068 C 
BRANCH  83  84
ATOM     84  C   UNL A   1      30.123  28.792  22.149  1.00  0.00     0.161 C 
BRANCH  84  85
ATOM     85  O   UNL A   1      30.889  29.955  21.861  1.00  0.00    -0.396 OA
ATOM     86  H   UNL A   1      30.995  30.042  20.902  1.00  0.00     0.210 HD
ENDBRANCH  84  85
ENDBRANCH  83  84
ENDBRANCH  80  83
BRANCH  81  87
ATOM     87  C   UNL A   1      32.034  23.574  23.988  1.00  0.00     0.065 A 
ATOM     88  C   UNL A   1      31.638  22.964  25.187  1.00  0.00     0.035 A 
ATOM     89  C   UNL A   1      32.550  22.807  22.936  1.00  0.00     0.035 A 
ATOM     90  C   UNL A   1      31.734  21.579  25.330  1.00  0.00     0.088 A 
ATOM     91  C   UNL A   1      32.701  21.426  23.099  1.00  0.00     0.088 A 
ATOM     92  C   UNL A   1      32.282  20.816  24.291  1.00  0.00     0.269 A 
BRANCH  92  93
ATOM     93  N   UNL A   1      32.426  19.364  24.457  1.00  0.00     0.062 N 
ATOM     94  O   UNL A   1      32.826  18.945  25.553  1.00  0.00    -0.258 OA
ATOM     95  O   UNL A   1      32.129  18.641  23.495  1.00  0.00    -0.258 OA
ENDBRANCH  92  93
ENDBRANCH  81  87
ENDBRANCH  75  78
ENDBRANCH  73  74
ENDBRANCH  72  73
ENDBRANCH   1  72
TORSDOF 19
ENDMDL
