MODEL 1
REMARK VINA RESULT:     -11.4      0.000      0.000
REMARK SMILES Cc1nc(C[N@@H+]2CCC[C@H]2C(=O)NCCCCNC(=O)c2ccc(-c3c4nc(c(-c5cc(S(=O)(=O)[O-])ccc5F)c5ccc([nH]5)c(-c5cc(S(=O)(=O)[O-])ccc5F)c5nc(c(-c6cc(S(=O)(=O)[O-])ccc6F)c6ccc3[nH]6)C=C5)C=C4)cc2)cs1
REMARK SMILES IDX 16 1 15 2 14 3 13 4 11 5 12 6 10 8 6 9 7 10 8 12 9 13 5 14
REMARK SMILES IDX 4 15 1 16 2 17 3 18 85 19 84 20 17 21 18 22 19 23 20 25
REMARK SMILES IDX 21 26 22 27 83 28 23 29 82 30 24 31 25 32 26 33 76 34 27 35
REMARK SMILES IDX 81 36 75 37 77 38 28 39 80 40 74 41 73 42 29 44 61 45 41 46
REMARK SMILES IDX 60 47 42 48 45 49 59 50 78 51 43 52 44 53 58 55 79 56 46 57
REMARK SMILES IDX 30 58 31 59 39 60 32 61 38 62 40 63 37 64 33 65 34 66 35 67
REMARK SMILES IDX 36 68 62 69 63 70 71 71 64 72 70 73 72 74 69 75 65 76 66 77
REMARK SMILES IDX 67 78 68 79 47 80 48 81 56 82 49 83 55 84 57 85 54 86 50 87
REMARK SMILES IDX 51 88 52 89 53 90
REMARK H PARENT 13 7 6 11 18 24 77 43 45 54
REMARK Flexibility Score: inf
ROOT
ATOM      1  C   UNL A   1      32.079  31.192  26.718  1.00  0.00     0.023 C 
ENDROOT
BRANCH   1   2
ATOM      2  C   UNL A   1      32.179  29.684  26.952  1.00  0.00     0.023 C 
BRANCH   2   3
ATOM      3  C   UNL A   1      33.518  29.067  26.563  1.00  0.00     0.116 C 
BRANCH   3   4
ATOM      4  N   UNL A   1      33.820  29.264  25.157  1.00  0.00    -0.351 N 
ATOM      5  C   UNL A   1      33.255  28.807  24.009  1.00  0.00     0.278 C 
ATOM      6  O   UNL A   1      33.805  29.185  22.964  1.00  0.00    -0.268 OA
ATOM      7  H   UNL A   1      34.595  29.851  25.003  1.00  0.00     0.163 HD
BRANCH   5   8
ATOM      8  C   UNL A   1      32.063  27.820  23.931  1.00  0.00     0.274 C 
ATOM      9  N   UNL A   1      31.425  27.754  22.609  1.00  0.00    -0.320 N 
ATOM     10  C   UNL A   1      31.958  26.607  21.895  1.00  0.00     0.263 C 
ATOM     11  H   UNL A   1      31.681  28.578  22.066  1.00  0.00     0.349 HD
ATOM     12  C   UNL A   1      32.279  25.580  22.958  1.00  0.00     0.068 C 
ATOM     13  C   UNL A   1      32.556  26.392  24.215  1.00  0.00     0.081 C 
BRANCH   9  14
ATOM     14  C   UNL A   1      29.973  27.935  22.612  1.00  0.00     0.321 C 
BRANCH  14  15
ATOM     15  C   UNL A   1      29.505  29.360  22.576  1.00  0.00     0.106 A 
ATOM     16  C   UNL A   1      28.002  31.973  20.509  1.00  0.00     0.079 C 
ATOM     17  C   UNL A   1      28.607  31.122  21.569  1.00  0.00     0.090 A 
ATOM     18  N   UNL A   1      29.019  29.887  21.385  1.00  0.00    -0.241 NA
ATOM     19  S   UNL A   1      28.802  31.737  23.162  1.00  0.00    -0.127 S 
ATOM     20  C   UNL A   1      29.441  30.228  23.651  1.00  0.00     0.096 A 
ENDBRANCH  14  15
ENDBRANCH   9  14
ENDBRANCH   5   8
ENDBRANCH   3   4
ENDBRANCH   2   3
ENDBRANCH   1   2
BRANCH   1  21
ATOM     21  C   UNL A   1      33.170  32.030  27.376  1.00  0.00     0.116 C 
BRANCH  21  22
ATOM     22  N   UNL A   1      32.776  33.412  27.604  1.00  0.00    -0.352 N 
ATOM     23  C   UNL A   1      33.267  34.313  28.524  1.00  0.00     0.251 C 
ATOM     24  H   UNL A   1      32.058  33.750  27.021  1.00  0.00     0.163 HD
ATOM     25  O   UNL A   1      32.733  35.403  28.656  1.00  0.00    -0.269 OA
BRANCH  23  26
ATOM     26  C   UNL A   1      34.417  33.926  29.371  1.00  0.00     0.039 A 
ATOM     27  C   UNL A   1      34.188  33.127  30.493  1.00  0.00     0.014 A 
ATOM     28  C   UNL A   1      35.715  34.321  29.039  1.00  0.00     0.014 A 
ATOM     29  C   UNL A   1      35.272  32.658  31.240  1.00  0.00     0.010 A 
ATOM     30  C   UNL A   1      36.796  33.794  29.739  1.00  0.00     0.010 A 
ATOM     31  C   UNL A   1      36.586  32.955  30.844  1.00  0.00    -0.014 A 
BRANCH  31  32
ATOM     32  C   UNL A   1      37.755  32.396  31.571  1.00  0.00     0.031 A 
ATOM     33  C   UNL A   1      38.563  31.286  30.960  1.00  0.00     0.074 A 
ATOM     34  C   UNL A   1      38.045  32.838  32.810  1.00  0.00     0.049 A 
ATOM     35  N   UNL A   1      39.568  30.614  31.462  1.00  0.00    -0.248 NA
ATOM     36  C   UNL A   1      38.159  30.850  29.615  1.00  0.00     0.031 C 
ATOM     37  C   UNL A   1      37.309  33.880  33.529  1.00  0.00     0.029 A 
ATOM     38  N   UNL A   1      39.030  32.461  33.690  1.00  0.00    -0.354 N 
ATOM     39  C   UNL A   1      39.909  29.667  30.502  1.00  0.00     0.074 A 
ATOM     40  C   UNL A   1      38.952  29.807  29.424  1.00  0.00     0.031 C 
ATOM     41  C   UNL A   1      37.889  34.082  34.724  1.00  0.00     0.029 A 
ATOM     42  C   UNL A   1      39.004  33.155  34.876  1.00  0.00     0.049 A 
ATOM     43  H   UNL A   1      39.691  31.760  33.488  1.00  0.00     0.167 HD
ATOM     44  C   UNL A   1      40.937  28.783  30.507  1.00  0.00     0.034 A 
ATOM     45  C   UNL A   1      39.789  33.050  35.967  1.00  0.00     0.034 A 
ATOM     46  C   UNL A   1      41.883  28.660  31.591  1.00  0.00     0.049 A 
ATOM     47  C   UNL A   1      40.905  32.038  35.970  1.00  0.00     0.074 A 
ATOM     48  C   UNL A   1      42.995  27.842  31.682  1.00  0.00     0.029 A 
ATOM     49  N   UNL A   1      41.819  29.370  32.786  1.00  0.00    -0.354 N 
ATOM     50  N   UNL A   1      41.249  31.184  35.034  1.00  0.00    -0.248 NA
ATOM     51  C   UNL A   1      41.741  31.984  37.175  1.00  0.00     0.031 C 
ATOM     52  C   UNL A   1      43.561  28.006  32.952  1.00  0.00     0.029 A 
ATOM     53  C   UNL A   1      42.849  28.983  33.630  1.00  0.00     0.049 A 
ATOM     54  H   UNL A   1      41.140  30.050  33.001  1.00  0.00     0.167 HD
ATOM     55  C   UNL A   1      42.362  30.510  35.528  1.00  0.00     0.074 A 
ATOM     56  C   UNL A   1      42.635  31.065  36.838  1.00  0.00     0.031 C 
ATOM     57  C   UNL A   1      43.098  29.529  34.945  1.00  0.00     0.034 A 
BRANCH  44  58
ATOM     58  C   UNL A   1      41.059  27.866  29.311  1.00  0.00     0.023 A 
ATOM     59  C   UNL A   1      42.051  28.060  28.332  1.00  0.00     0.031 A 
ATOM     60  C   UNL A   1      40.133  26.828  29.105  1.00  0.00     0.131 A 
ATOM     61  C   UNL A   1      42.026  27.309  27.147  1.00  0.00     0.055 A 
ATOM     62  C   UNL A   1      40.174  26.018  27.967  1.00  0.00     0.041 A 
ATOM     63  F   UNL A   1      39.151  26.601  29.991  1.00  0.00    -0.206 F 
ATOM     64  C   UNL A   1      41.111  26.271  26.969  1.00  0.00     0.022 A 
BRANCH  61  65
ATOM     65  S   UNL A   1      43.080  27.840  25.768  1.00  0.00     0.124 S 
ATOM     66  O   UNL A   1      43.666  29.069  26.301  1.00  0.00    -0.237 OA
ATOM     67  O   UNL A   1      43.991  26.712  25.614  1.00  0.00    -0.237 OA
ATOM     68  O   UNL A   1      42.135  28.036  24.671  1.00  0.00    -0.744 OA
ENDBRANCH  61  65
ENDBRANCH  44  58
BRANCH  45  69
ATOM     69  C   UNL A   1      39.556  33.934  37.143  1.00  0.00     0.023 A 
ATOM     70  C   UNL A   1      38.928  33.442  38.298  1.00  0.00     0.031 A 
ATOM     71  C   UNL A   1      39.949  35.284  37.127  1.00  0.00     0.131 A 
ATOM     72  C   UNL A   1      38.681  34.301  39.379  1.00  0.00     0.055 A 
ATOM     73  C   UNL A   1      39.740  36.124  38.221  1.00  0.00     0.041 A 
ATOM     74  F   UNL A   1      40.562  35.799  36.049  1.00  0.00    -0.206 F 
ATOM     75  C   UNL A   1      39.094  35.635  39.354  1.00  0.00     0.022 A 
BRANCH  72  76
ATOM     76  S   UNL A   1      37.767  33.659  40.807  1.00  0.00     0.124 S 
ATOM     77  O   UNL A   1      36.665  32.953  40.162  1.00  0.00    -0.237 OA
ATOM     78  O   UNL A   1      38.769  32.826  41.461  1.00  0.00    -0.237 OA
ATOM     79  O   UNL A   1      37.390  34.867  41.540  1.00  0.00    -0.744 OA
ENDBRANCH  72  76
ENDBRANCH  45  69
BRANCH  57  80
ATOM     80  C   UNL A   1      44.297  29.026  35.713  1.00  0.00     0.023 A 
ATOM     81  C   UNL A   1      44.193  27.983  36.651  1.00  0.00     0.031 A 
ATOM     82  C   UNL A   1      45.559  29.612  35.513  1.00  0.00     0.131 A 
ATOM     83  C   UNL A   1      45.320  27.595  37.392  1.00  0.00     0.055 A 
ATOM     84  C   UNL A   1      46.689  29.182  36.211  1.00  0.00     0.041 A 
ATOM     85  F   UNL A   1      45.716  30.613  34.633  1.00  0.00    -0.206 F 
ATOM     86  C   UNL A   1      46.570  28.177  37.166  1.00  0.00     0.022 A 
BRANCH  83  87
ATOM     87  S   UNL A   1      45.113  26.382  38.724  1.00  0.00     0.124 S 
ATOM     88  O   UNL A   1      46.135  26.800  39.679  1.00  0.00    -0.237 OA
ATOM     89  O   UNL A   1      43.730  26.601  39.134  1.00  0.00    -0.237 OA
ATOM     90  O   UNL A   1      45.368  25.101  38.065  1.00  0.00    -0.744 OA
ENDBRANCH  83  87
ENDBRANCH  57  80
ENDBRANCH  31  32
ENDBRANCH  23  26
ENDBRANCH  21  22
ENDBRANCH   1  21
TORSDOF 16
ENDMDL
MODEL 2
REMARK VINA RESULT:     -11.4      1.599      7.840
REMARK SMILES Cc1nc(C[N@@H+]2CCC[C@H]2C(=O)NCCCCNC(=O)c2ccc(-c3c4nc(c(-c5cc(S(=O)(=O)[O-])ccc5F)c5ccc([nH]5)c(-c5cc(S(=O)(=O)[O-])ccc5F)c5nc(c(-c6cc(S(=O)(=O)[O-])ccc6F)c6ccc3[nH]6)C=C5)C=C4)cc2)cs1
REMARK SMILES IDX 16 1 15 2 14 3 13 4 11 5 12 6 10 8 6 9 7 10 8 12 9 13 5 14
REMARK SMILES IDX 4 15 1 16 2 17 3 18 85 19 84 20 17 21 18 22 19 23 20 25
REMARK SMILES IDX 21 26 22 27 83 28 23 29 82 30 24 31 25 32 26 33 76 34 27 35
REMARK SMILES IDX 81 36 75 37 77 38 28 39 80 40 74 41 73 42 29 44 61 45 41 46
REMARK SMILES IDX 60 47 42 48 45 49 59 50 78 51 43 52 44 53 58 55 79 56 46 57
REMARK SMILES IDX 30 58 31 59 39 60 32 61 38 62 40 63 37 64 33 65 34 66 35 67
REMARK SMILES IDX 36 68 62 69 63 70 71 71 64 72 70 73 72 74 69 75 65 76 66 77
REMARK SMILES IDX 67 78 68 79 47 80 48 81 56 82 49 83 55 84 57 85 54 86 50 87
REMARK SMILES IDX 51 88 52 89 53 90
REMARK H PARENT 13 7 6 11 18 24 77 43 45 54
REMARK Flexibility Score: inf
ROOT
ATOM      1  C   UNL A   1      31.798  31.677  26.676  1.00  0.00     0.023 C 
ENDROOT
BRANCH   1   2
ATOM      2  C   UNL A   1      31.810  30.157  26.840  1.00  0.00     0.023 C 
BRANCH   2   3
ATOM      3  C   UNL A   1      33.155  29.497  26.552  1.00  0.00     0.116 C 
BRANCH   3   4
ATOM      4  N   UNL A   1      33.488  29.532  25.141  1.00  0.00    -0.351 N 
ATOM      5  C   UNL A   1      32.905  29.007  24.031  1.00  0.00     0.278 C 
ATOM      6  O   UNL A   1      33.494  29.240  22.966  1.00  0.00    -0.268 OA
ATOM      7  H   UNL A   1      34.307  30.043  24.946  1.00  0.00     0.163 HD
BRANCH   5   8
ATOM      8  C   UNL A   1      31.643  28.107  24.026  1.00  0.00     0.274 C 
ATOM      9  N   UNL A   1      30.964  28.035  22.725  1.00  0.00    -0.320 N 
ATOM     10  C   UNL A   1      31.392  26.825  22.046  1.00  0.00     0.263 C 
ATOM     11  H   UNL A   1      31.261  28.816  22.142  1.00  0.00     0.349 HD
ATOM     12  C   UNL A   1      31.670  25.821  23.141  1.00  0.00     0.068 C 
ATOM     13  C   UNL A   1      32.041  26.659  24.356  1.00  0.00     0.081 C 
BRANCH   9  14
ATOM     14  C   UNL A   1      29.529  28.322  22.759  1.00  0.00     0.321 C 
BRANCH  14  15
ATOM     15  C   UNL A   1      29.158  29.763  22.568  1.00  0.00     0.106 A 
ATOM     16  C   UNL A   1      27.899  32.248  20.203  1.00  0.00     0.079 C 
ATOM     17  C   UNL A   1      28.411  31.470  21.363  1.00  0.00     0.090 A 
ATOM     18  N   UNL A   1      28.746  30.199  21.314  1.00  0.00    -0.241 NA
ATOM     19  S   UNL A   1      28.598  32.226  22.895  1.00  0.00    -0.127 S 
ATOM     20  C   UNL A   1      29.119  30.735  23.551  1.00  0.00     0.096 A 
ENDBRANCH  14  15
ENDBRANCH   9  14
ENDBRANCH   5   8
ENDBRANCH   3   4
ENDBRANCH   2   3
ENDBRANCH   1   2
BRANCH   1  21
ATOM     21  C   UNL A   1      33.007  32.407  27.253  1.00  0.00     0.116 C 
BRANCH  21  22
ATOM     22  N   UNL A   1      32.711  33.770  27.669  1.00  0.00    -0.352 N 
ATOM     23  C   UNL A   1      33.280  34.509  28.683  1.00  0.00     0.251 C 
ATOM     24  H   UNL A   1      32.006  34.226  27.155  1.00  0.00     0.163 HD
ATOM     25  O   UNL A   1      32.824  35.605  28.970  1.00  0.00    -0.269 OA
BRANCH  23  26
ATOM     26  C   UNL A   1      34.418  33.942  29.440  1.00  0.00     0.039 A 
ATOM     27  C   UNL A   1      34.157  33.036  30.470  1.00  0.00     0.014 A 
ATOM     28  C   UNL A   1      35.734  34.275  29.111  1.00  0.00     0.014 A 
ATOM     29  C   UNL A   1      35.220  32.404  31.120  1.00  0.00     0.010 A 
ATOM     30  C   UNL A   1      36.788  33.591  29.707  1.00  0.00     0.010 A 
ATOM     31  C   UNL A   1      36.543  32.646  30.715  1.00  0.00    -0.014 A 
BRANCH  31  32
ATOM     32  C   UNL A   1      37.683  31.922  31.333  1.00  0.00     0.031 A 
ATOM     33  C   UNL A   1      38.170  32.308  32.701  1.00  0.00     0.074 A 
ATOM     34  C   UNL A   1      38.326  30.967  30.633  1.00  0.00     0.049 A 
ATOM     35  N   UNL A   1      39.193  31.852  33.380  1.00  0.00    -0.248 NA
ATOM     36  C   UNL A   1      37.424  33.377  33.381  1.00  0.00     0.031 C 
ATOM     37  C   UNL A   1      37.977  30.532  29.278  1.00  0.00     0.029 A 
ATOM     38  N   UNL A   1      39.413  30.194  30.958  1.00  0.00    -0.354 N 
ATOM     39  C   UNL A   1      39.222  32.588  34.560  1.00  0.00     0.074 A 
ATOM     40  C   UNL A   1      38.159  33.567  34.465  1.00  0.00     0.031 C 
ATOM     41  C   UNL A   1      38.812  29.549  28.904  1.00  0.00     0.029 A 
ATOM     42  C   UNL A   1      39.782  29.315  29.968  1.00  0.00     0.049 A 
ATOM     43  H   UNL A   1      39.883  30.264  31.821  1.00  0.00     0.167 HD
ATOM     44  C   UNL A   1      40.040  32.444  35.632  1.00  0.00     0.034 A 
ATOM     45  C   UNL A   1      40.792  28.425  29.920  1.00  0.00     0.034 A 
ATOM     46  C   UNL A   1      41.093  31.459  35.709  1.00  0.00     0.049 A 
ATOM     47  C   UNL A   1      41.714  28.302  31.106  1.00  0.00     0.074 A 
ATOM     48  C   UNL A   1      41.945  31.183  36.764  1.00  0.00     0.029 A 
ATOM     49  N   UNL A   1      41.448  30.593  34.680  1.00  0.00    -0.354 N 
ATOM     50  N   UNL A   1      41.699  28.969  32.237  1.00  0.00    -0.248 NA
ATOM     51  C   UNL A   1      42.783  27.301  31.007  1.00  0.00     0.031 C 
ATOM     52  C   UNL A   1      42.856  30.203  36.350  1.00  0.00     0.029 A 
ATOM     53  C   UNL A   1      42.527  29.809  35.063  1.00  0.00     0.049 A 
ATOM     54  H   UNL A   1      40.998  30.543  33.805  1.00  0.00     0.167 HD
ATOM     55  C   UNL A   1      42.740  28.445  32.998  1.00  0.00     0.074 A 
ATOM     56  C   UNL A   1      43.354  27.403  32.200  1.00  0.00     0.031 C 
ATOM     57  C   UNL A   1      43.145  28.787  34.248  1.00  0.00     0.034 A 
BRANCH  44  58
ATOM     58  C   UNL A   1      39.836  33.401  36.785  1.00  0.00     0.023 A 
ATOM     59  C   UNL A   1      40.718  34.472  37.019  1.00  0.00     0.031 A 
ATOM     60  C   UNL A   1      38.791  33.202  37.706  1.00  0.00     0.131 A 
ATOM     61  C   UNL A   1      40.609  35.229  38.195  1.00  0.00     0.055 A 
ATOM     62  C   UNL A   1      38.629  34.024  38.825  1.00  0.00     0.041 A 
ATOM     63  F   UNL A   1      37.926  32.189  37.551  1.00  0.00    -0.206 F 
ATOM     64  C   UNL A   1      39.555  35.030  39.087  1.00  0.00     0.022 A 
BRANCH  61  65
ATOM     65  S   UNL A   1      41.975  36.341  38.633  1.00  0.00     0.124 S 
ATOM     66  O   UNL A   1      43.048  35.392  38.919  1.00  0.00    -0.237 OA
ATOM     67  O   UNL A   1      42.133  37.139  37.422  1.00  0.00    -0.237 OA
ATOM     68  O   UNL A   1      41.467  37.064  39.797  1.00  0.00    -0.744 OA
ENDBRANCH  61  65
ENDBRANCH  44  58
BRANCH  45  69
ATOM     69  C   UNL A   1      40.982  27.572  28.714  1.00  0.00     0.023 A 
ATOM     70  C   UNL A   1      42.007  27.844  27.796  1.00  0.00     0.031 A 
ATOM     71  C   UNL A   1      40.136  26.479  28.457  1.00  0.00     0.131 A 
ATOM     72  C   UNL A   1      42.143  27.053  26.645  1.00  0.00     0.055 A 
ATOM     73  C   UNL A   1      40.301  25.669  27.333  1.00  0.00     0.041 A 
ATOM     74  F   UNL A   1      39.145  26.172  29.311  1.00  0.00    -0.206 F 
ATOM     75  C   UNL A   1      41.305  25.961  26.413  1.00  0.00     0.022 A 
BRANCH  72  76
ATOM     76  S   UNL A   1      43.407  27.505  25.425  1.00  0.00     0.124 S 
ATOM     77  O   UNL A   1      44.184  26.274  25.332  1.00  0.00    -0.237 OA
ATOM     78  O   UNL A   1      42.598  27.843  24.260  1.00  0.00    -0.237 OA
ATOM     79  O   UNL A   1      44.095  28.632  26.052  1.00  0.00    -0.744 OA
ENDBRANCH  72  76
ENDBRANCH  45  69
BRANCH  57  80
ATOM     80  C   UNL A   1      44.283  27.991  34.840  1.00  0.00     0.023 A 
ATOM     81  C   UNL A   1      44.086  26.713  35.394  1.00  0.00     0.031 A 
ATOM     82  C   UNL A   1      45.582  28.529  34.862  1.00  0.00     0.131 A 
ATOM     83  C   UNL A   1      45.160  26.040  35.995  1.00  0.00     0.055 A 
ATOM     84  C   UNL A   1      46.658  27.828  35.409  1.00  0.00     0.041 A 
ATOM     85  F   UNL A   1      45.828  29.745  34.351  1.00  0.00    -0.206 F 
ATOM     86  C   UNL A   1      46.448  26.582  35.991  1.00  0.00     0.022 A 
BRANCH  83  87
ATOM     87  S   UNL A   1      44.836  24.482  36.866  1.00  0.00     0.124 S 
ATOM     88  O   UNL A   1      46.174  23.909  36.973  1.00  0.00    -0.237 OA
ATOM     89  O   UNL A   1      44.238  24.942  38.116  1.00  0.00    -0.237 OA
ATOM     90  O   UNL A   1      43.926  23.770  35.970  1.00  0.00    -0.744 OA
ENDBRANCH  83  87
ENDBRANCH  57  80
ENDBRANCH  31  32
ENDBRANCH  23  26
ENDBRANCH  21  22
ENDBRANCH   1  21
TORSDOF 16
ENDMDL
MODEL 3
REMARK VINA RESULT:     -11.3      5.849     10.929
REMARK SMILES Cc1nc(C[N@@H+]2CCC[C@H]2C(=O)NCCCCNC(=O)c2ccc(-c3c4nc(c(-c5cc(S(=O)(=O)[O-])ccc5F)c5ccc([nH]5)c(-c5cc(S(=O)(=O)[O-])ccc5F)c5nc(c(-c6cc(S(=O)(=O)[O-])ccc6F)c6ccc3[nH]6)C=C5)C=C4)cc2)cs1
REMARK SMILES IDX 16 1 15 2 14 3 13 4 11 5 12 6 10 8 6 9 7 10 8 12 9 13 5 14
REMARK SMILES IDX 4 15 1 16 2 17 3 18 85 19 84 20 17 21 18 22 19 23 20 25
REMARK SMILES IDX 21 26 22 27 83 28 23 29 82 30 24 31 25 32 26 33 76 34 27 35
REMARK SMILES IDX 81 36 75 37 77 38 28 39 80 40 74 41 73 42 29 44 61 45 41 46
REMARK SMILES IDX 60 47 42 48 45 49 59 50 78 51 43 52 44 53 58 55 79 56 46 57
REMARK SMILES IDX 30 58 31 59 39 60 32 61 38 62 40 63 37 64 33 65 34 66 35 67
REMARK SMILES IDX 36 68 62 69 63 70 71 71 64 72 70 73 72 74 69 75 65 76 66 77
REMARK SMILES IDX 67 78 68 79 47 80 48 81 56 82 49 83 55 84 57 85 54 86 50 87
REMARK SMILES IDX 51 88 52 89 53 90
REMARK H PARENT 13 7 6 11 18 24 77 43 45 54
REMARK Flexibility Score: inf
ROOT
ATOM      1  C   UNL A   1      35.367  21.787  25.799  1.00  0.00     0.023 C 
ENDROOT
BRANCH   1   2
ATOM      2  C   UNL A   1      34.245  22.696  25.298  1.00  0.00     0.023 C 
BRANCH   2   3
ATOM      3  C   UNL A   1      34.207  24.077  25.945  1.00  0.00     0.116 C 
BRANCH   3   4
ATOM      4  N   UNL A   1      32.861  24.462  26.327  1.00  0.00    -0.351 N 
ATOM      5  C   UNL A   1      32.132  25.596  26.158  1.00  0.00     0.278 C 
ATOM      6  O   UNL A   1      30.991  25.566  26.642  1.00  0.00    -0.268 OA
ATOM      7  H   UNL A   1      32.375  23.754  26.809  1.00  0.00     0.163 HD
BRANCH   5   8
ATOM      8  C   UNL A   1      32.646  26.898  25.492  1.00  0.00     0.274 C 
ATOM      9  N   UNL A   1      31.625  27.945  25.358  1.00  0.00    -0.320 N 
ATOM     10  C   UNL A   1      31.768  28.877  26.462  1.00  0.00     0.263 C 
ATOM     11  H   UNL A   1      30.698  27.531  25.446  1.00  0.00     0.349 HD
ATOM     12  C   UNL A   1      33.243  28.886  26.797  1.00  0.00     0.068 C 
ATOM     13  C   UNL A   1      33.752  27.519  26.362  1.00  0.00     0.081 C 
BRANCH   9  14
ATOM     14  C   UNL A   1      31.486  28.506  24.012  1.00  0.00     0.321 C 
BRANCH  14  15
ATOM     15  C   UNL A   1      30.098  28.933  23.637  1.00  0.00     0.106 A 
ATOM     16  C   UNL A   1      27.852  31.784  23.204  1.00  0.00     0.079 C 
ATOM     17  C   UNL A   1      28.526  30.460  23.287  1.00  0.00     0.090 A 
ATOM     18  N   UNL A   1      29.758  30.279  23.709  1.00  0.00    -0.241 NA
ATOM     19  S   UNL A   1      27.691  29.036  22.810  1.00  0.00    -0.127 S 
ATOM     20  C   UNL A   1      29.094  28.118  23.148  1.00  0.00     0.096 A 
ENDBRANCH  14  15
ENDBRANCH   9  14
ENDBRANCH   5   8
ENDBRANCH   3   4
ENDBRANCH   2   3
ENDBRANCH   1   2
BRANCH   1  21
ATOM     21  C   UNL A   1      36.663  21.843  24.996  1.00  0.00     0.116 C 
BRANCH  21  22
ATOM     22  N   UNL A   1      37.554  20.723  25.260  1.00  0.00    -0.352 N 
ATOM     23  C   UNL A   1      38.816  20.732  25.812  1.00  0.00     0.251 C 
ATOM     24  H   UNL A   1      37.206  19.837  25.010  1.00  0.00     0.163 HD
ATOM     25  O   UNL A   1      39.472  19.702  25.852  1.00  0.00    -0.269 OA
BRANCH  23  26
ATOM     26  C   UNL A   1      39.377  22.006  26.313  1.00  0.00     0.039 A 
ATOM     27  C   UNL A   1      40.452  21.964  27.204  1.00  0.00     0.014 A 
ATOM     28  C   UNL A   1      38.869  23.232  25.877  1.00  0.00     0.014 A 
ATOM     29  C   UNL A   1      41.068  23.155  27.599  1.00  0.00     0.010 A 
ATOM     30  C   UNL A   1      39.529  24.410  26.213  1.00  0.00     0.010 A 
ATOM     31  C   UNL A   1      40.637  24.384  27.074  1.00  0.00    -0.014 A 
BRANCH  31  32
ATOM     32  C   UNL A   1      41.332  25.653  27.411  1.00  0.00     0.031 A 
ATOM     33  C   UNL A   1      40.635  26.697  28.239  1.00  0.00     0.074 A 
ATOM     34  C   UNL A   1      42.559  25.896  26.913  1.00  0.00     0.049 A 
ATOM     35  N   UNL A   1      41.038  27.895  28.577  1.00  0.00    -0.248 NA
ATOM     36  C   UNL A   1      39.288  26.356  28.719  1.00  0.00     0.031 C 
ATOM     37  C   UNL A   1      43.322  24.981  26.061  1.00  0.00     0.029 A 
ATOM     38  N   UNL A   1      43.380  26.989  27.042  1.00  0.00    -0.354 N 
ATOM     39  C   UNL A   1      39.989  28.458  29.298  1.00  0.00     0.074 A 
ATOM     40  C   UNL A   1      38.909  27.493  29.279  1.00  0.00     0.031 C 
ATOM     41  C   UNL A   1      44.510  25.537  25.773  1.00  0.00     0.029 A 
ATOM     42  C   UNL A   1      44.576  26.863  26.377  1.00  0.00     0.049 A 
ATOM     43  H   UNL A   1      43.133  27.788  27.562  1.00  0.00     0.167 HD
ATOM     44  C   UNL A   1      39.941  29.653  29.937  1.00  0.00     0.034 A 
ATOM     45  C   UNL A   1      45.608  27.722  26.263  1.00  0.00     0.034 A 
ATOM     46  C   UNL A   1      41.031  30.601  29.946  1.00  0.00     0.049 A 
ATOM     47  C   UNL A   1      45.524  29.060  26.950  1.00  0.00     0.074 A 
ATOM     48  C   UNL A   1      41.117  31.815  30.604  1.00  0.00     0.029 A 
ATOM     49  N   UNL A   1      42.225  30.445  29.249  1.00  0.00    -0.354 N 
ATOM     50  N   UNL A   1      44.547  29.559  27.672  1.00  0.00    -0.248 NA
ATOM     51  C   UNL A   1      46.687  29.946  26.810  1.00  0.00     0.031 C 
ATOM     52  C   UNL A   1      42.328  32.422  30.252  1.00  0.00     0.029 A 
ATOM     53  C   UNL A   1      43.036  31.556  29.434  1.00  0.00     0.049 A 
ATOM     54  H   UNL A   1      42.461  29.661  28.703  1.00  0.00     0.167 HD
ATOM     55  C   UNL A   1      44.991  30.807  28.097  1.00  0.00     0.074 A 
ATOM     56  C   UNL A   1      46.326  30.979  27.558  1.00  0.00     0.031 C 
ATOM     57  C   UNL A   1      44.357  31.725  28.873  1.00  0.00     0.034 A 
BRANCH  44  58
ATOM     58  C   UNL A   1      38.652  30.001  30.646  1.00  0.00     0.023 A 
ATOM     59  C   UNL A   1      37.683  30.828  30.049  1.00  0.00     0.031 A 
ATOM     60  C   UNL A   1      38.416  29.563  31.961  1.00  0.00     0.131 A 
ATOM     61  C   UNL A   1      36.586  31.280  30.798  1.00  0.00     0.055 A 
ATOM     62  C   UNL A   1      37.270  29.937  32.668  1.00  0.00     0.041 A 
ATOM     63  F   UNL A   1      39.308  28.787  32.595  1.00  0.00    -0.206 F 
ATOM     64  C   UNL A   1      36.358  30.819  32.095  1.00  0.00     0.022 A 
BRANCH  61  65
ATOM     65  S   UNL A   1      35.574  32.625  30.119  1.00  0.00     0.124 S 
ATOM     66  O   UNL A   1      35.444  32.220  28.721  1.00  0.00    -0.237 OA
ATOM     67  O   UNL A   1      34.361  32.545  30.924  1.00  0.00    -0.237 OA
ATOM     68  O   UNL A   1      36.395  33.815  30.339  1.00  0.00    -0.744 OA
ENDBRANCH  61  65
ENDBRANCH  44  58
BRANCH  45  69
ATOM     69  C   UNL A   1      46.815  27.341  25.477  1.00  0.00     0.023 A 
ATOM     70  C   UNL A   1      46.964  27.756  24.145  1.00  0.00     0.031 A 
ATOM     71  C   UNL A   1      47.831  26.550  26.042  1.00  0.00     0.131 A 
ATOM     72  C   UNL A   1      48.089  27.353  23.409  1.00  0.00     0.055 A 
ATOM     73  C   UNL A   1      48.967  26.187  25.321  1.00  0.00     0.041 A 
ATOM     74  F   UNL A   1      47.738  26.136  27.316  1.00  0.00    -0.206 F 
ATOM     75  C   UNL A   1      49.097  26.581  23.991  1.00  0.00     0.022 A 
BRANCH  72  76
ATOM     76  S   UNL A   1      48.192  27.813  21.659  1.00  0.00     0.124 S 
ATOM     77  O   UNL A   1      46.874  28.391  21.424  1.00  0.00    -0.237 OA
ATOM     78  O   UNL A   1      49.313  28.746  21.655  1.00  0.00    -0.237 OA
ATOM     79  O   UNL A   1      48.444  26.539  20.987  1.00  0.00    -0.744 OA
ENDBRANCH  72  76
ENDBRANCH  45  69
BRANCH  57  80
ATOM     80  C   UNL A   1      45.126  32.979  29.215  1.00  0.00     0.023 A 
ATOM     81  C   UNL A   1      45.015  34.150  28.444  1.00  0.00     0.031 A 
ATOM     82  C   UNL A   1      45.992  32.995  30.322  1.00  0.00     0.131 A 
ATOM     83  C   UNL A   1      45.801  35.269  28.759  1.00  0.00     0.055 A 
ATOM     84  C   UNL A   1      46.726  34.131  30.665  1.00  0.00     0.041 A 
ATOM     85  F   UNL A   1      46.138  31.904  31.091  1.00  0.00    -0.206 F 
ATOM     86  C   UNL A   1      46.643  35.273  29.874  1.00  0.00     0.022 A 
BRANCH  83  87
ATOM     87  S   UNL A   1      45.779  36.694  27.637  1.00  0.00     0.124 S 
ATOM     88  O   UNL A   1      46.284  36.113  26.397  1.00  0.00    -0.237 OA
ATOM     89  O   UNL A   1      44.368  37.070  27.636  1.00  0.00    -0.237 OA
ATOM     90  O   UNL A   1      46.674  37.654  28.281  1.00  0.00    -0.744 OA
ENDBRANCH  83  87
ENDBRANCH  57  80
ENDBRANCH  31  32
ENDBRANCH  23  26
ENDBRANCH  21  22
ENDBRANCH   1  21
TORSDOF 16
ENDMDL
