MODEL 1
REMARK VINA RESULT:     -11.7      0.000      0.000
REMARK SMILES COc1ccc(OCCNc2c(Cl)cccc2C(=O)NCCCCNC(=O)c2ccc(-c3c4nc(c(-c5cc(S(=O)(=O)[O-])ccc5F)c5ccc([nH]5)c(-c5cc(S(=O)(=O)[O-])ccc5F)c5nc(c(-c6cc(S(=O)(=O)[O-])ccc6F)c6ccc3[nH]6)C=C5)C=C4)cc2)cc1
REMARK SMILES IDX 21 1 20 2 18 3 19 4 17 6 11 7 12 8 13 9 14 10 16 11 15 12
REMARK SMILES IDX 10 13 9 15 8 16 7 17 6 18 3 19 4 20 92 21 5 22 91 23 2 24
REMARK SMILES IDX 1 25 22 26 23 27 24 28 25 29 26 30 27 32 28 33 29 34 90 35
REMARK SMILES IDX 30 36 89 37 31 38 32 39 33 40 83 41 34 42 88 43 82 44 84 45
REMARK SMILES IDX 35 46 87 47 81 48 80 49 36 51 68 52 48 53 67 54 49 55 52 56
REMARK SMILES IDX 66 57 85 58 50 59 51 60 65 62 86 63 53 64 37 65 38 66 46 67
REMARK SMILES IDX 39 68 45 69 47 70 44 71 40 72 41 73 42 74 43 75 69 76 70 77
REMARK SMILES IDX 78 78 71 79 77 80 79 81 76 82 72 83 73 84 74 85 75 86 54 87
REMARK SMILES IDX 55 88 63 89 56 90 62 91 64 92 61 93 57 94 58 95 59 96 60 97
REMARK H PARENT 20 5 10 14 25 31 84 50 52 61
REMARK Flexibility Score: inf
ROOT
ATOM      1  C   UNL A   1      36.603  23.370  25.628  1.00  0.00     0.116 C 
ENDROOT
BRANCH   1   2
ATOM      2  N   UNL A   1      35.346  23.206  26.326  1.00  0.00    -0.352 N 
ATOM      3  C   UNL A   1      34.120  23.781  26.103  1.00  0.00     0.253 C 
ATOM      4  O   UNL A   1      33.175  23.425  26.811  1.00  0.00    -0.269 OA
ATOM      5  H   UNL A   1      35.376  22.580  27.086  1.00  0.00     0.163 HD
BRANCH   3   6
ATOM      6  C   UNL A   1      33.879  24.887  25.136  1.00  0.00     0.064 A 
ATOM      7  C   UNL A   1      33.475  24.758  23.794  1.00  0.00     0.066 A 
ATOM      8  C   UNL A   1      33.289  25.964  23.061  1.00  0.00     0.065 A 
ATOM      9  Cl  UNL A   1      32.838  25.936  21.382  1.00  0.00    -0.082 Cl
ATOM     10  C   UNL A   1      33.445  27.229  23.634  1.00  0.00     0.023 A 
ATOM     11  C   UNL A   1      34.010  26.174  25.710  1.00  0.00     0.016 A 
ATOM     12  C   UNL A   1      33.804  27.335  24.966  1.00  0.00     0.003 A 
BRANCH   7  13
ATOM     13  N   UNL A   1      33.455  23.571  23.084  1.00  0.00    -0.380 N 
ATOM     14  H   UNL A   1      34.252  23.372  22.543  1.00  0.00     0.160 HD
BRANCH  13  15
ATOM     15  C   UNL A   1      32.387  22.586  23.046  1.00  0.00     0.154 C 
BRANCH  15  16
ATOM     16  C   UNL A   1      32.862  21.240  23.662  1.00  0.00     0.250 C 
BRANCH  16  17
ATOM     17  O   UNL A   1      32.109  20.085  23.238  1.00  0.00    -0.492 OA
BRANCH  17  18
ATOM     18  C   UNL A   1      32.551  18.825  23.549  1.00  0.00     0.119 A 
ATOM     19  C   UNL A   1      33.891  16.519  24.410  1.00  0.00     0.119 A 
ATOM     20  C   UNL A   1      33.356  17.398  25.345  1.00  0.00     0.050 A 
ATOM     21  C   UNL A   1      33.648  16.720  23.055  1.00  0.00     0.050 A 
ATOM     22  C   UNL A   1      32.697  18.554  24.913  1.00  0.00     0.050 A 
ATOM     23  C   UNL A   1      32.951  17.855  22.632  1.00  0.00     0.050 A 
BRANCH  19  24
ATOM     24  O   UNL A   1      34.588  15.434  24.865  1.00  0.00    -0.497 OA
ATOM     25  C   UNL A   1      35.781  15.822  25.550  1.00  0.00     0.278 C 
ENDBRANCH  19  24
ENDBRANCH  17  18
ENDBRANCH  16  17
ENDBRANCH  15  16
ENDBRANCH  13  15
ENDBRANCH   7  13
ENDBRANCH   3   6
ENDBRANCH   1   2
BRANCH   1  26
ATOM     26  C   UNL A   1      36.868  22.341  24.531  1.00  0.00     0.023 C 
BRANCH  26  27
ATOM     27  C   UNL A   1      37.589  21.054  24.960  1.00  0.00     0.023 C 
BRANCH  27  28
ATOM     28  C   UNL A   1      38.876  21.198  25.772  1.00  0.00     0.116 C 
BRANCH  28  29
ATOM     29  N   UNL A   1      39.692  19.994  25.818  1.00  0.00    -0.352 N 
ATOM     30  C   UNL A   1      41.047  19.829  26.009  1.00  0.00     0.251 C 
ATOM     31  H   UNL A   1      39.191  19.156  25.692  1.00  0.00     0.163 HD
ATOM     32  O   UNL A   1      41.552  18.719  25.858  1.00  0.00    -0.269 OA
BRANCH  30  33
ATOM     33  C   UNL A   1      41.902  20.985  26.364  1.00  0.00     0.039 A 
ATOM     34  C   UNL A   1      42.422  21.788  25.344  1.00  0.00     0.014 A 
ATOM     35  C   UNL A   1      42.192  21.282  27.697  1.00  0.00     0.014 A 
ATOM     36  C   UNL A   1      43.112  22.962  25.669  1.00  0.00     0.010 A 
ATOM     37  C   UNL A   1      42.814  22.487  28.019  1.00  0.00     0.010 A 
ATOM     38  C   UNL A   1      43.248  23.359  27.009  1.00  0.00    -0.014 A 
BRANCH  38  39
ATOM     39  C   UNL A   1      43.766  24.706  27.379  1.00  0.00     0.031 A 
ATOM     40  C   UNL A   1      42.833  25.776  27.877  1.00  0.00     0.074 A 
ATOM     41  C   UNL A   1      45.069  24.993  27.172  1.00  0.00     0.049 A 
ATOM     42  N   UNL A   1      43.071  27.043  28.098  1.00  0.00    -0.248 NA
ATOM     43  C   UNL A   1      41.446  25.366  28.143  1.00  0.00     0.031 C 
ATOM     44  C   UNL A   1      46.075  24.051  26.674  1.00  0.00     0.029 A 
ATOM     45  N   UNL A   1      45.771  26.164  27.334  1.00  0.00    -0.354 N 
ATOM     46  C   UNL A   1      41.866  27.586  28.531  1.00  0.00     0.074 A 
ATOM     47  C   UNL A   1      40.887  26.519  28.483  1.00  0.00     0.031 C 
ATOM     48  C   UNL A   1      47.261  24.674  26.589  1.00  0.00     0.029 A 
ATOM     49  C   UNL A   1      47.094  26.074  26.960  1.00  0.00     0.049 A 
ATOM     50  H   UNL A   1      45.366  26.989  27.685  1.00  0.00     0.167 HD
ATOM     51  C   UNL A   1      41.606  28.849  28.953  1.00  0.00     0.034 A 
ATOM     52  C   UNL A   1      48.056  27.016  26.893  1.00  0.00     0.034 A 
ATOM     53  C   UNL A   1      42.588  29.906  28.991  1.00  0.00     0.049 A 
ATOM     54  C   UNL A   1      47.715  28.437  27.279  1.00  0.00     0.074 A 
ATOM     55  C   UNL A   1      42.430  31.215  29.417  1.00  0.00     0.029 A 
ATOM     56  N   UNL A   1      43.909  29.781  28.585  1.00  0.00    -0.354 N 
ATOM     57  N   UNL A   1      46.575  28.923  27.711  1.00  0.00    -0.248 NA
ATOM     58  C   UNL A   1      48.790  29.431  27.170  1.00  0.00     0.031 C 
ATOM     59  C   UNL A   1      43.634  31.895  29.209  1.00  0.00     0.029 A 
ATOM     60  C   UNL A   1      44.566  30.995  28.722  1.00  0.00     0.049 A 
ATOM     61  H   UNL A   1      44.320  28.953  28.247  1.00  0.00     0.167 HD
ATOM     62  C   UNL A   1      46.811  30.273  27.959  1.00  0.00     0.074 A 
ATOM     63  C   UNL A   1      48.202  30.518  27.646  1.00  0.00     0.031 C 
ATOM     64  C   UNL A   1      45.955  31.227  28.407  1.00  0.00     0.034 A 
BRANCH  51  65
ATOM     65  C   UNL A   1      40.198  29.157  29.398  1.00  0.00     0.023 A 
ATOM     66  C   UNL A   1      39.824  29.069  30.750  1.00  0.00     0.031 A 
ATOM     67  C   UNL A   1      39.218  29.545  28.467  1.00  0.00     0.131 A 
ATOM     68  C   UNL A   1      38.492  29.303  31.125  1.00  0.00     0.055 A 
ATOM     69  C   UNL A   1      37.913  29.852  28.858  1.00  0.00     0.041 A 
ATOM     70  F   UNL A   1      39.511  29.629  27.160  1.00  0.00    -0.206 F 
ATOM     71  C   UNL A   1      37.540  29.720  30.192  1.00  0.00     0.022 A 
BRANCH  68  72
ATOM     72  S   UNL A   1      37.999  28.934  32.830  1.00  0.00     0.124 S 
ATOM     73  O   UNL A   1      36.644  29.479  32.869  1.00  0.00    -0.237 OA
ATOM     74  O   UNL A   1      38.105  27.480  32.884  1.00  0.00    -0.237 OA
ATOM     75  O   UNL A   1      38.979  29.661  33.634  1.00  0.00    -0.744 OA
ENDBRANCH  68  72
ENDBRANCH  51  65
BRANCH  52  76
ATOM     76  C   UNL A   1      49.428  26.681  26.409  1.00  0.00     0.023 A 
ATOM     77  C   UNL A   1      49.892  27.164  25.175  1.00  0.00     0.031 A 
ATOM     78  C   UNL A   1      50.263  25.803  27.125  1.00  0.00     0.131 A 
ATOM     79  C   UNL A   1      51.116  26.711  24.658  1.00  0.00     0.055 A 
ATOM     80  C   UNL A   1      51.512  25.411  26.639  1.00  0.00     0.041 A 
ATOM     81  F   UNL A   1      49.872  25.308  28.310  1.00  0.00    -0.206 F 
ATOM     82  C   UNL A   1      51.936  25.850  25.389  1.00  0.00     0.022 A 
BRANCH  79  83
ATOM     83  S   UNL A   1      51.553  27.158  22.956  1.00  0.00     0.124 S 
ATOM     84  O   UNL A   1      50.347  26.777  22.231  1.00  0.00    -0.237 OA
ATOM     85  O   UNL A   1      51.807  28.590  23.075  1.00  0.00    -0.237 OA
ATOM     86  O   UNL A   1      52.731  26.338  22.682  1.00  0.00    -0.744 OA
ENDBRANCH  79  83
ENDBRANCH  52  76
BRANCH  64  87
ATOM     87  C   UNL A   1      46.520  32.607  28.631  1.00  0.00     0.023 A 
ATOM     88  C   UNL A   1      46.620  33.546  27.588  1.00  0.00     0.031 A 
ATOM     89  C   UNL A   1      46.969  32.989  29.909  1.00  0.00     0.131 A 
ATOM     90  C   UNL A   1      47.199  34.800  27.831  1.00  0.00     0.055 A 
ATOM     91  C   UNL A   1      47.490  34.258  30.156  1.00  0.00     0.041 A 
ATOM     92  F   UNL A   1      46.900  32.132  30.941  1.00  0.00    -0.206 F 
ATOM     93  C   UNL A   1      47.618  35.169  29.111  1.00  0.00     0.022 A 
BRANCH  90  94
ATOM     94  S   UNL A   1      47.465  35.923  26.430  1.00  0.00     0.124 S 
ATOM     95  O   UNL A   1      46.135  36.490  26.239  1.00  0.00    -0.237 OA
ATOM     96  O   UNL A   1      48.478  36.836  26.948  1.00  0.00    -0.237 OA
ATOM     97  O   UNL A   1      47.922  35.036  25.362  1.00  0.00    -0.744 OA
ENDBRANCH  90  94
ENDBRANCH  64  87
ENDBRANCH  38  39
ENDBRANCH  30  33
ENDBRANCH  28  29
ENDBRANCH  27  28
ENDBRANCH  26  27
ENDBRANCH   1  26
TORSDOF 20
ENDMDL
MODEL 2
REMARK VINA RESULT:     -11.5      2.301      2.933
REMARK SMILES COc1ccc(OCCNc2c(Cl)cccc2C(=O)NCCCCNC(=O)c2ccc(-c3c4nc(c(-c5cc(S(=O)(=O)[O-])ccc5F)c5ccc([nH]5)c(-c5cc(S(=O)(=O)[O-])ccc5F)c5nc(c(-c6cc(S(=O)(=O)[O-])ccc6F)c6ccc3[nH]6)C=C5)C=C4)cc2)cc1
REMARK SMILES IDX 21 1 20 2 18 3 19 4 17 6 11 7 12 8 13 9 14 10 16 11 15 12
REMARK SMILES IDX 10 13 9 15 8 16 7 17 6 18 3 19 4 20 92 21 5 22 91 23 2 24
REMARK SMILES IDX 1 25 22 26 23 27 24 28 25 29 26 30 27 32 28 33 29 34 90 35
REMARK SMILES IDX 30 36 89 37 31 38 32 39 33 40 83 41 34 42 88 43 82 44 84 45
REMARK SMILES IDX 35 46 87 47 81 48 80 49 36 51 68 52 48 53 67 54 49 55 52 56
REMARK SMILES IDX 66 57 85 58 50 59 51 60 65 62 86 63 53 64 37 65 38 66 46 67
REMARK SMILES IDX 39 68 45 69 47 70 44 71 40 72 41 73 42 74 43 75 69 76 70 77
REMARK SMILES IDX 78 78 71 79 77 80 79 81 76 82 72 83 73 84 74 85 75 86 54 87
REMARK SMILES IDX 55 88 63 89 56 90 62 91 64 92 61 93 57 94 58 95 59 96 60 97
REMARK H PARENT 20 5 10 14 25 31 84 50 52 61
REMARK Flexibility Score: inf
ROOT
ATOM      1  C   UNL A   1      33.948  23.563  26.483  1.00  0.00     0.116 C 
ENDROOT
BRANCH   1   2
ATOM      2  N   UNL A   1      32.600  23.392  26.982  1.00  0.00    -0.352 N 
ATOM      3  C   UNL A   1      31.452  24.094  26.709  1.00  0.00     0.253 C 
ATOM      4  O   UNL A   1      30.400  23.706  27.223  1.00  0.00    -0.269 OA
ATOM      5  H   UNL A   1      32.489  22.652  27.622  1.00  0.00     0.163 HD
BRANCH   3   6
ATOM      6  C   UNL A   1      31.412  25.356  25.922  1.00  0.00     0.064 A 
ATOM      7  C   UNL A   1      30.983  25.504  24.590  1.00  0.00     0.066 A 
ATOM      8  C   UNL A   1      31.016  26.820  24.047  1.00  0.00     0.065 A 
ATOM      9  Cl  UNL A   1      30.558  27.124  22.398  1.00  0.00    -0.082 Cl
ATOM     10  C   UNL A   1      31.405  27.936  24.793  1.00  0.00     0.023 A 
ATOM     11  C   UNL A   1      31.780  26.498  26.673  1.00  0.00     0.016 A 
ATOM     12  C   UNL A   1      31.785  27.776  26.114  1.00  0.00     0.003 A 
BRANCH   7  13
ATOM     13  N   UNL A   1      30.742  24.460  23.716  1.00  0.00    -0.380 N 
ATOM     14  H   UNL A   1      29.798  24.269  23.513  1.00  0.00     0.160 HD
BRANCH  13  15
ATOM     15  C   UNL A   1      31.726  23.612  23.065  1.00  0.00     0.154 C 
BRANCH  15  16
ATOM     16  C   UNL A   1      31.694  22.177  23.664  1.00  0.00     0.250 C 
BRANCH  16  17
ATOM     17  O   UNL A   1      32.199  21.149  22.789  1.00  0.00    -0.492 OA
BRANCH  17  18
ATOM     18  C   UNL A   1      32.344  19.865  23.251  1.00  0.00     0.119 A 
ATOM     19  C   UNL A   1      33.141  17.419  24.364  1.00  0.00     0.119 A 
ATOM     20  C   UNL A   1      32.904  18.512  25.191  1.00  0.00     0.050 A 
ATOM     21  C   UNL A   1      32.858  17.508  23.005  1.00  0.00     0.050 A 
ATOM     22  C   UNL A   1      32.516  19.734  24.633  1.00  0.00     0.050 A 
ATOM     23  C   UNL A   1      32.428  18.721  22.459  1.00  0.00     0.050 A 
BRANCH  19  24
ATOM     24  O   UNL A   1      33.583  16.258  24.935  1.00  0.00    -0.497 OA
ATOM     25  C   UNL A   1      32.511  15.515  25.518  1.00  0.00     0.278 C 
ENDBRANCH  19  24
ENDBRANCH  17  18
ENDBRANCH  16  17
ENDBRANCH  15  16
ENDBRANCH  13  15
ENDBRANCH   7  13
ENDBRANCH   3   6
ENDBRANCH   1   2
BRANCH   1  26
ATOM     26  C   UNL A   1      34.514  22.359  25.734  1.00  0.00     0.023 C 
BRANCH  26  27
ATOM     27  C   UNL A   1      35.938  21.925  26.114  1.00  0.00     0.023 C 
BRANCH  27  28
ATOM     28  C   UNL A   1      36.939  21.702  24.980  1.00  0.00     0.116 C 
BRANCH  28  29
ATOM     29  N   UNL A   1      37.926  20.667  25.247  1.00  0.00    -0.352 N 
ATOM     30  C   UNL A   1      39.161  20.734  25.855  1.00  0.00     0.251 C 
ATOM     31  H   UNL A   1      37.667  19.767  24.943  1.00  0.00     0.163 HD
ATOM     32  O   UNL A   1      39.900  19.752  25.840  1.00  0.00    -0.269 OA
BRANCH  30  33
ATOM     33  C   UNL A   1      39.615  21.987  26.499  1.00  0.00     0.039 A 
ATOM     34  C   UNL A   1      40.563  21.923  27.525  1.00  0.00     0.014 A 
ATOM     35  C   UNL A   1      39.116  23.227  26.094  1.00  0.00     0.014 A 
ATOM     36  C   UNL A   1      41.105  23.104  28.044  1.00  0.00     0.010 A 
ATOM     37  C   UNL A   1      39.709  24.399  26.557  1.00  0.00     0.010 A 
ATOM     38  C   UNL A   1      40.737  24.350  27.511  1.00  0.00    -0.014 A 
BRANCH  38  39
ATOM     39  C   UNL A   1      41.459  25.602  27.873  1.00  0.00     0.031 A 
ATOM     40  C   UNL A   1      40.748  26.713  28.598  1.00  0.00     0.074 A 
ATOM     41  C   UNL A   1      42.731  25.776  27.459  1.00  0.00     0.049 A 
ATOM     42  N   UNL A   1      41.160  27.927  28.858  1.00  0.00    -0.248 NA
ATOM     43  C   UNL A   1      39.389  26.421  29.077  1.00  0.00     0.031 C 
ATOM     44  C   UNL A   1      43.527  24.785  26.730  1.00  0.00     0.029 A 
ATOM     45  N   UNL A   1      43.577  26.854  27.573  1.00  0.00    -0.354 N 
ATOM     46  C   UNL A   1      40.114  28.547  29.532  1.00  0.00     0.074 A 
ATOM     47  C   UNL A   1      39.028  27.590  29.586  1.00  0.00     0.031 C 
ATOM     48  C   UNL A   1      44.744  25.293  26.479  1.00  0.00     0.029 A 
ATOM     49  C   UNL A   1      44.800  26.666  26.966  1.00  0.00     0.049 A 
ATOM     50  H   UNL A   1      43.332  27.682  28.044  1.00  0.00     0.167 HD
ATOM     51  C   UNL A   1      40.071  29.789  30.077  1.00  0.00     0.034 A 
ATOM     52  C   UNL A   1      45.837  27.510  26.794  1.00  0.00     0.034 A 
ATOM     53  C   UNL A   1      41.158  30.737  30.012  1.00  0.00     0.049 A 
ATOM     54  C   UNL A   1      45.727  28.920  27.328  1.00  0.00     0.074 A 
ATOM     55  C   UNL A   1      41.222  32.014  30.546  1.00  0.00     0.029 A 
ATOM     56  N   UNL A   1      42.370  30.517  29.371  1.00  0.00    -0.354 N 
ATOM     57  N   UNL A   1      44.738  29.478  27.986  1.00  0.00    -0.248 NA
ATOM     58  C   UNL A   1      46.873  29.809  27.098  1.00  0.00     0.031 C 
ATOM     59  C   UNL A   1      42.442  32.588  30.174  1.00  0.00     0.029 A 
ATOM     60  C   UNL A   1      43.172  31.644  29.471  1.00  0.00     0.049 A 
ATOM     61  H   UNL A   1      42.622  29.684  28.912  1.00  0.00     0.167 HD
ATOM     62  C   UNL A   1      45.162  30.772  28.278  1.00  0.00     0.074 A 
ATOM     63  C   UNL A   1      46.499  30.904  27.742  1.00  0.00     0.031 C 
ATOM     64  C   UNL A   1      44.506  31.764  28.933  1.00  0.00     0.034 A 
BRANCH  51  65
ATOM     65  C   UNL A   1      38.802  30.196  30.782  1.00  0.00     0.023 A 
ATOM     66  C   UNL A   1      37.829  30.981  30.139  1.00  0.00     0.031 A 
ATOM     67  C   UNL A   1      38.555  29.797  32.107  1.00  0.00     0.131 A 
ATOM     68  C   UNL A   1      36.687  31.395  30.840  1.00  0.00     0.055 A 
ATOM     69  C   UNL A   1      37.379  30.147  32.774  1.00  0.00     0.041 A 
ATOM     70  F   UNL A   1      39.454  29.061  32.779  1.00  0.00    -0.206 F 
ATOM     71  C   UNL A   1      36.442  30.961  32.145  1.00  0.00     0.022 A 
BRANCH  68  72
ATOM     72  S   UNL A   1      35.588  32.608  30.061  1.00  0.00     0.124 S 
ATOM     73  O   UNL A   1      34.383  32.482  30.877  1.00  0.00    -0.237 OA
ATOM     74  O   UNL A   1      36.333  33.852  30.209  1.00  0.00    -0.237 OA
ATOM     75  O   UNL A   1      35.457  32.118  28.689  1.00  0.00    -0.744 OA
ENDBRANCH  68  72
ENDBRANCH  51  65
BRANCH  52  76
ATOM     76  C   UNL A   1      47.062  27.084  26.055  1.00  0.00     0.023 A 
ATOM     77  C   UNL A   1      48.116  26.440  26.722  1.00  0.00     0.031 A 
ATOM     78  C   UNL A   1      47.240  27.393  24.693  1.00  0.00     0.131 A 
ATOM     79  C   UNL A   1      49.324  26.192  26.054  1.00  0.00     0.055 A 
ATOM     80  C   UNL A   1      48.419  27.079  24.013  1.00  0.00     0.041 A 
ATOM     81  F   UNL A   1      46.268  28.010  24.003  1.00  0.00    -0.206 F 
ATOM     82  C   UNL A   1      49.477  26.494  24.699  1.00  0.00     0.022 A 
BRANCH  79  83
ATOM     83  S   UNL A   1      50.740  25.595  27.019  1.00  0.00     0.124 S 
ATOM     84  O   UNL A   1      50.892  26.657  28.006  1.00  0.00    -0.237 OA
ATOM     85  O   UNL A   1      50.246  24.317  27.519  1.00  0.00    -0.237 OA
ATOM     86  O   UNL A   1      51.811  25.504  26.028  1.00  0.00    -0.744 OA
ENDBRANCH  79  83
ENDBRANCH  52  76
BRANCH  64  87
ATOM     87  C   UNL A   1      45.251  33.058  29.145  1.00  0.00     0.023 A 
ATOM     88  C   UNL A   1      45.074  34.164  28.295  1.00  0.00     0.031 A 
ATOM     89  C   UNL A   1      46.156  33.184  30.215  1.00  0.00     0.131 A 
ATOM     90  C   UNL A   1      45.827  35.329  28.500  1.00  0.00     0.055 A 
ATOM     91  C   UNL A   1      46.857  34.367  30.449  1.00  0.00     0.041 A 
ATOM     92  F   UNL A   1      46.366  32.159  31.057  1.00  0.00    -0.206 F 
ATOM     93  C   UNL A   1      46.703  35.445  29.581  1.00  0.00     0.022 A 
BRANCH  90  94
ATOM     94  S   UNL A   1      45.698  36.674  27.288  1.00  0.00     0.124 S 
ATOM     95  O   UNL A   1      46.076  37.837  28.085  1.00  0.00    -0.237 OA
ATOM     96  O   UNL A   1      46.654  36.266  26.264  1.00  0.00    -0.237 OA
ATOM     97  O   UNL A   1      44.296  36.632  26.877  1.00  0.00    -0.744 OA
ENDBRANCH  90  94
ENDBRANCH  64  87
ENDBRANCH  38  39
ENDBRANCH  30  33
ENDBRANCH  28  29
ENDBRANCH  27  28
ENDBRANCH  26  27
ENDBRANCH   1  26
TORSDOF 20
ENDMDL
MODEL 3
REMARK VINA RESULT:     -11.4      1.650      4.113
REMARK SMILES COc1ccc(OCCNc2c(Cl)cccc2C(=O)NCCCCNC(=O)c2ccc(-c3c4nc(c(-c5cc(S(=O)(=O)[O-])ccc5F)c5ccc([nH]5)c(-c5cc(S(=O)(=O)[O-])ccc5F)c5nc(c(-c6cc(S(=O)(=O)[O-])ccc6F)c6ccc3[nH]6)C=C5)C=C4)cc2)cc1
REMARK SMILES IDX 21 1 20 2 18 3 19 4 17 6 11 7 12 8 13 9 14 10 16 11 15 12
REMARK SMILES IDX 10 13 9 15 8 16 7 17 6 18 3 19 4 20 92 21 5 22 91 23 2 24
REMARK SMILES IDX 1 25 22 26 23 27 24 28 25 29 26 30 27 32 28 33 29 34 90 35
REMARK SMILES IDX 30 36 89 37 31 38 32 39 33 40 83 41 34 42 88 43 82 44 84 45
REMARK SMILES IDX 35 46 87 47 81 48 80 49 36 51 68 52 48 53 67 54 49 55 52 56
REMARK SMILES IDX 66 57 85 58 50 59 51 60 65 62 86 63 53 64 37 65 38 66 46 67
REMARK SMILES IDX 39 68 45 69 47 70 44 71 40 72 41 73 42 74 43 75 69 76 70 77
REMARK SMILES IDX 78 78 71 79 77 80 79 81 76 82 72 83 73 84 74 85 75 86 54 87
REMARK SMILES IDX 55 88 63 89 56 90 62 91 64 92 61 93 57 94 58 95 59 96 60 97
REMARK H PARENT 20 5 10 14 25 31 84 50 52 61
REMARK Flexibility Score: inf
ROOT
ATOM      1  C   UNL A   1      36.609  23.136  25.425  1.00  0.00     0.116 C 
ENDROOT
BRANCH   1   2
ATOM      2  N   UNL A   1      35.877  22.578  26.542  1.00  0.00    -0.352 N 
ATOM      3  C   UNL A   1      34.661  21.942  26.583  1.00  0.00     0.253 C 
ATOM      4  O   UNL A   1      34.276  21.497  27.667  1.00  0.00    -0.269 OA
ATOM      5  H   UNL A   1      36.324  22.670  27.414  1.00  0.00     0.163 HD
BRANCH   3   6
ATOM      6  C   UNL A   1      33.726  21.852  25.428  1.00  0.00     0.064 A 
ATOM      7  C   UNL A   1      33.027  22.914  24.826  1.00  0.00     0.066 A 
ATOM      8  C   UNL A   1      32.197  22.589  23.716  1.00  0.00     0.065 A 
ATOM      9  Cl  UNL A   1      31.245  23.806  22.919  1.00  0.00    -0.082 Cl
ATOM     10  C   UNL A   1      32.102  21.296  23.196  1.00  0.00     0.023 A 
ATOM     11  C   UNL A   1      33.639  20.551  24.877  1.00  0.00     0.016 A 
ATOM     12  C   UNL A   1      32.829  20.271  23.777  1.00  0.00     0.003 A 
BRANCH   7  13
ATOM     13  N   UNL A   1      32.915  24.187  25.354  1.00  0.00    -0.380 N 
ATOM     14  H   UNL A   1      33.341  24.912  24.842  1.00  0.00     0.160 HD
BRANCH  13  15
ATOM     15  C   UNL A   1      32.241  24.576  26.582  1.00  0.00     0.154 C 
BRANCH  15  16
ATOM     16  C   UNL A   1      31.235  25.731  26.312  1.00  0.00     0.250 C 
BRANCH  16  17
ATOM     17  O   UNL A   1      31.811  26.895  25.684  1.00  0.00    -0.492 OA
BRANCH  17  18
ATOM     18  C   UNL A   1      31.277  27.379  24.518  1.00  0.00     0.119 A 
ATOM     19  C   UNL A   1      30.192  28.860  22.400  1.00  0.00     0.119 A 
ATOM     20  C   UNL A   1      31.510  29.071  22.788  1.00  0.00     0.050 A 
ATOM     21  C   UNL A   1      29.459  27.828  22.976  1.00  0.00     0.050 A 
ATOM     22  C   UNL A   1      32.047  28.338  23.852  1.00  0.00     0.050 A 
ATOM     23  C   UNL A   1      30.016  27.070  24.011  1.00  0.00     0.050 A 
BRANCH  19  24
ATOM     24  O   UNL A   1      29.677  29.640  21.401  1.00  0.00    -0.497 OA
ATOM     25  C   UNL A   1      28.401  30.177  21.755  1.00  0.00     0.278 C 
ENDBRANCH  19  24
ENDBRANCH  17  18
ENDBRANCH  16  17
ENDBRANCH  15  16
ENDBRANCH  13  15
ENDBRANCH   7  13
ENDBRANCH   3   6
ENDBRANCH   1   2
BRANCH   1  26
ATOM     26  C   UNL A   1      37.038  22.123  24.367  1.00  0.00     0.023 C 
BRANCH  26  27
ATOM     27  C   UNL A   1      37.733  20.852  24.879  1.00  0.00     0.023 C 
BRANCH  27  28
ATOM     28  C   UNL A   1      38.986  21.024  25.739  1.00  0.00     0.116 C 
BRANCH  28  29
ATOM     29  N   UNL A   1      39.820  19.835  25.827  1.00  0.00    -0.352 N 
ATOM     30  C   UNL A   1      41.174  19.697  26.037  1.00  0.00     0.251 C 
ATOM     31  H   UNL A   1      39.333  18.986  25.718  1.00  0.00     0.163 HD
ATOM     32  O   UNL A   1      41.698  18.591  25.923  1.00  0.00    -0.269 OA
BRANCH  30  33
ATOM     33  C   UNL A   1      42.008  20.874  26.370  1.00  0.00     0.039 A 
ATOM     34  C   UNL A   1      42.420  21.731  25.346  1.00  0.00     0.014 A 
ATOM     35  C   UNL A   1      42.382  21.141  27.689  1.00  0.00     0.014 A 
ATOM     36  C   UNL A   1      43.085  22.921  25.661  1.00  0.00     0.010 A 
ATOM     37  C   UNL A   1      42.978  22.360  28.009  1.00  0.00     0.010 A 
ATOM     38  C   UNL A   1      43.303  23.281  27.001  1.00  0.00    -0.014 A 
BRANCH  38  39
ATOM     39  C   UNL A   1      43.794  24.635  27.380  1.00  0.00     0.031 A 
ATOM     40  C   UNL A   1      42.836  25.691  27.860  1.00  0.00     0.074 A 
ATOM     41  C   UNL A   1      45.095  24.942  27.197  1.00  0.00     0.049 A 
ATOM     42  N   UNL A   1      43.050  26.962  28.084  1.00  0.00    -0.248 NA
ATOM     43  C   UNL A   1      41.450  25.261  28.100  1.00  0.00     0.031 C 
ATOM     44  C   UNL A   1      46.125  24.015  26.719  1.00  0.00     0.029 A 
ATOM     45  N   UNL A   1      45.777  26.123  27.372  1.00  0.00    -0.354 N 
ATOM     46  C   UNL A   1      41.829  27.487  28.495  1.00  0.00     0.074 A 
ATOM     47  C   UNL A   1      40.868  26.405  28.429  1.00  0.00     0.031 C 
ATOM     48  C   UNL A   1      47.303  24.656  26.655  1.00  0.00     0.029 A 
ATOM     49  C   UNL A   1      47.107  26.053  27.023  1.00  0.00     0.049 A 
ATOM     50  H   UNL A   1      45.353  26.943  27.714  1.00  0.00     0.167 HD
ATOM     51  C   UNL A   1      41.542  28.746  28.911  1.00  0.00     0.034 A 
ATOM     52  C   UNL A   1      48.057  27.010  26.973  1.00  0.00     0.034 A 
ATOM     53  C   UNL A   1      42.507  29.818  28.967  1.00  0.00     0.049 A 
ATOM     54  C   UNL A   1      47.687  28.425  27.352  1.00  0.00     0.074 A 
ATOM     55  C   UNL A   1      42.322  31.124  29.389  1.00  0.00     0.029 A 
ATOM     56  N   UNL A   1      43.838  29.713  28.585  1.00  0.00    -0.354 N 
ATOM     57  N   UNL A   1      46.532  28.895  27.763  1.00  0.00    -0.248 NA
ATOM     58  C   UNL A   1      48.749  29.436  27.262  1.00  0.00     0.031 C 
ATOM     59  C   UNL A   1      43.518  31.822  29.203  1.00  0.00     0.029 A 
ATOM     60  C   UNL A   1      44.474  30.936  28.734  1.00  0.00     0.049 A 
ATOM     61  H   UNL A   1      44.267  28.890  28.256  1.00  0.00     0.167 HD
ATOM     62  C   UNL A   1      46.743  30.248  28.014  1.00  0.00     0.074 A 
ATOM     63  C   UNL A   1      48.136  30.514  27.727  1.00  0.00     0.031 C 
ATOM     64  C   UNL A   1      45.865  31.189  28.445  1.00  0.00     0.034 A 
BRANCH  51  65
ATOM     65  C   UNL A   1      40.122  29.033  29.329  1.00  0.00     0.023 A 
ATOM     66  C   UNL A   1      39.744  29.028  30.683  1.00  0.00     0.031 A 
ATOM     67  C   UNL A   1      39.133  29.316  28.371  1.00  0.00     0.131 A 
ATOM     68  C   UNL A   1      38.403  29.239  31.038  1.00  0.00     0.055 A 
ATOM     69  C   UNL A   1      37.815  29.602  28.736  1.00  0.00     0.041 A 
ATOM     70  F   UNL A   1      39.429  29.317  27.062  1.00  0.00    -0.206 F 
ATOM     71  C   UNL A   1      37.441  29.552  30.075  1.00  0.00     0.022 A 
BRANCH  68  72
ATOM     72  S   UNL A   1      37.915  28.975  32.764  1.00  0.00     0.124 S 
ATOM     73  O   UNL A   1      36.650  29.703  32.827  1.00  0.00    -0.237 OA
ATOM     74  O   UNL A   1      37.821  27.522  32.848  1.00  0.00    -0.237 OA
ATOM     75  O   UNL A   1      39.010  29.575  33.524  1.00  0.00    -0.744 OA
ENDBRANCH  68  72
ENDBRANCH  51  65
BRANCH  52  76
ATOM     76  C   UNL A   1      49.443  26.696  26.515  1.00  0.00     0.023 A 
ATOM     77  C   UNL A   1      49.916  27.171  25.281  1.00  0.00     0.031 A 
ATOM     78  C   UNL A   1      50.283  25.844  27.256  1.00  0.00     0.131 A 
ATOM     79  C   UNL A   1      51.156  26.735  24.790  1.00  0.00     0.055 A 
ATOM     80  C   UNL A   1      51.547  25.470  26.794  1.00  0.00     0.041 A 
ATOM     81  F   UNL A   1      49.884  25.357  28.442  1.00  0.00    -0.206 F 
ATOM     82  C   UNL A   1      51.982  25.900  25.545  1.00  0.00     0.022 A 
BRANCH  79  83
ATOM     83  S   UNL A   1      51.612  27.167  23.088  1.00  0.00     0.124 S 
ATOM     84  O   UNL A   1      52.789  26.334  22.877  1.00  0.00    -0.237 OA
ATOM     85  O   UNL A   1      50.413  26.786  22.350  1.00  0.00    -0.237 OA
ATOM     86  O   UNL A   1      51.868  28.604  23.160  1.00  0.00    -0.744 OA
ENDBRANCH  79  83
ENDBRANCH  52  76
BRANCH  64  87
ATOM     87  C   UNL A   1      46.404  32.578  28.679  1.00  0.00     0.023 A 
ATOM     88  C   UNL A   1      46.454  33.537  27.651  1.00  0.00     0.031 A 
ATOM     89  C   UNL A   1      46.880  32.946  29.951  1.00  0.00     0.131 A 
ATOM     90  C   UNL A   1      47.011  34.799  27.901  1.00  0.00     0.055 A 
ATOM     91  C   UNL A   1      47.379  34.223  30.207  1.00  0.00     0.041 A 
ATOM     92  F   UNL A   1      46.859  32.070  30.968  1.00  0.00    -0.206 F 
ATOM     93  C   UNL A   1      47.457  35.155  29.176  1.00  0.00     0.022 A 
BRANCH  90  94
ATOM     94  S   UNL A   1      47.213  35.953  26.514  1.00  0.00     0.124 S 
ATOM     95  O   UNL A   1      48.607  35.736  26.141  1.00  0.00    -0.237 OA
ATOM     96  O   UNL A   1      46.217  35.475  25.562  1.00  0.00    -0.237 OA
ATOM     97  O   UNL A   1      46.923  37.257  27.108  1.00  0.00    -0.744 OA
ENDBRANCH  90  94
ENDBRANCH  64  87
ENDBRANCH  38  39
ENDBRANCH  30  33
ENDBRANCH  28  29
ENDBRANCH  27  28
ENDBRANCH  26  27
ENDBRANCH   1  26
TORSDOF 20
ENDMDL
