MODEL 1
REMARK VINA RESULT:     -13.3      0.000      0.000
REMARK SMILES CCC(=O)Nc1ccc2nc(N3CC[NH+](CC(=O)N4CCCC4)CC3)cc(C(=O)NCCCCNC(=O)c3ccc(-c4c5nc(c(-c6cc(S(=O)(=O)[O-])ccc6F)c6ccc([nH]6)c(-c6cc(S(=O)(=O)[O-])ccc6F)c6nc(c(-c7cc(S(=O)(=O)[O-])ccc7F)c7ccc4[nH]7)C=C6)C=C5)cc3)c2c1
REMARK SMILES IDX 32 1 31 2 30 3 28 4 29 5 27 7 6 8 7 9 102 10 8 11 101 12
REMARK SMILES IDX 9 13 10 14 26 15 11 16 5 17 3 18 4 19 2 21 1 22 12 23 13 24
REMARK SMILES IDX 25 25 14 26 24 27 15 28 16 30 17 31 18 32 19 33 20 34 23 35
REMARK SMILES IDX 21 36 22 37 33 38 34 39 35 40 36 41 37 43 38 44 39 45 100 46
REMARK SMILES IDX 40 47 99 48 41 49 42 50 43 51 93 52 44 53 98 54 92 55 94 56
REMARK SMILES IDX 45 57 97 58 91 59 90 60 46 62 78 63 58 64 77 65 59 66 62 67
REMARK SMILES IDX 76 68 95 69 60 70 61 71 75 73 96 74 63 75 47 76 48 77 56 78
REMARK SMILES IDX 49 79 55 80 57 81 54 82 50 83 51 84 52 85 53 86 79 87 80 88
REMARK SMILES IDX 88 89 81 90 87 91 89 92 86 93 82 94 83 95 84 96 85 97 64 98
REMARK SMILES IDX 65 99 73 100 66 101 72 102 74 103 71 104 67 105 68 106
REMARK SMILES IDX 69 107 70 108
REMARK H PARENT 30 6 5 20 15 29 35 42 94 61 62 72
REMARK Flexibility Score: inf
ROOT
ATOM      1  C   UNL A   1      31.904  30.640  26.897  1.00  0.00     0.023 C 
ENDROOT
BRANCH   1   2
ATOM      2  C   UNL A   1      33.409  30.346  26.988  1.00  0.00     0.116 C 
BRANCH   2   3
ATOM      3  N   UNL A   1      33.887  29.896  25.695  1.00  0.00    -0.352 N 
ATOM      4  C   UNL A   1      33.548  28.933  24.783  1.00  0.00     0.252 C 
ATOM      5  O   UNL A   1      34.409  28.760  23.910  1.00  0.00    -0.269 OA
ATOM      6  H   UNL A   1      34.661  30.424  25.392  1.00  0.00     0.163 HD
BRANCH   4   7
ATOM      7  C   UNL A   1      32.257  28.162  24.649  1.00  0.00     0.052 A 
ATOM      8  C   UNL A   1      29.277  30.185  23.477  1.00  0.00     0.041 A 
ATOM      9  C   UNL A   1      28.463  29.170  23.025  1.00  0.00     0.028 A 
ATOM     10  C   UNL A   1      30.497  29.875  24.073  1.00  0.00     0.037 A 
ATOM     11  C   UNL A   1      28.842  27.857  23.288  1.00  0.00     0.031 A 
ATOM     12  C   UNL A   1      30.980  28.564  24.193  1.00  0.00     0.015 A 
ATOM     13  C   UNL A   1      30.053  27.549  23.897  1.00  0.00     0.074 A 
ATOM     14  N   UNL A   1      30.252  26.273  24.218  1.00  0.00    -0.231 NA
ATOM     15  C   UNL A   1      32.397  26.813  25.029  1.00  0.00     0.061 A 
ATOM     16  C   UNL A   1      31.366  25.903  24.874  1.00  0.00     0.130 A 
BRANCH   8  17
ATOM     17  N   UNL A   1      28.939  31.519  23.263  1.00  0.00    -0.326 N 
ATOM     18  C   UNL A   1      28.389  32.054  22.133  1.00  0.00     0.224 C 
ATOM     19  O   UNL A   1      27.949  33.202  22.178  1.00  0.00    -0.275 OA
ATOM     20  H   UNL A   1      29.116  32.142  24.004  1.00  0.00     0.169 HD
BRANCH  18  21
ATOM     21  C   UNL A   1      28.293  31.229  20.867  1.00  0.00     0.097 C 
ATOM     22  C   UNL A   1      27.842  32.037  19.665  1.00  0.00     0.014 C 
ENDBRANCH  18  21
ENDBRANCH   8  17
BRANCH  16  23
ATOM     23  N   UNL A   1      31.414  24.612  25.380  1.00  0.00    -0.345 N 
ATOM     24  C   UNL A   1      32.419  24.221  26.373  1.00  0.00     0.179 C 
ATOM     25  C   UNL A   1      30.675  23.614  24.605  1.00  0.00     0.179 C 
ATOM     26  C   UNL A   1      32.269  22.773  26.886  1.00  0.00     0.284 C 
ATOM     27  C   UNL A   1      30.662  22.208  25.208  1.00  0.00     0.284 C 
ATOM     28  N   UNL A   1      31.877  21.770  25.891  1.00  0.00    -0.324 N 
ATOM     29  H   UNL A   1      31.660  20.920  26.410  1.00  0.00     0.348 HD
BRANCH  28  30
ATOM     30  C   UNL A   1      32.939  21.237  25.025  1.00  0.00     0.363 C 
BRANCH  30  31
ATOM     31  C   UNL A   1      32.573  20.183  23.973  1.00  0.00     0.277 C 
ATOM     32  O   UNL A   1      32.151  20.537  22.866  1.00  0.00    -0.268 OA
ATOM     33  N   UNL A   1      32.827  18.853  24.234  1.00  0.00    -0.338 N 
ATOM     34  C   UNL A   1      33.099  18.202  25.501  1.00  0.00     0.119 C 
ATOM     35  C   UNL A   1      32.824  17.880  23.151  1.00  0.00     0.119 C 
ATOM     36  C   UNL A   1      33.810  16.918  25.110  1.00  0.00     0.023 C 
ATOM     37  C   UNL A   1      33.101  16.536  23.815  1.00  0.00     0.023 C 
ENDBRANCH  30  31
ENDBRANCH  28  30
ENDBRANCH  16  23
ENDBRANCH   4   7
ENDBRANCH   2   3
ENDBRANCH   1   2
BRANCH   1  38
ATOM     38  C   UNL A   1      31.504  32.090  27.111  1.00  0.00     0.023 C 
BRANCH  38  39
ATOM     39  C   UNL A   1      32.635  33.066  26.842  1.00  0.00     0.116 C 
BRANCH  39  40
ATOM     40  N   UNL A   1      32.660  34.227  27.733  1.00  0.00    -0.352 N 
ATOM     41  C   UNL A   1      33.606  34.518  28.691  1.00  0.00     0.251 C 
ATOM     42  H   UNL A   1      31.920  34.869  27.637  1.00  0.00     0.163 HD
ATOM     43  O   UNL A   1      33.535  35.525  29.382  1.00  0.00    -0.269 OA
BRANCH  41  44
ATOM     44  C   UNL A   1      34.671  33.526  28.904  1.00  0.00     0.039 A 
ATOM     45  C   UNL A   1      35.985  33.893  28.609  1.00  0.00     0.014 A 
ATOM     46  C   UNL A   1      34.380  32.348  29.593  1.00  0.00     0.014 A 
ATOM     47  C   UNL A   1      37.031  33.113  29.098  1.00  0.00     0.010 A 
ATOM     48  C   UNL A   1      35.424  31.626  30.152  1.00  0.00     0.010 A 
ATOM     49  C   UNL A   1      36.757  32.011  29.922  1.00  0.00    -0.014 A 
BRANCH  49  50
ATOM     50  C   UNL A   1      37.837  31.214  30.553  1.00  0.00     0.031 A 
ATOM     51  C   UNL A   1      38.228  31.530  31.967  1.00  0.00     0.074 A 
ATOM     52  C   UNL A   1      38.518  30.297  29.836  1.00  0.00     0.049 A 
ATOM     53  N   UNL A   1      39.273  31.140  32.646  1.00  0.00    -0.248 NA
ATOM     54  C   UNL A   1      37.342  32.453  32.694  1.00  0.00     0.031 C 
ATOM     55  C   UNL A   1      38.236  29.919  28.449  1.00  0.00     0.029 A 
ATOM     56  N   UNL A   1      39.605  29.529  30.171  1.00  0.00    -0.354 N 
ATOM     57  C   UNL A   1      39.185  31.789  33.872  1.00  0.00     0.074 A 
ATOM     58  C   UNL A   1      38.021  32.647  33.813  1.00  0.00     0.031 C 
ATOM     59  C   UNL A   1      39.118  28.983  28.059  1.00  0.00     0.029 A 
ATOM     60  C   UNL A   1      40.062  28.735  29.144  1.00  0.00     0.049 A 
ATOM     61  H   UNL A   1      40.019  29.545  31.065  1.00  0.00     0.167 HD
ATOM     62  C   UNL A   1      39.987  31.659  34.955  1.00  0.00     0.034 A 
ATOM     63  C   UNL A   1      41.136  27.922  29.081  1.00  0.00     0.034 A 
ATOM     64  C   UNL A   1      41.125  30.779  35.001  1.00  0.00     0.049 A 
ATOM     65  C   UNL A   1      42.029  27.809  30.295  1.00  0.00     0.074 A 
ATOM     66  C   UNL A   1      42.007  30.558  36.042  1.00  0.00     0.029 A 
ATOM     67  N   UNL A   1      41.529  29.959  33.955  1.00  0.00    -0.354 N 
ATOM     68  N   UNL A   1      41.936  28.434  31.447  1.00  0.00    -0.248 NA
ATOM     69  C   UNL A   1      43.166  26.884  30.205  1.00  0.00     0.031 C 
ATOM     70  C   UNL A   1      42.966  29.634  35.615  1.00  0.00     0.029 A 
ATOM     71  C   UNL A   1      42.648  29.235  34.326  1.00  0.00     0.049 A 
ATOM     72  H   UNL A   1      41.086  29.903  33.077  1.00  0.00     0.167 HD
ATOM     73  C   UNL A   1      42.974  27.940  32.230  1.00  0.00     0.074 A 
ATOM     74  C   UNL A   1      43.682  26.970  31.423  1.00  0.00     0.031 C 
ATOM     75  C   UNL A   1      43.314  28.254  33.506  1.00  0.00     0.034 A 
BRANCH  62  76
ATOM     76  C   UNL A   1      39.655  32.503  36.159  1.00  0.00     0.023 A 
ATOM     77  C   UNL A   1      38.787  32.034  37.161  1.00  0.00     0.031 A 
ATOM     78  C   UNL A   1      40.170  33.803  36.287  1.00  0.00     0.131 A 
ATOM     79  C   UNL A   1      38.392  32.889  38.199  1.00  0.00     0.055 A 
ATOM     80  C   UNL A   1      39.841  34.619  37.372  1.00  0.00     0.041 A 
ATOM     81  F   UNL A   1      40.985  34.312  35.350  1.00  0.00    -0.206 F 
ATOM     82  C   UNL A   1      38.934  34.168  38.328  1.00  0.00     0.022 A 
BRANCH  79  83
ATOM     83  S   UNL A   1      37.053  32.350  39.297  1.00  0.00     0.124 S 
ATOM     84  O   UNL A   1      35.872  32.744  38.532  1.00  0.00    -0.237 OA
ATOM     85  O   UNL A   1      37.291  30.916  39.408  1.00  0.00    -0.237 OA
ATOM     86  O   UNL A   1      37.282  33.119  40.517  1.00  0.00    -0.744 OA
ENDBRANCH  79  83
ENDBRANCH  62  76
BRANCH  63  87
ATOM     87  C   UNL A   1      41.453  27.163  27.837  1.00  0.00     0.023 A 
ATOM     88  C   UNL A   1      41.214  25.781  27.757  1.00  0.00     0.031 A 
ATOM     89  C   UNL A   1      42.064  27.788  26.736  1.00  0.00     0.131 A 
ATOM     90  C   UNL A   1      41.640  25.059  26.631  1.00  0.00     0.055 A 
ATOM     91  C   UNL A   1      42.433  27.075  25.593  1.00  0.00     0.041 A 
ATOM     92  F   UNL A   1      42.312  29.107  26.756  1.00  0.00    -0.206 F 
ATOM     93  C   UNL A   1      42.238  25.699  25.543  1.00  0.00     0.022 A 
BRANCH  90  94
ATOM     94  S   UNL A   1      41.506  23.250  26.660  1.00  0.00     0.124 S 
ATOM     95  O   UNL A   1      42.264  22.877  25.472  1.00  0.00    -0.237 OA
ATOM     96  O   UNL A   1      42.118  22.923  27.943  1.00  0.00    -0.237 OA
ATOM     97  O   UNL A   1      40.065  23.015  26.581  1.00  0.00    -0.744 OA
ENDBRANCH  90  94
ENDBRANCH  63  87
BRANCH  75  98
ATOM     98  C   UNL A   1      44.443  27.478  34.128  1.00  0.00     0.023 A 
ATOM     99  C   UNL A   1      44.223  26.288  34.841  1.00  0.00     0.031 A 
ATOM    100  C   UNL A   1      45.765  27.929  33.971  1.00  0.00     0.131 A 
ATOM    101  C   UNL A   1      45.311  25.603  35.400  1.00  0.00     0.055 A 
ATOM    102  C   UNL A   1      46.848  27.221  34.492  1.00  0.00     0.041 A 
ATOM    103  F   UNL A   1      46.024  29.059  33.294  1.00  0.00    -0.206 F 
ATOM    104  C   UNL A   1      46.622  26.055  35.218  1.00  0.00     0.022 A 
BRANCH 101 105
ATOM    105  S   UNL A   1      44.992  24.129  36.405  1.00  0.00     0.124 S 
ATOM    106  O   UNL A   1      44.035  23.399  35.579  1.00  0.00    -0.237 OA
ATOM    107  O   UNL A   1      46.320  23.533  36.519  1.00  0.00    -0.237 OA
ATOM    108  O   UNL A   1      44.450  24.670  37.650  1.00  0.00    -0.744 OA
ENDBRANCH 101 105
ENDBRANCH  75  98
ENDBRANCH  49  50
ENDBRANCH  41  44
ENDBRANCH  39  40
ENDBRANCH  38  39
ENDBRANCH   1  38
TORSDOF 19
ENDMDL
MODEL 2
REMARK VINA RESULT:     -13.2      1.905      2.411
REMARK SMILES CCC(=O)Nc1ccc2nc(N3CC[NH+](CC(=O)N4CCCC4)CC3)cc(C(=O)NCCCCNC(=O)c3ccc(-c4c5nc(c(-c6cc(S(=O)(=O)[O-])ccc6F)c6ccc([nH]6)c(-c6cc(S(=O)(=O)[O-])ccc6F)c6nc(c(-c7cc(S(=O)(=O)[O-])ccc7F)c7ccc4[nH]7)C=C6)C=C5)cc3)c2c1
REMARK SMILES IDX 32 1 31 2 30 3 28 4 29 5 27 7 6 8 7 9 102 10 8 11 101 12
REMARK SMILES IDX 9 13 10 14 26 15 11 16 5 17 3 18 4 19 2 21 1 22 12 23 13 24
REMARK SMILES IDX 25 25 14 26 24 27 15 28 16 30 17 31 18 32 19 33 20 34 23 35
REMARK SMILES IDX 21 36 22 37 33 38 34 39 35 40 36 41 37 43 38 44 39 45 100 46
REMARK SMILES IDX 40 47 99 48 41 49 42 50 43 51 93 52 44 53 98 54 92 55 94 56
REMARK SMILES IDX 45 57 97 58 91 59 90 60 46 62 78 63 58 64 77 65 59 66 62 67
REMARK SMILES IDX 76 68 95 69 60 70 61 71 75 73 96 74 63 75 47 76 48 77 56 78
REMARK SMILES IDX 49 79 55 80 57 81 54 82 50 83 51 84 52 85 53 86 79 87 80 88
REMARK SMILES IDX 88 89 81 90 87 91 89 92 86 93 82 94 83 95 84 96 85 97 64 98
REMARK SMILES IDX 65 99 73 100 66 101 72 102 74 103 71 104 67 105 68 106
REMARK SMILES IDX 69 107 70 108
REMARK H PARENT 30 6 5 20 15 29 35 42 94 61 62 72
REMARK Flexibility Score: inf
ROOT
ATOM      1  C   UNL A   1      35.328  30.754  28.195  1.00  0.00     0.023 C 
ENDROOT
BRANCH   1   2
ATOM      2  C   UNL A   1      35.040  29.442  27.447  1.00  0.00     0.116 C 
BRANCH   2   3
ATOM      3  N   UNL A   1      33.772  28.903  27.900  1.00  0.00    -0.352 N 
ATOM      4  C   UNL A   1      32.680  28.304  27.333  1.00  0.00     0.252 C 
ATOM      5  O   UNL A   1      31.710  28.227  28.099  1.00  0.00    -0.269 OA
ATOM      6  H   UNL A   1      33.670  28.990  28.875  1.00  0.00     0.163 HD
BRANCH   4   7
ATOM      7  C   UNL A   1      32.549  27.652  25.978  1.00  0.00     0.052 A 
ATOM      8  C   UNL A   1      30.289  29.447  23.526  1.00  0.00     0.041 A 
ATOM      9  C   UNL A   1      30.746  28.911  22.343  1.00  0.00     0.028 A 
ATOM     10  C   UNL A   1      30.819  29.002  24.734  1.00  0.00     0.037 A 
ATOM     11  C   UNL A   1      31.647  27.852  22.406  1.00  0.00     0.031 A 
ATOM     12  C   UNL A   1      31.853  28.059  24.815  1.00  0.00     0.015 A 
ATOM     13  C   UNL A   1      32.165  27.398  23.614  1.00  0.00     0.074 A 
ATOM     14  N   UNL A   1      32.913  26.298  23.568  1.00  0.00    -0.231 NA
ATOM     15  C   UNL A   1      33.280  26.451  25.889  1.00  0.00     0.061 A 
ATOM     16  C   UNL A   1      33.392  25.753  24.699  1.00  0.00     0.130 A 
BRANCH   8  17
ATOM     17  N   UNL A   1      29.370  30.493  23.526  1.00  0.00    -0.326 N 
ATOM     18  C   UNL A   1      28.041  30.417  23.217  1.00  0.00     0.224 C 
ATOM     19  O   UNL A   1      27.320  31.381  23.474  1.00  0.00    -0.275 OA
ATOM     20  H   UNL A   1      29.714  31.381  23.775  1.00  0.00     0.169 HD
BRANCH  18  21
ATOM     21  C   UNL A   1      27.471  29.156  22.606  1.00  0.00     0.097 C 
ATOM     22  C   UNL A   1      26.919  28.192  23.638  1.00  0.00     0.014 C 
ENDBRANCH  18  21
ENDBRANCH   8  17
BRANCH  16  23
ATOM     23  N   UNL A   1      33.967  24.494  24.611  1.00  0.00    -0.345 N 
ATOM     24  C   UNL A   1      34.498  23.987  23.342  1.00  0.00     0.179 C 
ATOM     25  C   UNL A   1      33.673  23.598  25.730  1.00  0.00     0.179 C 
ATOM     26  C   UNL A   1      35.178  22.605  23.449  1.00  0.00     0.284 C 
ATOM     27  C   UNL A   1      34.374  22.239  25.671  1.00  0.00     0.284 C 
ATOM     28  N   UNL A   1      34.543  21.639  24.350  1.00  0.00    -0.324 N 
ATOM     29  H   UNL A   1      35.192  20.858  24.437  1.00  0.00     0.348 HD
BRANCH  28  30
ATOM     30  C   UNL A   1      33.380  20.904  23.829  1.00  0.00     0.363 C 
BRANCH  30  31
ATOM     31  C   UNL A   1      32.718  19.846  24.720  1.00  0.00     0.277 C 
ATOM     32  O   UNL A   1      31.712  20.136  25.379  1.00  0.00    -0.268 OA
ATOM     33  N   UNL A   1      33.184  18.548  24.687  1.00  0.00    -0.338 N 
ATOM     34  C   UNL A   1      34.444  18.039  24.180  1.00  0.00     0.119 C 
ATOM     35  C   UNL A   1      32.379  17.466  25.233  1.00  0.00     0.119 C 
ATOM     36  C   UNL A   1      34.167  16.569  23.917  1.00  0.00     0.023 C 
ATOM     37  C   UNL A   1      33.221  16.207  25.057  1.00  0.00     0.023 C 
ENDBRANCH  30  31
ENDBRANCH  28  30
ENDBRANCH  16  23
ENDBRANCH   4   7
ENDBRANCH   2   3
ENDBRANCH   1   2
BRANCH   1  38
ATOM     38  C   UNL A   1      34.749  32.009  27.566  1.00  0.00     0.023 C 
BRANCH  38  39
ATOM     39  C   UNL A   1      33.375  32.367  28.107  1.00  0.00     0.116 C 
BRANCH  39  40
ATOM     40  N   UNL A   1      33.093  33.802  28.143  1.00  0.00    -0.352 N 
ATOM     41  C   UNL A   1      33.755  34.760  28.881  1.00  0.00     0.251 C 
ATOM     42  H   UNL A   1      32.349  34.117  27.580  1.00  0.00     0.163 HD
ATOM     43  O   UNL A   1      33.440  35.941  28.833  1.00  0.00    -0.269 OA
BRANCH  41  44
ATOM     44  C   UNL A   1      34.812  34.293  29.791  1.00  0.00     0.039 A 
ATOM     45  C   UNL A   1      34.457  33.435  30.833  1.00  0.00     0.014 A 
ATOM     46  C   UNL A   1      36.147  34.531  29.466  1.00  0.00     0.014 A 
ATOM     47  C   UNL A   1      35.456  32.728  31.498  1.00  0.00     0.010 A 
ATOM     48  C   UNL A   1      37.129  33.760  30.069  1.00  0.00     0.010 A 
ATOM     49  C   UNL A   1      36.790  32.842  31.079  1.00  0.00    -0.014 A 
BRANCH  49  50
ATOM     50  C   UNL A   1      37.875  32.031  31.684  1.00  0.00     0.031 A 
ATOM     51  C   UNL A   1      38.398  32.428  33.034  1.00  0.00     0.074 A 
ATOM     52  C   UNL A   1      38.445  31.025  30.991  1.00  0.00     0.049 A 
ATOM     53  N   UNL A   1      39.473  32.028  33.657  1.00  0.00    -0.248 NA
ATOM     54  C   UNL A   1      37.625  33.453  33.754  1.00  0.00     0.031 C 
ATOM     55  C   UNL A   1      38.031  30.563  29.664  1.00  0.00     0.029 A 
ATOM     56  N   UNL A   1      39.514  30.222  31.299  1.00  0.00    -0.354 N 
ATOM     57  C   UNL A   1      39.521  32.770  34.832  1.00  0.00     0.074 A 
ATOM     58  C   UNL A   1      38.403  33.689  34.797  1.00  0.00     0.031 C 
ATOM     59  C   UNL A   1      38.827  29.550  29.281  1.00  0.00     0.029 A 
ATOM     60  C   UNL A   1      39.843  29.328  30.305  1.00  0.00     0.049 A 
ATOM     61  H   UNL A   1      40.001  30.280  32.153  1.00  0.00     0.167 HD
ATOM     62  C   UNL A   1      40.402  32.674  35.856  1.00  0.00     0.034 A 
ATOM     63  C   UNL A   1      40.864  28.451  30.222  1.00  0.00     0.034 A 
ATOM     64  C   UNL A   1      41.492  31.734  35.881  1.00  0.00     0.049 A 
ATOM     65  C   UNL A   1      41.846  28.377  31.368  1.00  0.00     0.074 A 
ATOM     66  C   UNL A   1      42.444  31.540  36.865  1.00  0.00     0.029 A 
ATOM     67  N   UNL A   1      41.764  30.817  34.875  1.00  0.00    -0.354 N 
ATOM     68  N   UNL A   1      41.882  29.089  32.470  1.00  0.00    -0.248 NA
ATOM     69  C   UNL A   1      42.922  27.382  31.262  1.00  0.00     0.031 C 
ATOM     70  C   UNL A   1      43.314  30.532  36.437  1.00  0.00     0.029 A 
ATOM     71  C   UNL A   1      42.870  30.058  35.213  1.00  0.00     0.049 A 
ATOM     72  H   UNL A   1      41.248  30.722  34.042  1.00  0.00     0.167 HD
ATOM     73  C   UNL A   1      42.954  28.594  33.207  1.00  0.00     0.074 A 
ATOM     74  C   UNL A   1      43.541  27.528  32.425  1.00  0.00     0.031 C 
ATOM     75  C   UNL A   1      43.414  28.981  34.423  1.00  0.00     0.034 A 
BRANCH  62  76
ATOM     76  C   UNL A   1      40.215  33.623  37.012  1.00  0.00     0.023 A 
ATOM     77  C   UNL A   1      39.557  33.220  38.187  1.00  0.00     0.031 A 
ATOM     78  C   UNL A   1      40.654  34.954  36.925  1.00  0.00     0.131 A 
ATOM     79  C   UNL A   1      39.280  34.158  39.191  1.00  0.00     0.055 A 
ATOM     80  C   UNL A   1      40.453  35.863  37.966  1.00  0.00     0.041 A 
ATOM     81  F   UNL A   1      41.268  35.401  35.819  1.00  0.00    -0.206 F 
ATOM     82  C   UNL A   1      39.748  35.470  39.102  1.00  0.00     0.022 A 
BRANCH  79  83
ATOM     83  S   UNL A   1      38.180  33.672  40.547  1.00  0.00     0.124 S 
ATOM     84  O   UNL A   1      39.022  32.732  41.284  1.00  0.00    -0.237 OA
ATOM     85  O   UNL A   1      37.912  34.943  41.210  1.00  0.00    -0.237 OA
ATOM     86  O   UNL A   1      37.038  33.071  39.861  1.00  0.00    -0.744 OA
ENDBRANCH  79  83
ENDBRANCH  62  76
BRANCH  63  87
ATOM     87  C   UNL A   1      41.036  27.584  29.021  1.00  0.00     0.023 A 
ATOM     88  C   UNL A   1      42.012  27.880  28.054  1.00  0.00     0.031 A 
ATOM     89  C   UNL A   1      40.185  26.492  28.781  1.00  0.00     0.131 A 
ATOM     90  C   UNL A   1      42.072  27.136  26.866  1.00  0.00     0.055 A 
ATOM     91  C   UNL A   1      40.287  25.716  27.623  1.00  0.00     0.041 A 
ATOM     92  F   UNL A   1      39.238  26.160  29.672  1.00  0.00    -0.206 F 
ATOM     93  C   UNL A   1      41.223  26.048  26.649  1.00  0.00     0.022 A 
BRANCH  90  94
ATOM     94  S   UNL A   1      43.201  27.683  25.557  1.00  0.00     0.124 S 
ATOM     95  O   UNL A   1      42.278  28.282  24.600  1.00  0.00    -0.237 OA
ATOM     96  O   UNL A   1      44.072  28.607  26.276  1.00  0.00    -0.237 OA
ATOM     97  O   UNL A   1      43.838  26.444  25.116  1.00  0.00    -0.744 OA
ENDBRANCH  90  94
ENDBRANCH  63  87
BRANCH  75  98
ATOM     98  C   UNL A   1      44.548  28.188  35.014  1.00  0.00     0.023 A 
ATOM     99  C   UNL A   1      44.325  27.051  35.807  1.00  0.00     0.031 A 
ATOM    100  C   UNL A   1      45.875  28.568  34.745  1.00  0.00     0.131 A 
ATOM    101  C   UNL A   1      45.419  26.348  36.332  1.00  0.00     0.055 A 
ATOM    102  C   UNL A   1      46.959  27.840  35.235  1.00  0.00     0.041 A 
ATOM    103  F   UNL A   1      46.136  29.646  33.989  1.00  0.00    -0.206 F 
ATOM    104  C   UNL A   1      46.733  26.727  36.040  1.00  0.00     0.022 A 
BRANCH 101 105
ATOM    105  S   UNL A   1      45.105  24.946  37.439  1.00  0.00     0.124 S 
ATOM    106  O   UNL A   1      45.373  23.806  36.568  1.00  0.00    -0.237 OA
ATOM    107  O   UNL A   1      46.071  25.170  38.510  1.00  0.00    -0.237 OA
ATOM    108  O   UNL A   1      43.706  25.118  37.824  1.00  0.00    -0.744 OA
ENDBRANCH 101 105
ENDBRANCH  75  98
ENDBRANCH  49  50
ENDBRANCH  41  44
ENDBRANCH  39  40
ENDBRANCH  38  39
ENDBRANCH   1  38
TORSDOF 19
ENDMDL
MODEL 3
REMARK VINA RESULT:     -13.1      1.930      7.374
REMARK SMILES CCC(=O)Nc1ccc2nc(N3CC[NH+](CC(=O)N4CCCC4)CC3)cc(C(=O)NCCCCNC(=O)c3ccc(-c4c5nc(c(-c6cc(S(=O)(=O)[O-])ccc6F)c6ccc([nH]6)c(-c6cc(S(=O)(=O)[O-])ccc6F)c6nc(c(-c7cc(S(=O)(=O)[O-])ccc7F)c7ccc4[nH]7)C=C6)C=C5)cc3)c2c1
REMARK SMILES IDX 32 1 31 2 30 3 28 4 29 5 27 7 6 8 7 9 102 10 8 11 101 12
REMARK SMILES IDX 9 13 10 14 26 15 11 16 5 17 3 18 4 19 2 21 1 22 12 23 13 24
REMARK SMILES IDX 25 25 14 26 24 27 15 28 16 30 17 31 18 32 19 33 20 34 23 35
REMARK SMILES IDX 21 36 22 37 33 38 34 39 35 40 36 41 37 43 38 44 39 45 100 46
REMARK SMILES IDX 40 47 99 48 41 49 42 50 43 51 93 52 44 53 98 54 92 55 94 56
REMARK SMILES IDX 45 57 97 58 91 59 90 60 46 62 78 63 58 64 77 65 59 66 62 67
REMARK SMILES IDX 76 68 95 69 60 70 61 71 75 73 96 74 63 75 47 76 48 77 56 78
REMARK SMILES IDX 49 79 55 80 57 81 54 82 50 83 51 84 52 85 53 86 79 87 80 88
REMARK SMILES IDX 88 89 81 90 87 91 89 92 86 93 82 94 83 95 84 96 85 97 64 98
REMARK SMILES IDX 65 99 73 100 66 101 72 102 74 103 71 104 67 105 68 106
REMARK SMILES IDX 69 107 70 108
REMARK H PARENT 30 6 5 20 15 29 35 42 94 61 62 72
REMARK Flexibility Score: inf
ROOT
ATOM      1  C   UNL A   1      35.220  30.082  27.738  1.00  0.00     0.023 C 
ENDROOT
BRANCH   1   2
ATOM      2  C   UNL A   1      34.604  28.906  26.964  1.00  0.00     0.116 C 
BRANCH   2   3
ATOM      3  N   UNL A   1      33.361  28.516  27.599  1.00  0.00    -0.352 N 
ATOM      4  C   UNL A   1      32.123  28.090  27.198  1.00  0.00     0.252 C 
ATOM      5  O   UNL A   1      31.282  28.105  28.107  1.00  0.00    -0.269 OA
ATOM      6  H   UNL A   1      33.422  28.572  28.580  1.00  0.00     0.163 HD
BRANCH   4   7
ATOM      7  C   UNL A   1      31.699  27.521  25.866  1.00  0.00     0.052 A 
ATOM      8  C   UNL A   1      30.154  30.008  23.462  1.00  0.00     0.041 A 
ATOM      9  C   UNL A   1      30.326  29.330  22.275  1.00  0.00     0.028 A 
ATOM     10  C   UNL A   1      30.536  29.407  24.658  1.00  0.00     0.037 A 
ATOM     11  C   UNL A   1      30.773  28.013  22.328  1.00  0.00     0.031 A 
ATOM     12  C   UNL A   1      31.150  28.148  24.722  1.00  0.00     0.015 A 
ATOM     13  C   UNL A   1      31.140  27.409  23.526  1.00  0.00     0.074 A 
ATOM     14  N   UNL A   1      31.424  26.110  23.477  1.00  0.00    -0.231 NA
ATOM     15  C   UNL A   1      31.928  26.134  25.777  1.00  0.00     0.061 A 
ATOM     16  C   UNL A   1      31.718  25.435  24.602  1.00  0.00     0.130 A 
BRANCH   8  17
ATOM     17  N   UNL A   1      29.689  31.320  23.472  1.00  0.00    -0.326 N 
ATOM     18  C   UNL A   1      28.585  31.803  22.831  1.00  0.00     0.224 C 
ATOM     19  O   UNL A   1      28.185  32.933  23.113  1.00  0.00    -0.275 OA
ATOM     20  H   UNL A   1      30.212  31.968  23.998  1.00  0.00     0.169 HD
BRANCH  18  21
ATOM     21  C   UNL A   1      27.852  30.945  21.822  1.00  0.00     0.097 C 
ATOM     22  C   UNL A   1      27.871  31.526  20.421  1.00  0.00     0.014 C 
ENDBRANCH  18  21
ENDBRANCH   8  17
BRANCH  16  23
ATOM     23  N   UNL A   1      31.782  24.052  24.522  1.00  0.00    -0.345 N 
ATOM     24  C   UNL A   1      31.322  23.205  25.627  1.00  0.00     0.179 C 
ATOM     25  C   UNL A   1      32.653  23.530  23.469  1.00  0.00     0.179 C 
ATOM     26  C   UNL A   1      31.387  21.691  25.332  1.00  0.00     0.284 C 
ATOM     27  C   UNL A   1      32.659  22.006  23.331  1.00  0.00     0.284 C 
ATOM     28  N   UNL A   1      32.548  21.230  24.564  1.00  0.00    -0.324 N 
ATOM     29  H   UNL A   1      32.360  20.260  24.312  1.00  0.00     0.348 HD
BRANCH  28  30
ATOM     30  C   UNL A   1      33.802  21.027  25.306  1.00  0.00     0.363 C 
BRANCH  30  31
ATOM     31  C   UNL A   1      34.748  19.906  24.860  1.00  0.00     0.277 C 
ATOM     32  O   UNL A   1      35.972  20.080  24.898  1.00  0.00    -0.268 OA
ATOM     33  N   UNL A   1      34.226  18.673  24.530  1.00  0.00    -0.338 N 
ATOM     34  C   UNL A   1      32.858  18.313  24.207  1.00  0.00     0.119 C 
ATOM     35  C   UNL A   1      35.093  17.507  24.446  1.00  0.00     0.119 C 
ATOM     36  C   UNL A   1      32.800  16.818  24.469  1.00  0.00     0.023 C 
ATOM     37  C   UNL A   1      34.184  16.357  24.028  1.00  0.00     0.023 C 
ENDBRANCH  30  31
ENDBRANCH  28  30
ENDBRANCH  16  23
ENDBRANCH   4   7
ENDBRANCH   2   3
ENDBRANCH   1   2
BRANCH   1  38
ATOM     38  C   UNL A   1      34.668  31.455  27.396  1.00  0.00     0.023 C 
BRANCH  38  39
ATOM     39  C   UNL A   1      33.341  31.749  28.074  1.00  0.00     0.116 C 
BRANCH  39  40
ATOM     40  N   UNL A   1      32.873  33.127  27.918  1.00  0.00    -0.352 N 
ATOM     41  C   UNL A   1      33.403  34.255  28.505  1.00  0.00     0.251 C 
ATOM     42  H   UNL A   1      32.094  33.262  27.330  1.00  0.00     0.163 HD
ATOM     43  O   UNL A   1      32.936  35.368  28.301  1.00  0.00    -0.269 OA
BRANCH  41  44
ATOM     44  C   UNL A   1      34.512  34.060  29.451  1.00  0.00     0.039 A 
ATOM     45  C   UNL A   1      34.299  33.239  30.560  1.00  0.00     0.014 A 
ATOM     46  C   UNL A   1      35.788  34.507  29.110  1.00  0.00     0.014 A 
ATOM     47  C   UNL A   1      35.399  32.779  31.282  1.00  0.00     0.010 A 
ATOM     48  C   UNL A   1      36.882  33.976  29.775  1.00  0.00     0.010 A 
ATOM     49  C   UNL A   1      36.698  33.096  30.857  1.00  0.00    -0.014 A 
BRANCH  49  50
ATOM     50  C   UNL A   1      37.900  32.544  31.527  1.00  0.00     0.031 A 
ATOM     51  C   UNL A   1      38.613  31.390  30.884  1.00  0.00     0.074 A 
ATOM     52  C   UNL A   1      38.280  33.004  32.736  1.00  0.00     0.049 A 
ATOM     53  N   UNL A   1      39.529  30.602  31.378  1.00  0.00    -0.248 NA
ATOM     54  C   UNL A   1      38.196  31.052  29.513  1.00  0.00     0.031 C 
ATOM     55  C   UNL A   1      37.651  34.109  33.463  1.00  0.00     0.029 A 
ATOM     56  N   UNL A   1      39.277  32.582  33.579  1.00  0.00    -0.354 N 
ATOM     57  C   UNL A   1      39.782  29.659  30.389  1.00  0.00     0.074 A 
ATOM     58  C   UNL A   1      38.873  29.937  29.297  1.00  0.00     0.031 C 
ATOM     59  C   UNL A   1      38.287  34.285  34.634  1.00  0.00     0.029 A 
ATOM     60  C   UNL A   1      39.329  33.272  34.769  1.00  0.00     0.049 A 
ATOM     61  H   UNL A   1      39.899  31.852  33.353  1.00  0.00     0.167 HD
ATOM     62  C   UNL A   1      40.706  28.669  30.383  1.00  0.00     0.034 A 
ATOM     63  C   UNL A   1      40.111  33.087  35.852  1.00  0.00     0.034 A 
ATOM     64  C   UNL A   1      41.619  28.427  31.469  1.00  0.00     0.049 A 
ATOM     65  C   UNL A   1      41.120  31.963  35.831  1.00  0.00     0.074 A 
ATOM     66  C   UNL A   1      42.601  27.460  31.575  1.00  0.00     0.029 A 
ATOM     67  N   UNL A   1      41.668  29.176  32.638  1.00  0.00    -0.354 N 
ATOM     68  N   UNL A   1      41.344  31.075  34.890  1.00  0.00    -0.248 NA
ATOM     69  C   UNL A   1      41.982  31.817  37.011  1.00  0.00     0.031 C 
ATOM     70  C   UNL A   1      43.219  27.598  32.822  1.00  0.00     0.029 A 
ATOM     71  C   UNL A   1      42.661  28.689  33.470  1.00  0.00     0.049 A 
ATOM     72  H   UNL A   1      41.081  29.938  32.845  1.00  0.00     0.167 HD
ATOM     73  C   UNL A   1      42.403  30.297  35.348  1.00  0.00     0.074 A 
ATOM     74  C   UNL A   1      42.772  30.816  36.647  1.00  0.00     0.031 C 
ATOM     75  C   UNL A   1      43.022  29.248  34.748  1.00  0.00     0.034 A 
BRANCH  62  76
ATOM     76  C   UNL A   1      40.751  27.780  29.166  1.00  0.00     0.023 A 
ATOM     77  C   UNL A   1      41.699  27.984  28.149  1.00  0.00     0.031 A 
ATOM     78  C   UNL A   1      39.811  26.750  28.996  1.00  0.00     0.131 A 
ATOM     79  C   UNL A   1      41.633  27.229  26.970  1.00  0.00     0.055 A 
ATOM     80  C   UNL A   1      39.806  25.943  27.857  1.00  0.00     0.041 A 
ATOM     81  F   UNL A   1      38.868  26.524  29.924  1.00  0.00    -0.206 F 
ATOM     82  C   UNL A   1      40.711  26.191  26.828  1.00  0.00     0.022 A 
BRANCH  79  83
ATOM     83  S   UNL A   1      42.678  27.719  25.572  1.00  0.00     0.124 S 
ATOM     84  O   UNL A   1      42.631  26.520  24.738  1.00  0.00    -0.237 OA
ATOM     85  O   UNL A   1      41.981  28.887  25.048  1.00  0.00    -0.237 OA
ATOM     86  O   UNL A   1      43.973  27.989  26.192  1.00  0.00    -0.744 OA
ENDBRANCH  79  83
ENDBRANCH  62  76
BRANCH  63  87
ATOM     87  C   UNL A   1      39.974  33.958  37.055  1.00  0.00     0.023 A 
ATOM     88  C   UNL A   1      39.335  33.487  38.215  1.00  0.00     0.031 A 
ATOM     89  C   UNL A   1      40.412  35.294  37.044  1.00  0.00     0.131 A 
ATOM     90  C   UNL A   1      39.096  34.360  39.288  1.00  0.00     0.055 A 
ATOM     91  C   UNL A   1      40.223  36.142  38.137  1.00  0.00     0.041 A 
ATOM     92  F   UNL A   1      41.033  35.796  35.964  1.00  0.00    -0.206 F 
ATOM     93  C   UNL A   1      39.546  35.682  39.261  1.00  0.00     0.022 A 
BRANCH  90  94
ATOM     94  S   UNL A   1      38.083  33.772  40.673  1.00  0.00     0.124 S 
ATOM     95  O   UNL A   1      36.905  33.259  39.982  1.00  0.00    -0.237 OA
ATOM     96  O   UNL A   1      38.956  32.775  41.283  1.00  0.00    -0.237 OA
ATOM     97  O   UNL A   1      37.864  34.978  41.470  1.00  0.00    -0.744 OA
ENDBRANCH  90  94
ENDBRANCH  63  87
BRANCH  75  98
ATOM     98  C   UNL A   1      44.212  28.658  35.455  1.00  0.00     0.023 A 
ATOM     99  C   UNL A   1      44.073  27.692  36.465  1.00  0.00     0.031 A 
ATOM    100  C   UNL A   1      45.509  29.054  35.081  1.00  0.00     0.131 A 
ATOM    101  C   UNL A   1      45.216  27.174  37.091  1.00  0.00     0.055 A 
ATOM    102  C   UNL A   1      46.643  28.505  35.678  1.00  0.00     0.041 A 
ATOM    103  F   UNL A   1      45.691  29.972  34.119  1.00  0.00    -0.206 F 
ATOM    104  C   UNL A   1      46.499  27.564  36.695  1.00  0.00     0.022 A 
BRANCH 101 105
ATOM    105  S   UNL A   1      45.007  26.008  38.463  1.00  0.00     0.124 S 
ATOM    106  O   UNL A   1      43.807  26.520  39.118  1.00  0.00    -0.237 OA
ATOM    107  O   UNL A   1      44.858  24.732  37.770  1.00  0.00    -0.237 OA
ATOM    108  O   UNL A   1      46.243  26.153  39.230  1.00  0.00    -0.744 OA
ENDBRANCH 101 105
ENDBRANCH  75  98
ENDBRANCH  49  50
ENDBRANCH  41  44
ENDBRANCH  39  40
ENDBRANCH  38  39
ENDBRANCH   1  38
TORSDOF 19
ENDMDL
