MODEL 1
REMARK VINA RESULT:     -11.0      0.000      0.000
REMARK SMILES O=C(Cc1ccc(CBr)cc1)NCCCCNC(=O)c1ccc(-c2c3nc(c(-c4cc(S(=O)(=O)[O-])ccc4F)c4ccc([nH]4)c(-c4cc(S(=O)(=O)[O-])ccc4F)c4nc(c(-c5cc(S(=O)(=O)[O-])ccc5F)c5ccc2[nH]5)C=C4)C=C3)cc1
REMARK SMILES IDX 15 1 14 2 13 3 12 4 1 5 2 6 3 8 4 9 5 10 11 11 6 12 10 13
REMARK SMILES IDX 7 14 8 15 9 16 16 17 17 18 18 19 19 21 20 22 21 23 82 24
REMARK SMILES IDX 22 25 81 26 23 27 24 28 25 29 75 30 26 31 80 32 74 33 76 34
REMARK SMILES IDX 27 35 79 36 73 37 72 38 28 40 60 41 40 42 59 43 41 44 44 45
REMARK SMILES IDX 58 46 77 47 42 48 43 49 57 51 78 52 45 53 29 54 30 55 38 56
REMARK SMILES IDX 31 57 37 58 39 59 36 60 32 61 33 62 34 63 35 64 61 65 62 66
REMARK SMILES IDX 70 67 63 68 69 69 71 70 68 71 64 72 65 73 66 74 67 75 46 76
REMARK SMILES IDX 47 77 55 78 48 79 54 80 56 81 53 82 49 83 50 84 51 85 52 86
REMARK H PARENT 12 7 17 20 76 39 44 50
REMARK Flexibility Score: inf
ROOT
ATOM      1  C   UNL A   1      31.811  28.767  26.485  1.00  0.00     0.023 C 
ENDROOT
BRANCH   1   2
ATOM      2  C   UNL A   1      32.354  27.410  26.942  1.00  0.00     0.023 C 
BRANCH   2   3
ATOM      3  C   UNL A   1      31.609  26.196  26.395  1.00  0.00     0.116 C 
BRANCH   3   4
ATOM      4  N   UNL A   1      30.433  26.564  25.634  1.00  0.00    -0.356 N 
ATOM      5  O   UNL A   1      30.829  25.156  23.860  1.00  0.00    -0.275 OA
ATOM      6  C   UNL A   1      30.103  25.959  24.438  1.00  0.00     0.224 C 
ATOM      7  H   UNL A   1      29.846  27.272  25.983  1.00  0.00     0.163 HD
BRANCH   6   8
ATOM      8  C   UNL A   1      28.758  26.383  23.874  1.00  0.00     0.135 C 
BRANCH   8   9
ATOM      9  C   UNL A   1      28.700  27.769  23.261  1.00  0.00    -0.039 A 
ATOM     10  C   UNL A   1      29.867  28.299  22.692  1.00  0.00     0.004 A 
ATOM     11  C   UNL A   1      27.530  28.539  23.208  1.00  0.00     0.004 A 
ATOM     12  C   UNL A   1      29.871  29.572  22.116  1.00  0.00     0.005 A 
ATOM     13  C   UNL A   1      27.540  29.823  22.656  1.00  0.00     0.005 A 
ATOM     14  C   UNL A   1      28.711  30.357  22.107  1.00  0.00    -0.037 A 
BRANCH  14  15
ATOM     15  C   UNL A   1      28.700  31.726  21.491  1.00  0.00     0.116 C 
ATOM     16  Br  UNL A   1      28.693  33.096  22.869  1.00  0.00    -0.088 Br
ENDBRANCH  14  15
ENDBRANCH   8   9
ENDBRANCH   6   8
ENDBRANCH   3   4
ENDBRANCH   2   3
ENDBRANCH   1   2
BRANCH   1  17
ATOM     17  C   UNL A   1      32.844  29.726  25.899  1.00  0.00     0.116 C 
BRANCH  17  18
ATOM     18  N   UNL A   1      32.664  31.094  26.356  1.00  0.00    -0.352 N 
ATOM     19  C   UNL A   1      33.403  31.821  27.260  1.00  0.00     0.251 C 
ATOM     20  H   UNL A   1      31.901  31.571  25.960  1.00  0.00     0.163 HD
ATOM     21  O   UNL A   1      32.984  32.914  27.639  1.00  0.00    -0.269 OA
BRANCH  19  22
ATOM     22  C   UNL A   1      34.673  31.284  27.802  1.00  0.00     0.039 A 
ATOM     23  C   UNL A   1      35.756  32.152  27.971  1.00  0.00     0.014 A 
ATOM     24  C   UNL A   1      34.806  29.934  28.141  1.00  0.00     0.014 A 
ATOM     25  C   UNL A   1      36.941  31.684  28.545  1.00  0.00     0.010 A 
ATOM     26  C   UNL A   1      35.960  29.488  28.783  1.00  0.00     0.010 A 
ATOM     27  C   UNL A   1      37.041  30.358  28.998  1.00  0.00    -0.014 A 
BRANCH  27  28
ATOM     28  C   UNL A   1      38.259  29.872  29.705  1.00  0.00     0.031 A 
ATOM     29  C   UNL A   1      38.603  30.394  31.076  1.00  0.00     0.074 A 
ATOM     30  C   UNL A   1      39.087  29.004  29.090  1.00  0.00     0.049 A 
ATOM     31  N   UNL A   1      39.651  30.144  31.818  1.00  0.00    -0.248 NA
ATOM     32  C   UNL A   1      37.654  31.342  31.678  1.00  0.00     0.031 C 
ATOM     33  C   UNL A   1      38.883  28.447  27.751  1.00  0.00     0.029 A 
ATOM     34  N   UNL A   1      40.270  28.440  29.503  1.00  0.00    -0.354 N 
ATOM     35  C   UNL A   1      39.496  30.912  32.969  1.00  0.00     0.074 A 
ATOM     36  C   UNL A   1      38.280  31.679  32.795  1.00  0.00     0.031 C 
ATOM     37  C   UNL A   1      39.885  27.600  27.468  1.00  0.00     0.029 A 
ATOM     38  C   UNL A   1      40.835  27.593  28.575  1.00  0.00     0.049 A 
ATOM     39  H   UNL A   1      40.676  28.623  30.381  1.00  0.00     0.167 HD
ATOM     40  C   UNL A   1      40.283  30.956  34.073  1.00  0.00     0.034 A 
ATOM     41  C   UNL A   1      41.993  26.903  28.605  1.00  0.00     0.034 A 
ATOM     42  C   UNL A   1      41.488  30.179  34.234  1.00  0.00     0.049 A 
ATOM     43  C   UNL A   1      42.874  27.006  29.826  1.00  0.00     0.074 A 
ATOM     44  C   UNL A   1      42.325  30.107  35.334  1.00  0.00     0.029 A 
ATOM     45  N   UNL A   1      42.038  29.349  33.265  1.00  0.00    -0.354 N 
ATOM     46  N   UNL A   1      42.684  27.696  30.927  1.00  0.00    -0.248 NA
ATOM     47  C   UNL A   1      44.120  26.230  29.811  1.00  0.00     0.031 C 
ATOM     48  C   UNL A   1      43.421  29.304  35.002  1.00  0.00     0.029 A 
ATOM     49  C   UNL A   1      43.224  28.795  33.729  1.00  0.00     0.049 A 
ATOM     50  H   UNL A   1      41.645  29.177  32.380  1.00  0.00     0.167 HD
ATOM     51  C   UNL A   1      43.770  27.406  31.748  1.00  0.00     0.074 A 
ATOM     52  C   UNL A   1      44.600  26.468  31.022  1.00  0.00     0.031 C 
ATOM     53  C   UNL A   1      44.052  27.867  32.994  1.00  0.00     0.034 A 
BRANCH  40  54
ATOM     54  C   UNL A   1      39.880  31.904  35.180  1.00  0.00     0.023 A 
ATOM     55  C   UNL A   1      39.103  31.482  36.274  1.00  0.00     0.031 A 
ATOM     56  C   UNL A   1      40.269  33.255  35.137  1.00  0.00     0.131 A 
ATOM     57  C   UNL A   1      38.679  32.412  37.235  1.00  0.00     0.055 A 
ATOM     58  C   UNL A   1      39.918  34.158  36.143  1.00  0.00     0.041 A 
ATOM     59  F   UNL A   1      40.994  33.725  34.109  1.00  0.00    -0.206 F 
ATOM     60  C   UNL A   1      39.104  33.741  37.192  1.00  0.00     0.022 A 
BRANCH  57  61
ATOM     61  S   UNL A   1      37.444  31.893  38.457  1.00  0.00     0.124 S 
ATOM     62  O   UNL A   1      36.366  32.847  38.211  1.00  0.00    -0.237 OA
ATOM     63  O   UNL A   1      37.176  30.513  38.068  1.00  0.00    -0.237 OA
ATOM     64  O   UNL A   1      38.133  32.059  39.734  1.00  0.00    -0.744 OA
ENDBRANCH  57  61
ENDBRANCH  40  54
BRANCH  41  65
ATOM     65  C   UNL A   1      42.406  26.061  27.443  1.00  0.00     0.023 A 
ATOM     66  C   UNL A   1      42.001  24.721  27.341  1.00  0.00     0.031 A 
ATOM     67  C   UNL A   1      43.259  26.567  26.444  1.00  0.00     0.131 A 
ATOM     68  C   UNL A   1      42.490  23.917  26.300  1.00  0.00     0.055 A 
ATOM     69  C   UNL A   1      43.693  25.780  25.376  1.00  0.00     0.041 A 
ATOM     70  F   UNL A   1      43.678  27.841  26.491  1.00  0.00    -0.206 F 
ATOM     71  C   UNL A   1      43.321  24.441  25.308  1.00  0.00     0.022 A 
BRANCH  68  72
ATOM     72  S   UNL A   1      42.111  22.143  26.320  1.00  0.00     0.124 S 
ATOM     73  O   UNL A   1      40.679  22.144  26.042  1.00  0.00    -0.237 OA
ATOM     74  O   UNL A   1      42.972  21.637  25.256  1.00  0.00    -0.237 OA
ATOM     75  O   UNL A   1      42.484  21.732  27.672  1.00  0.00    -0.744 OA
ENDBRANCH  68  72
ENDBRANCH  41  65
BRANCH  53  76
ATOM     76  C   UNL A   1      45.287  27.319  33.671  1.00  0.00     0.023 A 
ATOM     77  C   UNL A   1      45.261  26.124  34.412  1.00  0.00     0.031 A 
ATOM     78  C   UNL A   1      46.507  28.013  33.580  1.00  0.00     0.131 A 
ATOM     79  C   UNL A   1      46.416  25.692  35.082  1.00  0.00     0.055 A 
ATOM     80  C   UNL A   1      47.670  27.541  34.190  1.00  0.00     0.041 A 
ATOM     81  F   UNL A   1      46.591  29.161  32.891  1.00  0.00    -0.206 F 
ATOM     82  C   UNL A   1      47.625  26.381  34.959  1.00  0.00     0.022 A 
BRANCH  79  83
ATOM     83  S   UNL A   1      46.295  24.270  36.202  1.00  0.00     0.124 S 
ATOM     84  O   UNL A   1      46.743  24.842  37.468  1.00  0.00    -0.237 OA
ATOM     85  O   UNL A   1      44.878  23.929  36.122  1.00  0.00    -0.237 OA
ATOM     86  O   UNL A   1      47.202  23.288  35.611  1.00  0.00    -0.744 OA
ENDBRANCH  79  83
ENDBRANCH  53  76
ENDBRANCH  27  28
ENDBRANCH  19  22
ENDBRANCH  17  18
ENDBRANCH   1  17
TORSDOF 16
ENDMDL
MODEL 2
REMARK VINA RESULT:     -11.0      3.725      6.171
REMARK SMILES O=C(Cc1ccc(CBr)cc1)NCCCCNC(=O)c1ccc(-c2c3nc(c(-c4cc(S(=O)(=O)[O-])ccc4F)c4ccc([nH]4)c(-c4cc(S(=O)(=O)[O-])ccc4F)c4nc(c(-c5cc(S(=O)(=O)[O-])ccc5F)c5ccc2[nH]5)C=C4)C=C3)cc1
REMARK SMILES IDX 15 1 14 2 13 3 12 4 1 5 2 6 3 8 4 9 5 10 11 11 6 12 10 13
REMARK SMILES IDX 7 14 8 15 9 16 16 17 17 18 18 19 19 21 20 22 21 23 82 24
REMARK SMILES IDX 22 25 81 26 23 27 24 28 25 29 75 30 26 31 80 32 74 33 76 34
REMARK SMILES IDX 27 35 79 36 73 37 72 38 28 40 60 41 40 42 59 43 41 44 44 45
REMARK SMILES IDX 58 46 77 47 42 48 43 49 57 51 78 52 45 53 29 54 30 55 38 56
REMARK SMILES IDX 31 57 37 58 39 59 36 60 32 61 33 62 34 63 35 64 61 65 62 66
REMARK SMILES IDX 70 67 63 68 69 69 71 70 68 71 64 72 65 73 66 74 67 75 46 76
REMARK SMILES IDX 47 77 55 78 48 79 54 80 56 81 53 82 49 83 50 84 51 85 52 86
REMARK H PARENT 12 7 17 20 76 39 44 50
REMARK Flexibility Score: inf
ROOT
ATOM      1  C   UNL A   1      34.442  34.995  28.482  1.00  0.00     0.023 C 
ENDROOT
BRANCH   1   2
ATOM      2  C   UNL A   1      33.175  35.533  29.152  1.00  0.00     0.023 C 
BRANCH   2   3
ATOM      3  C   UNL A   1      33.312  35.849  30.638  1.00  0.00     0.116 C 
BRANCH   3   4
ATOM      4  N   UNL A   1      34.294  35.011  31.295  1.00  0.00    -0.356 N 
ATOM      5  O   UNL A   1      34.777  36.477  32.999  1.00  0.00    -0.275 OA
ATOM      6  C   UNL A   1      34.911  35.376  32.475  1.00  0.00     0.224 C 
ATOM      7  H   UNL A   1      34.530  34.148  30.885  1.00  0.00     0.163 HD
BRANCH   6   8
ATOM      8  C   UNL A   1      35.795  34.297  33.077  1.00  0.00     0.135 C 
BRANCH   8   9
ATOM      9  C   UNL A   1      37.264  34.356  32.703  1.00  0.00    -0.039 A 
ATOM     10  C   UNL A   1      38.211  34.470  33.731  1.00  0.00     0.004 A 
ATOM     11  C   UNL A   1      37.726  34.274  31.383  1.00  0.00     0.004 A 
ATOM     12  C   UNL A   1      39.578  34.530  33.445  1.00  0.00     0.005 A 
ATOM     13  C   UNL A   1      39.091  34.362  31.095  1.00  0.00     0.005 A 
ATOM     14  C   UNL A   1      40.033  34.495  32.120  1.00  0.00    -0.037 A 
BRANCH  14  15
ATOM     15  C   UNL A   1      41.498  34.559  31.797  1.00  0.00     0.116 C 
ATOM     16  Br  UNL A   1      41.954  33.256  30.431  1.00  0.00    -0.088 Br
ENDBRANCH  14  15
ENDBRANCH   8   9
ENDBRANCH   6   8
ENDBRANCH   3   4
ENDBRANCH   2   3
ENDBRANCH   1   2
BRANCH   1  17
ATOM     17  C   UNL A   1      34.769  33.532  28.767  1.00  0.00     0.116 C 
BRANCH  17  18
ATOM     18  N   UNL A   1      33.944  32.612  28.001  1.00  0.00    -0.352 N 
ATOM     19  C   UNL A   1      34.204  31.320  27.609  1.00  0.00     0.251 C 
ATOM     20  H   UNL A   1      33.069  32.966  27.723  1.00  0.00     0.163 HD
ATOM     21  O   UNL A   1      33.441  30.767  26.817  1.00  0.00    -0.269 OA
BRANCH  19  22
ATOM     22  C   UNL A   1      35.406  30.608  28.102  1.00  0.00     0.039 A 
ATOM     23  C   UNL A   1      36.612  30.762  27.413  1.00  0.00     0.014 A 
ATOM     24  C   UNL A   1      35.352  29.788  29.233  1.00  0.00     0.014 A 
ATOM     25  C   UNL A   1      37.774  30.157  27.899  1.00  0.00     0.010 A 
ATOM     26  C   UNL A   1      36.525  29.249  29.759  1.00  0.00     0.010 A 
ATOM     27  C   UNL A   1      37.753  29.430  29.101  1.00  0.00    -0.014 A 
BRANCH  27  28
ATOM     28  C   UNL A   1      39.001  28.865  29.686  1.00  0.00     0.031 A 
ATOM     29  C   UNL A   1      39.611  29.482  30.918  1.00  0.00     0.074 A 
ATOM     30  C   UNL A   1      39.617  27.833  29.077  1.00  0.00     0.049 A 
ATOM     31  N   UNL A   1      40.725  29.177  31.531  1.00  0.00    -0.248 NA
ATOM     32  C   UNL A   1      38.883  30.608  31.522  1.00  0.00     0.031 C 
ATOM     33  C   UNL A   1      39.145  27.166  27.861  1.00  0.00     0.029 A 
ATOM     34  N   UNL A   1      40.776  27.164  29.388  1.00  0.00    -0.354 N 
ATOM     35  C   UNL A   1      40.841  30.079  32.585  1.00  0.00     0.074 A 
ATOM     36  C   UNL A   1      39.710  30.978  32.488  1.00  0.00     0.031 C 
ATOM     37  C   UNL A   1      39.986  26.168  27.550  1.00  0.00     0.029 A 
ATOM     38  C   UNL A   1      41.089  26.155  28.506  1.00  0.00     0.049 A 
ATOM     39  H   UNL A   1      41.332  27.386  30.170  1.00  0.00     0.167 HD
ATOM     40  C   UNL A   1      41.789  30.137  33.554  1.00  0.00     0.034 A 
ATOM     41  C   UNL A   1      42.150  25.323  28.460  1.00  0.00     0.034 A 
ATOM     42  C   UNL A   1      42.906  29.229  33.642  1.00  0.00     0.049 A 
ATOM     43  C   UNL A   1      43.216  25.440  29.523  1.00  0.00     0.074 A 
ATOM     44  C   UNL A   1      43.890  29.166  34.614  1.00  0.00     0.029 A 
ATOM     45  N   UNL A   1      43.200  28.233  32.719  1.00  0.00    -0.354 N 
ATOM     46  N   UNL A   1      43.280  26.265  30.542  1.00  0.00    -0.248 NA
ATOM     47  C   UNL A   1      44.346  24.508  29.432  1.00  0.00     0.031 C 
ATOM     48  C   UNL A   1      44.820  28.192  34.236  1.00  0.00     0.029 A 
ATOM     49  C   UNL A   1      44.371  27.579  33.078  1.00  0.00     0.049 A 
ATOM     50  H   UNL A   1      42.657  28.020  31.926  1.00  0.00     0.167 HD
ATOM     51  C   UNL A   1      44.439  25.923  31.234  1.00  0.00     0.074 A 
ATOM     52  C   UNL A   1      45.033  24.809  30.523  1.00  0.00     0.031 C 
ATOM     53  C   UNL A   1      44.962  26.475  32.359  1.00  0.00     0.034 A 
BRANCH  40  54
ATOM     54  C   UNL A   1      41.675  31.245  34.577  1.00  0.00     0.023 A 
ATOM     55  C   UNL A   1      40.686  31.234  35.577  1.00  0.00     0.031 A 
ATOM     56  C   UNL A   1      42.563  32.336  34.546  1.00  0.00     0.131 A 
ATOM     57  C   UNL A   1      40.562  32.323  36.453  1.00  0.00     0.055 A 
ATOM     58  C   UNL A   1      42.489  33.375  35.477  1.00  0.00     0.041 A 
ATOM     59  F   UNL A   1      43.515  32.416  33.604  1.00  0.00    -0.206 F 
ATOM     60  C   UNL A   1      41.473  33.380  36.428  1.00  0.00     0.022 A 
BRANCH  57  61
ATOM     61  S   UNL A   1      39.102  32.408  37.526  1.00  0.00     0.124 S 
ATOM     62  O   UNL A   1      39.707  32.339  38.853  1.00  0.00    -0.237 OA
ATOM     63  O   UNL A   1      38.514  33.691  37.157  1.00  0.00    -0.237 OA
ATOM     64  O   UNL A   1      38.325  31.232  37.142  1.00  0.00    -0.744 OA
ENDBRANCH  57  61
ENDBRANCH  40  54
BRANCH  41  65
ATOM     65  C   UNL A   1      42.278  24.313  27.368  1.00  0.00     0.023 A 
ATOM     66  C   UNL A   1      41.499  23.144  27.370  1.00  0.00     0.031 A 
ATOM     67  C   UNL A   1      43.220  24.472  26.335  1.00  0.00     0.131 A 
ATOM     68  C   UNL A   1      41.714  22.157  26.396  1.00  0.00     0.055 A 
ATOM     69  C   UNL A   1      43.386  23.516  25.332  1.00  0.00     0.041 A 
ATOM     70  F   UNL A   1      43.992  25.570  26.284  1.00  0.00    -0.206 F 
ATOM     71  C   UNL A   1      42.641  22.341  25.369  1.00  0.00     0.022 A 
BRANCH  68  72
ATOM     72  S   UNL A   1      40.837  20.577  26.553  1.00  0.00     0.124 S 
ATOM     73  O   UNL A   1      40.784  20.411  28.001  1.00  0.00    -0.237 OA
ATOM     74  O   UNL A   1      39.568  20.868  25.893  1.00  0.00    -0.237 OA
ATOM     75  O   UNL A   1      41.704  19.636  25.848  1.00  0.00    -0.744 OA
ENDBRANCH  68  72
ENDBRANCH  41  65
BRANCH  53  76
ATOM     76  C   UNL A   1      46.215  25.844  32.920  1.00  0.00     0.023 A 
ATOM     77  C   UNL A   1      46.167  24.766  33.822  1.00  0.00     0.031 A 
ATOM     78  C   UNL A   1      47.479  26.339  32.552  1.00  0.00     0.131 A 
ATOM     79  C   UNL A   1      47.354  24.259  34.372  1.00  0.00     0.055 A 
ATOM     80  C   UNL A   1      48.661  25.784  33.047  1.00  0.00     0.041 A 
ATOM     81  F   UNL A   1      47.589  27.369  31.698  1.00  0.00    -0.206 F 
ATOM     82  C   UNL A   1      48.602  24.748  33.974  1.00  0.00     0.022 A 
BRANCH  79  83
ATOM     83  S   UNL A   1      47.246  23.020  35.692  1.00  0.00     0.124 S 
ATOM     84  O   UNL A   1      46.115  23.508  36.473  1.00  0.00    -0.237 OA
ATOM     85  O   UNL A   1      47.021  21.786  34.945  1.00  0.00    -0.237 OA
ATOM     86  O   UNL A   1      48.545  23.112  36.357  1.00  0.00    -0.744 OA
ENDBRANCH  79  83
ENDBRANCH  53  76
ENDBRANCH  27  28
ENDBRANCH  19  22
ENDBRANCH  17  18
ENDBRANCH   1  17
TORSDOF 16
ENDMDL
MODEL 3
REMARK VINA RESULT:     -10.9      6.033     10.798
REMARK SMILES O=C(Cc1ccc(CBr)cc1)NCCCCNC(=O)c1ccc(-c2c3nc(c(-c4cc(S(=O)(=O)[O-])ccc4F)c4ccc([nH]4)c(-c4cc(S(=O)(=O)[O-])ccc4F)c4nc(c(-c5cc(S(=O)(=O)[O-])ccc5F)c5ccc2[nH]5)C=C4)C=C3)cc1
REMARK SMILES IDX 15 1 14 2 13 3 12 4 1 5 2 6 3 8 4 9 5 10 11 11 6 12 10 13
REMARK SMILES IDX 7 14 8 15 9 16 16 17 17 18 18 19 19 21 20 22 21 23 82 24
REMARK SMILES IDX 22 25 81 26 23 27 24 28 25 29 75 30 26 31 80 32 74 33 76 34
REMARK SMILES IDX 27 35 79 36 73 37 72 38 28 40 60 41 40 42 59 43 41 44 44 45
REMARK SMILES IDX 58 46 77 47 42 48 43 49 57 51 78 52 45 53 29 54 30 55 38 56
REMARK SMILES IDX 31 57 37 58 39 59 36 60 32 61 33 62 34 63 35 64 61 65 62 66
REMARK SMILES IDX 70 67 63 68 69 69 71 70 68 71 64 72 65 73 66 74 67 75 46 76
REMARK SMILES IDX 47 77 55 78 48 79 54 80 56 81 53 82 49 83 50 84 51 85 52 86
REMARK H PARENT 12 7 17 20 76 39 44 50
REMARK Flexibility Score: inf
ROOT
ATOM      1  C   UNL A   1      36.400  21.755  24.180  1.00  0.00     0.023 C 
ENDROOT
BRANCH   1   2
ATOM      2  C   UNL A   1      36.445  23.135  23.517  1.00  0.00     0.023 C 
BRANCH   2   3
ATOM      3  C   UNL A   1      35.227  24.018  23.778  1.00  0.00     0.116 C 
BRANCH   3   4
ATOM      4  N   UNL A   1      34.004  23.252  23.906  1.00  0.00    -0.356 N 
ATOM      5  O   UNL A   1      33.478  23.242  21.668  1.00  0.00    -0.275 OA
ATOM      6  C   UNL A   1      33.250  22.869  22.815  1.00  0.00     0.224 C 
ATOM      7  H   UNL A   1      33.699  22.995  24.805  1.00  0.00     0.163 HD
BRANCH   6   8
ATOM      8  C   UNL A   1      32.088  21.950  23.150  1.00  0.00     0.135 C 
BRANCH   8   9
ATOM      9  C   UNL A   1      32.428  20.481  23.315  1.00  0.00    -0.039 A 
ATOM     10  C   UNL A   1      33.020  20.062  24.516  1.00  0.00     0.004 A 
ATOM     11  C   UNL A   1      32.156  19.514  22.339  1.00  0.00     0.004 A 
ATOM     12  C   UNL A   1      33.355  18.721  24.721  1.00  0.00     0.005 A 
ATOM     13  C   UNL A   1      32.516  18.177  22.532  1.00  0.00     0.005 A 
ATOM     14  C   UNL A   1      33.124  17.765  23.723  1.00  0.00    -0.037 A 
BRANCH  14  15
ATOM     15  C   UNL A   1      33.479  16.321  23.929  1.00  0.00     0.116 C 
ATOM     16  Br  UNL A   1      32.665  15.643  25.557  1.00  0.00    -0.088 Br
ENDBRANCH  14  15
ENDBRANCH   8   9
ENDBRANCH   6   8
ENDBRANCH   3   4
ENDBRANCH   2   3
ENDBRANCH   1   2
BRANCH   1  17
ATOM     17  C   UNL A   1      36.877  21.705  25.629  1.00  0.00     0.116 C 
BRANCH  17  18
ATOM     18  N   UNL A   1      37.947  20.742  25.836  1.00  0.00    -0.352 N 
ATOM     19  C   UNL A   1      39.255  20.951  26.202  1.00  0.00     0.251 C 
ATOM     20  H   UNL A   1      37.696  19.801  25.694  1.00  0.00     0.163 HD
ATOM     21  O   UNL A   1      40.049  20.012  26.160  1.00  0.00    -0.269 OA
BRANCH  19  22
ATOM     22  C   UNL A   1      39.720  22.298  26.610  1.00  0.00     0.039 A 
ATOM     23  C   UNL A   1      40.758  22.400  27.541  1.00  0.00     0.014 A 
ATOM     24  C   UNL A   1      39.138  23.457  26.089  1.00  0.00     0.014 A 
ATOM     25  C   UNL A   1      41.260  23.658  27.888  1.00  0.00     0.010 A 
ATOM     26  C   UNL A   1      39.690  24.704  26.378  1.00  0.00     0.010 A 
ATOM     27  C   UNL A   1      40.761  24.821  27.278  1.00  0.00    -0.014 A 
BRANCH  27  28
ATOM     28  C   UNL A   1      41.354  26.158  27.561  1.00  0.00     0.031 A 
ATOM     29  C   UNL A   1      42.728  26.504  27.052  1.00  0.00     0.074 A 
ATOM     30  C   UNL A   1      40.678  27.040  28.324  1.00  0.00     0.049 A 
ATOM     31  N   UNL A   1      43.437  27.585  27.252  1.00  0.00    -0.248 NA
ATOM     32  C   UNL A   1      43.403  25.488  26.231  1.00  0.00     0.031 C 
ATOM     33  C   UNL A   1      39.352  26.814  28.903  1.00  0.00     0.029 A 
ATOM     34  N   UNL A   1      41.012  28.302  28.752  1.00  0.00    -0.354 N 
ATOM     35  C   UNL A   1      44.647  27.376  26.594  1.00  0.00     0.074 A 
ATOM     36  C   UNL A   1      44.592  26.040  26.040  1.00  0.00     0.031 C 
ATOM     37  C   UNL A   1      38.974  27.909  29.580  1.00  0.00     0.029 A 
ATOM     38  C   UNL A   1      40.049  28.896  29.537  1.00  0.00     0.049 A 
ATOM     39  H   UNL A   1      41.862  28.742  28.519  1.00  0.00     0.167 HD
ATOM     40  C   UNL A   1      45.693  28.227  26.450  1.00  0.00     0.034 A 
ATOM     41  C   UNL A   1      40.037  30.090  30.164  1.00  0.00     0.034 A 
ATOM     42  C   UNL A   1      45.729  29.560  27.002  1.00  0.00     0.049 A 
ATOM     43  C   UNL A   1      41.234  30.998  30.025  1.00  0.00     0.074 A 
ATOM     44  C   UNL A   1      46.715  30.521  26.866  1.00  0.00     0.029 A 
ATOM     45  N   UNL A   1      44.743  30.117  27.808  1.00  0.00    -0.354 N 
ATOM     46  N   UNL A   1      42.346  30.805  29.356  1.00  0.00    -0.248 NA
ATOM     47  C   UNL A   1      41.169  32.290  30.722  1.00  0.00     0.031 C 
ATOM     48  C   UNL A   1      46.367  31.624  27.653  1.00  0.00     0.029 A 
ATOM     49  C   UNL A   1      45.119  31.393  28.207  1.00  0.00     0.049 A 
ATOM     50  H   UNL A   1      43.901  29.674  28.057  1.00  0.00     0.167 HD
ATOM     51  C   UNL A   1      43.095  31.967  29.521  1.00  0.00     0.074 A 
ATOM     52  C   UNL A   1      42.301  32.859  30.340  1.00  0.00     0.031 C 
ATOM     53  C   UNL A   1      44.325  32.273  29.033  1.00  0.00     0.034 A 
BRANCH  40  54
ATOM     54  C   UNL A   1      46.901  27.726  25.691  1.00  0.00     0.023 A 
ATOM     55  C   UNL A   1      47.126  28.066  24.345  1.00  0.00     0.031 A 
ATOM     56  C   UNL A   1      47.838  26.885  26.319  1.00  0.00     0.131 A 
ATOM     57  C   UNL A   1      48.214  27.510  23.653  1.00  0.00     0.055 A 
ATOM     58  C   UNL A   1      48.966  26.406  25.650  1.00  0.00     0.041 A 
ATOM     59  F   UNL A   1      47.668  26.507  27.596  1.00  0.00    -0.206 F 
ATOM     60  C   UNL A   1      49.151  26.705  24.304  1.00  0.00     0.022 A 
BRANCH  57  61
ATOM     61  S   UNL A   1      48.302  27.735  21.856  1.00  0.00     0.124 S 
ATOM     62  O   UNL A   1      48.535  26.367  21.399  1.00  0.00    -0.237 OA
ATOM     63  O   UNL A   1      46.994  28.299  21.543  1.00  0.00    -0.237 OA
ATOM     64  O   UNL A   1      49.432  28.643  21.678  1.00  0.00    -0.744 OA
ENDBRANCH  57  61
ENDBRANCH  40  54
BRANCH  41  65
ATOM     65  C   UNL A   1      38.866  30.501  30.993  1.00  0.00     0.023 A 
ATOM     66  C   UNL A   1      37.893  31.377  30.486  1.00  0.00     0.031 A 
ATOM     67  C   UNL A   1      38.730  30.070  32.325  1.00  0.00     0.131 A 
ATOM     68  C   UNL A   1      36.861  31.838  31.319  1.00  0.00     0.055 A 
ATOM     69  C   UNL A   1      37.666  30.482  33.131  1.00  0.00     0.041 A 
ATOM     70  F   UNL A   1      39.631  29.232  32.863  1.00  0.00    -0.206 F 
ATOM     71  C   UNL A   1      36.733  31.385  32.632  1.00  0.00     0.022 A 
BRANCH  68  72
ATOM     72  S   UNL A   1      35.748  33.125  30.691  1.00  0.00     0.124 S 
ATOM     73  O   UNL A   1      36.347  33.428  29.396  1.00  0.00    -0.237 OA
ATOM     74  O   UNL A   1      34.467  32.428  30.659  1.00  0.00    -0.237 OA
ATOM     75  O   UNL A   1      35.855  34.185  31.691  1.00  0.00    -0.744 OA
ENDBRANCH  68  72
ENDBRANCH  41  65
BRANCH  53  76
ATOM     76  C   UNL A   1      44.863  33.653  29.330  1.00  0.00     0.023 A 
ATOM     77  C   UNL A   1      45.660  33.915  30.459  1.00  0.00     0.031 A 
ATOM     78  C   UNL A   1      44.564  34.726  28.471  1.00  0.00     0.131 A 
ATOM     79  C   UNL A   1      46.078  35.227  30.732  1.00  0.00     0.055 A 
ATOM     80  C   UNL A   1      45.042  36.016  28.709  1.00  0.00     0.041 A 
ATOM     81  F   UNL A   1      43.805  34.538  27.381  1.00  0.00    -0.206 F 
ATOM     82  C   UNL A   1      45.792  36.275  29.853  1.00  0.00     0.022 A 
BRANCH  79  83
ATOM     83  S   UNL A   1      46.916  35.566  32.304  1.00  0.00     0.124 S 
ATOM     84  O   UNL A   1      48.226  36.025  31.857  1.00  0.00    -0.237 OA
ATOM     85  O   UNL A   1      46.055  36.581  32.904  1.00  0.00    -0.237 OA
ATOM     86  O   UNL A   1      46.911  34.271  32.983  1.00  0.00    -0.744 OA
ENDBRANCH  79  83
ENDBRANCH  53  76
ENDBRANCH  27  28
ENDBRANCH  19  22
ENDBRANCH  17  18
ENDBRANCH   1  17
TORSDOF 16
ENDMDL
