MODEL 1
REMARK VINA RESULT:     -11.0      0.000      0.000
REMARK SMILES Cc1cscc1CNC(=O)CC(C)(C)C(=O)NCCCCNC(=O)c1ccc(-c2c3nc(c(-c4cc(S(=O)(=O)[O-])ccc4F)c4ccc([nH]4)c(-c4cc(S(=O)(=O)[O-])ccc4F)c4nc(c(-c5cc(S(=O)(=O)[O-])ccc5F)c5ccc2[nH]5)C=C4)C=C3)cc1
REMARK SMILES IDX 19 1 18 2 17 3 15 4 16 5 12 7 13 8 14 9 11 10 9 11 8 12
REMARK SMILES IDX 10 14 7 15 6 16 1 17 2 18 3 19 4 20 5 21 20 22 21 23 22 24
REMARK SMILES IDX 23 25 24 27 25 28 26 29 87 30 27 31 86 32 28 33 29 34 30 35
REMARK SMILES IDX 80 36 31 37 85 38 79 39 81 40 32 41 84 42 78 43 77 44 33 46
REMARK SMILES IDX 65 47 45 48 64 49 46 50 49 51 63 52 82 53 47 54 48 55 62 57
REMARK SMILES IDX 83 58 50 59 34 60 35 61 43 62 36 63 42 64 44 65 41 66 37 67
REMARK SMILES IDX 38 68 39 69 40 70 66 71 67 72 75 73 68 74 74 75 76 76 73 77
REMARK SMILES IDX 69 78 70 79 71 80 72 81 51 82 52 83 60 84 53 85 59 86 61 87
REMARK SMILES IDX 58 88 54 89 55 90 56 91 57 92
REMARK H PARENT 17 6 8 13 22 26 81 45 49 56
REMARK Flexibility Score: inf
ROOT
ATOM      1  C   UNL A   1      31.999  29.733  27.179  1.00  0.00     0.023 C 
ENDROOT
BRANCH   1   2
ATOM      2  C   UNL A   1      32.393  28.756  26.075  1.00  0.00     0.116 C 
BRANCH   2   3
ATOM      3  N   UNL A   1      31.278  27.953  25.620  1.00  0.00    -0.356 N 
ATOM      4  C   UNL A   1      31.074  27.187  24.518  1.00  0.00     0.226 C 
ATOM      5  O   UNL A   1      29.970  26.641  24.466  1.00  0.00    -0.274 OA
ATOM      6  H   UNL A   1      30.511  27.963  26.238  1.00  0.00     0.163 HD
BRANCH   4   7
ATOM      7  C   UNL A   1      32.092  27.072  23.361  1.00  0.00     0.052 C 
ATOM      8  C   UNL A   1      33.485  26.603  23.816  1.00  0.00     0.022 C 
ATOM      9  C   UNL A   1      32.237  28.479  22.734  1.00  0.00     0.022 C 
BRANCH   7  10
ATOM     10  C   UNL A   1      31.573  26.114  22.233  1.00  0.00     0.116 C 
BRANCH  10  11
ATOM     11  C   UNL A   1      32.553  25.257  21.438  1.00  0.00     0.221 C 
ATOM     12  N   UNL A   1      32.761  23.947  21.718  1.00  0.00    -0.352 N 
ATOM     13  H   UNL A   1      33.249  23.454  21.019  1.00  0.00     0.163 HD
ATOM     14  O   UNL A   1      33.264  25.762  20.565  1.00  0.00    -0.275 OA
BRANCH  12  15
ATOM     15  C   UNL A   1      32.392  23.152  22.861  1.00  0.00     0.152 C 
BRANCH  15  16
ATOM     16  C   UNL A   1      33.604  22.579  23.542  1.00  0.00    -0.015 A 
ATOM     17  C   UNL A   1      32.372  20.526  24.588  1.00  0.00     0.045 C 
ATOM     18  C   UNL A   1      33.587  21.356  24.324  1.00  0.00    -0.035 A 
ATOM     19  C   UNL A   1      34.847  21.040  24.797  1.00  0.00     0.068 A 
ATOM     20  S   UNL A   1      36.034  22.173  24.336  1.00  0.00    -0.152 S 
ATOM     21  C   UNL A   1      34.883  23.113  23.503  1.00  0.00     0.070 A 
ENDBRANCH  15  16
ENDBRANCH  12  15
ENDBRANCH  10  11
ENDBRANCH   7  10
ENDBRANCH   4   7
ENDBRANCH   2   3
ENDBRANCH   1   2
BRANCH   1  22
ATOM     22  C   UNL A   1      31.928  31.201  26.763  1.00  0.00     0.023 C 
BRANCH  22  23
ATOM     23  C   UNL A   1      33.107  32.067  27.195  1.00  0.00     0.116 C 
BRANCH  23  24
ATOM     24  N   UNL A   1      32.730  33.440  27.498  1.00  0.00    -0.352 N 
ATOM     25  C   UNL A   1      33.233  34.296  28.450  1.00  0.00     0.251 C 
ATOM     26  H   UNL A   1      32.009  33.810  26.940  1.00  0.00     0.163 HD
ATOM     27  O   UNL A   1      32.696  35.384  28.632  1.00  0.00    -0.269 OA
BRANCH  25  28
ATOM     28  C   UNL A   1      34.388  33.881  29.274  1.00  0.00     0.039 A 
ATOM     29  C   UNL A   1      34.164  33.078  30.395  1.00  0.00     0.014 A 
ATOM     30  C   UNL A   1      35.688  34.255  28.923  1.00  0.00     0.014 A 
ATOM     31  C   UNL A   1      35.252  32.578  31.114  1.00  0.00     0.010 A 
ATOM     32  C   UNL A   1      36.771  33.694  29.595  1.00  0.00     0.010 A 
ATOM     33  C   UNL A   1      36.565  32.844  30.693  1.00  0.00    -0.014 A 
BRANCH  33  34
ATOM     34  C   UNL A   1      37.738  32.246  31.385  1.00  0.00     0.031 A 
ATOM     35  C   UNL A   1      38.475  31.098  30.751  1.00  0.00     0.074 A 
ATOM     36  C   UNL A   1      38.093  32.689  32.607  1.00  0.00     0.049 A 
ATOM     37  N   UNL A   1      39.448  30.370  31.235  1.00  0.00    -0.248 NA
ATOM     38  C   UNL A   1      38.036  30.698  29.406  1.00  0.00     0.031 C 
ATOM     39  C   UNL A   1      37.432  33.772  33.341  1.00  0.00     0.029 A 
ATOM     40  N   UNL A   1      39.090  32.278  33.456  1.00  0.00    -0.354 N 
ATOM     41  C   UNL A   1      39.734  29.423  30.257  1.00  0.00     0.074 A 
ATOM     42  C   UNL A   1      38.783  29.627  29.186  1.00  0.00     0.031 C 
ATOM     43  C   UNL A   1      38.052  33.949  34.519  1.00  0.00     0.029 A 
ATOM     44  C   UNL A   1      39.124  32.967  34.648  1.00  0.00     0.049 A 
ATOM     45  H   UNL A   1      39.723  31.557  33.234  1.00  0.00     0.167 HD
ATOM     46  C   UNL A   1      40.717  28.488  30.242  1.00  0.00     0.034 A 
ATOM     47  C   UNL A   1      39.919  32.814  35.726  1.00  0.00     0.034 A 
ATOM     48  C   UNL A   1      41.663  28.300  31.315  1.00  0.00     0.049 A 
ATOM     49  C   UNL A   1      40.984  31.745  35.698  1.00  0.00     0.074 A 
ATOM     50  C   UNL A   1      42.710  27.399  31.394  1.00  0.00     0.029 A 
ATOM     51  N   UNL A   1      41.675  29.026  32.498  1.00  0.00    -0.354 N 
ATOM     52  N   UNL A   1      41.262  30.880  34.751  1.00  0.00    -0.248 NA
ATOM     53  C   UNL A   1      41.850  31.642  36.880  1.00  0.00     0.031 C 
ATOM     54  C   UNL A   1      43.322  27.545  32.645  1.00  0.00     0.029 A 
ATOM     55  C   UNL A   1      42.701  28.583  33.319  1.00  0.00     0.049 A 
ATOM     56  H   UNL A   1      41.046  29.751  32.722  1.00  0.00     0.167 HD
ATOM     57  C   UNL A   1      42.358  30.155  35.209  1.00  0.00     0.074 A 
ATOM     58  C   UNL A   1      42.699  30.696  36.509  1.00  0.00     0.031 C 
ATOM     59  C   UNL A   1      43.026  29.136  34.612  1.00  0.00     0.034 A 
BRANCH  46  60
ATOM     60  C   UNL A   1      40.801  27.597  29.025  1.00  0.00     0.023 A 
ATOM     61  C   UNL A   1      41.755  27.824  28.017  1.00  0.00     0.031 A 
ATOM     62  C   UNL A   1      39.903  26.531  28.853  1.00  0.00     0.131 A 
ATOM     63  C   UNL A   1      41.739  27.049  26.849  1.00  0.00     0.055 A 
ATOM     64  C   UNL A   1      39.945  25.708  27.724  1.00  0.00     0.041 A 
ATOM     65  F   UNL A   1      38.958  26.277  29.772  1.00  0.00    -0.206 F 
ATOM     66  C   UNL A   1      40.856  25.976  26.706  1.00  0.00     0.022 A 
BRANCH  63  67
ATOM     67  S   UNL A   1      42.792  27.554  25.461  1.00  0.00     0.124 S 
ATOM     68  O   UNL A   1      42.738  26.370  24.606  1.00  0.00    -0.237 OA
ATOM     69  O   UNL A   1      42.106  28.738  24.958  1.00  0.00    -0.237 OA
ATOM     70  O   UNL A   1      44.088  27.802  26.088  1.00  0.00    -0.744 OA
ENDBRANCH  63  67
ENDBRANCH  46  60
BRANCH  47  71
ATOM     71  C   UNL A   1      39.742  33.674  36.933  1.00  0.00     0.023 A 
ATOM     72  C   UNL A   1      40.596  34.761  37.175  1.00  0.00     0.031 A 
ATOM     73  C   UNL A   1      38.760  33.382  37.895  1.00  0.00     0.131 A 
ATOM     74  C   UNL A   1      40.495  35.478  38.378  1.00  0.00     0.055 A 
ATOM     75  C   UNL A   1      38.625  34.135  39.064  1.00  0.00     0.041 A 
ATOM     76  F   UNL A   1      37.912  32.357  37.712  1.00  0.00    -0.206 F 
ATOM     77  C   UNL A   1      39.507  35.179  39.318  1.00  0.00     0.022 A 
BRANCH  74  78
ATOM     78  S   UNL A   1      41.748  36.738  38.744  1.00  0.00     0.124 S 
ATOM     79  O   UNL A   1      42.179  37.126  37.405  1.00  0.00    -0.237 OA
ATOM     80  O   UNL A   1      40.972  37.730  39.481  1.00  0.00    -0.237 OA
ATOM     81  O   UNL A   1      42.740  36.011  39.533  1.00  0.00    -0.744 OA
ENDBRANCH  74  78
ENDBRANCH  47  71
BRANCH  59  82
ATOM     82  C   UNL A   1      44.227  28.586  35.341  1.00  0.00     0.023 A 
ATOM     83  C   UNL A   1      44.100  27.642  36.373  1.00  0.00     0.031 A 
ATOM     84  C   UNL A   1      45.519  29.028  35.002  1.00  0.00     0.131 A 
ATOM     85  C   UNL A   1      45.239  27.212  37.071  1.00  0.00     0.055 A 
ATOM     86  C   UNL A   1      46.653  28.554  35.661  1.00  0.00     0.041 A 
ATOM     87  F   UNL A   1      45.697  29.931  34.023  1.00  0.00    -0.206 F 
ATOM     88  C   UNL A   1      46.516  27.651  36.711  1.00  0.00     0.022 A 
BRANCH  85  89
ATOM     89  S   UNL A   1      45.023  26.135  38.514  1.00  0.00     0.124 S 
ATOM     90  O   UNL A   1      44.039  25.172  38.030  1.00  0.00    -0.237 OA
ATOM     91  O   UNL A   1      46.372  25.617  38.722  1.00  0.00    -0.237 OA
ATOM     92  O   UNL A   1      44.543  27.044  39.553  1.00  0.00    -0.744 OA
ENDBRANCH  85  89
ENDBRANCH  59  82
ENDBRANCH  33  34
ENDBRANCH  25  28
ENDBRANCH  23  24
ENDBRANCH  22  23
ENDBRANCH   1  22
TORSDOF 18
ENDMDL
MODEL 2
REMARK VINA RESULT:     -10.9      1.746      2.194
REMARK SMILES Cc1cscc1CNC(=O)CC(C)(C)C(=O)NCCCCNC(=O)c1ccc(-c2c3nc(c(-c4cc(S(=O)(=O)[O-])ccc4F)c4ccc([nH]4)c(-c4cc(S(=O)(=O)[O-])ccc4F)c4nc(c(-c5cc(S(=O)(=O)[O-])ccc5F)c5ccc2[nH]5)C=C4)C=C3)cc1
REMARK SMILES IDX 19 1 18 2 17 3 15 4 16 5 12 7 13 8 14 9 11 10 9 11 8 12
REMARK SMILES IDX 10 14 7 15 6 16 1 17 2 18 3 19 4 20 5 21 20 22 21 23 22 24
REMARK SMILES IDX 23 25 24 27 25 28 26 29 87 30 27 31 86 32 28 33 29 34 30 35
REMARK SMILES IDX 80 36 31 37 85 38 79 39 81 40 32 41 84 42 78 43 77 44 33 46
REMARK SMILES IDX 65 47 45 48 64 49 46 50 49 51 63 52 82 53 47 54 48 55 62 57
REMARK SMILES IDX 83 58 50 59 34 60 35 61 43 62 36 63 42 64 44 65 41 66 37 67
REMARK SMILES IDX 38 68 39 69 40 70 66 71 67 72 75 73 68 74 74 75 76 76 73 77
REMARK SMILES IDX 69 78 70 79 71 80 72 81 51 82 52 83 60 84 53 85 59 86 61 87
REMARK SMILES IDX 58 88 54 89 55 90 56 91 57 92
REMARK H PARENT 17 6 8 13 22 26 81 45 49 56
REMARK Flexibility Score: inf
ROOT
ATOM      1  C   UNL A   1      30.931  31.496  25.509  1.00  0.00     0.023 C 
ENDROOT
BRANCH   1   2
ATOM      2  C   UNL A   1      31.188  30.053  25.086  1.00  0.00     0.116 C 
BRANCH   2   3
ATOM      3  N   UNL A   1      30.538  29.716  23.837  1.00  0.00    -0.356 N 
ATOM      4  C   UNL A   1      30.688  28.691  22.959  1.00  0.00     0.226 C 
ATOM      5  O   UNL A   1      29.945  28.740  21.977  1.00  0.00    -0.274 OA
ATOM      6  H   UNL A   1      29.845  30.363  23.569  1.00  0.00     0.163 HD
BRANCH   4   7
ATOM      7  C   UNL A   1      31.765  27.592  23.109  1.00  0.00     0.052 C 
ATOM      8  C   UNL A   1      33.204  28.126  22.997  1.00  0.00     0.022 C 
ATOM      9  C   UNL A   1      31.539  26.569  21.971  1.00  0.00     0.022 C 
BRANCH   7  10
ATOM     10  C   UNL A   1      31.610  26.819  24.464  1.00  0.00     0.116 C 
BRANCH  10  11
ATOM     11  C   UNL A   1      30.477  25.816  24.656  1.00  0.00     0.221 C 
ATOM     12  N   UNL A   1      30.674  24.477  24.577  1.00  0.00    -0.352 N 
ATOM     13  H   UNL A   1      29.927  23.936  24.919  1.00  0.00     0.163 HD
ATOM     14  O   UNL A   1      29.314  26.203  24.797  1.00  0.00    -0.275 OA
BRANCH  12  15
ATOM     15  C   UNL A   1      31.788  23.711  24.080  1.00  0.00     0.152 C 
BRANCH  15  16
ATOM     16  C   UNL A   1      32.625  23.171  25.205  1.00  0.00    -0.015 A 
ATOM     17  C   UNL A   1      34.269  25.200  25.306  1.00  0.00     0.045 C 
ATOM     18  C   UNL A   1      33.760  23.875  25.776  1.00  0.00    -0.035 A 
ATOM     19  C   UNL A   1      34.319  23.169  26.825  1.00  0.00     0.068 A 
ATOM     20  S   UNL A   1      33.526  21.692  27.130  1.00  0.00    -0.152 S 
ATOM     21  C   UNL A   1      32.426  21.964  25.858  1.00  0.00     0.070 A 
ENDBRANCH  15  16
ENDBRANCH  12  15
ENDBRANCH  10  11
ENDBRANCH   7  10
ENDBRANCH   4   7
ENDBRANCH   2   3
ENDBRANCH   1   2
BRANCH   1  22
ATOM     22  C   UNL A   1      31.394  31.859  26.919  1.00  0.00     0.023 C 
BRANCH  22  23
ATOM     23  C   UNL A   1      32.694  32.653  27.003  1.00  0.00     0.116 C 
BRANCH  23  24
ATOM     24  N   UNL A   1      32.534  33.949  27.647  1.00  0.00    -0.352 N 
ATOM     25  C   UNL A   1      33.251  34.508  28.679  1.00  0.00     0.251 C 
ATOM     26  H   UNL A   1      31.806  34.508  27.290  1.00  0.00     0.163 HD
ATOM     27  O   UNL A   1      32.884  35.572  29.167  1.00  0.00    -0.269 OA
BRANCH  25  28
ATOM     28  C   UNL A   1      34.432  33.802  29.219  1.00  0.00     0.039 A 
ATOM     29  C   UNL A   1      35.706  34.290  28.920  1.00  0.00     0.014 A 
ATOM     30  C   UNL A   1      34.282  32.684  30.044  1.00  0.00     0.014 A 
ATOM     31  C   UNL A   1      36.826  33.709  29.519  1.00  0.00     0.010 A 
ATOM     32  C   UNL A   1      35.392  32.156  30.698  1.00  0.00     0.010 A 
ATOM     33  C   UNL A   1      36.675  32.667  30.448  1.00  0.00    -0.014 A 
BRANCH  33  34
ATOM     34  C   UNL A   1      37.844  32.096  31.170  1.00  0.00     0.031 A 
ATOM     35  C   UNL A   1      38.620  30.963  30.557  1.00  0.00     0.074 A 
ATOM     36  C   UNL A   1      38.161  32.550  32.399  1.00  0.00     0.049 A 
ATOM     37  N   UNL A   1      39.598  30.257  31.065  1.00  0.00    -0.248 NA
ATOM     38  C   UNL A   1      38.222  30.550  29.203  1.00  0.00     0.031 C 
ATOM     39  C   UNL A   1      37.459  33.620  33.113  1.00  0.00     0.029 A 
ATOM     40  N   UNL A   1      39.146  32.163  33.272  1.00  0.00    -0.354 N 
ATOM     41  C   UNL A   1      39.927  29.314  30.097  1.00  0.00     0.074 A 
ATOM     42  C   UNL A   1      38.997  29.495  29.004  1.00  0.00     0.031 C 
ATOM     43  C   UNL A   1      38.047  33.813  34.305  1.00  0.00     0.029 A 
ATOM     44  C   UNL A   1      39.137  32.855  34.462  1.00  0.00     0.049 A 
ATOM     45  H   UNL A   1      39.799  31.455  33.066  1.00  0.00     0.167 HD
ATOM     46  C   UNL A   1      40.930  28.401  30.108  1.00  0.00     0.034 A 
ATOM     47  C   UNL A   1      39.909  32.722  35.559  1.00  0.00     0.034 A 
ATOM     48  C   UNL A   1      41.854  28.236  31.204  1.00  0.00     0.049 A 
ATOM     49  C   UNL A   1      40.997  31.677  35.559  1.00  0.00     0.074 A 
ATOM     50  C   UNL A   1      42.918  27.358  31.310  1.00  0.00     0.029 A 
ATOM     51  N   UNL A   1      41.823  28.965  32.385  1.00  0.00    -0.354 N 
ATOM     52  N   UNL A   1      41.316  30.815  34.621  1.00  0.00    -0.248 NA
ATOM     53  C   UNL A   1      41.837  31.595  36.761  1.00  0.00     0.031 C 
ATOM     54  C   UNL A   1      43.497  27.520  32.575  1.00  0.00     0.029 A 
ATOM     55  C   UNL A   1      42.838  28.546  33.231  1.00  0.00     0.049 A 
ATOM     56  H   UNL A   1      41.173  29.677  32.591  1.00  0.00     0.167 HD
ATOM     57  C   UNL A   1      42.417  30.115  35.108  1.00  0.00     0.074 A 
ATOM     58  C   UNL A   1      42.715  30.667  36.414  1.00  0.00     0.031 C 
ATOM     59  C   UNL A   1      43.120  29.109  34.530  1.00  0.00     0.034 A 
BRANCH  46  60
ATOM     60  C   UNL A   1      41.062  27.509  28.896  1.00  0.00     0.023 A 
ATOM     61  C   UNL A   1      42.055  27.734  27.927  1.00  0.00     0.031 A 
ATOM     62  C   UNL A   1      40.171  26.443  28.689  1.00  0.00     0.131 A 
ATOM     63  C   UNL A   1      42.085  26.959  26.760  1.00  0.00     0.055 A 
ATOM     64  C   UNL A   1      40.257  25.620  27.563  1.00  0.00     0.041 A 
ATOM     65  F   UNL A   1      39.189  26.191  29.570  1.00  0.00    -0.206 F 
ATOM     66  C   UNL A   1      41.208  25.886  26.582  1.00  0.00     0.022 A 
BRANCH  63  67
ATOM     67  S   UNL A   1      43.194  27.462  25.415  1.00  0.00     0.124 S 
ATOM     68  O   UNL A   1      43.651  26.168  24.912  1.00  0.00    -0.237 OA
ATOM     69  O   UNL A   1      42.304  28.212  24.536  1.00  0.00    -0.237 OA
ATOM     70  O   UNL A   1      44.217  28.254  26.093  1.00  0.00    -0.744 OA
ENDBRANCH  63  67
ENDBRANCH  46  60
BRANCH  47  71
ATOM     71  C   UNL A   1      39.685  33.581  36.758  1.00  0.00     0.023 A 
ATOM     72  C   UNL A   1      39.066  33.067  37.908  1.00  0.00     0.031 A 
ATOM     73  C   UNL A   1      40.024  34.946  36.749  1.00  0.00     0.131 A 
ATOM     74  C   UNL A   1      38.748  33.922  38.975  1.00  0.00     0.055 A 
ATOM     75  C   UNL A   1      39.759  35.780  37.836  1.00  0.00     0.041 A 
ATOM     76  F   UNL A   1      40.623  35.490  35.676  1.00  0.00    -0.206 F 
ATOM     77  C   UNL A   1      39.101  35.272  38.952  1.00  0.00     0.022 A 
BRANCH  74  78
ATOM     78  S   UNL A   1      37.765  33.263  40.351  1.00  0.00     0.124 S 
ATOM     79  O   UNL A   1      37.679  34.420  41.235  1.00  0.00    -0.237 OA
ATOM     80  O   UNL A   1      36.529  32.875  39.680  1.00  0.00    -0.237 OA
ATOM     81  O   UNL A   1      38.578  32.156  40.849  1.00  0.00    -0.744 OA
ENDBRANCH  74  78
ENDBRANCH  47  71
BRANCH  59  82
ATOM     82  C   UNL A   1      44.316  28.588  35.288  1.00  0.00     0.023 A 
ATOM     83  C   UNL A   1      44.195  27.582  36.261  1.00  0.00     0.031 A 
ATOM     84  C   UNL A   1      45.594  29.120  35.039  1.00  0.00     0.131 A 
ATOM     85  C   UNL A   1      45.323  27.177  36.991  1.00  0.00     0.055 A 
ATOM     86  C   UNL A   1      46.722  28.673  35.728  1.00  0.00     0.041 A 
ATOM     87  F   UNL A   1      45.766  30.084  34.120  1.00  0.00    -0.206 F 
ATOM     88  C   UNL A   1      46.587  27.706  36.721  1.00  0.00     0.022 A 
BRANCH  85  89
ATOM     89  S   UNL A   1      45.102  26.011  38.362  1.00  0.00     0.124 S 
ATOM     90  O   UNL A   1      43.816  26.428  38.912  1.00  0.00    -0.237 OA
ATOM     91  O   UNL A   1      45.114  24.720  37.679  1.00  0.00    -0.237 OA
ATOM     92  O   UNL A   1      46.256  26.266  39.221  1.00  0.00    -0.744 OA
ENDBRANCH  85  89
ENDBRANCH  59  82
ENDBRANCH  33  34
ENDBRANCH  25  28
ENDBRANCH  23  24
ENDBRANCH  22  23
ENDBRANCH   1  22
TORSDOF 18
ENDMDL
MODEL 3
REMARK VINA RESULT:     -10.8      2.971      8.425
REMARK SMILES Cc1cscc1CNC(=O)CC(C)(C)C(=O)NCCCCNC(=O)c1ccc(-c2c3nc(c(-c4cc(S(=O)(=O)[O-])ccc4F)c4ccc([nH]4)c(-c4cc(S(=O)(=O)[O-])ccc4F)c4nc(c(-c5cc(S(=O)(=O)[O-])ccc5F)c5ccc2[nH]5)C=C4)C=C3)cc1
REMARK SMILES IDX 19 1 18 2 17 3 15 4 16 5 12 7 13 8 14 9 11 10 9 11 8 12
REMARK SMILES IDX 10 14 7 15 6 16 1 17 2 18 3 19 4 20 5 21 20 22 21 23 22 24
REMARK SMILES IDX 23 25 24 27 25 28 26 29 87 30 27 31 86 32 28 33 29 34 30 35
REMARK SMILES IDX 80 36 31 37 85 38 79 39 81 40 32 41 84 42 78 43 77 44 33 46
REMARK SMILES IDX 65 47 45 48 64 49 46 50 49 51 63 52 82 53 47 54 48 55 62 57
REMARK SMILES IDX 83 58 50 59 34 60 35 61 43 62 36 63 42 64 44 65 41 66 37 67
REMARK SMILES IDX 38 68 39 69 40 70 66 71 67 72 75 73 68 74 74 75 76 76 73 77
REMARK SMILES IDX 69 78 70 79 71 80 72 81 51 82 52 83 60 84 53 85 59 86 61 87
REMARK SMILES IDX 58 88 54 89 55 90 56 91 57 92
REMARK H PARENT 17 6 8 13 22 26 81 45 49 56
REMARK Flexibility Score: inf
ROOT
ATOM      1  C   UNL A   1      31.977  27.738  27.197  1.00  0.00     0.023 C 
ENDROOT
BRANCH   1   2
ATOM      2  C   UNL A   1      31.722  26.754  26.060  1.00  0.00     0.116 C 
BRANCH   2   3
ATOM      3  N   UNL A   1      32.940  26.359  25.384  1.00  0.00    -0.356 N 
ATOM      4  C   UNL A   1      33.378  25.180  24.873  1.00  0.00     0.226 C 
ATOM      5  O   UNL A   1      34.499  25.223  24.363  1.00  0.00    -0.274 OA
ATOM      6  H   UNL A   1      33.582  27.098  25.270  1.00  0.00     0.163 HD
BRANCH   4   7
ATOM      7  C   UNL A   1      32.593  23.855  24.997  1.00  0.00     0.052 C 
ATOM      8  C   UNL A   1      31.223  23.888  24.296  1.00  0.00     0.022 C 
ATOM      9  C   UNL A   1      32.358  23.597  26.503  1.00  0.00     0.022 C 
BRANCH   7  10
ATOM     10  C   UNL A   1      33.420  22.643  24.443  1.00  0.00     0.116 C 
BRANCH  10  11
ATOM     11  C   UNL A   1      34.391  21.894  25.349  1.00  0.00     0.221 C 
ATOM     12  N   UNL A   1      34.130  20.649  25.817  1.00  0.00    -0.352 N 
ATOM     13  H   UNL A   1      34.908  20.192  26.213  1.00  0.00     0.163 HD
ATOM     14  O   UNL A   1      35.415  22.445  25.765  1.00  0.00    -0.275 OA
BRANCH  12  15
ATOM     15  C   UNL A   1      32.913  19.879  25.836  1.00  0.00     0.152 C 
BRANCH  15  16
ATOM     16  C   UNL A   1      33.030  18.652  24.975  1.00  0.00    -0.015 A 
ATOM     17  C   UNL A   1      32.230  19.801  22.769  1.00  0.00     0.045 C 
ATOM     18  C   UNL A   1      32.728  18.631  23.555  1.00  0.00    -0.035 A 
ATOM     19  C   UNL A   1      32.965  17.385  23.005  1.00  0.00     0.068 A 
ATOM     20  S   UNL A   1      33.526  16.250  24.146  1.00  0.00    -0.152 S 
ATOM     21  C   UNL A   1      33.454  17.402  25.399  1.00  0.00     0.070 A 
ENDBRANCH  15  16
ENDBRANCH  12  15
ENDBRANCH  10  11
ENDBRANCH   7  10
ENDBRANCH   4   7
ENDBRANCH   2   3
ENDBRANCH   1   2
BRANCH   1  22
ATOM     22  C   UNL A   1      31.636  29.196  26.894  1.00  0.00     0.023 C 
BRANCH  22  23
ATOM     23  C   UNL A   1      32.783  30.042  26.349  1.00  0.00     0.116 C 
BRANCH  23  24
ATOM     24  N   UNL A   1      32.711  31.437  26.756  1.00  0.00    -0.352 N 
ATOM     25  C   UNL A   1      33.577  32.167  27.536  1.00  0.00     0.251 C 
ATOM     26  H   UNL A   1      31.927  31.931  26.425  1.00  0.00     0.163 HD
ATOM     27  O   UNL A   1      33.278  33.309  27.870  1.00  0.00    -0.269 OA
BRANCH  25  28
ATOM     28  C   UNL A   1      34.841  31.555  28.000  1.00  0.00     0.039 A 
ATOM     29  C   UNL A   1      35.999  32.336  28.026  1.00  0.00     0.014 A 
ATOM     30  C   UNL A   1      34.875  30.229  28.438  1.00  0.00     0.014 A 
ATOM     31  C   UNL A   1      37.172  31.812  28.573  1.00  0.00     0.010 A 
ATOM     32  C   UNL A   1      36.023  29.735  29.051  1.00  0.00     0.010 A 
ATOM     33  C   UNL A   1      37.182  30.524  29.132  1.00  0.00    -0.014 A 
BRANCH  33  34
ATOM     34  C   UNL A   1      38.392  29.980  29.805  1.00  0.00     0.031 A 
ATOM     35  C   UNL A   1      38.792  30.499  31.159  1.00  0.00     0.074 A 
ATOM     36  C   UNL A   1      39.163  29.074  29.171  1.00  0.00     0.049 A 
ATOM     37  N   UNL A   1      39.862  30.237  31.865  1.00  0.00    -0.248 NA
ATOM     38  C   UNL A   1      37.879  31.465  31.788  1.00  0.00     0.031 C 
ATOM     39  C   UNL A   1      38.898  28.522  27.839  1.00  0.00     0.029 A 
ATOM     40  N   UNL A   1      40.331  28.466  29.553  1.00  0.00    -0.354 N 
ATOM     41  C   UNL A   1      39.754  31.010  33.016  1.00  0.00     0.074 A 
ATOM     42  C   UNL A   1      38.550  31.801  32.878  1.00  0.00     0.031 C 
ATOM     43  C   UNL A   1      39.867  27.645  27.526  1.00  0.00     0.029 A 
ATOM     44  C   UNL A   1      40.844  27.604  28.609  1.00  0.00     0.049 A 
ATOM     45  H   UNL A   1      40.765  28.630  30.422  1.00  0.00     0.167 HD
ATOM     46  C   UNL A   1      40.569  31.036  34.101  1.00  0.00     0.034 A 
ATOM     47  C   UNL A   1      41.979  26.876  28.611  1.00  0.00     0.034 A 
ATOM     48  C   UNL A   1      41.764  30.237  34.227  1.00  0.00     0.049 A 
ATOM     49  C   UNL A   1      42.886  26.948  29.815  1.00  0.00     0.074 A 
ATOM     50  C   UNL A   1      42.649  30.170  35.288  1.00  0.00     0.029 A 
ATOM     51  N   UNL A   1      42.242  29.366  33.257  1.00  0.00    -0.354 N 
ATOM     52  N   UNL A   1      42.751  27.659  30.910  1.00  0.00    -0.248 NA
ATOM     53  C   UNL A   1      44.091  26.108  29.787  1.00  0.00     0.031 C 
ATOM     54  C   UNL A   1      43.688  29.299  34.939  1.00  0.00     0.029 A 
ATOM     55  C   UNL A   1      43.416  28.770  33.688  1.00  0.00     0.049 A 
ATOM     56  H   UNL A   1      41.809  29.196  32.388  1.00  0.00     0.167 HD
ATOM     57  C   UNL A   1      43.836  27.323  31.716  1.00  0.00     0.074 A 
ATOM     58  C   UNL A   1      44.604  26.335  30.986  1.00  0.00     0.031 C 
ATOM     59  C   UNL A   1      44.168  27.786  32.947  1.00  0.00     0.034 A 
BRANCH  46  60
ATOM     60  C   UNL A   1      40.190  31.971  35.225  1.00  0.00     0.023 A 
ATOM     61  C   UNL A   1      39.322  31.564  36.253  1.00  0.00     0.031 A 
ATOM     62  C   UNL A   1      40.673  33.290  35.256  1.00  0.00     0.131 A 
ATOM     63  C   UNL A   1      38.901  32.485  37.222  1.00  0.00     0.055 A 
ATOM     64  C   UNL A   1      40.316  34.181  36.271  1.00  0.00     0.041 A 
ATOM     65  F   UNL A   1      41.490  33.742  34.291  1.00  0.00    -0.206 F 
ATOM     66  C   UNL A   1      39.412  33.785  37.253  1.00  0.00     0.022 A 
BRANCH  63  67
ATOM     67  S   UNL A   1      37.569  32.002  38.355  1.00  0.00     0.124 S 
ATOM     68  O   UNL A   1      38.219  32.155  39.654  1.00  0.00    -0.237 OA
ATOM     69  O   UNL A   1      36.524  32.971  38.045  1.00  0.00    -0.237 OA
ATOM     70  O   UNL A   1      37.277  30.623  37.971  1.00  0.00    -0.744 OA
ENDBRANCH  63  67
ENDBRANCH  46  60
BRANCH  47  71
ATOM     71  C   UNL A   1      42.342  26.026  27.439  1.00  0.00     0.023 A 
ATOM     72  C   UNL A   1      41.923  24.689  27.361  1.00  0.00     0.031 A 
ATOM     73  C   UNL A   1      43.170  26.517  26.415  1.00  0.00     0.131 A 
ATOM     74  C   UNL A   1      42.381  23.871  26.317  1.00  0.00     0.055 A 
ATOM     75  C   UNL A   1      43.577  25.715  25.346  1.00  0.00     0.041 A 
ATOM     76  F   UNL A   1      43.597  27.790  26.437  1.00  0.00    -0.206 F 
ATOM     77  C   UNL A   1      43.195  24.378  25.303  1.00  0.00     0.022 A 
BRANCH  74  78
ATOM     78  S   UNL A   1      41.985  22.101  26.365  1.00  0.00     0.124 S 
ATOM     79  O   UNL A   1      42.381  21.745  27.724  1.00  0.00    -0.237 OA
ATOM     80  O   UNL A   1      40.551  22.104  26.095  1.00  0.00    -0.237 OA
ATOM     81  O   UNL A   1      42.818  21.537  25.305  1.00  0.00    -0.744 OA
ENDBRANCH  74  78
ENDBRANCH  47  71
BRANCH  59  82
ATOM     82  C   UNL A   1      45.385  27.178  33.600  1.00  0.00     0.023 A 
ATOM     83  C   UNL A   1      45.302  26.016  34.385  1.00  0.00     0.031 A 
ATOM     84  C   UNL A   1      46.645  27.783  33.443  1.00  0.00     0.131 A 
ATOM     85  C   UNL A   1      46.447  25.526  35.031  1.00  0.00     0.055 A 
ATOM     86  C   UNL A   1      47.791  27.259  34.041  1.00  0.00     0.041 A 
ATOM     87  F   UNL A   1      46.781  28.896  32.703  1.00  0.00    -0.206 F 
ATOM     88  C   UNL A   1      47.693  26.131  34.852  1.00  0.00     0.022 A 
BRANCH  85  89
ATOM     89  S   UNL A   1      46.271  24.134  36.181  1.00  0.00     0.124 S 
ATOM     90  O   UNL A   1      47.266  24.453  37.199  1.00  0.00    -0.237 OA
ATOM     91  O   UNL A   1      44.876  24.245  36.595  1.00  0.00    -0.237 OA
ATOM     92  O   UNL A   1      46.580  22.967  35.357  1.00  0.00    -0.744 OA
ENDBRANCH  85  89
ENDBRANCH  59  82
ENDBRANCH  33  34
ENDBRANCH  25  28
ENDBRANCH  23  24
ENDBRANCH  22  23
ENDBRANCH   1  22
TORSDOF 18
ENDMDL
