MODEL 1
REMARK VINA RESULT:     -12.9      0.000      0.000
REMARK SMILES C/C(=C\C(=O)c1c(O)n(C)c2ccccc2c1=O)Nc1ccc(C(=O)NCCCCNC(=O)c2ccc(-c3c4nc(c(-c5cc(S(=O)(=O)[O-])ccc5F)c5ccc([nH]5)c(-c5cc(S(=O)(=O)[O-])ccc5F)c5nc(c(-c6cc(S(=O)(=O)[O-])ccc6F)c6ccc3[nH]6)C=C5)C=C4)cc2)cc1
REMARK SMILES IDX 27 1 26 2 24 3 25 4 23 6 20 7 21 8 98 9 22 10 97 11 19 12
REMARK SMILES IDX 2 14 1 15 3 16 4 17 5 18 6 19 7 20 17 21 9 22 16 23 18 24
REMARK SMILES IDX 10 25 11 26 15 27 12 28 14 29 13 30 8 31 28 33 29 34 30 35
REMARK SMILES IDX 31 36 32 37 33 39 34 40 35 41 96 42 36 43 95 44 37 45 38 46
REMARK SMILES IDX 39 47 89 48 40 49 94 50 88 51 90 52 41 53 93 54 87 55 86 56
REMARK SMILES IDX 42 58 74 59 54 60 73 61 55 62 58 63 72 64 91 65 56 66 57 67
REMARK SMILES IDX 71 69 92 70 59 71 43 72 44 73 52 74 45 75 51 76 53 77 50 78
REMARK SMILES IDX 46 79 47 80 48 81 49 82 75 83 76 84 84 85 77 86 83 87 85 88
REMARK SMILES IDX 82 89 78 90 79 91 80 92 81 93 60 94 61 95 69 96 62 97 68 98
REMARK SMILES IDX 70 99 67 100 63 101 64 102 65 103 66 104
REMARK H PARENT 26 5 19 13 8 32 31 38 90 57 58 68
REMARK Flexibility Score: inf
ROOT
ATOM      1  C   UNL A   1      31.996  29.844  25.423  1.00  0.00     0.116 C 
ENDROOT
BRANCH   1   2
ATOM      2  N   UNL A   1      30.940  30.422  24.614  1.00  0.00    -0.352 N 
ATOM      3  C   UNL A   1      30.024  29.840  23.773  1.00  0.00     0.251 C 
ATOM      4  O   UNL A   1      29.163  30.560  23.268  1.00  0.00    -0.269 OA
ATOM      5  H   UNL A   1      30.869  31.401  24.678  1.00  0.00     0.163 HD
BRANCH   3   6
ATOM      6  C   UNL A   1      30.089  28.407  23.377  1.00  0.00     0.039 A 
ATOM      7  C   UNL A   1      30.633  25.692  22.765  1.00  0.00     0.038 A 
ATOM      8  C   UNL A   1      31.304  26.727  22.114  1.00  0.00     0.027 A 
ATOM      9  C   UNL A   1      29.575  26.050  23.615  1.00  0.00     0.027 A 
ATOM     10  C   UNL A   1      31.054  28.066  22.428  1.00  0.00     0.016 A 
ATOM     11  C   UNL A   1      29.282  27.394  23.891  1.00  0.00     0.016 A 
BRANCH   7  12
ATOM     12  N   UNL A   1      31.036  24.336  22.718  1.00  0.00    -0.359 N 
ATOM     13  H   UNL A   1      30.450  23.729  22.211  1.00  0.00     0.166 HD
BRANCH  12  14
ATOM     14  C   UNL A   1      32.170  23.749  23.307  1.00  0.00     0.016 C 
ATOM     15  C   UNL A   1      33.388  23.544  22.439  1.00  0.00     0.064 C 
ATOM     16  C   UNL A   1      32.133  23.398  24.614  1.00  0.00     0.074 C 
BRANCH  16  17
ATOM     17  C   UNL A   1      33.184  22.913  25.573  1.00  0.00     0.196 C 
ATOM     18  O   UNL A   1      33.690  23.715  26.356  1.00  0.00    -0.289 OA
BRANCH  17  19
ATOM     19  C   UNL A   1      33.727  21.548  25.438  1.00  0.00     0.130 A 
ATOM     20  C   UNL A   1      35.058  21.337  25.422  1.00  0.00     0.206 A 
ATOM     21  C   UNL A   1      32.818  20.408  25.185  1.00  0.00     0.204 A 
ATOM     22  N   UNL A   1      35.638  20.124  25.059  1.00  0.00    -0.315 N 
ATOM     23  C   UNL A   1      33.431  19.087  24.917  1.00  0.00     0.047 A 
ATOM     24  O   UNL A   1      31.599  20.551  25.150  1.00  0.00    -0.288 OA
ATOM     25  C   UNL A   1      37.066  20.013  24.737  1.00  0.00     0.153 C 
ATOM     26  C   UNL A   1      34.832  18.980  24.839  1.00  0.00     0.055 A 
ATOM     27  C   UNL A   1      32.593  17.982  24.699  1.00  0.00     0.014 A 
ATOM     28  C   UNL A   1      35.358  17.711  24.538  1.00  0.00     0.027 A 
ATOM     29  C   UNL A   1      33.144  16.740  24.400  1.00  0.00     0.001 A 
ATOM     30  C   UNL A   1      34.525  16.606  24.319  1.00  0.00     0.002 A 
BRANCH  20  31
ATOM     31  O   UNL A   1      35.954  22.347  25.727  1.00  0.00    -0.494 OA
ATOM     32  H   UNL A   1      36.594  22.219  26.401  1.00  0.00     0.295 HD
ENDBRANCH  20  31
ENDBRANCH  17  19
ENDBRANCH  16  17
ENDBRANCH  12  14
ENDBRANCH   7  12
ENDBRANCH   3   6
ENDBRANCH   1   2
BRANCH   1  33
ATOM     33  C   UNL A   1      31.922  30.173  26.912  1.00  0.00     0.023 C 
BRANCH  33  34
ATOM     34  C   UNL A   1      33.241  30.430  27.631  1.00  0.00     0.023 C 
BRANCH  34  35
ATOM     35  C   UNL A   1      33.979  31.706  27.250  1.00  0.00     0.116 C 
BRANCH  35  36
ATOM     36  N   UNL A   1      33.240  32.928  27.534  1.00  0.00    -0.352 N 
ATOM     37  C   UNL A   1      33.447  33.878  28.514  1.00  0.00     0.251 C 
ATOM     38  H   UNL A   1      32.477  33.104  26.937  1.00  0.00     0.163 HD
ATOM     39  O   UNL A   1      32.676  34.819  28.631  1.00  0.00    -0.269 OA
BRANCH  37  40
ATOM     40  C   UNL A   1      34.570  33.703  29.462  1.00  0.00     0.039 A 
ATOM     41  C   UNL A   1      35.835  34.208  29.161  1.00  0.00     0.014 A 
ATOM     42  C   UNL A   1      34.377  32.920  30.603  1.00  0.00     0.014 A 
ATOM     43  C   UNL A   1      36.940  33.723  29.850  1.00  0.00     0.010 A 
ATOM     44  C   UNL A   1      35.482  32.519  31.359  1.00  0.00     0.010 A 
ATOM     45  C   UNL A   1      36.780  32.843  30.936  1.00  0.00    -0.014 A 
BRANCH  45  46
ATOM     46  C   UNL A   1      37.979  32.222  31.562  1.00  0.00     0.031 A 
ATOM     47  C   UNL A   1      38.402  32.604  32.959  1.00  0.00     0.074 A 
ATOM     48  C   UNL A   1      38.641  31.249  30.906  1.00  0.00     0.049 A 
ATOM     49  N   UNL A   1      39.404  32.155  33.670  1.00  0.00    -0.248 NA
ATOM     50  C   UNL A   1      37.598  33.628  33.649  1.00  0.00     0.031 C 
ATOM     51  C   UNL A   1      38.304  30.772  29.565  1.00  0.00     0.029 A 
ATOM     52  N   UNL A   1      39.703  30.465  31.282  1.00  0.00    -0.354 N 
ATOM     53  C   UNL A   1      39.364  32.850  34.875  1.00  0.00     0.074 A 
ATOM     54  C   UNL A   1      38.260  33.779  34.787  1.00  0.00     0.031 C 
ATOM     55  C   UNL A   1      39.095  29.735  29.257  1.00  0.00     0.029 A 
ATOM     56  C   UNL A   1      40.050  29.522  30.342  1.00  0.00     0.049 A 
ATOM     57  H   UNL A   1      40.171  30.567  32.142  1.00  0.00     0.167 HD
ATOM     58  C   UNL A   1      40.163  32.714  35.961  1.00  0.00     0.034 A 
ATOM     59  C   UNL A   1      41.032  28.597  30.342  1.00  0.00     0.034 A 
ATOM     60  C   UNL A   1      41.242  31.763  36.048  1.00  0.00     0.049 A 
ATOM     61  C   UNL A   1      41.932  28.490  31.544  1.00  0.00     0.074 A 
ATOM     62  C   UNL A   1      42.108  31.548  37.106  1.00  0.00     0.029 A 
ATOM     63  N   UNL A   1      41.596  30.862  35.054  1.00  0.00    -0.354 N 
ATOM     64  N   UNL A   1      41.879  29.157  32.674  1.00  0.00    -0.248 NA
ATOM     65  C   UNL A   1      43.027  27.513  31.477  1.00  0.00     0.031 C 
ATOM     66  C   UNL A   1      43.013  30.553  36.735  1.00  0.00     0.029 A 
ATOM     67  C   UNL A   1      42.677  30.102  35.468  1.00  0.00     0.049 A 
ATOM     68  H   UNL A   1      41.144  30.776  34.183  1.00  0.00     0.167 HD
ATOM     69  C   UNL A   1      42.924  28.673  33.454  1.00  0.00     0.074 A 
ATOM     70  C   UNL A   1      43.576  27.638  32.679  1.00  0.00     0.031 C 
ATOM     71  C   UNL A   1      43.312  29.061  34.695  1.00  0.00     0.034 A 
BRANCH  58  72
ATOM     72  C   UNL A   1      39.909  33.596  37.159  1.00  0.00     0.023 A 
ATOM     73  C   UNL A   1      39.153  33.114  38.245  1.00  0.00     0.031 A 
ATOM     74  C   UNL A   1      40.315  34.943  37.178  1.00  0.00     0.131 A 
ATOM     75  C   UNL A   1      38.806  33.978  39.291  1.00  0.00     0.055 A 
ATOM     76  C   UNL A   1      39.995  35.790  38.239  1.00  0.00     0.041 A 
ATOM     77  F   UNL A   1      41.040  35.449  36.168  1.00  0.00    -0.206 F 
ATOM     78  C   UNL A   1      39.228  35.312  39.296  1.00  0.00     0.022 A 
BRANCH  75  79
ATOM     79  S   UNL A   1      37.745  33.427  40.655  1.00  0.00     0.124 S 
ATOM     80  O   UNL A   1      36.557  32.968  39.940  1.00  0.00    -0.237 OA
ATOM     81  O   UNL A   1      38.552  32.374  41.267  1.00  0.00    -0.237 OA
ATOM     82  O   UNL A   1      37.560  34.627  41.463  1.00  0.00    -0.744 OA
ENDBRANCH  75  79
ENDBRANCH  58  72
BRANCH  59  83
ATOM     83  C   UNL A   1      41.160  27.683  29.170  1.00  0.00     0.023 A 
ATOM     84  C   UNL A   1      42.137  27.909  28.182  1.00  0.00     0.031 A 
ATOM     85  C   UNL A   1      40.226  26.657  28.953  1.00  0.00     0.131 A 
ATOM     86  C   UNL A   1      42.100  27.182  26.985  1.00  0.00     0.055 A 
ATOM     87  C   UNL A   1      40.240  25.883  27.792  1.00  0.00     0.041 A 
ATOM     88  F   UNL A   1      39.270  26.411  29.861  1.00  0.00    -0.206 F 
ATOM     89  C   UNL A   1      41.167  26.159  26.790  1.00  0.00     0.022 A 
BRANCH  86  90
ATOM     90  S   UNL A   1      43.155  27.648  25.585  1.00  0.00     0.124 S 
ATOM     91  O   UNL A   1      43.639  26.350  25.124  1.00  0.00    -0.237 OA
ATOM     92  O   UNL A   1      42.202  28.316  24.703  1.00  0.00    -0.237 OA
ATOM     93  O   UNL A   1      44.159  28.519  26.185  1.00  0.00    -0.744 OA
ENDBRANCH  86  90
ENDBRANCH  59  83
BRANCH  71  94
ATOM     94  C   UNL A   1      44.500  28.378  35.325  1.00  0.00     0.023 A 
ATOM     95  C   UNL A   1      44.306  27.413  36.332  1.00  0.00     0.031 A 
ATOM     96  C   UNL A   1      45.813  28.794  35.044  1.00  0.00     0.131 A 
ATOM     97  C   UNL A   1      45.404  26.929  37.052  1.00  0.00     0.055 A 
ATOM     98  C   UNL A   1      46.908  28.276  35.735  1.00  0.00     0.041 A 
ATOM     99  F   UNL A   1      46.046  29.719  34.099  1.00  0.00    -0.206 F 
ATOM    100  C   UNL A   1      46.706  27.349  36.754  1.00  0.00     0.022 A 
BRANCH  97 101
ATOM    101  S   UNL A   1      45.181  25.800  38.455  1.00  0.00     0.124 S 
ATOM    102  O   UNL A   1      44.043  26.400  39.148  1.00  0.00    -0.237 OA
ATOM    103  O   UNL A   1      44.908  24.530  37.787  1.00  0.00    -0.237 OA
ATOM    104  O   UNL A   1      46.452  25.872  39.170  1.00  0.00    -0.744 OA
ENDBRANCH  97 101
ENDBRANCH  71  94
ENDBRANCH  45  46
ENDBRANCH  37  40
ENDBRANCH  35  36
ENDBRANCH  34  35
ENDBRANCH  33  34
ENDBRANCH   1  33
TORSDOF 19
ENDMDL
MODEL 2
REMARK VINA RESULT:     -12.4      0.973      2.076
REMARK SMILES C/C(=C\C(=O)c1c(O)n(C)c2ccccc2c1=O)Nc1ccc(C(=O)NCCCCNC(=O)c2ccc(-c3c4nc(c(-c5cc(S(=O)(=O)[O-])ccc5F)c5ccc([nH]5)c(-c5cc(S(=O)(=O)[O-])ccc5F)c5nc(c(-c6cc(S(=O)(=O)[O-])ccc6F)c6ccc3[nH]6)C=C5)C=C4)cc2)cc1
REMARK SMILES IDX 27 1 26 2 24 3 25 4 23 6 20 7 21 8 98 9 22 10 97 11 19 12
REMARK SMILES IDX 2 14 1 15 3 16 4 17 5 18 6 19 7 20 17 21 9 22 16 23 18 24
REMARK SMILES IDX 10 25 11 26 15 27 12 28 14 29 13 30 8 31 28 33 29 34 30 35
REMARK SMILES IDX 31 36 32 37 33 39 34 40 35 41 96 42 36 43 95 44 37 45 38 46
REMARK SMILES IDX 39 47 89 48 40 49 94 50 88 51 90 52 41 53 93 54 87 55 86 56
REMARK SMILES IDX 42 58 74 59 54 60 73 61 55 62 58 63 72 64 91 65 56 66 57 67
REMARK SMILES IDX 71 69 92 70 59 71 43 72 44 73 52 74 45 75 51 76 53 77 50 78
REMARK SMILES IDX 46 79 47 80 48 81 49 82 75 83 76 84 84 85 77 86 83 87 85 88
REMARK SMILES IDX 82 89 78 90 79 91 80 92 81 93 60 94 61 95 69 96 62 97 68 98
REMARK SMILES IDX 70 99 67 100 63 101 64 102 65 103 66 104
REMARK H PARENT 26 5 19 13 8 32 31 38 90 57 58 68
REMARK Flexibility Score: inf
ROOT
ATOM      1  C   UNL A   1      30.920  30.523  25.242  1.00  0.00     0.116 C 
ENDROOT
BRANCH   1   2
ATOM      2  N   UNL A   1      30.664  30.452  23.817  1.00  0.00    -0.352 N 
ATOM      3  C   UNL A   1      30.373  29.385  23.002  1.00  0.00     0.251 C 
ATOM      4  O   UNL A   1      30.105  29.613  21.824  1.00  0.00    -0.269 OA
ATOM      5  H   UNL A   1      30.705  31.319  23.353  1.00  0.00     0.163 HD
BRANCH   3   6
ATOM      6  C   UNL A   1      30.466  27.973  23.460  1.00  0.00     0.039 A 
ATOM      7  C   UNL A   1      30.356  25.192  24.007  1.00  0.00     0.038 A 
ATOM      8  C   UNL A   1      29.230  26.003  24.157  1.00  0.00     0.027 A 
ATOM      9  C   UNL A   1      31.574  25.832  23.729  1.00  0.00     0.027 A 
ATOM     10  C   UNL A   1      29.275  27.369  23.868  1.00  0.00     0.016 A 
ATOM     11  C   UNL A   1      31.635  27.214  23.493  1.00  0.00     0.016 A 
BRANCH   7  12
ATOM     12  N   UNL A   1      30.314  23.777  23.992  1.00  0.00    -0.359 N 
ATOM     13  H   UNL A   1      29.740  23.369  23.304  1.00  0.00     0.166 HD
BRANCH  12  14
ATOM     14  C   UNL A   1      30.993  22.882  24.838  1.00  0.00     0.016 C 
ATOM     15  C   UNL A   1      30.495  22.739  26.256  1.00  0.00     0.064 C 
ATOM     16  C   UNL A   1      32.051  22.187  24.357  1.00  0.00     0.074 C 
BRANCH  16  17
ATOM     17  C   UNL A   1      32.876  21.064  24.919  1.00  0.00     0.196 C 
ATOM     18  O   UNL A   1      32.305  20.115  25.453  1.00  0.00    -0.289 OA
BRANCH  17  19
ATOM     19  C   UNL A   1      34.344  21.198  24.994  1.00  0.00     0.130 A 
ATOM     20  C   UNL A   1      35.142  20.137  24.762  1.00  0.00     0.206 A 
ATOM     21  C   UNL A   1      34.952  22.466  25.455  1.00  0.00     0.204 A 
ATOM     22  N   UNL A   1      36.505  20.127  25.049  1.00  0.00    -0.315 N 
ATOM     23  C   UNL A   1      36.419  22.495  25.646  1.00  0.00     0.047 A 
ATOM     24  O   UNL A   1      34.267  23.450  25.718  1.00  0.00    -0.288 OA
ATOM     25  C   UNL A   1      37.278  18.880  25.094  1.00  0.00     0.153 C 
ATOM     26  C   UNL A   1      37.162  21.313  25.458  1.00  0.00     0.055 A 
ATOM     27  C   UNL A   1      37.028  23.691  26.057  1.00  0.00     0.014 A 
ATOM     28  C   UNL A   1      38.546  21.387  25.696  1.00  0.00     0.027 A 
ATOM     29  C   UNL A   1      38.399  23.730  26.289  1.00  0.00     0.001 A 
ATOM     30  C   UNL A   1      39.156  22.579  26.108  1.00  0.00     0.002 A 
BRANCH  20  31
ATOM     31  O   UNL A   1      34.641  18.950  24.257  1.00  0.00    -0.494 OA
ATOM     32  H   UNL A   1      34.201  18.942  23.429  1.00  0.00     0.295 HD
ENDBRANCH  20  31
ENDBRANCH  17  19
ENDBRANCH  16  17
ENDBRANCH  12  14
ENDBRANCH   7  12
ENDBRANCH   3   6
ENDBRANCH   1   2
BRANCH   1  33
ATOM     33  C   UNL A   1      32.327  30.111  25.667  1.00  0.00     0.023 C 
BRANCH  33  34
ATOM     34  C   UNL A   1      32.692  30.302  27.135  1.00  0.00     0.023 C 
BRANCH  34  35
ATOM     35  C   UNL A   1      33.679  31.420  27.444  1.00  0.00     0.116 C 
BRANCH  35  36
ATOM     36  N   UNL A   1      33.070  32.739  27.548  1.00  0.00    -0.352 N 
ATOM     37  C   UNL A   1      33.386  33.794  28.380  1.00  0.00     0.251 C 
ATOM     38  H   UNL A   1      32.319  32.903  26.932  1.00  0.00     0.163 HD
ATOM     39  O   UNL A   1      32.715  34.815  28.360  1.00  0.00    -0.269 OA
BRANCH  37  40
ATOM     40  C   UNL A   1      34.500  33.644  29.343  1.00  0.00     0.039 A 
ATOM     41  C   UNL A   1      35.756  34.180  29.061  1.00  0.00     0.014 A 
ATOM     42  C   UNL A   1      34.310  32.854  30.480  1.00  0.00     0.014 A 
ATOM     43  C   UNL A   1      36.863  33.720  29.764  1.00  0.00     0.010 A 
ATOM     44  C   UNL A   1      35.414  32.478  31.250  1.00  0.00     0.010 A 
ATOM     45  C   UNL A   1      36.710  32.834  30.846  1.00  0.00    -0.014 A 
BRANCH  45  46
ATOM     46  C   UNL A   1      37.915  32.241  31.487  1.00  0.00     0.031 A 
ATOM     47  C   UNL A   1      38.317  32.641  32.885  1.00  0.00     0.074 A 
ATOM     48  C   UNL A   1      38.601  31.275  30.844  1.00  0.00     0.049 A 
ATOM     49  N   UNL A   1      39.321  32.216  33.608  1.00  0.00    -0.248 NA
ATOM     50  C   UNL A   1      37.488  33.654  33.560  1.00  0.00     0.031 C 
ATOM     51  C   UNL A   1      38.285  30.783  29.504  1.00  0.00     0.029 A 
ATOM     52  N   UNL A   1      39.674  30.515  31.235  1.00  0.00    -0.354 N 
ATOM     53  C   UNL A   1      39.257  32.919  34.807  1.00  0.00     0.074 A 
ATOM     54  C   UNL A   1      38.137  33.826  34.703  1.00  0.00     0.031 C 
ATOM     55  C   UNL A   1      39.098  29.759  29.211  1.00  0.00     0.029 A 
ATOM     56  C   UNL A   1      40.048  29.572  30.305  1.00  0.00     0.049 A 
ATOM     57  H   UNL A   1      40.132  30.632  32.099  1.00  0.00     0.167 HD
ATOM     58  C   UNL A   1      40.048  32.806  35.901  1.00  0.00     0.034 A 
ATOM     59  C   UNL A   1      41.047  28.666  30.321  1.00  0.00     0.034 A 
ATOM     60  C   UNL A   1      41.145  31.877  36.005  1.00  0.00     0.049 A 
ATOM     61  C   UNL A   1      41.938  28.585  31.532  1.00  0.00     0.074 A 
ATOM     62  C   UNL A   1      42.006  31.686  37.073  1.00  0.00     0.029 A 
ATOM     63  N   UNL A   1      41.525  30.976  35.021  1.00  0.00    -0.354 N 
ATOM     64  N   UNL A   1      41.862  29.260  32.656  1.00  0.00    -0.248 NA
ATOM     65  C   UNL A   1      43.051  27.629  31.482  1.00  0.00     0.031 C 
ATOM     66  C   UNL A   1      42.932  30.706  36.717  1.00  0.00     0.029 A 
ATOM     67  C   UNL A   1      42.617  30.239  35.451  1.00  0.00     0.049 A 
ATOM     68  H   UNL A   1      41.083  30.875  34.147  1.00  0.00     0.167 HD
ATOM     69  C   UNL A   1      42.909  28.801  33.450  1.00  0.00     0.074 A 
ATOM     70  C   UNL A   1      43.587  27.773  32.688  1.00  0.00     0.031 C 
ATOM     71  C   UNL A   1      43.278  29.206  34.691  1.00  0.00     0.034 A 
BRANCH  58  72
ATOM     72  C   UNL A   1      39.768  33.692  37.091  1.00  0.00     0.023 A 
ATOM     73  C   UNL A   1      39.092  33.176  38.213  1.00  0.00     0.031 A 
ATOM     74  C   UNL A   1      40.064  35.067  37.068  1.00  0.00     0.131 A 
ATOM     75  C   UNL A   1      38.713  34.033  39.254  1.00  0.00     0.055 A 
ATOM     76  C   UNL A   1      39.715  35.910  38.124  1.00  0.00     0.041 A 
ATOM     77  F   UNL A   1      40.709  35.607  36.022  1.00  0.00    -0.206 F 
ATOM     78  C   UNL A   1      39.026  35.396  39.218  1.00  0.00     0.022 A 
BRANCH  75  79
ATOM     79  S   UNL A   1      37.749  33.430  40.667  1.00  0.00     0.124 S 
ATOM     80  O   UNL A   1      38.566  32.310  41.128  1.00  0.00    -0.237 OA
ATOM     81  O   UNL A   1      37.732  34.595  41.548  1.00  0.00    -0.237 OA
ATOM     82  O   UNL A   1      36.464  33.063  40.084  1.00  0.00    -0.744 OA
ENDBRANCH  75  79
ENDBRANCH  58  72
BRANCH  59  83
ATOM     83  C   UNL A   1      41.203  27.746  29.157  1.00  0.00     0.023 A 
ATOM     84  C   UNL A   1      42.217  27.955  28.203  1.00  0.00     0.031 A 
ATOM     85  C   UNL A   1      40.263  26.732  28.911  1.00  0.00     0.131 A 
ATOM     86  C   UNL A   1      42.211  27.224  27.008  1.00  0.00     0.055 A 
ATOM     87  C   UNL A   1      40.307  25.953  27.754  1.00  0.00     0.041 A 
ATOM     88  F   UNL A   1      39.272  26.502  29.786  1.00  0.00    -0.206 F 
ATOM     89  C   UNL A   1      41.271  26.214  26.784  1.00  0.00     0.022 A 
BRANCH  86  90
ATOM     90  S   UNL A   1      43.321  27.670  25.644  1.00  0.00     0.124 S 
ATOM     91  O   UNL A   1      44.083  26.440  25.457  1.00  0.00    -0.237 OA
ATOM     92  O   UNL A   1      42.372  27.994  24.581  1.00  0.00    -0.237 OA
ATOM     93  O   UNL A   1      44.072  28.805  26.168  1.00  0.00    -0.744 OA
ENDBRANCH  86  90
ENDBRANCH  59  83
BRANCH  71  94
ATOM     94  C   UNL A   1      44.474  28.549  35.336  1.00  0.00     0.023 A 
ATOM     95  C   UNL A   1      44.288  27.552  36.313  1.00  0.00     0.031 A 
ATOM     96  C   UNL A   1      45.777  29.021  35.103  1.00  0.00     0.131 A 
ATOM     97  C   UNL A   1      45.383  27.089  37.050  1.00  0.00     0.055 A 
ATOM     98  C   UNL A   1      46.872  28.525  35.811  1.00  0.00     0.041 A 
ATOM     99  F   UNL A   1      46.001  29.979  34.190  1.00  0.00    -0.206 F 
ATOM    100  C   UNL A   1      46.676  27.565  36.801  1.00  0.00     0.022 A 
BRANCH  97 101
ATOM    101  S   UNL A   1      45.165  25.917  38.417  1.00  0.00     0.124 S 
ATOM    102  O   UNL A   1      44.930  24.662  37.706  1.00  0.00    -0.237 OA
ATOM    103  O   UNL A   1      46.447  26.011  39.111  1.00  0.00    -0.237 OA
ATOM    104  O   UNL A   1      44.016  26.440  39.150  1.00  0.00    -0.744 OA
ENDBRANCH  97 101
ENDBRANCH  71  94
ENDBRANCH  45  46
ENDBRANCH  37  40
ENDBRANCH  35  36
ENDBRANCH  34  35
ENDBRANCH  33  34
ENDBRANCH   1  33
TORSDOF 19
ENDMDL
MODEL 3
REMARK VINA RESULT:     -12.3      1.980      2.566
REMARK SMILES C/C(=C\C(=O)c1c(O)n(C)c2ccccc2c1=O)Nc1ccc(C(=O)NCCCCNC(=O)c2ccc(-c3c4nc(c(-c5cc(S(=O)(=O)[O-])ccc5F)c5ccc([nH]5)c(-c5cc(S(=O)(=O)[O-])ccc5F)c5nc(c(-c6cc(S(=O)(=O)[O-])ccc6F)c6ccc3[nH]6)C=C5)C=C4)cc2)cc1
REMARK SMILES IDX 27 1 26 2 24 3 25 4 23 6 20 7 21 8 98 9 22 10 97 11 19 12
REMARK SMILES IDX 2 14 1 15 3 16 4 17 5 18 6 19 7 20 17 21 9 22 16 23 18 24
REMARK SMILES IDX 10 25 11 26 15 27 12 28 14 29 13 30 8 31 28 33 29 34 30 35
REMARK SMILES IDX 31 36 32 37 33 39 34 40 35 41 96 42 36 43 95 44 37 45 38 46
REMARK SMILES IDX 39 47 89 48 40 49 94 50 88 51 90 52 41 53 93 54 87 55 86 56
REMARK SMILES IDX 42 58 74 59 54 60 73 61 55 62 58 63 72 64 91 65 56 66 57 67
REMARK SMILES IDX 71 69 92 70 59 71 43 72 44 73 52 74 45 75 51 76 53 77 50 78
REMARK SMILES IDX 46 79 47 80 48 81 49 82 75 83 76 84 84 85 77 86 83 87 85 88
REMARK SMILES IDX 82 89 78 90 79 91 80 92 81 93 60 94 61 95 69 96 62 97 68 98
REMARK SMILES IDX 70 99 67 100 63 101 64 102 65 103 66 104
REMARK H PARENT 26 5 19 13 8 32 31 38 90 57 58 68
REMARK Flexibility Score: inf
ROOT
ATOM      1  C   UNL A   1      30.166  31.740  24.615  1.00  0.00     0.116 C 
ENDROOT
BRANCH   1   2
ATOM      2  N   UNL A   1      29.182  31.653  23.553  1.00  0.00    -0.352 N 
ATOM      3  C   UNL A   1      28.782  30.594  22.776  1.00  0.00     0.251 C 
ATOM      4  O   UNL A   1      27.848  30.770  21.995  1.00  0.00    -0.269 OA
ATOM      5  H   UNL A   1      28.723  32.500  23.354  1.00  0.00     0.163 HD
BRANCH   3   6
ATOM      6  C   UNL A   1      29.488  29.284  22.772  1.00  0.00     0.039 A 
ATOM      7  C   UNL A   1      31.154  26.999  22.990  1.00  0.00     0.038 A 
ATOM      8  C   UNL A   1      31.559  28.122  22.267  1.00  0.00     0.027 A 
ATOM      9  C   UNL A   1      29.834  26.987  23.468  1.00  0.00     0.027 A 
ATOM     10  C   UNL A   1      30.750  29.258  22.176  1.00  0.00     0.016 A 
ATOM     11  C   UNL A   1      28.997  28.105  23.329  1.00  0.00     0.016 A 
BRANCH   7  12
ATOM     12  N   UNL A   1      32.022  25.949  23.371  1.00  0.00    -0.359 N 
ATOM     13  H   UNL A   1      32.957  26.031  23.071  1.00  0.00     0.166 HD
BRANCH  12  14
ATOM     14  C   UNL A   1      31.716  24.802  24.124  1.00  0.00     0.016 C 
ATOM     15  C   UNL A   1      30.810  23.769  23.499  1.00  0.00     0.064 C 
ATOM     16  C   UNL A   1      32.240  24.664  25.366  1.00  0.00     0.074 C 
BRANCH  16  17
ATOM     17  C   UNL A   1      32.251  23.528  26.350  1.00  0.00     0.196 C 
ATOM     18  O   UNL A   1      31.724  23.687  27.449  1.00  0.00    -0.289 OA
BRANCH  17  19
ATOM     19  C   UNL A   1      33.049  22.319  26.065  1.00  0.00     0.130 A 
ATOM     20  C   UNL A   1      34.392  22.342  26.177  1.00  0.00     0.206 A 
ATOM     21  C   UNL A   1      32.395  21.107  25.526  1.00  0.00     0.204 A 
ATOM     22  N   UNL A   1      35.217  21.328  25.698  1.00  0.00    -0.315 N 
ATOM     23  C   UNL A   1      33.264  19.977  25.127  1.00  0.00     0.047 A 
ATOM     24  O   UNL A   1      31.179  21.047  25.366  1.00  0.00    -0.288 OA
ATOM     25  C   UNL A   1      36.664  21.518  25.539  1.00  0.00     0.153 C 
ATOM     26  C   UNL A   1      34.662  20.123  25.202  1.00  0.00     0.055 A 
ATOM     27  C   UNL A   1      32.670  18.804  24.635  1.00  0.00     0.014 A 
ATOM     28  C   UNL A   1      35.440  19.035  24.769  1.00  0.00     0.027 A 
ATOM     29  C   UNL A   1      33.468  17.746  24.210  1.00  0.00     0.001 A 
ATOM     30  C   UNL A   1      34.851  17.863  24.277  1.00  0.00     0.002 A 
BRANCH  20  31
ATOM     31  O   UNL A   1      35.053  23.417  26.745  1.00  0.00    -0.494 OA
ATOM     32  H   UNL A   1      34.735  23.795  27.543  1.00  0.00     0.295 HD
ENDBRANCH  20  31
ENDBRANCH  17  19
ENDBRANCH  16  17
ENDBRANCH  12  14
ENDBRANCH   7  12
ENDBRANCH   3   6
ENDBRANCH   1   2
BRANCH   1  33
ATOM     33  C   UNL A   1      30.647  30.399  25.161  1.00  0.00     0.023 C 
BRANCH  33  34
ATOM     34  C   UNL A   1      32.097  30.320  25.626  1.00  0.00     0.023 C 
BRANCH  34  35
ATOM     35  C   UNL A   1      32.360  30.686  27.081  1.00  0.00     0.116 C 
BRANCH  35  36
ATOM     36  N   UNL A   1      32.438  32.119  27.329  1.00  0.00    -0.352 N 
ATOM     37  C   UNL A   1      33.514  32.891  27.717  1.00  0.00     0.251 C 
ATOM     38  H   UNL A   1      31.595  32.612  27.201  1.00  0.00     0.163 HD
ATOM     39  O   UNL A   1      33.369  34.085  27.934  1.00  0.00    -0.269 OA
BRANCH  37  40
ATOM     40  C   UNL A   1      34.826  32.240  27.936  1.00  0.00     0.039 A 
ATOM     41  C   UNL A   1      34.901  30.875  28.212  1.00  0.00     0.014 A 
ATOM     42  C   UNL A   1      35.975  33.033  27.982  1.00  0.00     0.014 A 
ATOM     43  C   UNL A   1      36.061  30.361  28.779  1.00  0.00     0.010 A 
ATOM     44  C   UNL A   1      37.171  32.486  28.454  1.00  0.00     0.010 A 
ATOM     45  C   UNL A   1      37.200  31.170  28.941  1.00  0.00    -0.014 A 
BRANCH  45  46
ATOM     46  C   UNL A   1      38.377  30.641  29.684  1.00  0.00     0.031 A 
ATOM     47  C   UNL A   1      38.617  31.033  31.121  1.00  0.00     0.074 A 
ATOM     48  C   UNL A   1      39.185  29.740  29.092  1.00  0.00     0.049 A 
ATOM     49  N   UNL A   1      39.575  30.657  31.929  1.00  0.00    -0.248 NA
ATOM     50  C   UNL A   1      37.661  31.971  31.732  1.00  0.00     0.031 C 
ATOM     51  C   UNL A   1      39.032  29.261  27.719  1.00  0.00     0.029 A 
ATOM     52  N   UNL A   1      40.266  29.043  29.570  1.00  0.00    -0.354 N 
ATOM     53  C   UNL A   1      39.350  31.324  33.130  1.00  0.00     0.074 A 
ATOM     54  C   UNL A   1      38.186  32.157  32.935  1.00  0.00     0.031 C 
ATOM     55  C   UNL A   1      39.937  28.301  27.486  1.00  0.00     0.029 A 
ATOM     56  C   UNL A   1      40.789  28.150  28.663  1.00  0.00     0.049 A 
ATOM     57  H   UNL A   1      40.631  29.168  30.476  1.00  0.00     0.167 HD
ATOM     58  C   UNL A   1      40.041  31.237  34.292  1.00  0.00     0.034 A 
ATOM     59  C   UNL A   1      41.842  27.312  28.758  1.00  0.00     0.034 A 
ATOM     60  C   UNL A   1      41.183  30.380  34.484  1.00  0.00     0.049 A 
ATOM     61  C   UNL A   1      42.618  27.260  30.047  1.00  0.00     0.074 A 
ATOM     62  C   UNL A   1      41.950  30.220  35.625  1.00  0.00     0.029 A 
ATOM     63  N   UNL A   1      41.715  29.531  33.524  1.00  0.00    -0.354 N 
ATOM     64  N   UNL A   1      42.390  27.900  31.171  1.00  0.00    -0.248 NA
ATOM     65  C   UNL A   1      43.794  26.381  30.086  1.00  0.00     0.031 C 
ATOM     66  C   UNL A   1      42.971  29.312  35.342  1.00  0.00     0.029 A 
ATOM     67  C   UNL A   1      42.809  28.857  34.043  1.00  0.00     0.049 A 
ATOM     68  H   UNL A   1      41.366  29.422  32.610  1.00  0.00     0.167 HD
ATOM     69  C   UNL A   1      43.387  27.492  32.053  1.00  0.00     0.074 A 
ATOM     70  C   UNL A   1      44.202  26.530  31.340  1.00  0.00     0.031 C 
ATOM     71  C   UNL A   1      43.608  27.889  33.331  1.00  0.00     0.034 A 
BRANCH  58  72
ATOM     72  C   UNL A   1      39.589  32.072  35.466  1.00  0.00     0.023 A 
ATOM     73  C   UNL A   1      38.796  31.499  36.478  1.00  0.00     0.031 A 
ATOM     74  C   UNL A   1      39.844  33.454  35.523  1.00  0.00     0.131 A 
ATOM     75  C   UNL A   1      38.267  32.308  37.491  1.00  0.00     0.055 A 
ATOM     76  C   UNL A   1      39.342  34.250  36.554  1.00  0.00     0.041 A 
ATOM     77  F   UNL A   1      40.596  34.048  34.583  1.00  0.00    -0.206 F 
ATOM     78  C   UNL A   1      38.540  33.679  37.538  1.00  0.00     0.022 A 
BRANCH  75  79
ATOM     79  S   UNL A   1      37.155  31.630  38.754  1.00  0.00     0.124 S 
ATOM     80  O   UNL A   1      37.977  31.729  39.958  1.00  0.00    -0.237 OA
ATOM     81  O   UNL A   1      36.022  32.550  38.693  1.00  0.00    -0.237 OA
ATOM     82  O   UNL A   1      36.887  30.272  38.294  1.00  0.00    -0.744 OA
ENDBRANCH  75  79
ENDBRANCH  58  72
BRANCH  59  83
ATOM     83  C   UNL A   1      42.170  26.434  27.597  1.00  0.00     0.023 A 
ATOM     84  C   UNL A   1      41.615  25.145  27.489  1.00  0.00     0.031 A 
ATOM     85  C   UNL A   1      43.141  26.817  26.658  1.00  0.00     0.131 A 
ATOM     86  C   UNL A   1      42.102  24.255  26.522  1.00  0.00     0.055 A 
ATOM     87  C   UNL A   1      43.568  25.953  25.648  1.00  0.00     0.041 A 
ATOM     88  F   UNL A   1      43.706  28.032  26.727  1.00  0.00    -0.206 F 
ATOM     89  C   UNL A   1      43.064  24.656  25.591  1.00  0.00     0.022 A 
BRANCH  86  90
ATOM     90  S   UNL A   1      41.619  22.506  26.546  1.00  0.00     0.124 S 
ATOM     91  O   UNL A   1      42.076  22.083  27.866  1.00  0.00    -0.237 OA
ATOM     92  O   UNL A   1      40.171  22.595  26.377  1.00  0.00    -0.237 OA
ATOM     93  O   UNL A   1      42.340  21.934  25.414  1.00  0.00    -0.744 OA
ENDBRANCH  86  90
ENDBRANCH  59  83
BRANCH  71  94
ATOM     94  C   UNL A   1      44.779  27.297  34.076  1.00  0.00     0.023 A 
ATOM     95  C   UNL A   1      44.631  26.081  34.770  1.00  0.00     0.031 A 
ATOM     96  C   UNL A   1      45.980  28.011  34.229  1.00  0.00     0.131 A 
ATOM     97  C   UNL A   1      45.651  25.637  35.620  1.00  0.00     0.055 A 
ATOM     98  C   UNL A   1      47.010  27.543  35.044  1.00  0.00     0.041 A 
ATOM     99  F   UNL A   1      46.162  29.181  33.596  1.00  0.00    -0.206 F 
ATOM    100  C   UNL A   1      46.843  26.358  35.756  1.00  0.00     0.022 A 
BRANCH  97 101
ATOM    101  S   UNL A   1      45.437  24.156  36.645  1.00  0.00     0.124 S 
ATOM    102  O   UNL A   1      44.465  23.389  35.870  1.00  0.00    -0.237 OA
ATOM    103  O   UNL A   1      46.789  23.604  36.672  1.00  0.00    -0.237 OA
ATOM    104  O   UNL A   1      44.948  24.676  37.918  1.00  0.00    -0.744 OA
ENDBRANCH  97 101
ENDBRANCH  71  94
ENDBRANCH  45  46
ENDBRANCH  37  40
ENDBRANCH  35  36
ENDBRANCH  34  35
ENDBRANCH  33  34
ENDBRANCH   1  33
TORSDOF 19
ENDMDL
