MODEL 1
REMARK VINA RESULT:     -10.9      0.000      0.000
REMARK SMILES C=CC[N@@H+](CC(=O)NCCCCNC(=O)c1ccc(-c2c3nc(c(-c4cc(S(=O)(=O)[O-])ccc4F)c4ccc([nH]4)c(-c4cc(S(=O)(=O)[O-])ccc4F)c4nc(c(-c5cc(S(=O)(=O)[O-])ccc5F)c5ccc2[nH]5)C=C4)C=C3)cc1)C[C@H]1CCC[C@H](C)C1
REMARK SMILES IDX 10 1 9 2 8 3 6 4 7 5 5 7 4 8 3 10 2 11 1 12 79 13 80 14
REMARK SMILES IDX 81 15 86 16 82 17 84 18 83 19 85 20 11 21 12 22 13 23 14 24
REMARK SMILES IDX 15 26 16 27 17 28 78 29 18 30 77 31 19 32 20 33 21 34 71 35
REMARK SMILES IDX 22 36 76 37 70 38 72 39 23 40 75 41 69 42 68 43 24 45 56 46
REMARK SMILES IDX 36 47 55 48 37 49 40 50 54 51 73 52 38 53 39 54 53 56 74 57
REMARK SMILES IDX 41 58 25 59 26 60 34 61 27 62 33 63 35 64 32 65 28 66 29 67
REMARK SMILES IDX 30 68 31 69 57 70 58 71 66 72 59 73 65 74 67 75 64 76 60 77
REMARK SMILES IDX 61 78 62 79 63 80 42 81 43 82 51 83 44 84 50 85 52 86 49 87
REMARK SMILES IDX 45 88 46 89 47 90 48 91
REMARK H PARENT 8 6 4 9 13 25 72 44 40 55
REMARK Flexibility Score: inf
ROOT
ATOM      1  C   UNL A   1      34.532  23.154  24.193  1.00  0.00     0.023 C 
ENDROOT
BRANCH   1   2
ATOM      2  C   UNL A   1      33.840  23.465  22.857  1.00  0.00     0.116 C 
BRANCH   2   3
ATOM      3  N   UNL A   1      34.102  24.831  22.442  1.00  0.00    -0.351 N 
ATOM      4  C   UNL A   1      33.285  25.806  21.947  1.00  0.00     0.275 C 
ATOM      5  O   UNL A   1      33.838  26.857  21.596  1.00  0.00    -0.269 OA
ATOM      6  H   UNL A   1      35.042  25.105  22.534  1.00  0.00     0.163 HD
BRANCH   4   7
ATOM      7  C   UNL A   1      31.748  25.671  21.841  1.00  0.00     0.363 C 
BRANCH   7   8
ATOM      8  N   UNL A   1      30.923  26.291  22.940  1.00  0.00    -0.324 N 
ATOM      9  H   UNL A   1      29.966  25.937  22.965  1.00  0.00     0.348 HD
BRANCH   8  10
ATOM     10  C   UNL A   1      30.783  27.719  22.672  1.00  0.00     0.290 C 
BRANCH  10  11
ATOM     11  C   UNL A   1      29.456  28.403  22.778  1.00  0.00     0.025 C 
ATOM     12  C   UNL A   1      29.324  29.652  23.257  1.00  0.00     0.010 C 
ENDBRANCH  10  11
ENDBRANCH   8  10
BRANCH   8  13
ATOM     13  C   UNL A   1      31.475  25.902  24.263  1.00  0.00     0.266 C 
BRANCH  13  14
ATOM     14  C   UNL A   1      31.914  27.012  25.236  1.00  0.00     0.044 C 
ATOM     15  C   UNL A   1      31.209  26.980  26.595  1.00  0.00     0.009 C 
ATOM     16  C   UNL A   1      33.434  26.988  25.485  1.00  0.00     0.012 C 
ATOM     17  C   UNL A   1      31.553  28.255  27.366  1.00  0.00     0.001 C 
ATOM     18  C   UNL A   1      33.893  28.219  26.291  1.00  0.00    -0.014 C 
ATOM     19  C   UNL A   1      33.061  28.399  27.574  1.00  0.00     0.003 C 
ATOM     20  C   UNL A   1      33.883  29.486  25.427  1.00  0.00     0.007 C 
ENDBRANCH  13  14
ENDBRANCH   8  13
ENDBRANCH   7   8
ENDBRANCH   4   7
ENDBRANCH   2   3
ENDBRANCH   1   2
BRANCH   1  21
ATOM     21  C   UNL A   1      35.902  22.509  24.127  1.00  0.00     0.023 C 
BRANCH  21  22
ATOM     22  C   UNL A   1      36.530  22.210  25.475  1.00  0.00     0.116 C 
BRANCH  22  23
ATOM     23  N   UNL A   1      37.574  21.193  25.446  1.00  0.00    -0.352 N 
ATOM     24  C   UNL A   1      38.872  21.280  25.898  1.00  0.00     0.251 C 
ATOM     25  H   UNL A   1      37.316  20.328  25.053  1.00  0.00     0.163 HD
ATOM     26  O   UNL A   1      39.642  20.337  25.735  1.00  0.00    -0.269 OA
BRANCH  24  27
ATOM     27  C   UNL A   1      39.339  22.539  26.519  1.00  0.00     0.039 A 
ATOM     28  C   UNL A   1      40.365  22.489  27.464  1.00  0.00     0.014 A 
ATOM     29  C   UNL A   1      38.827  23.769  26.103  1.00  0.00     0.014 A 
ATOM     30  C   UNL A   1      40.934  23.679  27.920  1.00  0.00     0.010 A 
ATOM     31  C   UNL A   1      39.480  24.941  26.456  1.00  0.00     0.010 A 
ATOM     32  C   UNL A   1      40.532  24.913  27.380  1.00  0.00    -0.014 A 
BRANCH  32  33
ATOM     33  C   UNL A   1      41.192  26.180  27.787  1.00  0.00     0.031 A 
ATOM     34  C   UNL A   1      42.596  26.479  27.334  1.00  0.00     0.074 A 
ATOM     35  C   UNL A   1      40.543  27.034  28.605  1.00  0.00     0.049 A 
ATOM     36  N   UNL A   1      43.338  27.530  27.573  1.00  0.00    -0.248 NA
ATOM     37  C   UNL A   1      43.275  25.438  26.545  1.00  0.00     0.031 C 
ATOM     38  C   UNL A   1      39.217  26.805  29.188  1.00  0.00     0.029 A 
ATOM     39  N   UNL A   1      40.903  28.267  29.084  1.00  0.00    -0.354 N 
ATOM     40  C   UNL A   1      44.569  27.268  26.980  1.00  0.00     0.074 A 
ATOM     41  C   UNL A   1      44.502  25.925  26.450  1.00  0.00     0.031 C 
ATOM     42  C   UNL A   1      38.856  27.885  29.899  1.00  0.00     0.029 A 
ATOM     43  C   UNL A   1      39.932  28.868  29.852  1.00  0.00     0.049 A 
ATOM     44  H   UNL A   1      41.775  28.684  28.896  1.00  0.00     0.167 HD
ATOM     45  C   UNL A   1      45.642  28.086  26.853  1.00  0.00     0.034 A 
ATOM     46  C   UNL A   1      39.908  30.081  30.437  1.00  0.00     0.034 A 
ATOM     47  C   UNL A   1      45.677  29.433  27.369  1.00  0.00     0.049 A 
ATOM     48  C   UNL A   1      41.089  30.996  30.239  1.00  0.00     0.074 A 
ATOM     49  C   UNL A   1      46.678  30.379  27.249  1.00  0.00     0.029 A 
ATOM     50  N   UNL A   1      44.658  30.025  28.106  1.00  0.00    -0.354 N 
ATOM     51  N   UNL A   1      42.214  30.767  29.601  1.00  0.00    -0.248 NA
ATOM     52  C   UNL A   1      40.983  32.341  30.813  1.00  0.00     0.031 C 
ATOM     53  C   UNL A   1      46.291  31.520  27.962  1.00  0.00     0.029 A 
ATOM     54  C   UNL A   1      45.016  31.316  28.464  1.00  0.00     0.049 A 
ATOM     55  H   UNL A   1      43.806  29.591  28.338  1.00  0.00     0.167 HD
ATOM     56  C   UNL A   1      42.940  31.953  29.676  1.00  0.00     0.074 A 
ATOM     57  C   UNL A   1      42.109  32.898  30.396  1.00  0.00     0.031 C 
ATOM     58  C   UNL A   1      44.179  32.237  29.198  1.00  0.00     0.034 A 
BRANCH  45  59
ATOM     59  C   UNL A   1      46.857  27.531  26.145  1.00  0.00     0.023 A 
ATOM     60  C   UNL A   1      47.195  27.926  24.837  1.00  0.00     0.031 A 
ATOM     61  C   UNL A   1      47.663  26.559  26.762  1.00  0.00     0.131 A 
ATOM     62  C   UNL A   1      48.245  27.289  24.158  1.00  0.00     0.055 A 
ATOM     63  C   UNL A   1      48.764  25.993  26.114  1.00  0.00     0.041 A 
ATOM     64  F   UNL A   1      47.382  26.123  28.001  1.00  0.00    -0.206 F 
ATOM     65  C   UNL A   1      49.050  26.345  24.798  1.00  0.00     0.022 A 
BRANCH  62  66
ATOM     66  S   UNL A   1      48.440  27.596  22.381  1.00  0.00     0.124 S 
ATOM     67  O   UNL A   1      49.647  28.419  22.356  1.00  0.00    -0.237 OA
ATOM     68  O   UNL A   1      48.573  26.249  21.840  1.00  0.00    -0.237 OA
ATOM     69  O   UNL A   1      47.211  28.297  22.017  1.00  0.00    -0.744 OA
ENDBRANCH  62  66
ENDBRANCH  45  59
BRANCH  46  70
ATOM     70  C   UNL A   1      38.723  30.515  31.233  1.00  0.00     0.023 A 
ATOM     71  C   UNL A   1      37.637  31.164  30.623  1.00  0.00     0.031 A 
ATOM     72  C   UNL A   1      38.673  30.314  32.623  1.00  0.00     0.131 A 
ATOM     73  C   UNL A   1      36.570  31.632  31.405  1.00  0.00     0.055 A 
ATOM     74  C   UNL A   1      37.586  30.736  33.391  1.00  0.00     0.041 A 
ATOM     75  F   UNL A   1      39.679  29.689  33.255  1.00  0.00    -0.206 F 
ATOM     76  C   UNL A   1      36.531  31.412  32.784  1.00  0.00     0.022 A 
BRANCH  73  77
ATOM     77  S   UNL A   1      35.262  32.602  30.604  1.00  0.00     0.124 S 
ATOM     78  O   UNL A   1      35.931  33.879  30.386  1.00  0.00    -0.237 OA
ATOM     79  O   UNL A   1      34.987  31.810  29.410  1.00  0.00    -0.237 OA
ATOM     80  O   UNL A   1      34.193  32.618  31.599  1.00  0.00    -0.744 OA
ENDBRANCH  73  77
ENDBRANCH  46  70
BRANCH  58  81
ATOM     81  C   UNL A   1      44.681  33.644  29.413  1.00  0.00     0.023 A 
ATOM     82  C   UNL A   1      44.354  34.687  28.528  1.00  0.00     0.031 A 
ATOM     83  C   UNL A   1      45.533  33.936  30.493  1.00  0.00     0.131 A 
ATOM     84  C   UNL A   1      44.941  35.950  28.690  1.00  0.00     0.055 A 
ATOM     85  C   UNL A   1      46.056  35.214  30.690  1.00  0.00     0.041 A 
ATOM     86  F   UNL A   1      45.877  32.979  31.370  1.00  0.00    -0.206 F 
ATOM     87  C   UNL A   1      45.777  36.224  29.775  1.00  0.00     0.022 A 
BRANCH  84  88
ATOM     88  S   UNL A   1      44.704  37.189  27.387  1.00  0.00     0.124 S 
ATOM     89  O   UNL A   1      45.984  37.143  26.688  1.00  0.00    -0.237 OA
ATOM     90  O   UNL A   1      43.559  36.655  26.656  1.00  0.00    -0.237 OA
ATOM     91  O   UNL A   1      44.446  38.422  28.130  1.00  0.00    -0.744 OA
ENDBRANCH  84  88
ENDBRANCH  58  81
ENDBRANCH  32  33
ENDBRANCH  24  27
ENDBRANCH  22  23
ENDBRANCH  21  22
ENDBRANCH   1  21
TORSDOF 19
ENDMDL
MODEL 2
REMARK VINA RESULT:     -10.9      1.481      7.893
REMARK SMILES C=CC[N@@H+](CC(=O)NCCCCNC(=O)c1ccc(-c2c3nc(c(-c4cc(S(=O)(=O)[O-])ccc4F)c4ccc([nH]4)c(-c4cc(S(=O)(=O)[O-])ccc4F)c4nc(c(-c5cc(S(=O)(=O)[O-])ccc5F)c5ccc2[nH]5)C=C4)C=C3)cc1)C[C@H]1CCC[C@H](C)C1
REMARK SMILES IDX 10 1 9 2 8 3 6 4 7 5 5 7 4 8 3 10 2 11 1 12 79 13 80 14
REMARK SMILES IDX 81 15 86 16 82 17 84 18 83 19 85 20 11 21 12 22 13 23 14 24
REMARK SMILES IDX 15 26 16 27 17 28 78 29 18 30 77 31 19 32 20 33 21 34 71 35
REMARK SMILES IDX 22 36 76 37 70 38 72 39 23 40 75 41 69 42 68 43 24 45 56 46
REMARK SMILES IDX 36 47 55 48 37 49 40 50 54 51 73 52 38 53 39 54 53 56 74 57
REMARK SMILES IDX 41 58 25 59 26 60 34 61 27 62 33 63 35 64 32 65 28 66 29 67
REMARK SMILES IDX 30 68 31 69 57 70 58 71 66 72 59 73 65 74 67 75 64 76 60 77
REMARK SMILES IDX 61 78 62 79 63 80 42 81 43 82 51 83 44 84 50 85 52 86 49 87
REMARK SMILES IDX 45 88 46 89 47 90 48 91
REMARK H PARENT 8 6 4 9 13 25 72 44 40 55
REMARK Flexibility Score: inf
ROOT
ATOM      1  C   UNL A   1      35.688  23.568  23.962  1.00  0.00     0.023 C 
ENDROOT
BRANCH   1   2
ATOM      2  C   UNL A   1      34.442  24.054  23.205  1.00  0.00     0.116 C 
BRANCH   2   3
ATOM      3  N   UNL A   1      33.552  22.947  22.905  1.00  0.00    -0.351 N 
ATOM      4  C   UNL A   1      32.251  22.707  23.240  1.00  0.00     0.275 C 
ATOM      5  O   UNL A   1      31.792  21.608  22.902  1.00  0.00    -0.269 OA
ATOM      6  H   UNL A   1      33.963  22.239  22.361  1.00  0.00     0.163 HD
BRANCH   4   7
ATOM      7  C   UNL A   1      31.346  23.729  23.968  1.00  0.00     0.363 C 
BRANCH   7   8
ATOM      8  N   UNL A   1      31.728  24.111  25.375  1.00  0.00    -0.324 N 
ATOM      9  H   UNL A   1      32.702  24.404  25.456  1.00  0.00     0.348 HD
BRANCH   8  10
ATOM     10  C   UNL A   1      31.625  22.930  26.227  1.00  0.00     0.290 C 
BRANCH  10  11
ATOM     11  C   UNL A   1      32.845  22.194  26.686  1.00  0.00     0.025 C 
ATOM     12  C   UNL A   1      33.381  22.374  27.905  1.00  0.00     0.010 C 
ENDBRANCH  10  11
ENDBRANCH   8  10
BRANCH   8  13
ATOM     13  C   UNL A   1      30.964  25.314  25.794  1.00  0.00     0.266 C 
BRANCH  13  14
ATOM     14  C   UNL A   1      31.721  26.640  25.986  1.00  0.00     0.044 C 
ATOM     15  C   UNL A   1      31.293  27.444  27.217  1.00  0.00     0.009 C 
ATOM     16  C   UNL A   1      33.245  26.426  26.062  1.00  0.00     0.012 C 
ATOM     17  C   UNL A   1      31.939  28.828  27.162  1.00  0.00     0.001 C 
ATOM     18  C   UNL A   1      34.005  27.766  26.048  1.00  0.00    -0.014 C 
ATOM     19  C   UNL A   1      33.465  28.736  27.115  1.00  0.00     0.003 C 
ATOM     20  C   UNL A   1      33.993  28.399  24.650  1.00  0.00     0.007 C 
ENDBRANCH  13  14
ENDBRANCH   8  13
ENDBRANCH   7   8
ENDBRANCH   4   7
ENDBRANCH   2   3
ENDBRANCH   1   2
BRANCH   1  21
ATOM     21  C   UNL A   1      35.739  22.102  24.340  1.00  0.00     0.023 C 
BRANCH  21  22
ATOM     22  C   UNL A   1      36.419  21.810  25.664  1.00  0.00     0.116 C 
BRANCH  22  23
ATOM     23  N   UNL A   1      37.460  20.792  25.599  1.00  0.00    -0.352 N 
ATOM     24  C   UNL A   1      38.795  20.905  25.920  1.00  0.00     0.251 C 
ATOM     25  H   UNL A   1      37.170  19.904  25.287  1.00  0.00     0.163 HD
ATOM     26  O   UNL A   1      39.550  19.953  25.744  1.00  0.00    -0.269 OA
BRANCH  24  27
ATOM     27  C   UNL A   1      39.313  22.199  26.415  1.00  0.00     0.039 A 
ATOM     28  C   UNL A   1      40.406  22.205  27.284  1.00  0.00     0.014 A 
ATOM     29  C   UNL A   1      38.777  23.402  25.953  1.00  0.00     0.014 A 
ATOM     30  C   UNL A   1      41.012  23.418  27.612  1.00  0.00     0.010 A 
ATOM     31  C   UNL A   1      39.461  24.590  26.174  1.00  0.00     0.010 A 
ATOM     32  C   UNL A   1      40.577  24.615  27.018  1.00  0.00    -0.014 A 
BRANCH  32  33
ATOM     33  C   UNL A   1      41.272  25.901  27.285  1.00  0.00     0.031 A 
ATOM     34  C   UNL A   1      40.589  26.976  28.089  1.00  0.00     0.074 A 
ATOM     35  C   UNL A   1      42.495  26.116  26.759  1.00  0.00     0.049 A 
ATOM     36  N   UNL A   1      41.031  28.157  28.437  1.00  0.00    -0.248 NA
ATOM     37  C   UNL A   1      39.209  26.705  28.521  1.00  0.00     0.031 C 
ATOM     38  C   UNL A   1      43.215  25.187  25.881  1.00  0.00     0.029 A 
ATOM     39  N   UNL A   1      43.354  27.177  26.888  1.00  0.00    -0.354 N 
ATOM     40  C   UNL A   1      39.980  28.771  29.111  1.00  0.00     0.074 A 
ATOM     41  C   UNL A   1      38.853  27.868  29.043  1.00  0.00     0.031 C 
ATOM     42  C   UNL A   1      44.424  25.697  25.597  1.00  0.00     0.029 A 
ATOM     43  C   UNL A   1      44.556  26.999  26.242  1.00  0.00     0.049 A 
ATOM     44  H   UNL A   1      43.131  27.991  27.394  1.00  0.00     0.167 HD
ATOM     45  C   UNL A   1      39.968  29.960  29.761  1.00  0.00     0.034 A 
ATOM     46  C   UNL A   1      45.646  27.788  26.191  1.00  0.00     0.034 A 
ATOM     47  C   UNL A   1      41.113  30.834  29.838  1.00  0.00     0.049 A 
ATOM     48  C   UNL A   1      45.631  29.081  26.966  1.00  0.00     0.074 A 
ATOM     49  C   UNL A   1      41.244  32.031  30.518  1.00  0.00     0.029 A 
ATOM     50  N   UNL A   1      42.329  30.601  29.207  1.00  0.00    -0.354 N 
ATOM     51  N   UNL A   1      44.658  29.611  27.672  1.00  0.00    -0.248 NA
ATOM     52  C   UNL A   1      46.870  29.866  26.960  1.00  0.00     0.031 C 
ATOM     53  C   UNL A   1      42.516  32.549  30.251  1.00  0.00     0.029 A 
ATOM     54  C   UNL A   1      43.208  31.641  29.467  1.00  0.00     0.049 A 
ATOM     55  H   UNL A   1      42.537  29.811  28.657  1.00  0.00     0.167 HD
ATOM     56  C   UNL A   1      45.179  30.781  28.217  1.00  0.00     0.074 A 
ATOM     57  C   UNL A   1      46.559  30.859  27.779  1.00  0.00     0.031 C 
ATOM     58  C   UNL A   1      44.576  31.708  29.005  1.00  0.00     0.034 A 
BRANCH  45  59
ATOM     59  C   UNL A   1      38.672  30.376  30.420  1.00  0.00     0.023 A 
ATOM     60  C   UNL A   1      37.662  31.049  29.706  1.00  0.00     0.031 A 
ATOM     61  C   UNL A   1      38.458  30.142  31.789  1.00  0.00     0.131 A 
ATOM     62  C   UNL A   1      36.535  31.544  30.379  1.00  0.00     0.055 A 
ATOM     63  C   UNL A   1      37.290  30.558  32.435  1.00  0.00     0.041 A 
ATOM     64  F   UNL A   1      39.391  29.525  32.532  1.00  0.00    -0.206 F 
ATOM     65  C   UNL A   1      36.328  31.279  31.734  1.00  0.00     0.022 A 
BRANCH  62  66
ATOM     66  S   UNL A   1      35.425  32.674  29.495  1.00  0.00     0.124 S 
ATOM     67  O   UNL A   1      34.266  32.703  30.383  1.00  0.00    -0.237 OA
ATOM     68  O   UNL A   1      36.210  33.901  29.429  1.00  0.00    -0.237 OA
ATOM     69  O   UNL A   1      35.203  32.005  28.215  1.00  0.00    -0.744 OA
ENDBRANCH  62  66
ENDBRANCH  45  59
BRANCH  46  70
ATOM     70  C   UNL A   1      46.849  27.371  25.413  1.00  0.00     0.023 A 
ATOM     71  C   UNL A   1      47.055  27.820  24.098  1.00  0.00     0.031 A 
ATOM     72  C   UNL A   1      47.797  26.492  25.964  1.00  0.00     0.131 A 
ATOM     73  C   UNL A   1      48.153  27.352  23.361  1.00  0.00     0.055 A 
ATOM     74  C   UNL A   1      48.916  26.068  25.245  1.00  0.00     0.041 A 
ATOM     75  F   UNL A   1      47.655  26.042  27.221  1.00  0.00    -0.206 F 
ATOM     76  C   UNL A   1      49.092  26.488  23.930  1.00  0.00     0.022 A 
BRANCH  73  77
ATOM     77  S   UNL A   1      48.299  27.829  21.617  1.00  0.00     0.124 S 
ATOM     78  O   UNL A   1      48.625  26.556  20.986  1.00  0.00    -0.237 OA
ATOM     79  O   UNL A   1      46.969  28.362  21.338  1.00  0.00    -0.237 OA
ATOM     80  O   UNL A   1      49.374  28.818  21.623  1.00  0.00    -0.744 OA
ENDBRANCH  73  77
ENDBRANCH  46  70
BRANCH  58  81
ATOM     81  C   UNL A   1      45.431  32.862  29.467  1.00  0.00     0.023 A 
ATOM     82  C   UNL A   1      45.510  34.061  28.736  1.00  0.00     0.031 A 
ATOM     83  C   UNL A   1      46.212  32.747  30.632  1.00  0.00     0.131 A 
ATOM     84  C   UNL A   1      46.411  35.061  29.129  1.00  0.00     0.055 A 
ATOM     85  C   UNL A   1      47.053  33.775  31.058  1.00  0.00     0.041 A 
ATOM     86  F   UNL A   1      46.176  31.625  31.370  1.00  0.00    -0.206 F 
ATOM     87  C   UNL A   1      47.170  34.932  30.294  1.00  0.00     0.022 A 
BRANCH  84  88
ATOM     88  S   UNL A   1      46.675  36.473  28.021  1.00  0.00     0.124 S 
ATOM     89  O   UNL A   1      45.673  37.422  28.495  1.00  0.00    -0.237 OA
ATOM     90  O   UNL A   1      48.065  36.825  28.293  1.00  0.00    -0.237 OA
ATOM     91  O   UNL A   1      46.423  35.916  26.692  1.00  0.00    -0.744 OA
ENDBRANCH  84  88
ENDBRANCH  58  81
ENDBRANCH  32  33
ENDBRANCH  24  27
ENDBRANCH  22  23
ENDBRANCH  21  22
ENDBRANCH   1  21
TORSDOF 19
ENDMDL
MODEL 3
REMARK VINA RESULT:     -10.7      1.528      2.657
REMARK SMILES C=CC[N@@H+](CC(=O)NCCCCNC(=O)c1ccc(-c2c3nc(c(-c4cc(S(=O)(=O)[O-])ccc4F)c4ccc([nH]4)c(-c4cc(S(=O)(=O)[O-])ccc4F)c4nc(c(-c5cc(S(=O)(=O)[O-])ccc5F)c5ccc2[nH]5)C=C4)C=C3)cc1)C[C@H]1CCC[C@H](C)C1
REMARK SMILES IDX 10 1 9 2 8 3 6 4 7 5 5 7 4 8 3 10 2 11 1 12 79 13 80 14
REMARK SMILES IDX 81 15 86 16 82 17 84 18 83 19 85 20 11 21 12 22 13 23 14 24
REMARK SMILES IDX 15 26 16 27 17 28 78 29 18 30 77 31 19 32 20 33 21 34 71 35
REMARK SMILES IDX 22 36 76 37 70 38 72 39 23 40 75 41 69 42 68 43 24 45 56 46
REMARK SMILES IDX 36 47 55 48 37 49 40 50 54 51 73 52 38 53 39 54 53 56 74 57
REMARK SMILES IDX 41 58 25 59 26 60 34 61 27 62 33 63 35 64 32 65 28 66 29 67
REMARK SMILES IDX 30 68 31 69 57 70 58 71 66 72 59 73 65 74 67 75 64 76 60 77
REMARK SMILES IDX 61 78 62 79 63 80 42 81 43 82 51 83 44 84 50 85 52 86 49 87
REMARK SMILES IDX 45 88 46 89 47 90 48 91
REMARK H PARENT 8 6 4 9 13 25 72 44 40 55
REMARK Flexibility Score: inf
ROOT
ATOM      1  C   UNL A   1      34.530  22.175  24.150  1.00  0.00     0.023 C 
ENDROOT
BRANCH   1   2
ATOM      2  C   UNL A   1      33.383  23.178  23.948  1.00  0.00     0.116 C 
BRANCH   2   3
ATOM      3  N   UNL A   1      33.672  24.084  22.852  1.00  0.00    -0.351 N 
ATOM      4  C   UNL A   1      33.014  25.182  22.379  1.00  0.00     0.275 C 
ATOM      5  O   UNL A   1      33.474  25.697  21.352  1.00  0.00    -0.269 OA
ATOM      6  H   UNL A   1      34.494  23.866  22.358  1.00  0.00     0.163 HD
BRANCH   4   7
ATOM      7  C   UNL A   1      31.779  25.809  23.069  1.00  0.00     0.363 C 
BRANCH   7   8
ATOM      8  N   UNL A   1      31.819  27.290  23.345  1.00  0.00    -0.324 N 
ATOM      9  H   UNL A   1      31.916  27.849  22.497  1.00  0.00     0.348 HD
BRANCH   8  10
ATOM     10  C   UNL A   1      33.014  27.590  24.126  1.00  0.00     0.290 C 
BRANCH  10  11
ATOM     11  C   UNL A   1      32.923  27.985  25.567  1.00  0.00     0.025 C 
ATOM     12  C   UNL A   1      33.974  27.921  26.401  1.00  0.00     0.010 C 
ENDBRANCH  10  11
ENDBRANCH   8  10
BRANCH   8  13
ATOM     13  C   UNL A   1      30.516  27.731  23.907  1.00  0.00     0.266 C 
BRANCH  13  14
ATOM     14  C   UNL A   1      29.794  28.922  23.254  1.00  0.00     0.044 C 
ATOM     15  C   UNL A   1      30.331  29.312  21.874  1.00  0.00     0.009 C 
ATOM     16  C   UNL A   1      28.278  28.674  23.123  1.00  0.00     0.012 C 
ATOM     17  C   UNL A   1      29.700  30.637  21.446  1.00  0.00     0.001 C 
ATOM     18  C   UNL A   1      27.536  29.943  22.661  1.00  0.00    -0.014 C 
ATOM     19  C   UNL A   1      28.174  30.543  21.394  1.00  0.00     0.003 C 
ATOM     20  C   UNL A   1      27.442  30.976  23.790  1.00  0.00     0.007 C 
ENDBRANCH  13  14
ENDBRANCH   8  13
ENDBRANCH   7   8
ENDBRANCH   4   7
ENDBRANCH   2   3
ENDBRANCH   1   2
BRANCH   1  21
ATOM     21  C   UNL A   1      35.910  22.747  24.409  1.00  0.00     0.023 C 
BRANCH  21  22
ATOM     22  C   UNL A   1      36.533  22.331  25.728  1.00  0.00     0.116 C 
BRANCH  22  23
ATOM     23  N   UNL A   1      37.606  21.352  25.609  1.00  0.00    -0.352 N 
ATOM     24  C   UNL A   1      38.924  21.471  25.993  1.00  0.00     0.251 C 
ATOM     25  H   UNL A   1      37.356  20.491  25.202  1.00  0.00     0.163 HD
ATOM     26  O   UNL A   1      39.714  20.560  25.759  1.00  0.00    -0.269 OA
BRANCH  24  27
ATOM     27  C   UNL A   1      39.382  22.725  26.629  1.00  0.00     0.039 A 
ATOM     28  C   UNL A   1      40.424  22.673  27.557  1.00  0.00     0.014 A 
ATOM     29  C   UNL A   1      38.845  23.954  26.244  1.00  0.00     0.014 A 
ATOM     30  C   UNL A   1      40.983  23.864  28.025  1.00  0.00     0.010 A 
ATOM     31  C   UNL A   1      39.487  25.129  26.608  1.00  0.00     0.010 A 
ATOM     32  C   UNL A   1      40.554  25.101  27.514  1.00  0.00    -0.014 A 
BRANCH  32  33
ATOM     33  C   UNL A   1      41.202  26.370  27.933  1.00  0.00     0.031 A 
ATOM     34  C   UNL A   1      42.618  26.668  27.517  1.00  0.00     0.074 A 
ATOM     35  C   UNL A   1      40.530  27.227  28.729  1.00  0.00     0.049 A 
ATOM     36  N   UNL A   1      43.352  27.721  27.771  1.00  0.00    -0.248 NA
ATOM     37  C   UNL A   1      43.318  25.625  26.752  1.00  0.00     0.031 C 
ATOM     38  C   UNL A   1      39.189  27.000  29.277  1.00  0.00     0.029 A 
ATOM     39  N   UNL A   1      40.876  28.463  29.213  1.00  0.00    -0.354 N 
ATOM     40  C   UNL A   1      44.598  27.458  27.213  1.00  0.00     0.074 A 
ATOM     41  C   UNL A   1      44.547  26.112  26.688  1.00  0.00     0.031 C 
ATOM     42  C   UNL A   1      38.808  28.082  29.974  1.00  0.00     0.029 A 
ATOM     43  C   UNL A   1      39.884  29.066  29.952  1.00  0.00     0.049 A 
ATOM     44  H   UNL A   1      41.752  28.879  29.047  1.00  0.00     0.167 HD
ATOM     45  C   UNL A   1      45.674  28.276  27.112  1.00  0.00     0.034 A 
ATOM     46  C   UNL A   1      39.843  30.282  30.530  1.00  0.00     0.034 A 
ATOM     47  C   UNL A   1      45.694  29.625  27.622  1.00  0.00     0.049 A 
ATOM     48  C   UNL A   1      41.029  31.197  30.360  1.00  0.00     0.074 A 
ATOM     49  C   UNL A   1      46.697  30.572  27.525  1.00  0.00     0.029 A 
ATOM     50  N   UNL A   1      44.655  30.220  28.329  1.00  0.00    -0.354 N 
ATOM     51  N   UNL A   1      42.171  30.966  29.754  1.00  0.00    -0.248 NA
ATOM     52  C   UNL A   1      40.906  32.544  30.925  1.00  0.00     0.031 C 
ATOM     53  C   UNL A   1      46.290  31.715  28.223  1.00  0.00     0.029 A 
ATOM     54  C   UNL A   1      45.002  31.512  28.691  1.00  0.00     0.049 A 
ATOM     55  H   UNL A   1      43.797  29.786  28.540  1.00  0.00     0.167 HD
ATOM     56  C   UNL A   1      42.894  32.153  29.843  1.00  0.00     0.074 A 
ATOM     57  C   UNL A   1      42.043  33.100  30.536  1.00  0.00     0.031 C 
ATOM     58  C   UNL A   1      44.145  32.436  29.397  1.00  0.00     0.034 A 
BRANCH  45  59
ATOM     59  C   UNL A   1      46.908  27.719  26.439  1.00  0.00     0.023 A 
ATOM     60  C   UNL A   1      47.215  28.013  25.097  1.00  0.00     0.031 A 
ATOM     61  C   UNL A   1      47.766  26.845  27.129  1.00  0.00     0.131 A 
ATOM     62  C   UNL A   1      48.289  27.369  24.463  1.00  0.00     0.055 A 
ATOM     63  C   UNL A   1      48.888  26.277  26.518  1.00  0.00     0.041 A 
ATOM     64  F   UNL A   1      47.517  26.507  28.405  1.00  0.00    -0.206 F 
ATOM     65  C   UNL A   1      49.144  26.524  25.173  1.00  0.00     0.022 A 
BRANCH  62  66
ATOM     66  S   UNL A   1      48.453  27.526  22.664  1.00  0.00     0.124 S 
ATOM     67  O   UNL A   1      47.242  28.268  22.322  1.00  0.00    -0.237 OA
ATOM     68  O   UNL A   1      49.709  28.253  22.523  1.00  0.00    -0.237 OA
ATOM     69  O   UNL A   1      48.477  26.141  22.199  1.00  0.00    -0.744 OA
ENDBRANCH  62  66
ENDBRANCH  45  59
BRANCH  46  70
ATOM     70  C   UNL A   1      38.637  30.718  31.291  1.00  0.00     0.023 A 
ATOM     71  C   UNL A   1      37.558  31.345  30.646  1.00  0.00     0.031 A 
ATOM     72  C   UNL A   1      38.558  30.542  32.684  1.00  0.00     0.131 A 
ATOM     73  C   UNL A   1      36.470  31.816  31.396  1.00  0.00     0.055 A 
ATOM     74  C   UNL A   1      37.450  30.967  33.420  1.00  0.00     0.041 A 
ATOM     75  F   UNL A   1      39.555  29.938  33.349  1.00  0.00    -0.206 F 
ATOM     76  C   UNL A   1      36.403  31.621  32.777  1.00  0.00     0.022 A 
BRANCH  73  77
ATOM     77  S   UNL A   1      35.171  32.759  30.549  1.00  0.00     0.124 S 
ATOM     78  O   UNL A   1      34.850  31.883  29.428  1.00  0.00    -0.237 OA
ATOM     79  O   UNL A   1      34.153  32.871  31.589  1.00  0.00    -0.237 OA
ATOM     80  O   UNL A   1      35.836  34.011  30.195  1.00  0.00    -0.744 OA
ENDBRANCH  73  77
ENDBRANCH  46  70
BRANCH  58  81
ATOM     81  C   UNL A   1      44.640  33.844  29.620  1.00  0.00     0.023 A 
ATOM     82  C   UNL A   1      45.340  34.204  30.785  1.00  0.00     0.031 A 
ATOM     83  C   UNL A   1      44.370  34.850  28.674  1.00  0.00     0.131 A 
ATOM     84  C   UNL A   1      45.672  35.547  31.013  1.00  0.00     0.055 A 
ATOM     85  C   UNL A   1      44.767  36.171  28.874  1.00  0.00     0.041 A 
ATOM     86  F   UNL A   1      43.705  34.563  27.543  1.00  0.00    -0.206 F 
ATOM     87  C   UNL A   1      45.405  36.530  30.058  1.00  0.00     0.022 A 
BRANCH  84  88
ATOM     88  S   UNL A   1      46.337  36.011  32.636  1.00  0.00     0.124 S 
ATOM     89  O   UNL A   1      47.610  35.299  32.657  1.00  0.00    -0.237 OA
ATOM     90  O   UNL A   1      46.421  37.464  32.533  1.00  0.00    -0.237 OA
ATOM     91  O   UNL A   1      45.331  35.512  33.573  1.00  0.00    -0.744 OA
ENDBRANCH  84  88
ENDBRANCH  58  81
ENDBRANCH  32  33
ENDBRANCH  24  27
ENDBRANCH  22  23
ENDBRANCH  21  22
ENDBRANCH   1  21
TORSDOF 19
ENDMDL
