MODEL 1
REMARK VINA RESULT:     -11.8      0.000      0.000
REMARK SMILES CC1(CNS(=O)(=O)Cc2ccc(C(=O)NCCCCNC(=O)c3ccc(-c4c5nc(c(-c6cc(S(=O)(=O)[O-])ccc6F)c6ccc([nH]6)c(-c6cc(S(=O)(=O)[O-])ccc6F)c6nc(c(-c7cc(S(=O)(=O)[O-])ccc7F)c7ccc4[nH]7)C=C6)C=C5)cc3)cc2)COC1
REMARK SMILES IDX 16 1 15 2 13 3 14 4 12 6 9 7 10 8 87 9 11 10 86 11 8 12 5 13
REMARK SMILES IDX 6 14 7 15 4 16 3 18 2 19 1 20 88 21 90 22 89 23 17 24 18 25
REMARK SMILES IDX 19 26 20 27 21 28 22 30 23 31 24 32 85 33 25 34 84 35 26 36
REMARK SMILES IDX 27 37 28 38 78 39 29 40 83 41 77 42 79 43 30 44 82 45 76 46
REMARK SMILES IDX 75 47 31 49 63 50 43 51 62 52 44 53 47 54 61 55 80 56 45 57
REMARK SMILES IDX 46 58 60 60 81 61 48 62 32 63 33 64 41 65 34 66 40 67 42 68
REMARK SMILES IDX 39 69 35 70 36 71 37 72 38 73 64 74 65 75 73 76 66 77 72 78
REMARK SMILES IDX 74 79 71 80 67 81 68 82 69 83 70 84 49 85 50 86 58 87 51 88
REMARK SMILES IDX 57 89 59 90 56 91 52 92 53 93 54 94 55 95
REMARK H PARENT 15 5 4 17 20 29 79 48 47 59
REMARK Flexibility Score: inf
ROOT
ATOM      1  C   UNL A   1      30.664  28.383  23.118  1.00  0.00     0.116 C 
ENDROOT
BRANCH   1   2
ATOM      2  N   UNL A   1      31.884  28.061  22.402  1.00  0.00    -0.352 N 
ATOM      3  C   UNL A   1      32.662  26.929  22.374  1.00  0.00     0.251 C 
ATOM      4  O   UNL A   1      33.653  26.926  21.644  1.00  0.00    -0.269 OA
ATOM      5  H   UNL A   1      32.216  28.789  21.828  1.00  0.00     0.163 HD
BRANCH   3   6
ATOM      6  C   UNL A   1      32.335  25.699  23.149  1.00  0.00     0.039 A 
ATOM      7  C   UNL A   1      31.873  23.328  24.653  1.00  0.00    -0.032 A 
ATOM      8  C   UNL A   1      32.917  24.209  24.986  1.00  0.00     0.005 A 
ATOM      9  C   UNL A   1      31.080  23.663  23.559  1.00  0.00     0.005 A 
ATOM     10  C   UNL A   1      33.155  25.370  24.236  1.00  0.00     0.014 A 
ATOM     11  C   UNL A   1      31.263  24.862  22.870  1.00  0.00     0.014 A 
BRANCH   7  12
ATOM     12  C   UNL A   1      31.690  22.098  25.511  1.00  0.00     0.189 C 
BRANCH  12  13
ATOM     13  S   UNL A   1      32.962  20.828  25.401  1.00  0.00     0.215 S 
ATOM     14  O   UNL A   1      33.694  20.801  26.647  1.00  0.00    -0.212 OA
ATOM     15  O   UNL A   1      33.668  20.968  24.143  1.00  0.00    -0.212 OA
BRANCH  13  16
ATOM     16  N   UNL A   1      32.153  19.356  25.287  1.00  0.00    -0.214 NA
ATOM     17  H   UNL A   1      31.293  19.446  25.827  1.00  0.00     0.141 HD
BRANCH  16  18
ATOM     18  C   UNL A   1      32.828  18.135  25.751  1.00  0.00     0.110 C 
BRANCH  18  19
ATOM     19  C   UNL A   1      33.337  17.288  24.578  1.00  0.00     0.028 C 
ATOM     20  C   UNL A   1      32.800  17.703  23.215  1.00  0.00     0.018 C 
ATOM     21  C   UNL A   1      33.194  15.779  24.859  1.00  0.00     0.170 C 
ATOM     22  C   UNL A   1      34.847  16.976  24.626  1.00  0.00     0.170 C 
ATOM     23  O   UNL A   1      34.584  15.702  25.270  1.00  0.00    -0.380 OA
ENDBRANCH  18  19
ENDBRANCH  16  18
ENDBRANCH  13  16
ENDBRANCH  12  13
ENDBRANCH   7  12
ENDBRANCH   3   6
ENDBRANCH   1   2
BRANCH   1  24
ATOM     24  C   UNL A   1      30.935  29.441  24.192  1.00  0.00     0.023 C 
BRANCH  24  25
ATOM     25  C   UNL A   1      31.678  28.902  25.412  1.00  0.00     0.023 C 
BRANCH  25  26
ATOM     26  C   UNL A   1      32.905  29.714  25.807  1.00  0.00     0.116 C 
BRANCH  26  27
ATOM     27  N   UNL A   1      32.575  31.050  26.280  1.00  0.00    -0.352 N 
ATOM     28  C   UNL A   1      33.241  31.804  27.216  1.00  0.00     0.251 C 
ATOM     29  H   UNL A   1      31.778  31.466  25.878  1.00  0.00     0.163 HD
ATOM     30  O   UNL A   1      32.761  32.860  27.613  1.00  0.00    -0.269 OA
BRANCH  28  31
ATOM     31  C   UNL A   1      34.514  31.293  27.766  1.00  0.00     0.039 A 
ATOM     32  C   UNL A   1      35.556  32.189  28.001  1.00  0.00     0.014 A 
ATOM     33  C   UNL A   1      34.647  29.943  28.107  1.00  0.00     0.014 A 
ATOM     34  C   UNL A   1      36.714  31.741  28.638  1.00  0.00     0.010 A 
ATOM     35  C   UNL A   1      35.763  29.520  28.818  1.00  0.00     0.010 A 
ATOM     36  C   UNL A   1      36.811  30.413  29.087  1.00  0.00    -0.014 A 
BRANCH  36  37
ATOM     37  C   UNL A   1      38.005  29.943  29.836  1.00  0.00     0.031 A 
ATOM     38  C   UNL A   1      38.267  30.449  31.228  1.00  0.00     0.074 A 
ATOM     39  C   UNL A   1      38.874  29.098  29.246  1.00  0.00     0.049 A 
ATOM     40  N   UNL A   1      39.272  30.196  32.026  1.00  0.00    -0.248 NA
ATOM     41  C   UNL A   1      37.282  31.390  31.786  1.00  0.00     0.031 C 
ATOM     42  C   UNL A   1      38.748  28.573  27.884  1.00  0.00     0.029 A 
ATOM     43  N   UNL A   1      40.035  28.533  29.710  1.00  0.00    -0.354 N 
ATOM     44  C   UNL A   1      39.045  30.948  33.173  1.00  0.00     0.074 A 
ATOM     45  C   UNL A   1      37.845  31.722  32.936  1.00  0.00     0.031 C 
ATOM     46  C   UNL A   1      39.769  27.736  27.639  1.00  0.00     0.029 A 
ATOM     47  C   UNL A   1      40.651  27.705  28.801  1.00  0.00     0.049 A 
ATOM     48  H   UNL A   1      40.395  28.706  30.610  1.00  0.00     0.167 HD
ATOM     49  C   UNL A   1      39.755  30.969  34.328  1.00  0.00     0.034 A 
ATOM     50  C   UNL A   1      41.803  27.008  28.888  1.00  0.00     0.034 A 
ATOM     51  C   UNL A   1      40.946  30.186  34.547  1.00  0.00     0.049 A 
ATOM     52  C   UNL A   1      42.597  27.078  30.169  1.00  0.00     0.074 A 
ATOM     53  C   UNL A   1      41.716  30.093  35.694  1.00  0.00     0.029 A 
ATOM     54  N   UNL A   1      41.549  29.368  33.599  1.00  0.00    -0.354 N 
ATOM     55  N   UNL A   1      42.338  27.752  31.265  1.00  0.00    -0.248 NA
ATOM     56  C   UNL A   1      43.832  26.286  30.226  1.00  0.00     0.031 C 
ATOM     57  C   UNL A   1      42.826  29.288  35.413  1.00  0.00     0.029 A 
ATOM     58  C   UNL A   1      42.700  28.800  34.121  1.00  0.00     0.049 A 
ATOM     59  H   UNL A   1      41.208  29.216  32.688  1.00  0.00     0.167 HD
ATOM     60  C   UNL A   1      43.361  27.435  32.155  1.00  0.00     0.074 A 
ATOM     61  C   UNL A   1      44.229  26.498  31.471  1.00  0.00     0.031 C 
ATOM     62  C   UNL A   1      43.564  27.874  33.425  1.00  0.00     0.034 A 
BRANCH  49  63
ATOM     63  C   UNL A   1      39.273  31.890  35.426  1.00  0.00     0.023 A 
ATOM     64  C   UNL A   1      39.738  33.213  35.538  1.00  0.00     0.031 A 
ATOM     65  C   UNL A   1      38.356  31.433  36.388  1.00  0.00     0.131 A 
ATOM     66  C   UNL A   1      39.348  34.003  36.629  1.00  0.00     0.055 A 
ATOM     67  C   UNL A   1      37.900  32.256  37.420  1.00  0.00     0.041 A 
ATOM     68  F   UNL A   1      37.893  30.174  36.348  1.00  0.00    -0.206 F 
ATOM     69  C   UNL A   1      38.409  33.544  37.555  1.00  0.00     0.022 A 
BRANCH  66  70
ATOM     70  S   UNL A   1      40.201  35.579  36.905  1.00  0.00     0.124 S 
ATOM     71  O   UNL A   1      39.785  35.904  38.268  1.00  0.00    -0.237 OA
ATOM     72  O   UNL A   1      41.603  35.214  36.736  1.00  0.00    -0.237 OA
ATOM     73  O   UNL A   1      39.653  36.452  35.870  1.00  0.00    -0.744 OA
ENDBRANCH  66  70
ENDBRANCH  49  63
BRANCH  50  74
ATOM     74  C   UNL A   1      42.284  26.191  27.735  1.00  0.00     0.023 A 
ATOM     75  C   UNL A   1      41.878  24.856  27.571  1.00  0.00     0.031 A 
ATOM     76  C   UNL A   1      43.200  26.719  26.805  1.00  0.00     0.131 A 
ATOM     77  C   UNL A   1      42.426  24.080  26.537  1.00  0.00     0.055 A 
ATOM     78  C   UNL A   1      43.694  25.960  25.743  1.00  0.00     0.041 A 
ATOM     79  F   UNL A   1      43.621  27.989  26.913  1.00  0.00    -0.206 F 
ATOM     80  C   UNL A   1      43.318  24.627  25.613  1.00  0.00     0.022 A 
BRANCH  77  81
ATOM     81  S   UNL A   1      42.032  22.310  26.481  1.00  0.00     0.124 S 
ATOM     82  O   UNL A   1      42.480  21.864  27.794  1.00  0.00    -0.237 OA
ATOM     83  O   UNL A   1      40.589  22.328  26.265  1.00  0.00    -0.237 OA
ATOM     84  O   UNL A   1      42.823  21.823  25.351  1.00  0.00    -0.744 OA
ENDBRANCH  77  81
ENDBRANCH  50  74
BRANCH  62  85
ATOM     85  C   UNL A   1      44.746  27.302  34.171  1.00  0.00     0.023 A 
ATOM     86  C   UNL A   1      44.660  26.092  34.882  1.00  0.00     0.031 A 
ATOM     87  C   UNL A   1      45.975  27.985  34.177  1.00  0.00     0.131 A 
ATOM     88  C   UNL A   1      45.763  25.635  35.621  1.00  0.00     0.055 A 
ATOM     89  C   UNL A   1      47.090  27.489  34.854  1.00  0.00     0.041 A 
ATOM     90  F   UNL A   1      46.115  29.147  33.520  1.00  0.00    -0.206 F 
ATOM     91  C   UNL A   1      46.983  26.315  35.594  1.00  0.00     0.022 A 
BRANCH  88  92
ATOM     92  S   UNL A   1      45.549  24.197  36.706  1.00  0.00     0.124 S 
ATOM     93  O   UNL A   1      45.131  24.822  37.956  1.00  0.00    -0.237 OA
ATOM     94  O   UNL A   1      44.527  23.427  36.005  1.00  0.00    -0.237 OA
ATOM     95  O   UNL A   1      46.878  23.587  36.731  1.00  0.00    -0.744 OA
ENDBRANCH  88  92
ENDBRANCH  62  85
ENDBRANCH  36  37
ENDBRANCH  28  31
ENDBRANCH  26  27
ENDBRANCH  25  26
ENDBRANCH  24  25
ENDBRANCH   1  24
TORSDOF 19
ENDMDL
MODEL 2
REMARK VINA RESULT:     -11.3      2.751      3.464
REMARK SMILES CC1(CNS(=O)(=O)Cc2ccc(C(=O)NCCCCNC(=O)c3ccc(-c4c5nc(c(-c6cc(S(=O)(=O)[O-])ccc6F)c6ccc([nH]6)c(-c6cc(S(=O)(=O)[O-])ccc6F)c6nc(c(-c7cc(S(=O)(=O)[O-])ccc7F)c7ccc4[nH]7)C=C6)C=C5)cc3)cc2)COC1
REMARK SMILES IDX 16 1 15 2 13 3 14 4 12 6 9 7 10 8 87 9 11 10 86 11 8 12 5 13
REMARK SMILES IDX 6 14 7 15 4 16 3 18 2 19 1 20 88 21 90 22 89 23 17 24 18 25
REMARK SMILES IDX 19 26 20 27 21 28 22 30 23 31 24 32 85 33 25 34 84 35 26 36
REMARK SMILES IDX 27 37 28 38 78 39 29 40 83 41 77 42 79 43 30 44 82 45 76 46
REMARK SMILES IDX 75 47 31 49 63 50 43 51 62 52 44 53 47 54 61 55 80 56 45 57
REMARK SMILES IDX 46 58 60 60 81 61 48 62 32 63 33 64 41 65 34 66 40 67 42 68
REMARK SMILES IDX 39 69 35 70 36 71 37 72 38 73 64 74 65 75 73 76 66 77 72 78
REMARK SMILES IDX 74 79 71 80 67 81 68 82 69 83 70 84 49 85 50 86 58 87 51 88
REMARK SMILES IDX 57 89 59 90 56 91 52 92 53 93 54 94 55 95
REMARK H PARENT 15 5 4 17 20 29 79 48 47 59
REMARK Flexibility Score: inf
ROOT
ATOM      1  C   UNL A   1      31.623  29.750  24.927  1.00  0.00     0.116 C 
ENDROOT
BRANCH   1   2
ATOM      2  N   UNL A   1      30.811  29.698  23.725  1.00  0.00    -0.352 N 
ATOM      3  C   UNL A   1      30.342  28.645  22.978  1.00  0.00     0.251 C 
ATOM      4  O   UNL A   1      29.643  28.898  21.997  1.00  0.00    -0.269 OA
ATOM      5  H   UNL A   1      30.547  30.582  23.381  1.00  0.00     0.163 HD
BRANCH   3   6
ATOM      6  C   UNL A   1      30.604  27.220  23.327  1.00  0.00     0.039 A 
ATOM      7  C   UNL A   1      31.096  24.463  23.834  1.00  0.00    -0.032 A 
ATOM      8  C   UNL A   1      31.615  25.098  22.692  1.00  0.00     0.005 A 
ATOM      9  C   UNL A   1      30.331  25.238  24.702  1.00  0.00     0.005 A 
ATOM     10  C   UNL A   1      31.360  26.452  22.434  1.00  0.00     0.014 A 
ATOM     11  C   UNL A   1      30.154  26.605  24.489  1.00  0.00     0.014 A 
BRANCH   7  12
ATOM     12  C   UNL A   1      31.415  23.000  24.032  1.00  0.00     0.189 C 
BRANCH  12  13
ATOM     13  S   UNL A   1      31.411  22.382  25.723  1.00  0.00     0.215 S 
ATOM     14  O   UNL A   1      30.058  22.431  26.228  1.00  0.00    -0.212 OA
ATOM     15  O   UNL A   1      32.490  23.011  26.461  1.00  0.00    -0.212 OA
BRANCH  13  16
ATOM     16  N   UNL A   1      31.832  20.755  25.634  1.00  0.00    -0.214 NA
ATOM     17  H   UNL A   1      32.462  20.567  26.413  1.00  0.00     0.141 HD
BRANCH  16  18
ATOM     18  C   UNL A   1      32.490  20.255  24.417  1.00  0.00     0.110 C 
BRANCH  18  19
ATOM     19  C   UNL A   1      33.250  18.950  24.678  1.00  0.00     0.028 C 
ATOM     20  C   UNL A   1      34.766  19.069  24.592  1.00  0.00     0.018 C 
ATOM     21  C   UNL A   1      32.680  17.781  23.850  1.00  0.00     0.170 C 
ATOM     22  C   UNL A   1      32.720  18.132  25.874  1.00  0.00     0.170 C 
ATOM     23  O   UNL A   1      31.897  17.330  24.987  1.00  0.00    -0.380 OA
ENDBRANCH  18  19
ENDBRANCH  16  18
ENDBRANCH  13  16
ENDBRANCH  12  13
ENDBRANCH   7  12
ENDBRANCH   3   6
ENDBRANCH   1   2
BRANCH   1  24
ATOM     24  C   UNL A   1      33.070  29.357  24.614  1.00  0.00     0.023 C 
BRANCH  24  25
ATOM     25  C   UNL A   1      33.626  28.272  25.536  1.00  0.00     0.023 C 
BRANCH  25  26
ATOM     26  C   UNL A   1      34.371  28.806  26.752  1.00  0.00     0.116 C 
BRANCH  26  27
ATOM     27  N   UNL A   1      33.980  30.161  27.110  1.00  0.00    -0.352 N 
ATOM     28  C   UNL A   1      34.620  31.028  27.964  1.00  0.00     0.251 C 
ATOM     29  H   UNL A   1      33.158  30.500  26.687  1.00  0.00     0.163 HD
ATOM     30  O   UNL A   1      34.092  32.090  28.274  1.00  0.00    -0.269 OA
BRANCH  28  31
ATOM     31  C   UNL A   1      35.924  30.632  28.534  1.00  0.00     0.039 A 
ATOM     32  C   UNL A   1      35.947  29.787  29.643  1.00  0.00     0.014 A 
ATOM     33  C   UNL A   1      37.115  31.045  27.930  1.00  0.00     0.014 A 
ATOM     34  C   UNL A   1      37.170  29.305  30.111  1.00  0.00     0.010 A 
ATOM     35  C   UNL A   1      38.323  30.494  28.343  1.00  0.00     0.010 A 
ATOM     36  C   UNL A   1      38.364  29.622  29.440  1.00  0.00    -0.014 A 
BRANCH  36  37
ATOM     37  C   UNL A   1      39.664  29.053  29.880  1.00  0.00     0.031 A 
ATOM     38  C   UNL A   1      40.432  29.706  30.997  1.00  0.00     0.074 A 
ATOM     39  C   UNL A   1      40.172  27.979  29.243  1.00  0.00     0.049 A 
ATOM     40  N   UNL A   1      41.601  29.389  31.494  1.00  0.00    -0.248 NA
ATOM     41  C   UNL A   1      39.818  30.890  31.617  1.00  0.00     0.031 C 
ATOM     42  C   UNL A   1      39.539  27.286  28.119  1.00  0.00     0.029 A 
ATOM     43  N   UNL A   1      41.336  27.280  29.446  1.00  0.00    -0.354 N 
ATOM     44  C   UNL A   1      41.863  30.336  32.477  1.00  0.00     0.074 A 
ATOM     45  C   UNL A   1      40.766  31.279  32.455  1.00  0.00     0.031 C 
ATOM     46  C   UNL A   1      40.303  26.243  27.757  1.00  0.00     0.029 A 
ATOM     47  C   UNL A   1      41.504  26.221  28.584  1.00  0.00     0.049 A 
ATOM     48  H   UNL A   1      41.990  27.515  30.143  1.00  0.00     0.167 HD
ATOM     49  C   UNL A   1      42.908  30.397  33.339  1.00  0.00     0.034 A 
ATOM     50  C   UNL A   1      42.518  25.339  28.465  1.00  0.00     0.034 A 
ATOM     51  C   UNL A   1      43.991  29.444  33.349  1.00  0.00     0.049 A 
ATOM     52  C   UNL A   1      43.690  25.451  29.409  1.00  0.00     0.074 A 
ATOM     53  C   UNL A   1      45.074  29.381  34.208  1.00  0.00     0.029 A 
ATOM     54  N   UNL A   1      44.136  28.392  32.452  1.00  0.00    -0.354 N 
ATOM     55  N   UNL A   1      43.896  26.320  30.371  1.00  0.00    -0.248 NA
ATOM     56  C   UNL A   1      44.759  24.456  29.257  1.00  0.00     0.031 C 
ATOM     57  C   UNL A   1      45.914  28.346  33.780  1.00  0.00     0.029 A 
ATOM     58  C   UNL A   1      45.309  27.700  32.713  1.00  0.00     0.049 A 
ATOM     59  H   UNL A   1      43.499  28.171  31.735  1.00  0.00     0.167 HD
ATOM     60  C   UNL A   1      45.103  25.952  30.962  1.00  0.00     0.074 A 
ATOM     61  C   UNL A   1      45.566  24.775  30.257  1.00  0.00     0.031 C 
ATOM     62  C   UNL A   1      45.766  26.533  31.995  1.00  0.00     0.034 A 
BRANCH  49  63
ATOM     63  C   UNL A   1      42.939  31.548  34.317  1.00  0.00     0.023 A 
ATOM     64  C   UNL A   1      42.276  31.483  35.556  1.00  0.00     0.031 A 
ATOM     65  C   UNL A   1      43.620  32.736  33.999  1.00  0.00     0.131 A 
ATOM     66  C   UNL A   1      42.241  32.608  36.393  1.00  0.00     0.055 A 
ATOM     67  C   UNL A   1      43.658  33.821  34.878  1.00  0.00     0.041 A 
ATOM     68  F   UNL A   1      44.252  32.869  32.823  1.00  0.00    -0.206 F 
ATOM     69  C   UNL A   1      42.952  33.768  36.076  1.00  0.00     0.022 A 
BRANCH  66  70
ATOM     70  S   UNL A   1      41.128  32.587  37.824  1.00  0.00     0.124 S 
ATOM     71  O   UNL A   1      41.920  31.844  38.802  1.00  0.00    -0.237 OA
ATOM     72  O   UNL A   1      40.942  34.007  38.101  1.00  0.00    -0.237 OA
ATOM     73  O   UNL A   1      39.945  31.886  37.329  1.00  0.00    -0.744 OA
ENDBRANCH  66  70
ENDBRANCH  49  63
BRANCH  50  74
ATOM     74  C   UNL A   1      42.483  24.281  27.413  1.00  0.00     0.023 A 
ATOM     75  C   UNL A   1      41.924  23.018  27.673  1.00  0.00     0.031 A 
ATOM     76  C   UNL A   1      43.054  24.499  26.146  1.00  0.00     0.131 A 
ATOM     77  C   UNL A   1      41.997  22.007  26.701  1.00  0.00     0.055 A 
ATOM     78  C   UNL A   1      43.068  23.509  25.162  1.00  0.00     0.041 A 
ATOM     79  F   UNL A   1      43.601  25.687  25.843  1.00  0.00    -0.206 F 
ATOM     80  C   UNL A   1      42.550  22.249  25.442  1.00  0.00     0.022 A 
BRANCH  77  81
ATOM     81  S   UNL A   1      41.448  20.336  27.146  1.00  0.00     0.124 S 
ATOM     82  O   UNL A   1      42.715  19.669  27.416  1.00  0.00    -0.237 OA
ATOM     83  O   UNL A   1      40.598  20.595  28.303  1.00  0.00    -0.237 OA
ATOM     84  O   UNL A   1      40.744  19.880  25.948  1.00  0.00    -0.744 OA
ENDBRANCH  77  81
ENDBRANCH  50  74
BRANCH  62  85
ATOM     85  C   UNL A   1      47.040  25.865  32.457  1.00  0.00     0.023 A 
ATOM     86  C   UNL A   1      48.270  26.085  31.812  1.00  0.00     0.031 A 
ATOM     87  C   UNL A   1      47.019  24.988  33.556  1.00  0.00     0.131 A 
ATOM     88  C   UNL A   1      49.414  25.388  32.231  1.00  0.00     0.055 A 
ATOM     89  C   UNL A   1      48.174  24.352  34.013  1.00  0.00     0.041 A 
ATOM     90  F   UNL A   1      45.873  24.736  34.208  1.00  0.00    -0.206 F 
ATOM     91  C   UNL A   1      49.378  24.539  33.341  1.00  0.00     0.022 A 
BRANCH  88  92
ATOM     92  S   UNL A   1      50.927  25.520  31.240  1.00  0.00     0.124 S 
ATOM     93  O   UNL A   1      51.811  24.571  31.909  1.00  0.00    -0.237 OA
ATOM     94  O   UNL A   1      50.464  25.133  29.911  1.00  0.00    -0.237 OA
ATOM     95  O   UNL A   1      51.306  26.925  31.379  1.00  0.00    -0.744 OA
ENDBRANCH  88  92
ENDBRANCH  62  85
ENDBRANCH  36  37
ENDBRANCH  28  31
ENDBRANCH  26  27
ENDBRANCH  25  26
ENDBRANCH  24  25
ENDBRANCH   1  24
TORSDOF 19
ENDMDL
MODEL 3
REMARK VINA RESULT:     -11.3      2.558      3.269
REMARK SMILES CC1(CNS(=O)(=O)Cc2ccc(C(=O)NCCCCNC(=O)c3ccc(-c4c5nc(c(-c6cc(S(=O)(=O)[O-])ccc6F)c6ccc([nH]6)c(-c6cc(S(=O)(=O)[O-])ccc6F)c6nc(c(-c7cc(S(=O)(=O)[O-])ccc7F)c7ccc4[nH]7)C=C6)C=C5)cc3)cc2)COC1
REMARK SMILES IDX 16 1 15 2 13 3 14 4 12 6 9 7 10 8 87 9 11 10 86 11 8 12 5 13
REMARK SMILES IDX 6 14 7 15 4 16 3 18 2 19 1 20 88 21 90 22 89 23 17 24 18 25
REMARK SMILES IDX 19 26 20 27 21 28 22 30 23 31 24 32 85 33 25 34 84 35 26 36
REMARK SMILES IDX 27 37 28 38 78 39 29 40 83 41 77 42 79 43 30 44 82 45 76 46
REMARK SMILES IDX 75 47 31 49 63 50 43 51 62 52 44 53 47 54 61 55 80 56 45 57
REMARK SMILES IDX 46 58 60 60 81 61 48 62 32 63 33 64 41 65 34 66 40 67 42 68
REMARK SMILES IDX 39 69 35 70 36 71 37 72 38 73 64 74 65 75 73 76 66 77 72 78
REMARK SMILES IDX 74 79 71 80 67 81 68 82 69 83 70 84 49 85 50 86 58 87 51 88
REMARK SMILES IDX 57 89 59 90 56 91 52 92 53 93 54 94 55 95
REMARK H PARENT 15 5 4 17 20 29 79 48 47 59
REMARK Flexibility Score: inf
ROOT
ATOM      1  C   UNL A   1      32.035  29.601  24.480  1.00  0.00     0.116 C 
ENDROOT
BRANCH   1   2
ATOM      2  N   UNL A   1      31.011  29.733  23.460  1.00  0.00    -0.352 N 
ATOM      3  C   UNL A   1      30.350  28.803  22.696  1.00  0.00     0.251 C 
ATOM      4  O   UNL A   1      29.496  29.204  21.906  1.00  0.00    -0.269 OA
ATOM      5  H   UNL A   1      30.739  30.663  23.283  1.00  0.00     0.163 HD
BRANCH   3   6
ATOM      6  C   UNL A   1      30.590  27.337  22.812  1.00  0.00     0.039 A 
ATOM      7  C   UNL A   1      31.009  24.547  23.194  1.00  0.00    -0.032 A 
ATOM      8  C   UNL A   1      29.994  25.233  23.886  1.00  0.00     0.005 A 
ATOM      9  C   UNL A   1      31.798  25.290  22.319  1.00  0.00     0.005 A 
ATOM     10  C   UNL A   1      29.798  26.610  23.710  1.00  0.00     0.014 A 
ATOM     11  C   UNL A   1      31.542  26.640  22.080  1.00  0.00     0.014 A 
BRANCH   7  12
ATOM     12  C   UNL A   1      31.155  23.065  23.447  1.00  0.00     0.189 C 
BRANCH  12  13
ATOM     13  S   UNL A   1      32.285  22.567  24.757  1.00  0.00     0.215 S 
ATOM     14  O   UNL A   1      31.719  21.427  25.443  1.00  0.00    -0.212 OA
ATOM     15  O   UNL A   1      32.695  23.739  25.504  1.00  0.00    -0.212 OA
BRANCH  13  16
ATOM     16  N   UNL A   1      33.683  22.023  23.994  1.00  0.00    -0.214 NA
ATOM     17  H   UNL A   1      34.002  21.201  24.506  1.00  0.00     0.141 HD
BRANCH  16  18
ATOM     18  C   UNL A   1      34.833  22.934  23.882  1.00  0.00     0.110 C 
BRANCH  18  19
ATOM     19  C   UNL A   1      35.879  22.663  24.969  1.00  0.00     0.028 C 
ATOM     20  C   UNL A   1      36.354  23.902  25.716  1.00  0.00     0.018 C 
ATOM     21  C   UNL A   1      37.033  21.784  24.446  1.00  0.00     0.170 C 
ATOM     22  C   UNL A   1      35.577  21.436  25.853  1.00  0.00     0.170 C 
ATOM     23  O   UNL A   1      36.415  20.599  25.013  1.00  0.00    -0.380 OA
ENDBRANCH  18  19
ENDBRANCH  16  18
ENDBRANCH  13  16
ENDBRANCH  12  13
ENDBRANCH   7  12
ENDBRANCH   3   6
ENDBRANCH   1   2
BRANCH   1  24
ATOM     24  C   UNL A   1      31.400  29.551  25.874  1.00  0.00     0.023 C 
BRANCH  24  25
ATOM     25  C   UNL A   1      32.321  28.972  26.947  1.00  0.00     0.023 C 
BRANCH  25  26
ATOM     26  C   UNL A   1      33.692  29.631  27.016  1.00  0.00     0.116 C 
BRANCH  26  27
ATOM     27  N   UNL A   1      33.653  30.970  27.584  1.00  0.00    -0.352 N 
ATOM     28  C   UNL A   1      34.582  31.570  28.400  1.00  0.00     0.251 C 
ATOM     29  H   UNL A   1      32.864  31.514  27.355  1.00  0.00     0.163 HD
ATOM     30  O   UNL A   1      34.342  32.657  28.914  1.00  0.00    -0.269 OA
BRANCH  28  31
ATOM     31  C   UNL A   1      35.847  30.859  28.681  1.00  0.00     0.039 A 
ATOM     32  C   UNL A   1      37.024  31.314  28.087  1.00  0.00     0.014 A 
ATOM     33  C   UNL A   1      35.872  29.788  29.579  1.00  0.00     0.014 A 
ATOM     34  C   UNL A   1      38.240  30.732  28.444  1.00  0.00     0.010 A 
ATOM     35  C   UNL A   1      37.092  29.270  29.997  1.00  0.00     0.010 A 
ATOM     36  C   UNL A   1      38.289  29.733  29.431  1.00  0.00    -0.014 A 
BRANCH  36  37
ATOM     37  C   UNL A   1      39.585  29.159  29.878  1.00  0.00     0.031 A 
ATOM     38  C   UNL A   1      40.338  29.798  31.013  1.00  0.00     0.074 A 
ATOM     39  C   UNL A   1      40.102  28.095  29.233  1.00  0.00     0.049 A 
ATOM     40  N   UNL A   1      41.501  29.477  31.519  1.00  0.00    -0.248 NA
ATOM     41  C   UNL A   1      39.714  30.973  31.642  1.00  0.00     0.031 C 
ATOM     42  C   UNL A   1      39.483  27.417  28.091  1.00  0.00     0.029 A 
ATOM     43  N   UNL A   1      41.265  27.396  29.439  1.00  0.00    -0.354 N 
ATOM     44  C   UNL A   1      41.750  30.411  32.518  1.00  0.00     0.074 A 
ATOM     45  C   UNL A   1      40.652  31.352  32.496  1.00  0.00     0.031 C 
ATOM     46  C   UNL A   1      40.254  26.381  27.724  1.00  0.00     0.029 A 
ATOM     47  C   UNL A   1      41.446  26.349  28.565  1.00  0.00     0.049 A 
ATOM     48  H   UNL A   1      41.910  27.623  30.148  1.00  0.00     0.167 HD
ATOM     49  C   UNL A   1      42.785  30.462  33.393  1.00  0.00     0.034 A 
ATOM     50  C   UNL A   1      42.462  25.471  28.446  1.00  0.00     0.034 A 
ATOM     51  C   UNL A   1      43.870  29.510  33.403  1.00  0.00     0.049 A 
ATOM     52  C   UNL A   1      43.623  25.572  29.405  1.00  0.00     0.074 A 
ATOM     53  C   UNL A   1      44.943  29.438  34.273  1.00  0.00     0.029 A 
ATOM     54  N   UNL A   1      44.027  28.471  32.493  1.00  0.00    -0.354 N 
ATOM     55  N   UNL A   1      43.816  26.428  30.381  1.00  0.00    -0.248 NA
ATOM     56  C   UNL A   1      44.695  24.581  29.252  1.00  0.00     0.031 C 
ATOM     57  C   UNL A   1      45.789  28.410  33.841  1.00  0.00     0.029 A 
ATOM     58  C   UNL A   1      45.199  27.779  32.758  1.00  0.00     0.049 A 
ATOM     59  H   UNL A   1      43.399  28.259  31.765  1.00  0.00     0.167 HD
ATOM     60  C   UNL A   1      45.016  26.054  30.981  1.00  0.00     0.074 A 
ATOM     61  C   UNL A   1      45.491  24.887  30.265  1.00  0.00     0.031 C 
ATOM     62  C   UNL A   1      45.667  26.622  32.030  1.00  0.00     0.034 A 
BRANCH  49  63
ATOM     63  C   UNL A   1      42.802  31.599  34.388  1.00  0.00     0.023 A 
ATOM     64  C   UNL A   1      42.048  31.554  35.575  1.00  0.00     0.031 A 
ATOM     65  C   UNL A   1      43.563  32.754  34.137  1.00  0.00     0.131 A 
ATOM     66  C   UNL A   1      42.009  32.671  36.423  1.00  0.00     0.055 A 
ATOM     67  C   UNL A   1      43.591  33.827  35.032  1.00  0.00     0.041 A 
ATOM     68  F   UNL A   1      44.285  32.867  33.011  1.00  0.00    -0.206 F 
ATOM     69  C   UNL A   1      42.798  33.796  36.175  1.00  0.00     0.022 A 
BRANCH  66  70
ATOM     70  S   UNL A   1      40.795  32.692  37.769  1.00  0.00     0.124 S 
ATOM     71  O   UNL A   1      41.524  32.005  38.833  1.00  0.00    -0.237 OA
ATOM     72  O   UNL A   1      40.568  34.118  37.969  1.00  0.00    -0.237 OA
ATOM     73  O   UNL A   1      39.662  31.949  37.222  1.00  0.00    -0.744 OA
ENDBRANCH  66  70
ENDBRANCH  49  63
BRANCH  50  74
ATOM     74  C   UNL A   1      42.442  24.427  27.379  1.00  0.00     0.023 A 
ATOM     75  C   UNL A   1      41.774  23.206  27.571  1.00  0.00     0.031 A 
ATOM     76  C   UNL A   1      43.134  24.614  26.168  1.00  0.00     0.131 A 
ATOM     77  C   UNL A   1      41.856  22.202  26.594  1.00  0.00     0.055 A 
ATOM     78  C   UNL A   1      43.161  23.635  25.174  1.00  0.00     0.041 A 
ATOM     79  F   UNL A   1      43.789  25.762  25.930  1.00  0.00    -0.206 F 
ATOM     80  C   UNL A   1      42.532  22.413  25.391  1.00  0.00     0.022 A 
BRANCH  77  81
ATOM     81  S   UNL A   1      41.153  20.571  26.965  1.00  0.00     0.124 S 
ATOM     82  O   UNL A   1      42.279  19.691  26.684  1.00  0.00    -0.237 OA
ATOM     83  O   UNL A   1      40.783  20.714  28.369  1.00  0.00    -0.237 OA
ATOM     84  O   UNL A   1      40.030  20.467  26.035  1.00  0.00    -0.744 OA
ENDBRANCH  77  81
ENDBRANCH  50  74
BRANCH  62  85
ATOM     85  C   UNL A   1      46.936  25.951  32.497  1.00  0.00     0.023 A 
ATOM     86  C   UNL A   1      46.931  24.967  33.502  1.00  0.00     0.031 A 
ATOM     87  C   UNL A   1      48.174  26.309  31.932  1.00  0.00     0.131 A 
ATOM     88  C   UNL A   1      48.143  24.423  33.955  1.00  0.00     0.055 A 
ATOM     89  C   UNL A   1      49.368  25.713  32.337  1.00  0.00     0.041 A 
ATOM     90  F   UNL A   1      48.242  27.246  30.973  1.00  0.00    -0.206 F 
ATOM     91  C   UNL A   1      49.359  24.774  33.364  1.00  0.00     0.022 A 
BRANCH  88  92
ATOM     92  S   UNL A   1      48.120  23.329  35.402  1.00  0.00     0.124 S 
ATOM     93  O   UNL A   1      46.933  22.520  35.150  1.00  0.00    -0.237 OA
ATOM     94  O   UNL A   1      49.400  22.637  35.289  1.00  0.00    -0.237 OA
ATOM     95  O   UNL A   1      48.012  24.255  36.529  1.00  0.00    -0.744 OA
ENDBRANCH  88  92
ENDBRANCH  62  85
ENDBRANCH  36  37
ENDBRANCH  28  31
ENDBRANCH  26  27
ENDBRANCH  25  26
ENDBRANCH  24  25
ENDBRANCH   1  24
TORSDOF 19
ENDMDL
