MODEL 1
REMARK VINA RESULT:     -11.8      0.000      0.000
REMARK SMILES CC(C)[NH2+][C@@H](C(=O)NCCCCNC(=O)c1ccc(-c2c3nc(c(-c4cc(S(=O)(=O)[O-])ccc4F)c4ccc([nH]4)c(-c4cc(S(=O)(=O)[O-])ccc4F)c4nc(c(-c5cc(S(=O)(=O)[O-])ccc5F)c5ccc2[nH]5)C=C4)C=C3)cc1)c1c[nH]c2ccc(Br)cc12
REMARK SMILES IDX 11 1 10 2 9 3 8 4 6 5 7 6 5 8 4 9 2 12 1 13 3 14 79 15 80 16
REMARK SMILES IDX 88 17 81 18 82 19 87 20 83 22 85 23 84 24 86 25 12 26 13 27
REMARK SMILES IDX 14 28 15 30 16 31 17 32 78 33 18 34 77 35 19 36 20 37 21 38
REMARK SMILES IDX 71 39 22 40 76 41 70 42 72 43 23 44 75 45 69 46 68 47 24 49
REMARK SMILES IDX 56 50 36 51 55 52 37 53 40 54 54 55 73 56 38 57 39 58 53 60
REMARK SMILES IDX 74 61 41 62 25 63 26 64 34 65 27 66 33 67 35 68 32 69 28 70
REMARK SMILES IDX 29 71 30 72 31 73 57 74 58 75 66 76 59 77 65 78 67 79 64 80
REMARK SMILES IDX 60 81 61 82 62 83 63 84 42 85 43 86 51 87 44 88 50 89 52 90
REMARK SMILES IDX 49 91 45 92 46 93 47 94 48 95
REMARK H PARENT 8 7 4 10 4 11 81 21 13 29 72 48 40 59
REMARK Flexibility Score: inf
ROOT
ATOM      1  C   UNL A   1      33.086  28.911  23.795  1.00  0.00     0.023 C 
ENDROOT
BRANCH   1   2
ATOM      2  C   UNL A   1      31.601  28.911  23.438  1.00  0.00     0.023 C 
BRANCH   2   3
ATOM      3  C   UNL A   1      31.084  27.725  22.598  1.00  0.00     0.116 C 
BRANCH   3   4
ATOM      4  N   UNL A   1      32.052  27.100  21.708  1.00  0.00    -0.351 N 
ATOM      5  C   UNL A   1      32.654  25.867  21.671  1.00  0.00     0.283 C 
ATOM      6  O   UNL A   1      33.185  25.594  20.588  1.00  0.00    -0.268 OA
ATOM      7  H   UNL A   1      32.337  27.690  20.974  1.00  0.00     0.163 HD
BRANCH   5   8
ATOM      8  C   UNL A   1      32.590  24.848  22.833  1.00  0.00     0.306 C 
BRANCH   8   9
ATOM      9  N   UNL A   1      33.145  25.258  24.147  1.00  0.00    -0.330 N 
ATOM     10  H   UNL A   1      33.981  24.692  24.288  1.00  0.00     0.347 HD
ATOM     11  H   UNL A   1      33.225  26.267  24.026  1.00  0.00     0.347 HD
BRANCH   9  12
ATOM     12  C   UNL A   1      32.394  25.174  25.383  1.00  0.00     0.176 C 
ATOM     13  C   UNL A   1      30.908  24.983  25.065  1.00  0.00     0.075 C 
ATOM     14  C   UNL A   1      32.806  24.224  26.504  1.00  0.00     0.075 C 
ENDBRANCH   9  12
ENDBRANCH   8   9
BRANCH   8  15
ATOM     15  C   UNL A   1      33.175  23.446  22.605  1.00  0.00     0.044 A 
ATOM     16  C   UNL A   1      32.418  22.404  22.038  1.00  0.00     0.094 A 
ATOM     17  C   UNL A   1      34.122  22.692  23.381  1.00  0.00     0.010 A 
ATOM     18  N   UNL A   1      32.152  21.697  23.225  1.00  0.00    -0.361 N 
ATOM     19  C   UNL A   1      33.353  21.643  23.908  1.00  0.00     0.046 A 
ATOM     20  C   UNL A   1      35.455  22.814  23.812  1.00  0.00     0.026 A 
ATOM     21  H   UNL A   1      31.289  21.319  23.509  1.00  0.00     0.166 HD
ATOM     22  C   UNL A   1      33.768  20.836  24.966  1.00  0.00     0.028 A 
ATOM     23  C   UNL A   1      35.947  21.874  24.730  1.00  0.00     0.018 A 
ATOM     24  C   UNL A   1      35.107  20.942  25.341  1.00  0.00     0.018 A 
ATOM     25  Br  UNL A   1      37.798  21.836  25.128  1.00  0.00    -0.051 Br
ENDBRANCH   8  15
ENDBRANCH   5   8
ENDBRANCH   3   4
ENDBRANCH   2   3
ENDBRANCH   1   2
BRANCH   1  26
ATOM     26  C   UNL A   1      33.308  29.031  25.288  1.00  0.00     0.116 C 
BRANCH  26  27
ATOM     27  N   UNL A   1      32.586  30.163  25.860  1.00  0.00    -0.352 N 
ATOM     28  C   UNL A   1      32.972  30.998  26.889  1.00  0.00     0.251 C 
ATOM     29  H   UNL A   1      31.708  30.358  25.459  1.00  0.00     0.163 HD
ATOM     30  O   UNL A   1      32.203  31.820  27.344  1.00  0.00    -0.269 OA
BRANCH  28  31
ATOM     31  C   UNL A   1      34.329  30.819  27.449  1.00  0.00     0.039 A 
ATOM     32  C   UNL A   1      35.135  31.941  27.656  1.00  0.00     0.014 A 
ATOM     33  C   UNL A   1      34.745  29.552  27.860  1.00  0.00     0.014 A 
ATOM     34  C   UNL A   1      36.335  31.798  28.354  1.00  0.00     0.010 A 
ATOM     35  C   UNL A   1      35.879  29.433  28.644  1.00  0.00     0.010 A 
ATOM     36  C   UNL A   1      36.691  30.553  28.891  1.00  0.00    -0.014 A 
BRANCH  36  37
ATOM     37  C   UNL A   1      37.932  30.348  29.678  1.00  0.00     0.031 A 
ATOM     38  C   UNL A   1      38.988  29.430  29.129  1.00  0.00     0.074 A 
ATOM     39  C   UNL A   1      38.041  30.859  30.918  1.00  0.00     0.049 A 
ATOM     40  N   UNL A   1      40.026  28.905  29.723  1.00  0.00    -0.248 NA
ATOM     41  C   UNL A   1      38.801  28.992  27.738  1.00  0.00     0.031 C 
ATOM     42  C   UNL A   1      37.053  31.720  31.571  1.00  0.00     0.029 A 
ATOM     43  N   UNL A   1      39.020  30.699  31.865  1.00  0.00    -0.354 N 
ATOM     44  C   UNL A   1      40.585  28.034  28.793  1.00  0.00     0.074 A 
ATOM     45  C   UNL A   1      39.725  28.053  27.629  1.00  0.00     0.031 C 
ATOM     46  C   UNL A   1      37.478  32.012  32.812  1.00  0.00     0.029 A 
ATOM     47  C   UNL A   1      38.740  31.321  33.058  1.00  0.00     0.049 A 
ATOM     48  H   UNL A   1      39.846  30.187  31.705  1.00  0.00     0.167 HD
ATOM     49  C   UNL A   1      41.724  27.305  28.895  1.00  0.00     0.034 A 
ATOM     50  C   UNL A   1      39.410  31.310  34.227  1.00  0.00     0.034 A 
ATOM     51  C   UNL A   1      42.578  27.339  30.058  1.00  0.00     0.049 A 
ATOM     52  C   UNL A   1      40.691  30.522  34.317  1.00  0.00     0.074 A 
ATOM     53  C   UNL A   1      43.796  26.715  30.255  1.00  0.00     0.029 A 
ATOM     54  N   UNL A   1      42.297  28.041  31.225  1.00  0.00    -0.354 N 
ATOM     55  N   UNL A   1      41.243  29.740  33.419  1.00  0.00    -0.248 NA
ATOM     56  C   UNL A   1      41.444  30.624  35.573  1.00  0.00     0.031 C 
ATOM     57  C   UNL A   1      44.222  26.989  31.559  1.00  0.00     0.029 A 
ATOM     58  C   UNL A   1      43.308  27.846  32.154  1.00  0.00     0.049 A 
ATOM     59  H   UNL A   1      41.496  28.594  31.371  1.00  0.00     0.167 HD
ATOM     60  C   UNL A   1      42.424  29.278  33.989  1.00  0.00     0.074 A 
ATOM     61  C   UNL A   1      42.506  29.873  35.309  1.00  0.00     0.031 C 
ATOM     62  C   UNL A   1      43.363  28.448  33.466  1.00  0.00     0.034 A 
BRANCH  49  63
ATOM     63  C   UNL A   1      42.071  26.400  27.735  1.00  0.00     0.023 A 
ATOM     64  C   UNL A   1      41.634  25.063  27.683  1.00  0.00     0.031 A 
ATOM     65  C   UNL A   1      42.921  26.848  26.708  1.00  0.00     0.131 A 
ATOM     66  C   UNL A   1      42.149  24.193  26.710  1.00  0.00     0.055 A 
ATOM     67  C   UNL A   1      43.343  26.003  25.679  1.00  0.00     0.041 A 
ATOM     68  F   UNL A   1      43.388  28.106  26.706  1.00  0.00    -0.206 F 
ATOM     69  C   UNL A   1      42.978  24.660  25.690  1.00  0.00     0.022 A 
BRANCH  66  70
ATOM     70  S   UNL A   1      41.884  22.411  26.926  1.00  0.00     0.124 S 
ATOM     71  O   UNL A   1      42.041  21.923  25.558  1.00  0.00    -0.237 OA
ATOM     72  O   UNL A   1      42.941  22.046  27.861  1.00  0.00    -0.237 OA
ATOM     73  O   UNL A   1      40.523  22.328  27.455  1.00  0.00    -0.744 OA
ENDBRANCH  66  70
ENDBRANCH  49  63
BRANCH  50  74
ATOM     74  C   UNL A   1      38.874  32.058  35.398  1.00  0.00     0.023 A 
ATOM     75  C   UNL A   1      38.269  31.386  36.471  1.00  0.00     0.031 A 
ATOM     76  C   UNL A   1      38.980  33.458  35.469  1.00  0.00     0.131 A 
ATOM     77  C   UNL A   1      37.769  32.118  37.560  1.00  0.00     0.055 A 
ATOM     78  C   UNL A   1      38.516  34.178  36.571  1.00  0.00     0.041 A 
ATOM     79  F   UNL A   1      39.566  34.145  34.474  1.00  0.00    -0.206 F 
ATOM     80  C   UNL A   1      37.899  33.507  37.622  1.00  0.00     0.022 A 
BRANCH  77  81
ATOM     81  S   UNL A   1      36.912  31.226  38.887  1.00  0.00     0.124 S 
ATOM     82  O   UNL A   1      36.807  29.885  38.324  1.00  0.00    -0.237 OA
ATOM     83  O   UNL A   1      37.837  31.383  40.005  1.00  0.00    -0.237 OA
ATOM     84  O   UNL A   1      35.649  31.948  39.022  1.00  0.00    -0.744 OA
ENDBRANCH  77  81
ENDBRANCH  50  74
BRANCH  62  85
ATOM     85  C   UNL A   1      44.589  28.183  34.303  1.00  0.00     0.023 A 
ATOM     86  C   UNL A   1      44.671  27.085  35.175  1.00  0.00     0.031 A 
ATOM     87  C   UNL A   1      45.702  29.037  34.202  1.00  0.00     0.131 A 
ATOM     88  C   UNL A   1      45.830  26.890  35.942  1.00  0.00     0.055 A 
ATOM     89  C   UNL A   1      46.870  28.808  34.926  1.00  0.00     0.041 A 
ATOM     90  F   UNL A   1      45.673  30.100  33.382  1.00  0.00    -0.206 F 
ATOM     91  C   UNL A   1      46.937  27.734  35.808  1.00  0.00     0.022 A 
BRANCH  88  92
ATOM     92  S   UNL A   1      45.856  25.550  37.163  1.00  0.00     0.124 S 
ATOM     93  O   UNL A   1      45.849  26.287  38.422  1.00  0.00    -0.237 OA
ATOM     94  O   UNL A   1      44.635  24.815  36.847  1.00  0.00    -0.237 OA
ATOM     95  O   UNL A   1      47.099  24.839  36.867  1.00  0.00    -0.744 OA
ENDBRANCH  88  92
ENDBRANCH  62  85
ENDBRANCH  36  37
ENDBRANCH  28  31
ENDBRANCH  26  27
ENDBRANCH   1  26
TORSDOF 17
ENDMDL
MODEL 2
REMARK VINA RESULT:     -11.8      2.130      2.792
REMARK SMILES CC(C)[NH2+][C@@H](C(=O)NCCCCNC(=O)c1ccc(-c2c3nc(c(-c4cc(S(=O)(=O)[O-])ccc4F)c4ccc([nH]4)c(-c4cc(S(=O)(=O)[O-])ccc4F)c4nc(c(-c5cc(S(=O)(=O)[O-])ccc5F)c5ccc2[nH]5)C=C4)C=C3)cc1)c1c[nH]c2ccc(Br)cc12
REMARK SMILES IDX 11 1 10 2 9 3 8 4 6 5 7 6 5 8 4 9 2 12 1 13 3 14 79 15 80 16
REMARK SMILES IDX 88 17 81 18 82 19 87 20 83 22 85 23 84 24 86 25 12 26 13 27
REMARK SMILES IDX 14 28 15 30 16 31 17 32 78 33 18 34 77 35 19 36 20 37 21 38
REMARK SMILES IDX 71 39 22 40 76 41 70 42 72 43 23 44 75 45 69 46 68 47 24 49
REMARK SMILES IDX 56 50 36 51 55 52 37 53 40 54 54 55 73 56 38 57 39 58 53 60
REMARK SMILES IDX 74 61 41 62 25 63 26 64 34 65 27 66 33 67 35 68 32 69 28 70
REMARK SMILES IDX 29 71 30 72 31 73 57 74 58 75 66 76 59 77 65 78 67 79 64 80
REMARK SMILES IDX 60 81 61 82 62 83 63 84 42 85 43 86 51 87 44 88 50 89 52 90
REMARK SMILES IDX 49 91 45 92 46 93 47 94 48 95
REMARK H PARENT 8 7 4 10 4 11 81 21 13 29 72 48 40 59
REMARK Flexibility Score: inf
ROOT
ATOM      1  C   UNL A   1      31.423  31.608  26.518  1.00  0.00     0.023 C 
ENDROOT
BRANCH   1   2
ATOM      2  C   UNL A   1      31.698  30.262  25.849  1.00  0.00     0.023 C 
BRANCH   2   3
ATOM      3  C   UNL A   1      33.121  29.684  26.000  1.00  0.00     0.116 C 
BRANCH   3   4
ATOM      4  N   UNL A   1      33.845  29.436  24.761  1.00  0.00    -0.351 N 
ATOM      5  C   UNL A   1      33.824  28.426  23.833  1.00  0.00     0.283 C 
ATOM      6  O   UNL A   1      34.358  28.716  22.756  1.00  0.00    -0.268 OA
ATOM      7  H   UNL A   1      34.490  30.147  24.544  1.00  0.00     0.163 HD
BRANCH   5   8
ATOM      8  C   UNL A   1      33.103  27.075  24.053  1.00  0.00     0.306 C 
BRANCH   8   9
ATOM      9  N   UNL A   1      33.188  26.455  25.399  1.00  0.00    -0.330 N 
ATOM     10  H   UNL A   1      33.776  25.629  25.292  1.00  0.00     0.347 HD
ATOM     11  H   UNL A   1      33.509  27.241  25.964  1.00  0.00     0.347 HD
BRANCH   9  12
ATOM     12  C   UNL A   1      32.024  26.022  26.144  1.00  0.00     0.176 C 
ATOM     13  C   UNL A   1      30.757  26.550  25.463  1.00  0.00     0.075 C 
ATOM     14  C   UNL A   1      31.825  24.561  26.537  1.00  0.00     0.075 C 
ENDBRANCH   9  12
ENDBRANCH   8   9
BRANCH   8  15
ATOM     15  C   UNL A   1      33.415  25.918  23.092  1.00  0.00     0.044 A 
ATOM     16  C   UNL A   1      32.679  25.707  21.912  1.00  0.00     0.094 A 
ATOM     17  C   UNL A   1      33.874  24.581  23.358  1.00  0.00     0.010 A 
ATOM     18  N   UNL A   1      31.896  24.631  22.367  1.00  0.00    -0.361 N 
ATOM     19  C   UNL A   1      32.769  23.783  23.024  1.00  0.00     0.046 A 
ATOM     20  C   UNL A   1      34.988  23.954  23.945  1.00  0.00     0.026 A 
ATOM     21  H   UNL A   1      30.928  24.507  22.243  1.00  0.00     0.166 HD
ATOM     22  C   UNL A   1      32.635  22.449  23.407  1.00  0.00     0.028 A 
ATOM     23  C   UNL A   1      34.942  22.567  24.147  1.00  0.00     0.018 A 
ATOM     24  C   UNL A   1      33.770  21.838  23.940  1.00  0.00     0.018 A 
ATOM     25  Br  UNL A   1      36.509  21.646  24.677  1.00  0.00    -0.051 Br
ENDBRANCH   8  15
ENDBRANCH   5   8
ENDBRANCH   3   4
ENDBRANCH   2   3
ENDBRANCH   1   2
BRANCH   1  26
ATOM     26  C   UNL A   1      32.685  32.226  27.082  1.00  0.00     0.116 C 
BRANCH  26  27
ATOM     27  N   UNL A   1      32.456  33.577  27.586  1.00  0.00    -0.352 N 
ATOM     28  C   UNL A   1      33.186  34.282  28.520  1.00  0.00     0.251 C 
ATOM     29  H   UNL A   1      31.677  34.047  27.209  1.00  0.00     0.163 HD
ATOM     30  O   UNL A   1      32.795  35.354  28.935  1.00  0.00    -0.269 OA
BRANCH  28  31
ATOM     31  C   UNL A   1      34.428  33.663  29.033  1.00  0.00     0.039 A 
ATOM     32  C   UNL A   1      35.662  34.179  28.632  1.00  0.00     0.014 A 
ATOM     33  C   UNL A   1      34.351  32.646  29.985  1.00  0.00     0.014 A 
ATOM     34  C   UNL A   1      36.826  33.724  29.255  1.00  0.00     0.010 A 
ATOM     35  C   UNL A   1      35.493  32.277  30.675  1.00  0.00     0.010 A 
ATOM     36  C   UNL A   1      36.743  32.805  30.311  1.00  0.00    -0.014 A 
BRANCH  36  37
ATOM     37  C   UNL A   1      37.939  32.316  31.039  1.00  0.00     0.031 A 
ATOM     38  C   UNL A   1      38.723  31.176  30.451  1.00  0.00     0.074 A 
ATOM     39  C   UNL A   1      38.226  32.788  32.266  1.00  0.00     0.049 A 
ATOM     40  N   UNL A   1      39.638  30.424  31.001  1.00  0.00    -0.248 NA
ATOM     41  C   UNL A   1      38.370  30.793  29.076  1.00  0.00     0.031 C 
ATOM     42  C   UNL A   1      37.500  33.856  32.956  1.00  0.00     0.029 A 
ATOM     43  N   UNL A   1      39.187  32.404  33.167  1.00  0.00    -0.354 N 
ATOM     44  C   UNL A   1      39.932  29.445  30.056  1.00  0.00     0.074 A 
ATOM     45  C   UNL A   1      39.043  29.664  28.935  1.00  0.00     0.031 C 
ATOM     46  C   UNL A   1      38.042  34.042  34.171  1.00  0.00     0.029 A 
ATOM     47  C   UNL A   1      39.118  33.075  34.364  1.00  0.00     0.049 A 
ATOM     48  H   UNL A   1      39.861  31.713  32.973  1.00  0.00     0.167 HD
ATOM     49  C   UNL A   1      40.873  28.471  30.112  1.00  0.00     0.034 A 
ATOM     50  C   UNL A   1      39.825  32.909  35.500  1.00  0.00     0.034 A 
ATOM     51  C   UNL A   1      41.768  28.305  31.231  1.00  0.00     0.049 A 
ATOM     52  C   UNL A   1      40.890  31.843  35.538  1.00  0.00     0.074 A 
ATOM     53  C   UNL A   1      42.815  27.414  31.377  1.00  0.00     0.029 A 
ATOM     54  N   UNL A   1      41.717  29.054  32.402  1.00  0.00    -0.354 N 
ATOM     55  N   UNL A   1      41.199  30.953  34.623  1.00  0.00    -0.248 NA
ATOM     56  C   UNL A   1      41.708  31.767  36.754  1.00  0.00     0.031 C 
ATOM     57  C   UNL A   1      43.358  27.582  32.656  1.00  0.00     0.029 A 
ATOM     58  C   UNL A   1      42.699  28.629  33.283  1.00  0.00     0.049 A 
ATOM     59  H   UNL A   1      41.075  29.779  32.580  1.00  0.00     0.167 HD
ATOM     60  C   UNL A   1      42.267  30.228  35.142  1.00  0.00     0.074 A 
ATOM     61  C   UNL A   1      42.550  30.789  36.449  1.00  0.00     0.031 C 
ATOM     62  C   UNL A   1      42.959  29.202  34.584  1.00  0.00     0.034 A 
BRANCH  49  63
ATOM     63  C   UNL A   1      40.941  27.509  28.947  1.00  0.00     0.023 A 
ATOM     64  C   UNL A   1      41.939  27.613  27.960  1.00  0.00     0.031 A 
ATOM     65  C   UNL A   1      39.947  26.531  28.769  1.00  0.00     0.131 A 
ATOM     66  C   UNL A   1      41.848  26.850  26.786  1.00  0.00     0.055 A 
ATOM     67  C   UNL A   1      39.925  25.698  27.648  1.00  0.00     0.041 A 
ATOM     68  F   UNL A   1      38.957  26.390  29.664  1.00  0.00    -0.206 F 
ATOM     69  C   UNL A   1      40.864  25.872  26.635  1.00  0.00     0.022 A 
BRANCH  66  70
ATOM     70  S   UNL A   1      42.905  27.303  25.383  1.00  0.00     0.124 S 
ATOM     71  O   UNL A   1      42.129  28.376  24.765  1.00  0.00    -0.237 OA
ATOM     72  O   UNL A   1      44.144  27.705  26.037  1.00  0.00    -0.237 OA
ATOM     73  O   UNL A   1      42.982  26.071  24.599  1.00  0.00    -0.744 OA
ENDBRANCH  66  70
ENDBRANCH  49  63
BRANCH  50  74
ATOM     74  C   UNL A   1      39.538  33.762  36.686  1.00  0.00     0.023 A 
ATOM     75  C   UNL A   1      38.943  33.224  37.838  1.00  0.00     0.031 A 
ATOM     76  C   UNL A   1      39.874  35.127  36.691  1.00  0.00     0.131 A 
ATOM     77  C   UNL A   1      38.680  34.053  38.940  1.00  0.00     0.055 A 
ATOM     78  C   UNL A   1      39.645  35.939  37.803  1.00  0.00     0.041 A 
ATOM     79  F   UNL A   1      40.459  35.685  35.618  1.00  0.00    -0.206 F 
ATOM     80  C   UNL A   1      39.037  35.403  38.934  1.00  0.00     0.022 A 
BRANCH  77  81
ATOM     81  S   UNL A   1      37.829  33.345  40.377  1.00  0.00     0.124 S 
ATOM     82  O   UNL A   1      38.587  32.119  40.598  1.00  0.00    -0.237 OA
ATOM     83  O   UNL A   1      37.998  34.394  41.377  1.00  0.00    -0.237 OA
ATOM     84  O   UNL A   1      36.459  33.157  39.903  1.00  0.00    -0.744 OA
ENDBRANCH  77  81
ENDBRANCH  50  74
BRANCH  62  85
ATOM     85  C   UNL A   1      44.128  28.658  35.364  1.00  0.00     0.023 A 
ATOM     86  C   UNL A   1      43.970  27.677  36.357  1.00  0.00     0.031 A 
ATOM     87  C   UNL A   1      45.428  29.118  35.086  1.00  0.00     0.131 A 
ATOM     88  C   UNL A   1      45.090  27.214  37.063  1.00  0.00     0.055 A 
ATOM     89  C   UNL A   1      46.544  28.616  35.753  1.00  0.00     0.041 A 
ATOM     90  F   UNL A   1      45.633  30.055  34.146  1.00  0.00    -0.206 F 
ATOM     91  C   UNL A   1      46.377  27.663  36.754  1.00  0.00     0.022 A 
BRANCH  88  92
ATOM     92  S   UNL A   1      44.841  26.054  38.435  1.00  0.00     0.124 S 
ATOM     93  O   UNL A   1      43.522  26.443  38.924  1.00  0.00    -0.237 OA
ATOM     94  O   UNL A   1      44.919  24.759  37.768  1.00  0.00    -0.237 OA
ATOM     95  O   UNL A   1      45.950  26.350  39.341  1.00  0.00    -0.744 OA
ENDBRANCH  88  92
ENDBRANCH  62  85
ENDBRANCH  36  37
ENDBRANCH  28  31
ENDBRANCH  26  27
ENDBRANCH   1  26
TORSDOF 17
ENDMDL
MODEL 3
REMARK VINA RESULT:     -11.8      1.501      2.143
REMARK SMILES CC(C)[NH2+][C@@H](C(=O)NCCCCNC(=O)c1ccc(-c2c3nc(c(-c4cc(S(=O)(=O)[O-])ccc4F)c4ccc([nH]4)c(-c4cc(S(=O)(=O)[O-])ccc4F)c4nc(c(-c5cc(S(=O)(=O)[O-])ccc5F)c5ccc2[nH]5)C=C4)C=C3)cc1)c1c[nH]c2ccc(Br)cc12
REMARK SMILES IDX 11 1 10 2 9 3 8 4 6 5 7 6 5 8 4 9 2 12 1 13 3 14 79 15 80 16
REMARK SMILES IDX 88 17 81 18 82 19 87 20 83 22 85 23 84 24 86 25 12 26 13 27
REMARK SMILES IDX 14 28 15 30 16 31 17 32 78 33 18 34 77 35 19 36 20 37 21 38
REMARK SMILES IDX 71 39 22 40 76 41 70 42 72 43 23 44 75 45 69 46 68 47 24 49
REMARK SMILES IDX 56 50 36 51 55 52 37 53 40 54 54 55 73 56 38 57 39 58 53 60
REMARK SMILES IDX 74 61 41 62 25 63 26 64 34 65 27 66 33 67 35 68 32 69 28 70
REMARK SMILES IDX 29 71 30 72 31 73 57 74 58 75 66 76 59 77 65 78 67 79 64 80
REMARK SMILES IDX 60 81 61 82 62 83 63 84 42 85 43 86 51 87 44 88 50 89 52 90
REMARK SMILES IDX 49 91 45 92 46 93 47 94 48 95
REMARK H PARENT 8 7 4 10 4 11 81 21 13 29 72 48 40 59
REMARK Flexibility Score: inf
ROOT
ATOM      1  C   UNL A   1      31.935  29.330  25.000  1.00  0.00     0.023 C 
ENDROOT
BRANCH   1   2
ATOM      2  C   UNL A   1      31.253  27.977  25.196  1.00  0.00     0.023 C 
BRANCH   2   3
ATOM      3  C   UNL A   1      31.708  27.133  26.405  1.00  0.00     0.116 C 
BRANCH   3   4
ATOM      4  N   UNL A   1      30.960  25.908  26.648  1.00  0.00    -0.351 N 
ATOM      5  C   UNL A   1      31.281  24.574  26.611  1.00  0.00     0.283 C 
ATOM      6  O   UNL A   1      30.465  23.840  27.180  1.00  0.00    -0.268 OA
ATOM      7  H   UNL A   1      30.021  26.072  26.893  1.00  0.00     0.163 HD
BRANCH   5   8
ATOM      8  C   UNL A   1      32.598  24.027  26.012  1.00  0.00     0.306 C 
BRANCH   8   9
ATOM      9  N   UNL A   1      32.646  23.785  24.548  1.00  0.00    -0.330 N 
ATOM     10  H   UNL A   1      32.625  22.773  24.429  1.00  0.00     0.347 HD
ATOM     11  H   UNL A   1      31.865  24.354  24.223  1.00  0.00     0.347 HD
BRANCH   9  12
ATOM     12  C   UNL A   1      33.722  24.263  23.704  1.00  0.00     0.176 C 
ATOM     13  C   UNL A   1      34.071  23.192  22.665  1.00  0.00     0.075 C 
ATOM     14  C   UNL A   1      33.661  25.631  23.031  1.00  0.00     0.075 C 
ENDBRANCH   9  12
ENDBRANCH   8   9
BRANCH   8  15
ATOM     15  C   UNL A   1      33.198  22.749  26.618  1.00  0.00     0.044 A 
ATOM     16  C   UNL A   1      34.184  22.790  27.621  1.00  0.00     0.094 A 
ATOM     17  C   UNL A   1      33.489  21.477  26.015  1.00  0.00     0.010 A 
ATOM     18  N   UNL A   1      35.292  22.483  26.810  1.00  0.00    -0.361 N 
ATOM     19  C   UNL A   1      34.891  21.429  26.010  1.00  0.00     0.046 A 
ATOM     20  C   UNL A   1      32.791  20.442  25.366  1.00  0.00     0.026 A 
ATOM     21  H   UNL A   1      36.170  22.928  26.813  1.00  0.00     0.166 HD
ATOM     22  C   UNL A   1      35.632  20.527  25.247  1.00  0.00     0.028 A 
ATOM     23  C   UNL A   1      33.532  19.413  24.767  1.00  0.00     0.018 A 
ATOM     24  C   UNL A   1      34.922  19.483  24.655  1.00  0.00     0.018 A 
ATOM     25  Br  UNL A   1      32.641  17.871  24.124  1.00  0.00    -0.051 Br
ENDBRANCH   8  15
ENDBRANCH   5   8
ENDBRANCH   3   4
ENDBRANCH   2   3
ENDBRANCH   1   2
BRANCH   1  26
ATOM     26  C   UNL A   1      32.533  29.852  26.289  1.00  0.00     0.116 C 
BRANCH  26  27
ATOM     27  N   UNL A   1      32.168  31.244  26.538  1.00  0.00    -0.352 N 
ATOM     28  C   UNL A   1      32.862  32.201  27.250  1.00  0.00     0.251 C 
ATOM     29  H   UNL A   1      31.315  31.539  26.146  1.00  0.00     0.163 HD
ATOM     30  O   UNL A   1      32.367  33.285  27.482  1.00  0.00    -0.269 OA
BRANCH  28  31
ATOM     31  C   UNL A   1      34.201  31.840  27.764  1.00  0.00     0.039 A 
ATOM     32  C   UNL A   1      35.174  32.834  27.890  1.00  0.00     0.014 A 
ATOM     33  C   UNL A   1      34.443  30.540  28.211  1.00  0.00     0.014 A 
ATOM     34  C   UNL A   1      36.370  32.539  28.546  1.00  0.00     0.010 A 
ATOM     35  C   UNL A   1      35.581  30.281  28.955  1.00  0.00     0.010 A 
ATOM     36  C   UNL A   1      36.561  31.274  29.122  1.00  0.00    -0.014 A 
BRANCH  36  37
ATOM     37  C   UNL A   1      37.791  30.914  29.868  1.00  0.00     0.031 A 
ATOM     38  C   UNL A   1      38.764  29.961  29.231  1.00  0.00     0.074 A 
ATOM     39  C   UNL A   1      37.956  31.319  31.140  1.00  0.00     0.049 A 
ATOM     40  N   UNL A   1      39.765  29.313  29.765  1.00  0.00    -0.248 NA
ATOM     41  C   UNL A   1      38.525  29.646  27.815  1.00  0.00     0.031 C 
ATOM     42  C   UNL A   1      37.049  32.202  31.875  1.00  0.00     0.029 A 
ATOM     43  N   UNL A   1      38.933  31.011  32.054  1.00  0.00    -0.354 N 
ATOM     44  C   UNL A   1      40.242  28.474  28.762  1.00  0.00     0.074 A 
ATOM     45  C   UNL A   1      39.371  28.649  27.619  1.00  0.00     0.031 C 
ATOM     46  C   UNL A   1      37.511  32.365  33.125  1.00  0.00     0.029 A 
ATOM     47  C   UNL A   1      38.717  31.561  33.295  1.00  0.00     0.049 A 
ATOM     48  H   UNL A   1      39.713  30.450  31.840  1.00  0.00     0.167 HD
ATOM     49  C   UNL A   1      41.321  27.653  28.788  1.00  0.00     0.034 A 
ATOM     50  C   UNL A   1      39.400  31.409  34.447  1.00  0.00     0.034 A 
ATOM     51  C   UNL A   1      42.190  27.532  29.933  1.00  0.00     0.049 A 
ATOM     52  C   UNL A   1      40.615  30.519  34.454  1.00  0.00     0.074 A 
ATOM     53  C   UNL A   1      43.357  26.802  30.059  1.00  0.00     0.029 A 
ATOM     54  N   UNL A   1      41.980  28.163  31.155  1.00  0.00    -0.354 N 
ATOM     55  N   UNL A   1      41.092  29.767  33.489  1.00  0.00    -0.248 NA
ATOM     56  C   UNL A   1      41.391  30.466  35.699  1.00  0.00     0.031 C 
ATOM     57  C   UNL A   1      43.820  26.942  31.372  1.00  0.00     0.029 A 
ATOM     58  C   UNL A   1      42.984  27.820  32.047  1.00  0.00     0.049 A 
ATOM     59  H   UNL A   1      41.228  28.764  31.357  1.00  0.00     0.167 HD
ATOM     60  C   UNL A   1      42.241  29.172  34.001  1.00  0.00     0.074 A 
ATOM     61  C   UNL A   1      42.386  29.657  35.360  1.00  0.00     0.031 C 
ATOM     62  C   UNL A   1      43.104  28.314  33.399  1.00  0.00     0.034 A 
BRANCH  49  63
ATOM     63  C   UNL A   1      41.579  26.815  27.556  1.00  0.00     0.023 A 
ATOM     64  C   UNL A   1      41.171  25.471  27.477  1.00  0.00     0.031 A 
ATOM     65  C   UNL A   1      42.321  27.335  26.480  1.00  0.00     0.131 A 
ATOM     66  C   UNL A   1      41.613  24.663  26.419  1.00  0.00     0.055 A 
ATOM     67  C   UNL A   1      42.666  26.553  25.375  1.00  0.00     0.041 A 
ATOM     68  F   UNL A   1      42.756  28.605  26.499  1.00  0.00    -0.206 F 
ATOM     69  C   UNL A   1      42.334  25.201  25.352  1.00  0.00     0.022 A 
BRANCH  66  70
ATOM     70  S   UNL A   1      41.411  22.866  26.568  1.00  0.00     0.124 S 
ATOM     71  O   UNL A   1      39.958  22.727  26.501  1.00  0.00    -0.237 OA
ATOM     72  O   UNL A   1      42.155  22.368  25.417  1.00  0.00    -0.237 OA
ATOM     73  O   UNL A   1      41.998  22.562  27.872  1.00  0.00    -0.744 OA
ENDBRANCH  66  70
ENDBRANCH  49  63
BRANCH  50  74
ATOM     74  C   UNL A   1      38.940  32.105  35.680  1.00  0.00     0.023 A 
ATOM     75  C   UNL A   1      38.239  31.416  36.682  1.00  0.00     0.031 A 
ATOM     76  C   UNL A   1      39.216  33.468  35.884  1.00  0.00     0.131 A 
ATOM     77  C   UNL A   1      37.814  32.099  37.833  1.00  0.00     0.055 A 
ATOM     78  C   UNL A   1      38.825  34.134  37.047  1.00  0.00     0.041 A 
ATOM     79  F   UNL A   1      39.898  34.167  34.962  1.00  0.00    -0.206 F 
ATOM     80  C   UNL A   1      38.113  33.450  38.027  1.00  0.00     0.022 A 
BRANCH  77  81
ATOM     81  S   UNL A   1      36.832  31.200  39.065  1.00  0.00     0.124 S 
ATOM     82  O   UNL A   1      36.681  29.896  38.431  1.00  0.00    -0.237 OA
ATOM     83  O   UNL A   1      37.699  31.248  40.238  1.00  0.00    -0.237 OA
ATOM     84  O   UNL A   1      35.608  31.991  39.167  1.00  0.00    -0.744 OA
ENDBRANCH  77  81
ENDBRANCH  50  74
BRANCH  62  85
ATOM     85  C   UNL A   1      44.316  27.891  34.191  1.00  0.00     0.023 A 
ATOM     86  C   UNL A   1      44.330  26.714  34.957  1.00  0.00     0.031 A 
ATOM     87  C   UNL A   1      45.483  28.675  34.152  1.00  0.00     0.131 A 
ATOM     88  C   UNL A   1      45.480  26.372  35.685  1.00  0.00     0.055 A 
ATOM     89  C   UNL A   1      46.640  28.302  34.835  1.00  0.00     0.041 A 
ATOM     90  F   UNL A   1      45.520  29.809  33.434  1.00  0.00    -0.206 F 
ATOM     91  C   UNL A   1      46.640  27.149  35.615  1.00  0.00     0.022 A 
BRANCH  88  92
ATOM     92  S   UNL A   1      45.424  24.926  36.778  1.00  0.00     0.124 S 
ATOM     93  O   UNL A   1      46.799  24.860  37.264  1.00  0.00    -0.237 OA
ATOM     94  O   UNL A   1      44.417  25.314  37.760  1.00  0.00    -0.237 OA
ATOM     95  O   UNL A   1      45.030  23.836  35.886  1.00  0.00    -0.744 OA
ENDBRANCH  88  92
ENDBRANCH  62  85
ENDBRANCH  36  37
ENDBRANCH  28  31
ENDBRANCH  26  27
ENDBRANCH   1  26
TORSDOF 17
ENDMDL
