MODEL 1
REMARK VINA RESULT:     -12.3      0.000      0.000
REMARK SMILES Cc1occc1C(=O)NN1C(=O)/C(=C\c2ccc(O[C@H](C)C(=O)NCCCCNC(=O)c3ccc(-c4c5nc(c(-c6cc(S(=O)(=O)[O-])ccc6F)c6ccc([nH]6)c(-c6cc(S(=O)(=O)[O-])ccc6F)c6nc(c(-c7cc(S(=O)(=O)[O-])ccc7F)c7ccc4[nH]7)C=C6)C=C5)cc3)cc2)SC1=S
REMARK SMILES IDX 25 1 24 2 22 3 23 4 20 6 21 7 19 8 18 9 15 10 16 11 96 12
REMARK SMILES IDX 17 13 95 14 14 15 10 16 11 17 98 18 12 19 13 20 97 21 99 22
REMARK SMILES IDX 9 23 7 24 8 25 6 27 1 28 2 29 3 30 4 31 5 32 26 33 27 34
REMARK SMILES IDX 28 35 29 36 30 37 31 39 32 40 33 41 94 42 34 43 93 44 35 45
REMARK SMILES IDX 36 46 37 47 87 48 38 49 92 50 86 51 88 52 39 53 91 54 85 55
REMARK SMILES IDX 84 56 40 58 72 59 52 60 71 61 53 62 56 63 70 64 89 65 54 66
REMARK SMILES IDX 55 67 69 69 90 70 57 71 41 72 42 73 50 74 43 75 49 76 51 77
REMARK SMILES IDX 48 78 44 79 45 80 46 81 47 82 73 83 74 84 82 85 75 86 81 87
REMARK SMILES IDX 83 88 80 89 76 90 77 91 78 92 79 93 58 94 59 95 67 96 60 97
REMARK SMILES IDX 66 98 68 99 65 100 61 101 62 102 63 103 64 104
REMARK H PARENT 24 5 9 26 29 38 88 57 56 68
REMARK Flexibility Score: inf
ROOT
ATOM      1  C   UNL A   1      35.602  18.558  24.977  1.00  0.00     0.116 C 
ENDROOT
BRANCH   1   2
ATOM      2  N   UNL A   1      35.281  17.563  23.980  1.00  0.00    -0.353 N 
ATOM      3  C   UNL A   1      34.101  16.974  23.653  1.00  0.00     0.260 C 
ATOM      4  O   UNL A   1      34.112  16.260  22.639  1.00  0.00    -0.271 OA
ATOM      5  H   UNL A   1      36.050  17.258  23.447  1.00  0.00     0.163 HD
BRANCH   3   6
ATOM      6  C   UNL A   1      32.811  17.046  24.520  1.00  0.00     0.258 C 
ATOM      7  C   UNL A   1      33.022  16.254  25.809  1.00  0.00     0.064 C 
BRANCH   6   8
ATOM      8  O   UNL A   1      32.001  18.212  24.566  1.00  0.00    -0.481 OA
BRANCH   8   9
ATOM      9  C   UNL A   1      32.438  19.480  24.769  1.00  0.00     0.120 A 
ATOM     10  C   UNL A   1      33.423  22.118  24.869  1.00  0.00    -0.024 A 
ATOM     11  C   UNL A   1      33.283  21.360  26.033  1.00  0.00     0.012 A 
ATOM     12  C   UNL A   1      33.056  21.558  23.644  1.00  0.00     0.012 A 
ATOM     13  C   UNL A   1      32.780  20.059  25.985  1.00  0.00     0.047 A 
ATOM     14  C   UNL A   1      32.552  20.253  23.604  1.00  0.00     0.047 A 
BRANCH  10  15
ATOM     15  C   UNL A   1      33.867  23.503  25.031  1.00  0.00     0.029 C 
ATOM     16  N   UNL A   1      31.053  25.788  25.294  1.00  0.00    -0.198 N 
ATOM     17  C   UNL A   1      31.542  24.503  25.117  1.00  0.00     0.285 C 
ATOM     18  C   UNL A   1      31.910  26.752  25.777  1.00  0.00     0.168 C 
ATOM     19  O   UNL A   1      30.848  23.520  24.928  1.00  0.00    -0.266 OA
ATOM     20  C   UNL A   1      33.029  24.529  25.232  1.00  0.00     0.082 C 
ATOM     21  S   UNL A   1      33.553  26.105  25.730  1.00  0.00    -0.052 SA
ATOM     22  S   UNL A   1      31.535  28.271  26.348  1.00  0.00    -0.050 S 
BRANCH  16  23
ATOM     23  N   UNL A   1      29.677  25.943  25.200  1.00  0.00    -0.254 N 
ATOM     24  C   UNL A   1      28.980  26.580  24.201  1.00  0.00     0.273 C 
ATOM     25  O   UNL A   1      27.760  26.394  24.174  1.00  0.00    -0.267 OA
ATOM     26  H   UNL A   1      29.142  25.552  25.929  1.00  0.00     0.192 HD
BRANCH  24  27
ATOM     27  C   UNL A   1      29.587  27.545  23.292  1.00  0.00     0.082 A 
ATOM     28  C   UNL A   1      31.597  26.463  21.904  1.00  0.00     0.088 C 
ATOM     29  C   UNL A   1      30.647  27.480  22.394  1.00  0.00     0.113 A 
ATOM     30  O   UNL A   1      30.808  28.686  21.770  1.00  0.00    -0.469 OA
ATOM     31  C   UNL A   1      29.828  29.511  22.195  1.00  0.00     0.196 A 
ATOM     32  C   UNL A   1      29.039  28.860  23.104  1.00  0.00     0.056 A 
ENDBRANCH  24  27
ENDBRANCH  16  23
ENDBRANCH  10  15
ENDBRANCH   8   9
ENDBRANCH   6   8
ENDBRANCH   3   6
ENDBRANCH   1   2
BRANCH   1  33
ATOM     33  C   UNL A   1      36.889  19.320  24.668  1.00  0.00     0.023 C 
BRANCH  33  34
ATOM     34  C   UNL A   1      36.831  20.812  25.006  1.00  0.00     0.023 C 
BRANCH  34  35
ATOM     35  C   UNL A   1      38.140  21.425  25.502  1.00  0.00     0.116 C 
BRANCH  35  36
ATOM     36  N   UNL A   1      39.117  20.446  25.956  1.00  0.00    -0.352 N 
ATOM     37  C   UNL A   1      40.287  20.672  26.646  1.00  0.00     0.251 C 
ATOM     38  H   UNL A   1      38.916  19.506  25.743  1.00  0.00     0.163 HD
ATOM     39  O   UNL A   1      41.054  19.741  26.874  1.00  0.00    -0.269 OA
BRANCH  37  40
ATOM     40  C   UNL A   1      40.626  22.053  27.057  1.00  0.00     0.039 A 
ATOM     41  C   UNL A   1      41.455  22.245  28.164  1.00  0.00     0.014 A 
ATOM     42  C   UNL A   1      40.181  23.148  26.310  1.00  0.00     0.014 A 
ATOM     43  C   UNL A   1      41.907  23.531  28.470  1.00  0.00     0.010 A 
ATOM     44  C   UNL A   1      40.689  24.417  26.576  1.00  0.00     0.010 A 
ATOM     45  C   UNL A   1      41.568  24.620  27.650  1.00  0.00    -0.014 A 
BRANCH  45  46
ATOM     46  C   UNL A   1      42.151  25.968  27.886  1.00  0.00     0.031 A 
ATOM     47  C   UNL A   1      41.328  27.055  28.520  1.00  0.00     0.074 A 
ATOM     48  C   UNL A   1      43.405  26.229  27.464  1.00  0.00     0.049 A 
ATOM     49  N   UNL A   1      41.652  28.298  28.770  1.00  0.00    -0.248 NA
ATOM     50  C   UNL A   1      39.950  26.706  28.893  1.00  0.00     0.031 C 
ATOM     51  C   UNL A   1      44.280  25.275  26.776  1.00  0.00     0.029 A 
ATOM     52  N   UNL A   1      44.162  27.371  27.544  1.00  0.00    -0.354 N 
ATOM     53  C   UNL A   1      40.517  28.883  29.323  1.00  0.00     0.074 A 
ATOM     54  C   UNL A   1      39.479  27.872  29.308  1.00  0.00     0.031 C 
ATOM     55  C   UNL A   1      45.461  25.863  26.525  1.00  0.00     0.029 A 
ATOM     56  C   UNL A   1      45.419  27.243  26.997  1.00  0.00     0.049 A 
ATOM     57  H   UNL A   1      43.836  28.204  27.953  1.00  0.00     0.167 HD
ATOM     58  C   UNL A   1      40.363  30.135  29.820  1.00  0.00     0.034 A 
ATOM     59  C   UNL A   1      46.421  28.136  26.886  1.00  0.00     0.034 A 
ATOM     60  C   UNL A   1      41.410  31.128  29.836  1.00  0.00     0.049 A 
ATOM     61  C   UNL A   1      46.226  29.523  27.442  1.00  0.00     0.074 A 
ATOM     62  C   UNL A   1      41.382  32.403  30.374  1.00  0.00     0.029 A 
ATOM     63  N   UNL A   1      42.673  30.961  29.281  1.00  0.00    -0.354 N 
ATOM     64  N   UNL A   1      45.168  30.037  28.026  1.00  0.00    -0.248 NA
ATOM     65  C   UNL A   1      47.365  30.443  27.336  1.00  0.00     0.031 C 
ATOM     66  C   UNL A   1      42.602  33.028  30.088  1.00  0.00     0.029 A 
ATOM     67  C   UNL A   1      43.420  32.120  29.435  1.00  0.00     0.049 A 
ATOM     68  H   UNL A   1      42.992  30.139  28.842  1.00  0.00     0.167 HD
ATOM     69  C   UNL A   1      45.525  31.335  28.379  1.00  0.00     0.074 A 
ATOM     70  C   UNL A   1      46.901  31.515  27.961  1.00  0.00     0.031 C 
ATOM     71  C   UNL A   1      44.785  32.292  28.995  1.00  0.00     0.034 A 
BRANCH  58  72
ATOM     72  C   UNL A   1      39.002  30.499  30.369  1.00  0.00     0.023 A 
ATOM     73  C   UNL A   1      38.032  31.131  29.572  1.00  0.00     0.031 A 
ATOM     74  C   UNL A   1      38.680  30.238  31.712  1.00  0.00     0.131 A 
ATOM     75  C   UNL A   1      36.822  31.554  30.143  1.00  0.00     0.055 A 
ATOM     76  C   UNL A   1      37.441  30.586  32.253  1.00  0.00     0.041 A 
ATOM     77  F   UNL A   1      39.572  29.654  32.528  1.00  0.00    -0.206 F 
ATOM     78  C   UNL A   1      36.509  31.264  31.472  1.00  0.00     0.022 A 
BRANCH  75  79
ATOM     79  S   UNL A   1      35.729  32.619  29.161  1.00  0.00     0.124 S 
ATOM     80  O   UNL A   1      34.450  32.437  29.843  1.00  0.00    -0.237 OA
ATOM     81  O   UNL A   1      36.351  33.929  29.307  1.00  0.00    -0.237 OA
ATOM     82  O   UNL A   1      35.799  32.039  27.822  1.00  0.00    -0.744 OA
ENDBRANCH  75  79
ENDBRANCH  58  72
BRANCH  59  83
ATOM     83  C   UNL A   1      47.702  27.755  26.223  1.00  0.00     0.023 A 
ATOM     84  C   UNL A   1      47.835  27.802  24.826  1.00  0.00     0.031 A 
ATOM     85  C   UNL A   1      48.799  27.303  26.976  1.00  0.00     0.131 A 
ATOM     86  C   UNL A   1      49.021  27.360  24.222  1.00  0.00     0.055 A 
ATOM     87  C   UNL A   1      49.996  26.911  26.373  1.00  0.00     0.041 A 
ATOM     88  F   UNL A   1      48.728  27.247  28.316  1.00  0.00    -0.206 F 
ATOM     89  C   UNL A   1      50.107  26.926  24.986  1.00  0.00     0.022 A 
BRANCH  86  90
ATOM     90  S   UNL A   1      49.098  27.290  22.410  1.00  0.00     0.124 S 
ATOM     91  O   UNL A   1      48.436  26.020  22.134  1.00  0.00    -0.237 OA
ATOM     92  O   UNL A   1      48.366  28.493  22.030  1.00  0.00    -0.237 OA
ATOM     93  O   UNL A   1      50.532  27.321  22.130  1.00  0.00    -0.744 OA
ENDBRANCH  86  90
ENDBRANCH  59  83
BRANCH  71  94
ATOM     94  C   UNL A   1      45.470  33.607  29.276  1.00  0.00     0.023 A 
ATOM     95  C   UNL A   1      45.492  34.646  28.329  1.00  0.00     0.031 A 
ATOM     96  C   UNL A   1      46.136  33.812  30.498  1.00  0.00     0.131 A 
ATOM     97  C   UNL A   1      46.217  35.818  28.594  1.00  0.00     0.055 A 
ATOM     98  C   UNL A   1      46.803  35.006  30.781  1.00  0.00     0.041 A 
ATOM     99  F   UNL A   1      46.149  32.853  31.438  1.00  0.00    -0.206 F 
ATOM    100  C   UNL A   1      46.858  36.011  29.819  1.00  0.00     0.022 A 
BRANCH  97 101
ATOM    101  S   UNL A   1      46.394  37.048  27.271  1.00  0.00     0.124 S 
ATOM    102  O   UNL A   1      47.198  36.325  26.292  1.00  0.00    -0.237 OA
ATOM    103  O   UNL A   1      45.007  37.302  26.895  1.00  0.00    -0.237 OA
ATOM    104  O   UNL A   1      47.072  38.164  27.929  1.00  0.00    -0.744 OA
ENDBRANCH  97 101
ENDBRANCH  71  94
ENDBRANCH  45  46
ENDBRANCH  37  40
ENDBRANCH  35  36
ENDBRANCH  34  35
ENDBRANCH  33  34
ENDBRANCH   1  33
TORSDOF 19
ENDMDL
MODEL 2
REMARK VINA RESULT:     -12.1      1.025      7.156
REMARK SMILES Cc1occc1C(=O)NN1C(=O)/C(=C\c2ccc(O[C@H](C)C(=O)NCCCCNC(=O)c3ccc(-c4c5nc(c(-c6cc(S(=O)(=O)[O-])ccc6F)c6ccc([nH]6)c(-c6cc(S(=O)(=O)[O-])ccc6F)c6nc(c(-c7cc(S(=O)(=O)[O-])ccc7F)c7ccc4[nH]7)C=C6)C=C5)cc3)cc2)SC1=S
REMARK SMILES IDX 25 1 24 2 22 3 23 4 20 6 21 7 19 8 18 9 15 10 16 11 96 12
REMARK SMILES IDX 17 13 95 14 14 15 10 16 11 17 98 18 12 19 13 20 97 21 99 22
REMARK SMILES IDX 9 23 7 24 8 25 6 27 1 28 2 29 3 30 4 31 5 32 26 33 27 34
REMARK SMILES IDX 28 35 29 36 30 37 31 39 32 40 33 41 94 42 34 43 93 44 35 45
REMARK SMILES IDX 36 46 37 47 87 48 38 49 92 50 86 51 88 52 39 53 91 54 85 55
REMARK SMILES IDX 84 56 40 58 72 59 52 60 71 61 53 62 56 63 70 64 89 65 54 66
REMARK SMILES IDX 55 67 69 69 90 70 57 71 41 72 42 73 50 74 43 75 49 76 51 77
REMARK SMILES IDX 48 78 44 79 45 80 46 81 47 82 73 83 74 84 82 85 75 86 81 87
REMARK SMILES IDX 83 88 80 89 76 90 77 91 78 92 79 93 58 94 59 95 67 96 60 97
REMARK SMILES IDX 66 98 68 99 65 100 61 101 62 102 63 103 64 104
REMARK H PARENT 24 5 9 26 29 38 88 57 56 68
REMARK Flexibility Score: inf
ROOT
ATOM      1  C   UNL A   1      35.649  18.907  24.862  1.00  0.00     0.116 C 
ENDROOT
BRANCH   1   2
ATOM      2  N   UNL A   1      35.383  17.747  24.044  1.00  0.00    -0.353 N 
ATOM      3  C   UNL A   1      34.222  17.103  23.754  1.00  0.00     0.260 C 
ATOM      4  O   UNL A   1      34.292  16.218  22.889  1.00  0.00    -0.271 OA
ATOM      5  H   UNL A   1      36.182  17.355  23.623  1.00  0.00     0.163 HD
BRANCH   3   6
ATOM      6  C   UNL A   1      32.881  17.325  24.511  1.00  0.00     0.258 C 
ATOM      7  C   UNL A   1      32.976  16.707  25.905  1.00  0.00     0.064 C 
BRANCH   6   8
ATOM      8  O   UNL A   1      32.112  18.509  24.346  1.00  0.00    -0.481 OA
BRANCH   8   9
ATOM      9  C   UNL A   1      32.533  19.775  24.594  1.00  0.00     0.120 A 
ATOM     10  C   UNL A   1      33.496  22.416  24.789  1.00  0.00    -0.024 A 
ATOM     11  C   UNL A   1      33.317  21.631  25.930  1.00  0.00     0.012 A 
ATOM     12  C   UNL A   1      33.180  21.881  23.540  1.00  0.00     0.012 A 
ATOM     13  C   UNL A   1      32.825  20.328  25.834  1.00  0.00     0.047 A 
ATOM     14  C   UNL A   1      32.685  20.574  23.451  1.00  0.00     0.047 A 
BRANCH  10  15
ATOM     15  C   UNL A   1      33.924  23.799  24.999  1.00  0.00     0.029 C 
ATOM     16  N   UNL A   1      31.085  26.045  25.316  1.00  0.00    -0.198 N 
ATOM     17  C   UNL A   1      31.588  24.772  25.101  1.00  0.00     0.285 C 
ATOM     18  C   UNL A   1      31.928  27.002  25.835  1.00  0.00     0.168 C 
ATOM     19  O   UNL A   1      30.905  23.788  24.875  1.00  0.00    -0.266 OA
ATOM     20  C   UNL A   1      33.074  24.809  25.227  1.00  0.00     0.082 C 
ATOM     21  S   UNL A   1      33.578  26.373  25.778  1.00  0.00    -0.052 SA
ATOM     22  S   UNL A   1      31.534  28.498  26.452  1.00  0.00    -0.050 S 
BRANCH  16  23
ATOM     23  N   UNL A   1      29.707  26.188  25.218  1.00  0.00    -0.254 N 
ATOM     24  C   UNL A   1      29.006  26.781  24.195  1.00  0.00     0.273 C 
ATOM     25  O   UNL A   1      27.787  26.588  24.176  1.00  0.00    -0.267 OA
ATOM     26  H   UNL A   1      29.176  25.825  25.962  1.00  0.00     0.192 HD
BRANCH  24  27
ATOM     27  C   UNL A   1      29.607  27.712  23.247  1.00  0.00     0.082 A 
ATOM     28  C   UNL A   1      31.609  26.581  21.886  1.00  0.00     0.088 C 
ATOM     29  C   UNL A   1      30.661  27.615  22.345  1.00  0.00     0.113 A 
ATOM     30  O   UNL A   1      30.818  28.798  21.676  1.00  0.00    -0.469 OA
ATOM     31  C   UNL A   1      29.840  29.636  22.077  1.00  0.00     0.196 A 
ATOM     32  C   UNL A   1      29.057  29.020  23.014  1.00  0.00     0.056 A 
ENDBRANCH  24  27
ENDBRANCH  16  23
ENDBRANCH  10  15
ENDBRANCH   8   9
ENDBRANCH   6   8
ENDBRANCH   3   6
ENDBRANCH   1   2
BRANCH   1  33
ATOM     33  C   UNL A   1      37.136  19.240  24.964  1.00  0.00     0.023 C 
BRANCH  33  34
ATOM     34  C   UNL A   1      37.439  20.739  25.031  1.00  0.00     0.023 C 
BRANCH  34  35
ATOM     35  C   UNL A   1      38.764  21.112  25.694  1.00  0.00     0.116 C 
BRANCH  35  36
ATOM     36  N   UNL A   1      39.665  19.986  25.891  1.00  0.00    -0.352 N 
ATOM     37  C   UNL A   1      40.984  20.013  26.287  1.00  0.00     0.251 C 
ATOM     38  H   UNL A   1      39.284  19.094  25.720  1.00  0.00     0.163 HD
ATOM     39  O   UNL A   1      41.637  18.975  26.315  1.00  0.00    -0.269 OA
BRANCH  37  40
ATOM     40  C   UNL A   1      41.608  21.312  26.622  1.00  0.00     0.039 A 
ATOM     41  C   UNL A   1      41.810  22.249  25.606  1.00  0.00     0.014 A 
ATOM     42  C   UNL A   1      41.929  21.629  27.946  1.00  0.00     0.014 A 
ATOM     43  C   UNL A   1      42.255  23.533  25.931  1.00  0.00     0.010 A 
ATOM     44  C   UNL A   1      42.304  22.929  28.274  1.00  0.00     0.010 A 
ATOM     45  C   UNL A   1      42.458  23.898  27.272  1.00  0.00    -0.014 A 
BRANCH  45  46
ATOM     46  C   UNL A   1      42.799  25.298  27.642  1.00  0.00     0.031 A 
ATOM     47  C   UNL A   1      44.213  25.794  27.527  1.00  0.00     0.074 A 
ATOM     48  C   UNL A   1      41.840  26.101  28.147  1.00  0.00     0.049 A 
ATOM     49  N   UNL A   1      44.706  26.966  27.837  1.00  0.00    -0.248 NA
ATOM     50  C   UNL A   1      45.210  24.836  27.028  1.00  0.00     0.031 C 
ATOM     51  C   UNL A   1      40.444  25.713  28.367  1.00  0.00     0.029 A 
ATOM     52  N   UNL A   1      41.890  27.405  28.571  1.00  0.00    -0.354 N 
ATOM     53  C   UNL A   1      46.071  26.886  27.577  1.00  0.00     0.074 A 
ATOM     54  C   UNL A   1      46.333  25.527  27.149  1.00  0.00     0.031 C 
ATOM     55  C   UNL A   1      39.767  26.765  28.857  1.00  0.00     0.029 A 
ATOM     56  C   UNL A   1      40.682  27.889  29.021  1.00  0.00     0.049 A 
ATOM     57  H   UNL A   1      42.713  27.945  28.554  1.00  0.00     0.167 HD
ATOM     58  C   UNL A   1      47.011  27.860  27.662  1.00  0.00     0.034 A 
ATOM     59  C   UNL A   1      40.351  29.098  29.513  1.00  0.00     0.034 A 
ATOM     60  C   UNL A   1      46.731  29.212  28.083  1.00  0.00     0.049 A 
ATOM     61  C   UNL A   1      41.413  30.163  29.603  1.00  0.00     0.074 A 
ATOM     62  C   UNL A   1      47.594  30.293  28.143  1.00  0.00     0.029 A 
ATOM     63  N   UNL A   1      45.496  29.668  28.524  1.00  0.00    -0.354 N 
ATOM     64  N   UNL A   1      42.685  30.090  29.286  1.00  0.00    -0.248 NA
ATOM     65  C   UNL A   1      40.990  31.477  30.103  1.00  0.00     0.031 C 
ATOM     66  C   UNL A   1      46.898  31.382  28.680  1.00  0.00     0.029 A 
ATOM     67  C   UNL A   1      45.581  31.004  28.888  1.00  0.00     0.049 A 
ATOM     68  H   UNL A   1      44.677  29.123  28.573  1.00  0.00     0.167 HD
ATOM     69  C   UNL A   1      43.208  31.357  29.526  1.00  0.00     0.074 A 
ATOM     70  C   UNL A   1      42.109  32.178  29.993  1.00  0.00     0.031 C 
ATOM     71  C   UNL A   1      44.481  31.805  29.372  1.00  0.00     0.034 A 
BRANCH  58  72
ATOM     72  C   UNL A   1      48.431  27.483  27.310  1.00  0.00     0.023 A 
ATOM     73  C   UNL A   1      48.958  27.712  26.028  1.00  0.00     0.031 A 
ATOM     74  C   UNL A   1      49.262  26.859  28.259  1.00  0.00     0.131 A 
ATOM     75  C   UNL A   1      50.242  27.249  25.703  1.00  0.00     0.055 A 
ATOM     76  C   UNL A   1      50.569  26.476  27.954  1.00  0.00     0.041 A 
ATOM     77  F   UNL A   1      48.810  26.596  29.495  1.00  0.00    -0.206 F 
ATOM     78  C   UNL A   1      51.061  26.655  26.664  1.00  0.00     0.022 A 
BRANCH  75  79
ATOM     79  S   UNL A   1      50.766  27.303  23.966  1.00  0.00     0.124 S 
ATOM     80  O   UNL A   1      50.918  28.739  23.749  1.00  0.00    -0.237 OA
ATOM     81  O   UNL A   1      51.998  26.524  23.985  1.00  0.00    -0.237 OA
ATOM     82  O   UNL A   1      49.649  26.688  23.253  1.00  0.00    -0.744 OA
ENDBRANCH  75  79
ENDBRANCH  58  72
BRANCH  59  83
ATOM     83  C   UNL A   1      38.956  29.376  29.961  1.00  0.00     0.023 A 
ATOM     84  C   UNL A   1      38.076  30.124  29.162  1.00  0.00     0.031 A 
ATOM     85  C   UNL A   1      38.494  28.928  31.211  1.00  0.00     0.131 A 
ATOM     86  C   UNL A   1      36.797  30.442  29.641  1.00  0.00     0.055 A 
ATOM     87  C   UNL A   1      37.203  29.205  31.662  1.00  0.00     0.041 A 
ATOM     88  F   UNL A   1      39.292  28.201  32.009  1.00  0.00    -0.206 F 
ATOM     89  C   UNL A   1      36.349  29.978  30.880  1.00  0.00     0.022 A 
BRANCH  86  90
ATOM     90  S   UNL A   1      35.747  31.540  28.648  1.00  0.00     0.124 S 
ATOM     91  O   UNL A   1      36.666  32.629  28.337  1.00  0.00    -0.237 OA
ATOM     92  O   UNL A   1      35.374  30.675  27.535  1.00  0.00    -0.237 OA
ATOM     93  O   UNL A   1      34.657  31.884  29.560  1.00  0.00    -0.744 OA
ENDBRANCH  86  90
ENDBRANCH  59  83
BRANCH  71  94
ATOM     94  C   UNL A   1      44.734  33.259  29.688  1.00  0.00     0.023 A 
ATOM     95  C   UNL A   1      44.427  34.278  28.769  1.00  0.00     0.031 A 
ATOM     96  C   UNL A   1      45.317  33.627  30.913  1.00  0.00     0.131 A 
ATOM     97  C   UNL A   1      44.761  35.608  29.063  1.00  0.00     0.055 A 
ATOM     98  C   UNL A   1      45.590  34.960  31.227  1.00  0.00     0.041 A 
ATOM     99  F   UNL A   1      45.634  32.695  31.827  1.00  0.00    -0.206 F 
ATOM    100  C   UNL A   1      45.325  35.958  30.292  1.00  0.00     0.022 A 
BRANCH  97 101
ATOM    101  S   UNL A   1      44.540  36.867  27.775  1.00  0.00     0.124 S 
ATOM    102  O   UNL A   1      43.932  37.962  28.522  1.00  0.00    -0.237 OA
ATOM    103  O   UNL A   1      45.908  37.089  27.318  1.00  0.00    -0.237 OA
ATOM    104  O   UNL A   1      43.662  36.214  26.805  1.00  0.00    -0.744 OA
ENDBRANCH  97 101
ENDBRANCH  71  94
ENDBRANCH  45  46
ENDBRANCH  37  40
ENDBRANCH  35  36
ENDBRANCH  34  35
ENDBRANCH  33  34
ENDBRANCH   1  33
TORSDOF 19
ENDMDL
MODEL 3
REMARK VINA RESULT:     -11.6      6.089     10.247
REMARK SMILES Cc1occc1C(=O)NN1C(=O)/C(=C\c2ccc(O[C@H](C)C(=O)NCCCCNC(=O)c3ccc(-c4c5nc(c(-c6cc(S(=O)(=O)[O-])ccc6F)c6ccc([nH]6)c(-c6cc(S(=O)(=O)[O-])ccc6F)c6nc(c(-c7cc(S(=O)(=O)[O-])ccc7F)c7ccc4[nH]7)C=C6)C=C5)cc3)cc2)SC1=S
REMARK SMILES IDX 25 1 24 2 22 3 23 4 20 6 21 7 19 8 18 9 15 10 16 11 96 12
REMARK SMILES IDX 17 13 95 14 14 15 10 16 11 17 98 18 12 19 13 20 97 21 99 22
REMARK SMILES IDX 9 23 7 24 8 25 6 27 1 28 2 29 3 30 4 31 5 32 26 33 27 34
REMARK SMILES IDX 28 35 29 36 30 37 31 39 32 40 33 41 94 42 34 43 93 44 35 45
REMARK SMILES IDX 36 46 37 47 87 48 38 49 92 50 86 51 88 52 39 53 91 54 85 55
REMARK SMILES IDX 84 56 40 58 72 59 52 60 71 61 53 62 56 63 70 64 89 65 54 66
REMARK SMILES IDX 55 67 69 69 90 70 57 71 41 72 42 73 50 74 43 75 49 76 51 77
REMARK SMILES IDX 48 78 44 79 45 80 46 81 47 82 73 83 74 84 82 85 75 86 81 87
REMARK SMILES IDX 83 88 80 89 76 90 77 91 78 92 79 93 58 94 59 95 67 96 60 97
REMARK SMILES IDX 66 98 68 99 65 100 61 101 62 102 63 103 64 104
REMARK H PARENT 24 5 9 26 29 38 88 57 56 68
REMARK Flexibility Score: inf
ROOT
ATOM      1  C   UNL A   1      33.840  31.611  27.922  1.00  0.00     0.116 C 
ENDROOT
BRANCH   1   2
ATOM      2  N   UNL A   1      32.639  32.044  27.246  1.00  0.00    -0.353 N 
ATOM      3  C   UNL A   1      31.732  31.354  26.505  1.00  0.00     0.260 C 
ATOM      4  O   UNL A   1      30.711  31.977  26.179  1.00  0.00    -0.271 OA
ATOM      5  H   UNL A   1      32.444  33.004  27.338  1.00  0.00     0.163 HD
BRANCH   3   6
ATOM      6  C   UNL A   1      31.954  29.914  25.960  1.00  0.00     0.258 C 
ATOM      7  C   UNL A   1      31.801  28.910  27.101  1.00  0.00     0.064 C 
BRANCH   6   8
ATOM      8  O   UNL A   1      31.532  29.531  24.658  1.00  0.00    -0.481 OA
BRANCH   8   9
ATOM      9  C   UNL A   1      31.743  28.325  24.074  1.00  0.00     0.120 A 
ATOM     10  C   UNL A   1      31.895  25.724  23.000  1.00  0.00    -0.024 A 
ATOM     11  C   UNL A   1      33.028  26.537  23.077  1.00  0.00     0.012 A 
ATOM     12  C   UNL A   1      30.671  26.220  23.453  1.00  0.00     0.012 A 
ATOM     13  C   UNL A   1      32.949  27.831  23.595  1.00  0.00     0.047 A 
ATOM     14  C   UNL A   1      30.600  27.520  23.969  1.00  0.00     0.047 A 
BRANCH  10  15
ATOM     15  C   UNL A   1      32.059  24.421  22.355  1.00  0.00     0.029 C 
ATOM     16  N   UNL A   1      32.889  21.831  24.765  1.00  0.00    -0.198 N 
ATOM     17  C   UNL A   1      32.622  23.160  24.478  1.00  0.00     0.285 C 
ATOM     18  C   UNL A   1      32.568  20.881  23.821  1.00  0.00     0.168 C 
ATOM     19  O   UNL A   1      32.635  24.060  25.299  1.00  0.00    -0.266 OA
ATOM     20  C   UNL A   1      32.287  23.286  23.030  1.00  0.00     0.082 C 
ATOM     21  S   UNL A   1      32.174  21.712  22.313  1.00  0.00    -0.052 SA
ATOM     22  S   UNL A   1      32.510  19.226  24.003  1.00  0.00    -0.050 S 
BRANCH  16  23
ATOM     23  N   UNL A   1      33.237  21.541  26.078  1.00  0.00    -0.254 N 
ATOM     24  C   UNL A   1      34.492  21.599  26.636  1.00  0.00     0.273 C 
ATOM     25  O   UNL A   1      34.553  21.546  27.867  1.00  0.00    -0.267 OA
ATOM     26  H   UNL A   1      32.504  21.264  26.674  1.00  0.00     0.192 HD
BRANCH  24  27
ATOM     27  C   UNL A   1      35.720  21.580  25.848  1.00  0.00     0.082 A 
ATOM     28  C   UNL A   1      37.058  23.884  26.050  1.00  0.00     0.088 C 
ATOM     29  C   UNL A   1      36.723  22.514  25.614  1.00  0.00     0.113 A 
ATOM     30  O   UNL A   1      37.675  21.984  24.788  1.00  0.00    -0.469 OA
ATOM     31  C   UNL A   1      37.344  20.700  24.539  1.00  0.00     0.196 A 
ATOM     32  C   UNL A   1      36.175  20.392  25.180  1.00  0.00     0.056 A 
ENDBRANCH  24  27
ENDBRANCH  16  23
ENDBRANCH  10  15
ENDBRANCH   8   9
ENDBRANCH   6   8
ENDBRANCH   3   6
ENDBRANCH   1   2
BRANCH   1  33
ATOM     33  C   UNL A   1      34.643  32.768  28.514  1.00  0.00     0.023 C 
BRANCH  33  34
ATOM     34  C   UNL A   1      34.226  34.148  27.999  1.00  0.00     0.023 C 
BRANCH  34  35
ATOM     35  C   UNL A   1      34.484  35.312  28.956  1.00  0.00     0.116 C 
BRANCH  35  36
ATOM     36  N   UNL A   1      33.392  35.569  29.883  1.00  0.00    -0.352 N 
ATOM     37  C   UNL A   1      33.307  35.219  31.212  1.00  0.00     0.251 C 
ATOM     38  H   UNL A   1      32.618  36.053  29.514  1.00  0.00     0.163 HD
ATOM     39  O   UNL A   1      32.271  35.428  31.837  1.00  0.00    -0.269 OA
BRANCH  37  40
ATOM     40  C   UNL A   1      34.457  34.545  31.855  1.00  0.00     0.039 A 
ATOM     41  C   UNL A   1      34.360  33.186  32.161  1.00  0.00     0.014 A 
ATOM     42  C   UNL A   1      35.649  35.236  32.089  1.00  0.00     0.014 A 
ATOM     43  C   UNL A   1      35.487  32.501  32.623  1.00  0.00     0.010 A 
ATOM     44  C   UNL A   1      36.788  34.538  32.483  1.00  0.00     0.010 A 
ATOM     45  C   UNL A   1      36.722  33.160  32.742  1.00  0.00    -0.014 A 
BRANCH  45  46
ATOM     46  C   UNL A   1      37.958  32.415  33.102  1.00  0.00     0.031 A 
ATOM     47  C   UNL A   1      38.667  32.696  34.397  1.00  0.00     0.074 A 
ATOM     48  C   UNL A   1      38.475  31.529  32.226  1.00  0.00     0.049 A 
ATOM     49  N   UNL A   1      39.774  32.175  34.863  1.00  0.00    -0.248 NA
ATOM     50  C   UNL A   1      38.072  33.720  35.267  1.00  0.00     0.031 C 
ATOM     51  C   UNL A   1      37.912  31.218  30.909  1.00  0.00     0.029 A 
ATOM     52  N   UNL A   1      39.590  30.733  32.304  1.00  0.00    -0.354 N 
ATOM     53  C   UNL A   1      40.012  32.812  36.077  1.00  0.00     0.074 A 
ATOM     54  C   UNL A   1      38.969  33.804  36.238  1.00  0.00     0.031 C 
ATOM     55  C   UNL A   1      38.668  30.278  30.318  1.00  0.00     0.029 A 
ATOM     56  C   UNL A   1      39.788  29.946  31.193  1.00  0.00     0.049 A 
ATOM     57  H   UNL A   1      40.192  30.727  33.082  1.00  0.00     0.167 HD
ATOM     58  C   UNL A   1      40.992  32.574  36.984  1.00  0.00     0.034 A 
ATOM     59  C   UNL A   1      40.762  29.059  30.909  1.00  0.00     0.034 A 
ATOM     60  C   UNL A   1      42.020  31.575  36.812  1.00  0.00     0.049 A 
ATOM     61  C   UNL A   1      41.843  28.814  31.930  1.00  0.00     0.074 A 
ATOM     62  C   UNL A   1      43.021  31.207  37.695  1.00  0.00     0.029 A 
ATOM     63  N   UNL A   1      42.185  30.790  35.678  1.00  0.00    -0.354 N 
ATOM     64  N   UNL A   1      42.013  29.376  33.104  1.00  0.00    -0.248 NA
ATOM     65  C   UNL A   1      42.855  27.806  31.590  1.00  0.00     0.031 C 
ATOM     66  C   UNL A   1      43.828  30.248  37.070  1.00  0.00     0.029 A 
ATOM     67  C   UNL A   1      43.289  29.964  35.825  1.00  0.00     0.049 A 
ATOM     68  H   UNL A   1      41.604  30.817  34.884  1.00  0.00     0.167 HD
ATOM     69  C   UNL A   1      43.138  28.769  33.654  1.00  0.00     0.074 A 
ATOM     70  C   UNL A   1      43.591  27.785  32.692  1.00  0.00     0.031 C 
ATOM     71  C   UNL A   1      43.742  29.001  34.848  1.00  0.00     0.034 A 
BRANCH  58  72
ATOM     72  C   UNL A   1      41.003  33.428  38.231  1.00  0.00     0.023 A 
ATOM     73  C   UNL A   1      40.220  33.103  39.352  1.00  0.00     0.031 A 
ATOM     74  C   UNL A   1      41.782  34.597  38.291  1.00  0.00     0.131 A 
ATOM     75  C   UNL A   1      40.169  33.976  40.450  1.00  0.00     0.055 A 
ATOM     76  C   UNL A   1      41.792  35.418  39.420  1.00  0.00     0.041 A 
ATOM     77  F   UNL A   1      42.536  34.970  37.244  1.00  0.00    -0.206 F 
ATOM     78  C   UNL A   1      40.969  35.119  40.502  1.00  0.00     0.022 A 
BRANCH  75  79
ATOM     79  S   UNL A   1      38.931  33.670  41.740  1.00  0.00     0.124 S 
ATOM     80  O   UNL A   1      39.683  32.843  42.680  1.00  0.00    -0.237 OA
ATOM     81  O   UNL A   1      38.607  35.018  42.192  1.00  0.00    -0.237 OA
ATOM     82  O   UNL A   1      37.861  32.975  41.029  1.00  0.00    -0.744 OA
ENDBRANCH  75  79
ENDBRANCH  58  72
BRANCH  59  83
ATOM     83  C   UNL A   1      40.767  28.333  29.606  1.00  0.00     0.023 A 
ATOM     84  C   UNL A   1      41.707  28.643  28.610  1.00  0.00     0.031 A 
ATOM     85  C   UNL A   1      39.807  27.346  29.324  1.00  0.00     0.131 A 
ATOM     86  C   UNL A   1      41.639  28.005  27.362  1.00  0.00     0.055 A 
ATOM     87  C   UNL A   1      39.774  26.678  28.099  1.00  0.00     0.041 A 
ATOM     88  F   UNL A   1      38.891  27.006  30.246  1.00  0.00    -0.206 F 
ATOM     89  C   UNL A   1      40.687  27.016  27.104  1.00  0.00     0.022 A 
BRANCH  86  90
ATOM     90  S   UNL A   1      42.771  28.542  26.051  1.00  0.00     0.124 S 
ATOM     91  O   UNL A   1      42.810  29.985  26.263  1.00  0.00    -0.237 OA
ATOM     92  O   UNL A   1      43.988  27.811  26.384  1.00  0.00    -0.237 OA
ATOM     93  O   UNL A   1      42.102  28.109  24.825  1.00  0.00    -0.744 OA
ENDBRANCH  86  90
ENDBRANCH  59  83
BRANCH  71  94
ATOM     94  C   UNL A   1      44.941  28.147  35.181  1.00  0.00     0.023 A 
ATOM     95  C   UNL A   1      44.811  26.928  35.869  1.00  0.00     0.031 A 
ATOM     96  C   UNL A   1      46.234  28.575  34.831  1.00  0.00     0.131 A 
ATOM     97  C   UNL A   1      45.958  26.209  36.240  1.00  0.00     0.055 A 
ATOM     98  C   UNL A   1      47.368  27.824  35.147  1.00  0.00     0.041 A 
ATOM     99  F   UNL A   1      46.417  29.733  34.175  1.00  0.00    -0.206 F 
ATOM    100  C   UNL A   1      47.233  26.641  35.869  1.00  0.00     0.022 A 
BRANCH  97 101
ATOM    101  S   UNL A   1      45.765  24.751  37.302  1.00  0.00     0.124 S 
ATOM    102  O   UNL A   1      46.105  23.665  36.390  1.00  0.00    -0.237 OA
ATOM    103  O   UNL A   1      46.726  25.013  38.368  1.00  0.00    -0.237 OA
ATOM    104  O   UNL A   1      44.361  24.805  37.707  1.00  0.00    -0.744 OA
ENDBRANCH  97 101
ENDBRANCH  71  94
ENDBRANCH  45  46
ENDBRANCH  37  40
ENDBRANCH  35  36
ENDBRANCH  34  35
ENDBRANCH  33  34
ENDBRANCH   1  33
TORSDOF 19
ENDMDL
