MODEL 1
REMARK VINA RESULT:     -12.0      0.000      0.000
REMARK SMILES C[C@@H](C(=O)NCCCCNC(=O)c1ccc(-c2c3nc(c(-c4cc(S(=O)(=O)[O-])ccc4F)c4ccc([nH]4)c(-c4cc(S(=O)(=O)[O-])ccc4F)c4nc(c(-c5cc(S(=O)(=O)[O-])ccc5F)c5ccc2[nH]5)C=C4)C=C3)cc1)S(=O)(=O)N[C@@]12C[C@@H]3C[C@@](C)(C[C@@](C)(C3)C1)C2
REMARK SMILES IDX 7 1 6 2 5 3 3 4 4 5 2 7 1 8 76 9 77 10 78 11 79 12 80 14
REMARK SMILES IDX 81 15 90 16 91 17 82 18 87 19 84 20 89 21 83 22 86 23 88 24
REMARK SMILES IDX 85 25 8 26 9 27 10 28 11 29 12 31 13 32 14 33 75 34 15 35
REMARK SMILES IDX 74 36 16 37 17 38 18 39 68 40 19 41 73 42 67 43 69 44 20 45
REMARK SMILES IDX 72 46 66 47 65 48 21 50 53 51 33 52 52 53 34 54 37 55 51 56
REMARK SMILES IDX 70 57 35 58 36 59 50 61 71 62 38 63 22 64 23 65 31 66 24 67
REMARK SMILES IDX 30 68 32 69 29 70 25 71 26 72 27 73 28 74 54 75 55 76 63 77
REMARK SMILES IDX 56 78 62 79 64 80 61 81 57 82 58 83 59 84 60 85 39 86 40 87
REMARK SMILES IDX 48 88 41 89 47 90 49 91 46 92 42 93 43 94 44 95 45 96
REMARK H PARENT 5 6 79 13 10 30 69 49 37 60
REMARK Flexibility Score: inf
ROOT
ATOM      1  C   UNL A   1      31.886  27.910  26.431  1.00  0.00     0.023 C 
ENDROOT
BRANCH   1   2
ATOM      2  C   UNL A   1      31.193  26.903  25.509  1.00  0.00     0.116 C 
BRANCH   2   3
ATOM      3  N   UNL A   1      30.850  27.529  24.246  1.00  0.00    -0.355 N 
ATOM      4  C   UNL A   1      31.594  27.843  23.143  1.00  0.00     0.239 C 
ATOM      5  O   UNL A   1      31.015  28.550  22.312  1.00  0.00    -0.274 OA
ATOM      6  H   UNL A   1      29.899  27.774  24.167  1.00  0.00     0.163 HD
BRANCH   4   7
ATOM      7  C   UNL A   1      32.987  27.267  22.915  1.00  0.00     0.209 C 
ATOM      8  C   UNL A   1      34.062  28.186  22.341  1.00  0.00     0.037 C 
BRANCH   7   9
ATOM      9  S   UNL A   1      32.870  25.674  22.020  1.00  0.00     0.223 S 
ATOM     10  O   UNL A   1      31.668  24.974  22.424  1.00  0.00    -0.212 OA
ATOM     11  O   UNL A   1      33.058  25.970  20.611  1.00  0.00    -0.212 OA
BRANCH   9  12
ATOM     12  N   UNL A   1      34.173  24.724  22.442  1.00  0.00    -0.208 NA
ATOM     13  H   UNL A   1      34.954  25.376  22.515  1.00  0.00     0.141 HD
BRANCH  12  14
ATOM     14  C   UNL A   1      34.309  23.843  23.619  1.00  0.00     0.034 C 
ATOM     15  C   UNL A   1      33.964  24.536  24.939  1.00  0.00     0.027 C 
ATOM     16  C   UNL A   1      33.426  22.587  23.447  1.00  0.00     0.030 C 
ATOM     17  C   UNL A   1      35.785  23.371  23.694  1.00  0.00     0.030 C 
ATOM     18  C   UNL A   1      34.143  23.600  26.134  1.00  0.00    -0.008 C 
ATOM     19  C   UNL A   1      33.603  21.625  24.653  1.00  0.00    -0.030 C 
ATOM     20  C   UNL A   1      36.008  22.431  24.903  1.00  0.00    -0.030 C 
ATOM     21  C   UNL A   1      33.234  22.380  25.950  1.00  0.00     0.010 C 
ATOM     22  C   UNL A   1      35.612  23.172  26.199  1.00  0.00     0.010 C 
ATOM     23  C   UNL A   1      35.088  21.198  24.747  1.00  0.00     0.013 C 
ATOM     24  C   UNL A   1      32.709  20.390  24.496  1.00  0.00     0.011 C 
ATOM     25  C   UNL A   1      37.476  22.005  24.976  1.00  0.00     0.011 C 
ENDBRANCH  12  14
ENDBRANCH   9  12
ENDBRANCH   7   9
ENDBRANCH   4   7
ENDBRANCH   2   3
ENDBRANCH   1   2
BRANCH   1  26
ATOM     26  C   UNL A   1      33.384  27.646  26.634  1.00  0.00     0.023 C 
BRANCH  26  27
ATOM     27  C   UNL A   1      34.308  28.774  26.181  1.00  0.00     0.116 C 
BRANCH  27  28
ATOM     28  N   UNL A   1      33.837  30.094  26.572  1.00  0.00    -0.352 N 
ATOM     29  C   UNL A   1      34.375  30.950  27.505  1.00  0.00     0.251 C 
ATOM     30  H   UNL A   1      33.030  30.414  26.110  1.00  0.00     0.163 HD
ATOM     31  O   UNL A   1      33.786  31.987  27.794  1.00  0.00    -0.269 OA
BRANCH  29  32
ATOM     32  C   UNL A   1      35.634  30.582  28.185  1.00  0.00     0.039 A 
ATOM     33  C   UNL A   1      35.571  29.787  29.332  1.00  0.00     0.014 A 
ATOM     34  C   UNL A   1      36.870  30.978  27.667  1.00  0.00     0.014 A 
ATOM     35  C   UNL A   1      36.751  29.322  29.914  1.00  0.00     0.010 A 
ATOM     36  C   UNL A   1      38.043  30.462  28.212  1.00  0.00     0.010 A 
ATOM     37  C   UNL A   1      37.994  29.619  29.332  1.00  0.00    -0.014 A 
BRANCH  37  38
ATOM     38  C   UNL A   1      39.251  29.029  29.863  1.00  0.00     0.031 A 
ATOM     39  C   UNL A   1      39.947  29.659  31.037  1.00  0.00     0.074 A 
ATOM     40  C   UNL A   1      39.799  27.966  29.237  1.00  0.00     0.049 A 
ATOM     41  N   UNL A   1      41.087  29.338  31.591  1.00  0.00    -0.248 NA
ATOM     42  C   UNL A   1      39.286  30.821  31.650  1.00  0.00     0.031 C 
ATOM     43  C   UNL A   1      39.237  27.298  28.059  1.00  0.00     0.029 A 
ATOM     44  N   UNL A   1      40.953  27.269  29.491  1.00  0.00    -0.354 N 
ATOM     45  C   UNL A   1      41.287  30.263  32.611  1.00  0.00     0.074 A 
ATOM     46  C   UNL A   1      40.175  31.188  32.561  1.00  0.00     0.031 C 
ATOM     47  C   UNL A   1      40.037  26.279  27.707  1.00  0.00     0.029 A 
ATOM     48  C   UNL A   1      41.190  26.246  28.600  1.00  0.00     0.049 A 
ATOM     49  H   UNL A   1      41.555  27.480  30.240  1.00  0.00     0.167 HD
ATOM     50  C   UNL A   1      42.296  30.321  33.515  1.00  0.00     0.034 A 
ATOM     51  C   UNL A   1      42.226  25.389  28.506  1.00  0.00     0.034 A 
ATOM     52  C   UNL A   1      43.389  29.381  33.560  1.00  0.00     0.049 A 
ATOM     53  C   UNL A   1      43.344  25.487  29.514  1.00  0.00     0.074 A 
ATOM     54  C   UNL A   1      44.426  29.308  34.474  1.00  0.00     0.029 A 
ATOM     55  N   UNL A   1      43.594  28.352  32.648  1.00  0.00    -0.354 N 
ATOM     56  N   UNL A   1      43.484  26.330  30.511  1.00  0.00    -0.248 NA
ATOM     57  C   UNL A   1      44.434  24.511  29.392  1.00  0.00     0.031 C 
ATOM     58  C   UNL A   1      45.291  28.282  34.078  1.00  0.00     0.029 A 
ATOM     59  C   UNL A   1      44.756  27.664  32.958  1.00  0.00     0.049 A 
ATOM     60  H   UNL A   1      43.000  28.144  31.891  1.00  0.00     0.167 HD
ATOM     61  C   UNL A   1      44.665  25.964  31.152  1.00  0.00     0.074 A 
ATOM     62  C   UNL A   1      45.184  24.815  30.441  1.00  0.00     0.031 C 
ATOM     63  C   UNL A   1      45.266  26.526  32.232  1.00  0.00     0.034 A 
BRANCH  50  64
ATOM     64  C   UNL A   1      42.274  31.451  34.515  1.00  0.00     0.023 A 
ATOM     65  C   UNL A   1      41.337  31.494  35.562  1.00  0.00     0.031 A 
ATOM     66  C   UNL A   1      43.203  32.502  34.418  1.00  0.00     0.131 A 
ATOM     67  C   UNL A   1      41.309  32.595  36.431  1.00  0.00     0.055 A 
ATOM     68  C   UNL A   1      43.218  33.558  35.334  1.00  0.00     0.041 A 
ATOM     69  F   UNL A   1      44.109  32.526  33.428  1.00  0.00    -0.206 F 
ATOM     70  C   UNL A   1      42.260  33.614  36.341  1.00  0.00     0.022 A 
BRANCH  67  71
ATOM     71  S   UNL A   1      39.938  32.732  37.611  1.00  0.00     0.124 S 
ATOM     72  O   UNL A   1      39.426  34.067  37.311  1.00  0.00    -0.237 OA
ATOM     73  O   UNL A   1      39.079  31.618  37.229  1.00  0.00    -0.237 OA
ATOM     74  O   UNL A   1      40.592  32.601  38.911  1.00  0.00    -0.744 OA
ENDBRANCH  67  71
ENDBRANCH  50  64
BRANCH  51  75
ATOM     75  C   UNL A   1      42.279  24.375  27.413  1.00  0.00     0.023 A 
ATOM     76  C   UNL A   1      41.713  23.101  27.581  1.00  0.00     0.031 A 
ATOM     77  C   UNL A   1      42.949  24.643  26.206  1.00  0.00     0.131 A 
ATOM     78  C   UNL A   1      41.876  22.125  26.586  1.00  0.00     0.055 A 
ATOM     79  C   UNL A   1      43.060  23.687  25.194  1.00  0.00     0.041 A 
ATOM     80  F   UNL A   1      43.504  25.847  25.989  1.00  0.00    -0.206 F 
ATOM     81  C   UNL A   1      42.536  22.412  25.389  1.00  0.00     0.022 A 
BRANCH  78  82
ATOM     82  S   UNL A   1      41.304  20.437  26.924  1.00  0.00     0.124 S 
ATOM     83  O   UNL A   1      42.527  19.665  26.733  1.00  0.00    -0.237 OA
ATOM     84  O   UNL A   1      40.824  20.552  28.297  1.00  0.00    -0.237 OA
ATOM     85  O   UNL A   1      40.266  20.223  25.917  1.00  0.00    -0.744 OA
ENDBRANCH  78  82
ENDBRANCH  51  75
BRANCH  63  86
ATOM     86  C   UNL A   1      46.531  25.869  32.727  1.00  0.00     0.023 A 
ATOM     87  C   UNL A   1      47.781  26.141  32.143  1.00  0.00     0.031 A 
ATOM     88  C   UNL A   1      46.482  24.947  33.787  1.00  0.00     0.131 A 
ATOM     89  C   UNL A   1      48.921  25.454  32.585  1.00  0.00     0.055 A 
ATOM     90  C   UNL A   1      47.629  24.312  34.263  1.00  0.00     0.041 A 
ATOM     91  F   UNL A   1      45.313  24.649  34.379  1.00  0.00    -0.206 F 
ATOM     92  C   UNL A   1      48.857  24.553  33.652  1.00  0.00     0.022 A 
BRANCH  89  93
ATOM     93  S   UNL A   1      50.478  25.683  31.684  1.00  0.00     0.124 S 
ATOM     94  O   UNL A   1      50.236  26.933  30.973  1.00  0.00    -0.237 OA
ATOM     95  O   UNL A   1      51.458  25.743  32.763  1.00  0.00    -0.237 OA
ATOM     96  O   UNL A   1      50.564  24.495  30.836  1.00  0.00    -0.744 OA
ENDBRANCH  89  93
ENDBRANCH  63  86
ENDBRANCH  37  38
ENDBRANCH  29  32
ENDBRANCH  27  28
ENDBRANCH  26  27
ENDBRANCH   1  26
TORSDOF 17
ENDMDL
MODEL 2
REMARK VINA RESULT:     -11.8      4.200      9.357
REMARK SMILES C[C@@H](C(=O)NCCCCNC(=O)c1ccc(-c2c3nc(c(-c4cc(S(=O)(=O)[O-])ccc4F)c4ccc([nH]4)c(-c4cc(S(=O)(=O)[O-])ccc4F)c4nc(c(-c5cc(S(=O)(=O)[O-])ccc5F)c5ccc2[nH]5)C=C4)C=C3)cc1)S(=O)(=O)N[C@@]12C[C@@H]3C[C@@](C)(C[C@@](C)(C3)C1)C2
REMARK SMILES IDX 7 1 6 2 5 3 3 4 4 5 2 7 1 8 76 9 77 10 78 11 79 12 80 14
REMARK SMILES IDX 81 15 90 16 91 17 82 18 87 19 84 20 89 21 83 22 86 23 88 24
REMARK SMILES IDX 85 25 8 26 9 27 10 28 11 29 12 31 13 32 14 33 75 34 15 35
REMARK SMILES IDX 74 36 16 37 17 38 18 39 68 40 19 41 73 42 67 43 69 44 20 45
REMARK SMILES IDX 72 46 66 47 65 48 21 50 53 51 33 52 52 53 34 54 37 55 51 56
REMARK SMILES IDX 70 57 35 58 36 59 50 61 71 62 38 63 22 64 23 65 31 66 24 67
REMARK SMILES IDX 30 68 32 69 29 70 25 71 26 72 27 73 28 74 54 75 55 76 63 77
REMARK SMILES IDX 56 78 62 79 64 80 61 81 57 82 58 83 59 84 60 85 39 86 40 87
REMARK SMILES IDX 48 88 41 89 47 90 49 91 46 92 42 93 43 94 44 95 45 96
REMARK H PARENT 5 6 79 13 10 30 69 49 37 60
REMARK Flexibility Score: inf
ROOT
ATOM      1  C   UNL A   1      35.799  22.723  23.690  1.00  0.00     0.023 C 
ENDROOT
BRANCH   1   2
ATOM      2  C   UNL A   1      34.317  23.090  23.574  1.00  0.00     0.116 C 
BRANCH   2   3
ATOM      3  N   UNL A   1      33.489  22.003  24.064  1.00  0.00    -0.355 N 
ATOM      4  C   UNL A   1      32.957  21.734  25.294  1.00  0.00     0.239 C 
ATOM      5  O   UNL A   1      32.454  20.612  25.406  1.00  0.00    -0.274 OA
ATOM      6  H   UNL A   1      33.266  21.331  23.379  1.00  0.00     0.163 HD
BRANCH   4   7
ATOM      7  C   UNL A   1      32.895  22.785  26.397  1.00  0.00     0.209 C 
ATOM      8  C   UNL A   1      33.347  22.387  27.799  1.00  0.00     0.037 C 
BRANCH   7   9
ATOM      9  S   UNL A   1      31.258  23.607  26.390  1.00  0.00     0.223 S 
ATOM     10  O   UNL A   1      30.725  23.623  25.044  1.00  0.00    -0.212 OA
ATOM     11  O   UNL A   1      30.472  22.983  27.439  1.00  0.00    -0.212 OA
BRANCH   9  12
ATOM     12  N   UNL A   1      31.451  25.190  26.875  1.00  0.00    -0.208 NA
ATOM     13  H   UNL A   1      32.128  25.146  27.636  1.00  0.00     0.141 HD
BRANCH  12  14
ATOM     14  C   UNL A   1      31.879  26.343  26.058  1.00  0.00     0.034 C 
ATOM     15  C   UNL A   1      33.228  26.130  25.367  1.00  0.00     0.027 C 
ATOM     16  C   UNL A   1      30.802  26.673  25.001  1.00  0.00     0.030 C 
ATOM     17  C   UNL A   1      32.008  27.571  26.996  1.00  0.00     0.030 C 
ATOM     18  C   UNL A   1      33.648  27.354  24.554  1.00  0.00    -0.008 C 
ATOM     19  C   UNL A   1      31.216  27.920  24.171  1.00  0.00    -0.030 C 
ATOM     20  C   UNL A   1      32.447  28.829  26.208  1.00  0.00    -0.030 C 
ATOM     21  C   UNL A   1      32.577  27.639  23.496  1.00  0.00     0.010 C 
ATOM     22  C   UNL A   1      33.793  28.543  25.508  1.00  0.00     0.010 C 
ATOM     23  C   UNL A   1      31.387  29.129  25.123  1.00  0.00     0.013 C 
ATOM     24  C   UNL A   1      30.160  28.234  23.105  1.00  0.00     0.011 C 
ATOM     25  C   UNL A   1      32.598  30.020  27.158  1.00  0.00     0.011 C 
ENDBRANCH  12  14
ENDBRANCH   9  12
ENDBRANCH   7   9
ENDBRANCH   4   7
ENDBRANCH   2   3
ENDBRANCH   1   2
BRANCH   1  26
ATOM     26  C   UNL A   1      36.575  23.565  24.711  1.00  0.00     0.023 C 
BRANCH  26  27
ATOM     27  C   UNL A   1      36.785  22.904  26.071  1.00  0.00     0.116 C 
BRANCH  27  28
ATOM     28  N   UNL A   1      38.009  22.121  26.146  1.00  0.00    -0.352 N 
ATOM     29  C   UNL A   1      39.280  22.550  26.452  1.00  0.00     0.251 C 
ATOM     30  H   UNL A   1      37.916  21.161  25.951  1.00  0.00     0.163 HD
ATOM     31  O   UNL A   1      40.225  21.774  26.363  1.00  0.00    -0.269 OA
BRANCH  29  32
ATOM     32  C   UNL A   1      39.494  23.961  26.837  1.00  0.00     0.039 A 
ATOM     33  C   UNL A   1      39.253  24.341  28.159  1.00  0.00     0.014 A 
ATOM     34  C   UNL A   1      39.974  24.890  25.910  1.00  0.00     0.014 A 
ATOM     35  C   UNL A   1      39.571  25.635  28.573  1.00  0.00     0.010 A 
ATOM     36  C   UNL A   1      40.349  26.161  26.340  1.00  0.00     0.010 A 
ATOM     37  C   UNL A   1      40.163  26.541  27.678  1.00  0.00    -0.014 A 
BRANCH  37  38
ATOM     38  C   UNL A   1      40.625  27.879  28.132  1.00  0.00     0.031 A 
ATOM     39  C   UNL A   1      42.092  28.211  28.142  1.00  0.00     0.074 A 
ATOM     40  C   UNL A   1      39.723  28.766  28.601  1.00  0.00     0.049 A 
ATOM     41  N   UNL A   1      42.692  29.290  28.573  1.00  0.00    -0.248 NA
ATOM     42  C   UNL A   1      43.005  27.180  27.624  1.00  0.00     0.031 C 
ATOM     43  C   UNL A   1      38.277  28.538  28.681  1.00  0.00     0.029 A 
ATOM     44  N   UNL A   1      39.886  30.030  29.110  1.00  0.00    -0.354 N 
ATOM     45  C   UNL A   1      44.052  29.066  28.390  1.00  0.00     0.074 A 
ATOM     46  C   UNL A   1      44.188  27.727  27.858  1.00  0.00     0.031 C 
ATOM     47  C   UNL A   1      37.687  29.631  29.191  1.00  0.00     0.029 A 
ATOM     48  C   UNL A   1      38.709  30.620  29.515  1.00  0.00     0.049 A 
ATOM     49  H   UNL A   1      40.761  30.474  29.178  1.00  0.00     0.167 HD
ATOM     50  C   UNL A   1      45.088  29.909  28.626  1.00  0.00     0.034 A 
ATOM     51  C   UNL A   1      38.483  31.815  30.095  1.00  0.00     0.034 A 
ATOM     52  C   UNL A   1      44.932  31.247  29.142  1.00  0.00     0.049 A 
ATOM     53  C   UNL A   1      39.655  32.726  30.363  1.00  0.00     0.074 A 
ATOM     54  C   UNL A   1      45.907  32.207  29.355  1.00  0.00     0.029 A 
ATOM     55  N   UNL A   1      43.726  31.815  29.534  1.00  0.00    -0.354 N 
ATOM     56  N   UNL A   1      40.930  32.522  30.125  1.00  0.00    -0.248 NA
ATOM     57  C   UNL A   1      39.356  34.031  30.965  1.00  0.00     0.031 C 
ATOM     58  C   UNL A   1      45.302  33.326  29.936  1.00  0.00     0.029 A 
ATOM     59  C   UNL A   1      43.938  33.096  30.018  1.00  0.00     0.049 A 
ATOM     60  H   UNL A   1      42.849  31.371  29.477  1.00  0.00     0.167 HD
ATOM     61  C   UNL A   1      41.580  33.688  30.522  1.00  0.00     0.074 A 
ATOM     62  C   UNL A   1      40.555  34.594  30.995  1.00  0.00     0.031 C 
ATOM     63  C   UNL A   1      42.905  33.984  30.497  1.00  0.00     0.034 A 
BRANCH  50  64
ATOM     64  C   UNL A   1      46.480  29.399  28.349  1.00  0.00     0.023 A 
ATOM     65  C   UNL A   1      47.239  28.745  29.335  1.00  0.00     0.031 A 
ATOM     66  C   UNL A   1      47.060  29.572  27.079  1.00  0.00     0.131 A 
ATOM     67  C   UNL A   1      48.554  28.342  29.056  1.00  0.00     0.055 A 
ATOM     68  C   UNL A   1      48.342  29.101  26.785  1.00  0.00     0.041 A 
ATOM     69  F   UNL A   1      46.392  30.207  26.103  1.00  0.00    -0.206 F 
ATOM     70  C   UNL A   1      49.102  28.493  27.780  1.00  0.00     0.022 A 
BRANCH  67  71
ATOM     71  S   UNL A   1      49.579  27.725  30.418  1.00  0.00     0.124 S 
ATOM     72  O   UNL A   1      50.722  27.171  29.698  1.00  0.00    -0.237 OA
ATOM     73  O   UNL A   1      49.837  28.933  31.193  1.00  0.00    -0.237 OA
ATOM     74  O   UNL A   1      48.723  26.736  31.070  1.00  0.00    -0.744 OA
ENDBRANCH  67  71
ENDBRANCH  50  64
BRANCH  51  75
ATOM     75  C   UNL A   1      37.102  32.223  30.485  1.00  0.00     0.023 A 
ATOM     76  C   UNL A   1      36.240  32.832  29.559  1.00  0.00     0.031 A 
ATOM     77  C   UNL A   1      36.644  32.067  31.805  1.00  0.00     0.131 A 
ATOM     78  C   UNL A   1      34.990  33.314  29.977  1.00  0.00     0.055 A 
ATOM     79  C   UNL A   1      35.376  32.496  32.204  1.00  0.00     0.041 A 
ATOM     80  F   UNL A   1      37.425  31.485  32.731  1.00  0.00    -0.206 F 
ATOM     81  C   UNL A   1      34.547  33.140  31.291  1.00  0.00     0.022 A 
BRANCH  78  82
ATOM     82  S   UNL A   1      33.990  34.268  28.802  1.00  0.00     0.124 S 
ATOM     83  O   UNL A   1      34.903  35.350  28.446  1.00  0.00    -0.237 OA
ATOM     84  O   UNL A   1      33.727  33.282  27.761  1.00  0.00    -0.237 OA
ATOM     85  O   UNL A   1      32.827  34.667  29.591  1.00  0.00    -0.744 OA
ENDBRANCH  78  82
ENDBRANCH  51  75
BRANCH  63  86
ATOM     86  C   UNL A   1      43.304  35.364  30.957  1.00  0.00     0.023 A 
ATOM     87  C   UNL A   1      43.402  36.442  30.060  1.00  0.00     0.031 A 
ATOM     88  C   UNL A   1      43.608  35.599  32.310  1.00  0.00     0.131 A 
ATOM     89  C   UNL A   1      43.849  37.691  30.516  1.00  0.00     0.055 A 
ATOM     90  C   UNL A   1      43.993  36.858  32.769  1.00  0.00     0.041 A 
ATOM     91  F   UNL A   1      43.534  34.603  33.209  1.00  0.00    -0.206 F 
ATOM     92  C   UNL A   1      44.129  37.911  31.867  1.00  0.00     0.022 A 
BRANCH  89  93
ATOM     93  S   UNL A   1      44.148  39.004  29.301  1.00  0.00     0.124 S 
ATOM     94  O   UNL A   1      42.793  39.452  28.999  1.00  0.00    -0.237 OA
ATOM     95  O   UNL A   1      44.976  39.941  30.053  1.00  0.00    -0.237 OA
ATOM     96  O   UNL A   1      44.831  38.313  28.209  1.00  0.00    -0.744 OA
ENDBRANCH  89  93
ENDBRANCH  63  86
ENDBRANCH  37  38
ENDBRANCH  29  32
ENDBRANCH  27  28
ENDBRANCH  26  27
ENDBRANCH   1  26
TORSDOF 17
ENDMDL
MODEL 3
REMARK VINA RESULT:     -11.8      1.815      2.111
REMARK SMILES C[C@@H](C(=O)NCCCCNC(=O)c1ccc(-c2c3nc(c(-c4cc(S(=O)(=O)[O-])ccc4F)c4ccc([nH]4)c(-c4cc(S(=O)(=O)[O-])ccc4F)c4nc(c(-c5cc(S(=O)(=O)[O-])ccc5F)c5ccc2[nH]5)C=C4)C=C3)cc1)S(=O)(=O)N[C@@]12C[C@@H]3C[C@@](C)(C[C@@](C)(C3)C1)C2
REMARK SMILES IDX 7 1 6 2 5 3 3 4 4 5 2 7 1 8 76 9 77 10 78 11 79 12 80 14
REMARK SMILES IDX 81 15 90 16 91 17 82 18 87 19 84 20 89 21 83 22 86 23 88 24
REMARK SMILES IDX 85 25 8 26 9 27 10 28 11 29 12 31 13 32 14 33 75 34 15 35
REMARK SMILES IDX 74 36 16 37 17 38 18 39 68 40 19 41 73 42 67 43 69 44 20 45
REMARK SMILES IDX 72 46 66 47 65 48 21 50 53 51 33 52 52 53 34 54 37 55 51 56
REMARK SMILES IDX 70 57 35 58 36 59 50 61 71 62 38 63 22 64 23 65 31 66 24 67
REMARK SMILES IDX 30 68 32 69 29 70 25 71 26 72 27 73 28 74 54 75 55 76 63 77
REMARK SMILES IDX 56 78 62 79 64 80 61 81 57 82 58 83 59 84 60 85 39 86 40 87
REMARK SMILES IDX 48 88 41 89 47 90 49 91 46 92 42 93 43 94 44 95 45 96
REMARK H PARENT 5 6 79 13 10 30 69 49 37 60
REMARK Flexibility Score: inf
ROOT
ATOM      1  C   UNL A   1      31.867  27.999  26.233  1.00  0.00     0.023 C 
ENDROOT
BRANCH   1   2
ATOM      2  C   UNL A   1      31.096  26.948  25.430  1.00  0.00     0.116 C 
BRANCH   2   3
ATOM      3  N   UNL A   1      30.729  27.477  24.130  1.00  0.00    -0.355 N 
ATOM      4  C   UNL A   1      31.458  27.738  23.003  1.00  0.00     0.239 C 
ATOM      5  O   UNL A   1      30.853  28.369  22.130  1.00  0.00    -0.274 OA
ATOM      6  H   UNL A   1      29.771  27.687  24.041  1.00  0.00     0.163 HD
BRANCH   4   7
ATOM      7  C   UNL A   1      32.867  27.191  22.806  1.00  0.00     0.209 C 
ATOM      8  C   UNL A   1      33.928  28.122  22.227  1.00  0.00     0.037 C 
BRANCH   7   9
ATOM      9  S   UNL A   1      32.799  25.577  21.943  1.00  0.00     0.223 S 
ATOM     10  O   UNL A   1      31.631  24.840  22.377  1.00  0.00    -0.212 OA
ATOM     11  O   UNL A   1      32.957  25.853  20.526  1.00  0.00    -0.212 OA
BRANCH   9  12
ATOM     12  N   UNL A   1      34.143  24.686  22.364  1.00  0.00    -0.208 NA
ATOM     13  H   UNL A   1      34.899  25.368  22.412  1.00  0.00     0.141 HD
BRANCH  12  14
ATOM     14  C   UNL A   1      34.329  23.833  23.555  1.00  0.00     0.034 C 
ATOM     15  C   UNL A   1      34.048  24.561  24.872  1.00  0.00     0.027 C 
ATOM     16  C   UNL A   1      33.433  22.579  23.455  1.00  0.00     0.030 C 
ATOM     17  C   UNL A   1      35.804  23.356  23.574  1.00  0.00     0.030 C 
ATOM     18  C   UNL A   1      34.278  23.654  26.080  1.00  0.00    -0.008 C 
ATOM     19  C   UNL A   1      33.662  21.646  24.676  1.00  0.00    -0.030 C 
ATOM     20  C   UNL A   1      36.079  22.446  24.796  1.00  0.00    -0.030 C 
ATOM     21  C   UNL A   1      33.355  22.435  25.969  1.00  0.00     0.010 C 
ATOM     22  C   UNL A   1      35.746  23.220  26.089  1.00  0.00     0.010 C 
ATOM     23  C   UNL A   1      35.148  21.214  24.713  1.00  0.00     0.013 C 
ATOM     24  C   UNL A   1      32.756  20.412  24.591  1.00  0.00     0.011 C 
ATOM     25  C   UNL A   1      37.547  22.013  24.812  1.00  0.00     0.011 C 
ENDBRANCH  12  14
ENDBRANCH   9  12
ENDBRANCH   7   9
ENDBRANCH   4   7
ENDBRANCH   2   3
ENDBRANCH   1   2
BRANCH   1  26
ATOM     26  C   UNL A   1      33.323  27.619  26.529  1.00  0.00     0.023 C 
BRANCH  26  27
ATOM     27  C   UNL A   1      34.351  28.709  26.234  1.00  0.00     0.116 C 
BRANCH  27  28
ATOM     28  N   UNL A   1      33.901  30.039  26.611  1.00  0.00    -0.352 N 
ATOM     29  C   UNL A   1      34.456  30.900  27.530  1.00  0.00     0.251 C 
ATOM     30  H   UNL A   1      33.095  30.366  26.151  1.00  0.00     0.163 HD
ATOM     31  O   UNL A   1      33.884  31.948  27.810  1.00  0.00    -0.269 OA
BRANCH  29  32
ATOM     32  C   UNL A   1      35.715  30.522  28.206  1.00  0.00     0.039 A 
ATOM     33  C   UNL A   1      35.650  29.730  29.355  1.00  0.00     0.014 A 
ATOM     34  C   UNL A   1      36.952  30.908  27.683  1.00  0.00     0.014 A 
ATOM     35  C   UNL A   1      36.828  29.256  29.933  1.00  0.00     0.010 A 
ATOM     36  C   UNL A   1      38.123  30.383  28.224  1.00  0.00     0.010 A 
ATOM     37  C   UNL A   1      38.072  29.542  29.346  1.00  0.00    -0.014 A 
BRANCH  37  38
ATOM     38  C   UNL A   1      39.326  28.942  29.873  1.00  0.00     0.031 A 
ATOM     39  C   UNL A   1      40.005  29.541  31.074  1.00  0.00     0.074 A 
ATOM     40  C   UNL A   1      39.885  27.902  29.222  1.00  0.00     0.049 A 
ATOM     41  N   UNL A   1      41.141  29.209  31.631  1.00  0.00    -0.248 NA
ATOM     42  C   UNL A   1      39.331  30.681  31.713  1.00  0.00     0.031 C 
ATOM     43  C   UNL A   1      39.340  27.265  28.019  1.00  0.00     0.029 A 
ATOM     44  N   UNL A   1      41.040  27.203  29.468  1.00  0.00    -0.354 N 
ATOM     45  C   UNL A   1      41.325  30.104  32.679  1.00  0.00     0.074 A 
ATOM     46  C   UNL A   1      40.208  31.025  32.644  1.00  0.00     0.031 C 
ATOM     47  C   UNL A   1      40.149  26.262  27.646  1.00  0.00     0.029 A 
ATOM     48  C   UNL A   1      41.293  26.207  28.551  1.00  0.00     0.049 A 
ATOM     49  H   UNL A   1      41.633  27.394  30.231  1.00  0.00     0.167 HD
ATOM     50  C   UNL A   1      42.324  30.140  33.596  1.00  0.00     0.034 A 
ATOM     51  C   UNL A   1      42.334  25.359  28.442  1.00  0.00     0.034 A 
ATOM     52  C   UNL A   1      43.420  29.204  33.625  1.00  0.00     0.049 A 
ATOM     53  C   UNL A   1      43.440  25.432  29.466  1.00  0.00     0.074 A 
ATOM     54  C   UNL A   1      44.448  29.110  34.549  1.00  0.00     0.029 A 
ATOM     55  N   UNL A   1      43.640  28.204  32.685  1.00  0.00    -0.354 N 
ATOM     56  N   UNL A   1      43.565  26.246  30.489  1.00  0.00    -0.248 NA
ATOM     57  C   UNL A   1      44.536  24.466  29.327  1.00  0.00     0.031 C 
ATOM     58  C   UNL A   1      45.322  28.100  34.132  1.00  0.00     0.029 A 
ATOM     59  C   UNL A   1      44.803  27.513  32.988  1.00  0.00     0.049 A 
ATOM     60  H   UNL A   1      43.056  28.016  31.916  1.00  0.00     0.167 HD
ATOM     61  C   UNL A   1      44.741  25.867  31.132  1.00  0.00     0.074 A 
ATOM     62  C   UNL A   1      45.273  24.742  30.392  1.00  0.00     0.031 C 
ATOM     63  C   UNL A   1      45.327  26.399  32.234  1.00  0.00     0.034 A 
BRANCH  50  64
ATOM     64  C   UNL A   1      42.285  31.240  34.628  1.00  0.00     0.023 A 
ATOM     65  C   UNL A   1      42.922  32.475  34.418  1.00  0.00     0.031 A 
ATOM     66  C   UNL A   1      41.601  31.050  35.843  1.00  0.00     0.131 A 
ATOM     67  C   UNL A   1      42.916  33.448  35.429  1.00  0.00     0.055 A 
ATOM     68  C   UNL A   1      41.535  32.051  36.815  1.00  0.00     0.041 A 
ATOM     69  F   UNL A   1      40.991  29.884  36.109  1.00  0.00    -0.206 F 
ATOM     70  C   UNL A   1      42.205  33.255  36.615  1.00  0.00     0.022 A 
BRANCH  67  71
ATOM     71  S   UNL A   1      43.948  34.924  35.218  1.00  0.00     0.124 S 
ATOM     72  O   UNL A   1      43.785  35.194  33.792  1.00  0.00    -0.237 OA
ATOM     73  O   UNL A   1      43.323  35.879  36.125  1.00  0.00    -0.237 OA
ATOM     74  O   UNL A   1      45.280  34.468  35.611  1.00  0.00    -0.744 OA
ENDBRANCH  67  71
ENDBRANCH  50  64
BRANCH  51  75
ATOM     75  C   UNL A   1      42.404  24.378  27.321  1.00  0.00     0.023 A 
ATOM     76  C   UNL A   1      41.835  23.100  27.442  1.00  0.00     0.031 A 
ATOM     77  C   UNL A   1      43.093  24.681  26.134  1.00  0.00     0.131 A 
ATOM     78  C   UNL A   1      42.015  22.154  26.421  1.00  0.00     0.055 A 
ATOM     79  C   UNL A   1      43.220  23.756  25.095  1.00  0.00     0.041 A 
ATOM     80  F   UNL A   1      43.652  25.891  25.961  1.00  0.00    -0.206 F 
ATOM     81  C   UNL A   1      42.693  22.476  25.243  1.00  0.00     0.022 A 
BRANCH  78  82
ATOM     82  S   UNL A   1      41.437  20.457  26.699  1.00  0.00     0.124 S 
ATOM     83  O   UNL A   1      40.005  20.660  26.894  1.00  0.00    -0.237 OA
ATOM     84  O   UNL A   1      41.829  19.798  25.459  1.00  0.00    -0.237 OA
ATOM     85  O   UNL A   1      42.176  20.038  27.889  1.00  0.00    -0.744 OA
ENDBRANCH  78  82
ENDBRANCH  51  75
BRANCH  63  86
ATOM     86  C   UNL A   1      46.589  25.734  32.724  1.00  0.00     0.023 A 
ATOM     87  C   UNL A   1      46.558  24.704  33.681  1.00  0.00     0.031 A 
ATOM     88  C   UNL A   1      47.842  26.149  32.240  1.00  0.00     0.131 A 
ATOM     89  C   UNL A   1      47.758  24.164  34.165  1.00  0.00     0.055 A 
ATOM     90  C   UNL A   1      49.031  25.566  32.679  1.00  0.00     0.041 A 
ATOM     91  F   UNL A   1      47.930  27.131  31.327  1.00  0.00    -0.206 F 
ATOM     92  C   UNL A   1      48.994  24.576  33.658  1.00  0.00     0.022 A 
BRANCH  89  93
ATOM     93  S   UNL A   1      47.689  22.977  35.534  1.00  0.00     0.124 S 
ATOM     94  O   UNL A   1      46.444  23.349  36.196  1.00  0.00    -0.237 OA
ATOM     95  O   UNL A   1      47.682  21.696  34.837  1.00  0.00    -0.237 OA
ATOM     96  O   UNL A   1      48.904  23.260  36.296  1.00  0.00    -0.744 OA
ENDBRANCH  89  93
ENDBRANCH  63  86
ENDBRANCH  37  38
ENDBRANCH  29  32
ENDBRANCH  27  28
ENDBRANCH  26  27
ENDBRANCH   1  26
TORSDOF 17
ENDMDL
