MODEL 1
REMARK VINA RESULT:     -12.5      0.000      0.000
REMARK SMILES CCn1cc(S(=O)(=O)Nc2c(C)cc(C)cc2C(=O)NCCCCNC(=O)c2ccc(-c3c4nc(c(-c5cc(S(=O)(=O)[O-])ccc5F)c5ccc([nH]5)c(-c5cc(S(=O)(=O)[O-])ccc5F)c5nc(c(-c6cc(S(=O)(=O)[O-])ccc6F)c6ccc3[nH]6)C=C5)C=C4)cc2)cn1
REMARK SMILES IDX 22 1 21 2 20 3 18 4 19 5 17 7 10 8 11 9 12 10 13 11 16 12
REMARK SMILES IDX 14 13 15 14 9 15 6 17 7 18 8 19 5 20 3 21 4 22 92 23 91 24
REMARK SMILES IDX 2 25 1 26 23 27 24 28 25 29 26 30 27 32 28 33 29 34 90 35
REMARK SMILES IDX 30 36 89 37 31 38 32 39 33 40 83 41 34 42 88 43 82 44 84 45
REMARK SMILES IDX 35 46 87 47 81 48 80 49 36 51 68 52 48 53 67 54 49 55 52 56
REMARK SMILES IDX 66 57 85 58 50 59 51 60 65 62 86 63 53 64 37 65 38 66 46 67
REMARK SMILES IDX 39 68 45 69 47 70 44 71 40 72 41 73 42 74 43 75 69 76 70 77
REMARK SMILES IDX 78 78 71 79 77 80 79 81 76 82 72 83 73 84 74 85 75 86 54 87
REMARK SMILES IDX 55 88 63 89 56 90 62 91 64 92 61 93 57 94 58 95 59 96 60 97
REMARK H PARENT 20 6 9 16 25 31 84 50 52 61
REMARK Flexibility Score: inf
ROOT
ATOM      1  C   UNL A   1      32.320  28.757  27.125  1.00  0.00     0.023 C 
ENDROOT
BRANCH   1   2
ATOM      2  C   UNL A   1      31.481  27.768  26.318  1.00  0.00     0.116 C 
BRANCH   2   3
ATOM      3  N   UNL A   1      31.227  26.490  26.922  1.00  0.00    -0.352 N 
ATOM      4  C   UNL A   1      31.589  25.233  26.504  1.00  0.00     0.253 C 
ATOM      5  O   UNL A   1      31.234  24.303  27.238  1.00  0.00    -0.269 OA
ATOM      6  H   UNL A   1      30.716  26.519  27.764  1.00  0.00     0.163 HD
BRANCH   4   7
ATOM      7  C   UNL A   1      32.302  24.869  25.223  1.00  0.00     0.064 A 
ATOM      8  C   UNL A   1      32.466  23.597  24.608  1.00  0.00     0.065 A 
ATOM      9  C   UNL A   1      32.862  23.539  23.242  1.00  0.00    -0.026 A 
ATOM     10  C   UNL A   1      32.897  22.277  22.416  1.00  0.00     0.046 C 
ATOM     11  C   UNL A   1      33.281  24.708  22.579  1.00  0.00     0.009 A 
ATOM     12  C   UNL A   1      32.711  26.019  24.498  1.00  0.00     0.019 A 
ATOM     13  C   UNL A   1      33.219  25.951  23.198  1.00  0.00    -0.050 A 
ATOM     14  C   UNL A   1      33.656  27.182  22.460  1.00  0.00     0.044 C 
BRANCH   8  15
ATOM     15  N   UNL A   1      32.141  22.382  25.304  1.00  0.00    -0.278 N 
ATOM     16  H   UNL A   1      31.215  22.049  25.282  1.00  0.00     0.180 HD
BRANCH  15  17
ATOM     17  S   UNL A   1      33.323  21.501  26.168  1.00  0.00     0.265 S 
ATOM     18  O   UNL A   1      33.267  20.150  25.668  1.00  0.00    -0.201 OA
ATOM     19  O   UNL A   1      33.152  21.764  27.584  1.00  0.00    -0.201 OA
BRANCH  17  20
ATOM     20  C   UNL A   1      34.950  21.962  25.894  1.00  0.00     0.125 A 
ATOM     21  N   UNL A   1      37.114  22.026  25.629  1.00  0.00    -0.272 N 
ATOM     22  C   UNL A   1      36.003  21.298  25.301  1.00  0.00     0.131 A 
ATOM     23  N   UNL A   1      36.814  23.238  26.145  1.00  0.00    -0.180 NA
ATOM     24  C   UNL A   1      35.490  23.186  26.321  1.00  0.00     0.157 A 
BRANCH  21  25
ATOM     25  C   UNL A   1      38.484  21.558  25.736  1.00  0.00     0.141 C 
ATOM     26  C   UNL A   1      39.471  22.523  26.370  1.00  0.00     0.029 C 
ENDBRANCH  21  25
ENDBRANCH  17  20
ENDBRANCH  15  17
ENDBRANCH   8  15
ENDBRANCH   4   7
ENDBRANCH   2   3
ENDBRANCH   1   2
BRANCH   1  27
ATOM     27  C   UNL A   1      33.644  29.243  26.528  1.00  0.00     0.023 C 
BRANCH  27  28
ATOM     28  C   UNL A   1      34.895  28.981  27.354  1.00  0.00     0.116 C 
BRANCH  28  29
ATOM     29  N   UNL A   1      35.155  29.951  28.414  1.00  0.00    -0.352 N 
ATOM     30  C   UNL A   1      36.296  30.019  29.200  1.00  0.00     0.251 C 
ATOM     31  H   UNL A   1      34.454  30.621  28.586  1.00  0.00     0.163 HD
ATOM     32  O   UNL A   1      36.322  30.674  30.234  1.00  0.00    -0.269 OA
BRANCH  30  33
ATOM     33  C   UNL A   1      37.474  29.240  28.761  1.00  0.00     0.039 A 
ATOM     34  C   UNL A   1      38.215  29.633  27.647  1.00  0.00     0.014 A 
ATOM     35  C   UNL A   1      37.916  28.208  29.585  1.00  0.00     0.014 A 
ATOM     36  C   UNL A   1      39.478  29.073  27.450  1.00  0.00     0.010 A 
ATOM     37  C   UNL A   1      39.208  27.738  29.450  1.00  0.00     0.010 A 
ATOM     38  C   UNL A   1      40.006  28.164  28.387  1.00  0.00    -0.014 A 
BRANCH  38  39
ATOM     39  C   UNL A   1      41.426  27.791  28.320  1.00  0.00     0.031 A 
ATOM     40  C   UNL A   1      41.757  26.562  27.534  1.00  0.00     0.074 A 
ATOM     41  C   UNL A   1      42.461  28.556  28.730  1.00  0.00     0.049 A 
ATOM     42  N   UNL A   1      42.224  25.442  27.978  1.00  0.00    -0.248 NA
ATOM     43  C   UNL A   1      41.471  26.550  26.093  1.00  0.00     0.031 C 
ATOM     44  C   UNL A   1      42.437  29.923  29.255  1.00  0.00     0.029 A 
ATOM     45  N   UNL A   1      43.798  28.280  28.662  1.00  0.00    -0.354 N 
ATOM     46  C   UNL A   1      42.488  24.645  26.865  1.00  0.00     0.074 A 
ATOM     47  C   UNL A   1      41.868  25.320  25.753  1.00  0.00     0.031 C 
ATOM     48  C   UNL A   1      43.687  30.436  29.239  1.00  0.00     0.029 A 
ATOM     49  C   UNL A   1      44.616  29.378  28.889  1.00  0.00     0.049 A 
ATOM     50  H   UNL A   1      44.149  27.381  28.468  1.00  0.00     0.167 HD
ATOM     51  C   UNL A   1      43.347  23.586  26.932  1.00  0.00     0.034 A 
ATOM     52  C   UNL A   1      45.967  29.433  28.818  1.00  0.00     0.034 A 
ATOM     53  C   UNL A   1      43.608  23.217  28.307  1.00  0.00     0.049 A 
ATOM     54  C   UNL A   1      46.473  28.061  29.049  1.00  0.00     0.074 A 
ATOM     55  C   UNL A   1      42.820  22.844  29.381  1.00  0.00     0.029 A 
ATOM     56  N   UNL A   1      44.823  23.559  28.859  1.00  0.00    -0.354 N 
ATOM     57  N   UNL A   1      46.318  27.424  30.177  1.00  0.00    -0.248 NA
ATOM     58  C   UNL A   1      46.779  27.221  27.904  1.00  0.00     0.031 C 
ATOM     59  C   UNL A   1      43.407  23.496  30.507  1.00  0.00     0.029 A 
ATOM     60  C   UNL A   1      44.553  24.160  30.064  1.00  0.00     0.049 A 
ATOM     61  H   UNL A   1      45.712  23.404  28.466  1.00  0.00     0.167 HD
ATOM     62  C   UNL A   1      46.067  26.111  29.815  1.00  0.00     0.074 A 
ATOM     63  C   UNL A   1      46.494  26.022  28.421  1.00  0.00     0.031 C 
ATOM     64  C   UNL A   1      45.285  25.299  30.589  1.00  0.00     0.034 A 
BRANCH  51  65
ATOM     65  C   UNL A   1      44.203  23.052  25.798  1.00  0.00     0.023 A 
ATOM     66  C   UNL A   1      44.160  21.664  25.542  1.00  0.00     0.031 A 
ATOM     67  C   UNL A   1      45.243  23.755  25.149  1.00  0.00     0.131 A 
ATOM     68  C   UNL A   1      45.160  21.027  24.784  1.00  0.00     0.055 A 
ATOM     69  C   UNL A   1      46.195  23.127  24.335  1.00  0.00     0.041 A 
ATOM     70  F   UNL A   1      45.456  25.062  25.333  1.00  0.00    -0.206 F 
ATOM     71  C   UNL A   1      46.179  21.752  24.176  1.00  0.00     0.022 A 
BRANCH  68  72
ATOM     72  S   UNL A   1      45.218  19.214  24.778  1.00  0.00     0.124 S 
ATOM     73  O   UNL A   1      46.264  18.949  25.760  1.00  0.00    -0.237 OA
ATOM     74  O   UNL A   1      43.856  18.870  25.176  1.00  0.00    -0.237 OA
ATOM     75  O   UNL A   1      45.563  18.891  23.395  1.00  0.00    -0.744 OA
ENDBRANCH  68  72
ENDBRANCH  51  65
BRANCH  52  76
ATOM     76  C   UNL A   1      46.790  30.567  28.336  1.00  0.00     0.023 A 
ATOM     77  C   UNL A   1      46.299  31.536  27.443  1.00  0.00     0.031 A 
ATOM     78  C   UNL A   1      48.034  30.834  28.951  1.00  0.00     0.131 A 
ATOM     79  C   UNL A   1      47.044  32.712  27.195  1.00  0.00     0.055 A 
ATOM     80  C   UNL A   1      48.770  31.993  28.698  1.00  0.00     0.041 A 
ATOM     81  F   UNL A   1      48.537  30.012  29.886  1.00  0.00    -0.206 F 
ATOM     82  C   UNL A   1      48.271  32.944  27.822  1.00  0.00     0.022 A 
BRANCH  79  83
ATOM     83  S   UNL A   1      46.360  34.016  26.124  1.00  0.00     0.124 S 
ATOM     84  O   UNL A   1      45.877  34.991  27.094  1.00  0.00    -0.237 OA
ATOM     85  O   UNL A   1      47.518  34.408  25.329  1.00  0.00    -0.237 OA
ATOM     86  O   UNL A   1      45.312  33.322  25.373  1.00  0.00    -0.744 OA
ENDBRANCH  79  83
ENDBRANCH  52  76
BRANCH  64  87
ATOM     87  C   UNL A   1      44.954  25.738  32.003  1.00  0.00     0.023 A 
ATOM     88  C   UNL A   1      43.825  26.508  32.365  1.00  0.00     0.031 A 
ATOM     89  C   UNL A   1      45.763  25.246  33.045  1.00  0.00     0.131 A 
ATOM     90  C   UNL A   1      43.553  26.773  33.722  1.00  0.00     0.055 A 
ATOM     91  C   UNL A   1      45.479  25.492  34.388  1.00  0.00     0.041 A 
ATOM     92  F   UNL A   1      46.835  24.482  32.773  1.00  0.00    -0.206 F 
ATOM     93  C   UNL A   1      44.376  26.263  34.732  1.00  0.00     0.022 A 
BRANCH  90  94
ATOM     94  S   UNL A   1      42.131  27.807  34.200  1.00  0.00     0.124 S 
ATOM     95  O   UNL A   1      41.491  27.043  35.265  1.00  0.00    -0.237 OA
ATOM     96  O   UNL A   1      42.770  29.056  34.606  1.00  0.00    -0.237 OA
ATOM     97  O   UNL A   1      41.349  27.900  32.965  1.00  0.00    -0.744 OA
ENDBRANCH  90  94
ENDBRANCH  64  87
ENDBRANCH  38  39
ENDBRANCH  30  33
ENDBRANCH  28  29
ENDBRANCH  27  28
ENDBRANCH   1  27
TORSDOF 18
ENDMDL
MODEL 2
REMARK VINA RESULT:     -12.5      2.294      2.930
REMARK SMILES CCn1cc(S(=O)(=O)Nc2c(C)cc(C)cc2C(=O)NCCCCNC(=O)c2ccc(-c3c4nc(c(-c5cc(S(=O)(=O)[O-])ccc5F)c5ccc([nH]5)c(-c5cc(S(=O)(=O)[O-])ccc5F)c5nc(c(-c6cc(S(=O)(=O)[O-])ccc6F)c6ccc3[nH]6)C=C5)C=C4)cc2)cn1
REMARK SMILES IDX 22 1 21 2 20 3 18 4 19 5 17 7 10 8 11 9 12 10 13 11 16 12
REMARK SMILES IDX 14 13 15 14 9 15 6 17 7 18 8 19 5 20 3 21 4 22 92 23 91 24
REMARK SMILES IDX 2 25 1 26 23 27 24 28 25 29 26 30 27 32 28 33 29 34 90 35
REMARK SMILES IDX 30 36 89 37 31 38 32 39 33 40 83 41 34 42 88 43 82 44 84 45
REMARK SMILES IDX 35 46 87 47 81 48 80 49 36 51 68 52 48 53 67 54 49 55 52 56
REMARK SMILES IDX 66 57 85 58 50 59 51 60 65 62 86 63 53 64 37 65 38 66 46 67
REMARK SMILES IDX 39 68 45 69 47 70 44 71 40 72 41 73 42 74 43 75 69 76 70 77
REMARK SMILES IDX 78 78 71 79 77 80 79 81 76 82 72 83 73 84 74 85 75 86 54 87
REMARK SMILES IDX 55 88 63 89 56 90 62 91 64 92 61 93 57 94 58 95 59 96 60 97
REMARK H PARENT 20 6 9 16 25 31 84 50 52 61
REMARK Flexibility Score: inf
ROOT
ATOM      1  C   UNL A   1      32.665  29.903  27.113  1.00  0.00     0.023 C 
ENDROOT
BRANCH   1   2
ATOM      2  C   UNL A   1      32.128  30.202  25.714  1.00  0.00     0.116 C 
BRANCH   2   3
ATOM      3  N   UNL A   1      32.880  29.682  24.606  1.00  0.00    -0.352 N 
ATOM      4  C   UNL A   1      32.446  29.028  23.479  1.00  0.00     0.253 C 
ATOM      5  O   UNL A   1      33.329  28.696  22.681  1.00  0.00    -0.269 OA
ATOM      6  H   UNL A   1      33.854  29.814  24.664  1.00  0.00     0.163 HD
BRANCH   4   7
ATOM      7  C   UNL A   1      31.029  28.616  23.153  1.00  0.00     0.064 A 
ATOM      8  C   UNL A   1      30.291  27.486  23.599  1.00  0.00     0.065 A 
ATOM      9  C   UNL A   1      28.875  27.486  23.448  1.00  0.00    -0.026 A 
ATOM     10  C   UNL A   1      27.953  26.447  24.036  1.00  0.00     0.046 C 
ATOM     11  C   UNL A   1      28.247  28.492  22.689  1.00  0.00     0.009 A 
ATOM     12  C   UNL A   1      30.341  29.617  22.419  1.00  0.00     0.019 A 
ATOM     13  C   UNL A   1      28.969  29.556  22.162  1.00  0.00    -0.050 A 
ATOM     14  C   UNL A   1      28.270  30.623  21.371  1.00  0.00     0.044 C 
BRANCH   8  15
ATOM     15  N   UNL A   1      30.929  26.398  24.287  1.00  0.00    -0.278 N 
ATOM     16  H   UNL A   1      31.049  26.451  25.263  1.00  0.00     0.180 HD
BRANCH  15  17
ATOM     17  S   UNL A   1      31.485  25.014  23.453  1.00  0.00     0.265 S 
ATOM     18  O   UNL A   1      32.297  25.496  22.363  1.00  0.00    -0.201 OA
ATOM     19  O   UNL A   1      30.352  24.146  23.191  1.00  0.00    -0.201 OA
BRANCH  17  20
ATOM     20  C   UNL A   1      32.549  23.992  24.323  1.00  0.00     0.125 A 
ATOM     21  N   UNL A   1      34.130  23.157  25.572  1.00  0.00    -0.272 N 
ATOM     22  C   UNL A   1      33.199  24.158  25.527  1.00  0.00     0.131 A 
ATOM     23  N   UNL A   1      33.934  22.215  24.625  1.00  0.00    -0.180 NA
ATOM     24  C   UNL A   1      32.977  22.740  23.853  1.00  0.00     0.157 A 
BRANCH  21  25
ATOM     25  C   UNL A   1      35.387  23.143  26.299  1.00  0.00     0.141 C 
ATOM     26  C   UNL A   1      36.560  23.823  25.615  1.00  0.00     0.029 C 
ENDBRANCH  21  25
ENDBRANCH  17  20
ENDBRANCH  15  17
ENDBRANCH   8  15
ENDBRANCH   4   7
ENDBRANCH   2   3
ENDBRANCH   1   2
BRANCH   1  27
ATOM     27  C   UNL A   1      33.665  28.755  27.277  1.00  0.00     0.023 C 
BRANCH  27  28
ATOM     28  C   UNL A   1      35.124  29.149  27.457  1.00  0.00     0.116 C 
BRANCH  28  29
ATOM     29  N   UNL A   1      35.400  30.010  28.603  1.00  0.00    -0.352 N 
ATOM     30  C   UNL A   1      36.530  29.967  29.406  1.00  0.00     0.251 C 
ATOM     31  H   UNL A   1      34.719  30.685  28.827  1.00  0.00     0.163 HD
ATOM     32  O   UNL A   1      36.562  30.524  30.496  1.00  0.00    -0.269 OA
BRANCH  30  33
ATOM     33  C   UNL A   1      37.688  29.191  28.912  1.00  0.00     0.039 A 
ATOM     34  C   UNL A   1      38.368  29.578  27.758  1.00  0.00     0.014 A 
ATOM     35  C   UNL A   1      38.178  28.167  29.721  1.00  0.00     0.014 A 
ATOM     36  C   UNL A   1      39.623  29.024  27.501  1.00  0.00     0.010 A 
ATOM     37  C   UNL A   1      39.464  27.703  29.522  1.00  0.00     0.010 A 
ATOM     38  C   UNL A   1      40.204  28.126  28.416  1.00  0.00    -0.014 A 
BRANCH  38  39
ATOM     39  C   UNL A   1      41.621  27.759  28.278  1.00  0.00     0.031 A 
ATOM     40  C   UNL A   1      41.915  26.506  27.517  1.00  0.00     0.074 A 
ATOM     41  C   UNL A   1      42.671  28.545  28.600  1.00  0.00     0.049 A 
ATOM     42  N   UNL A   1      42.417  25.405  27.970  1.00  0.00    -0.248 NA
ATOM     43  C   UNL A   1      41.544  26.441  26.097  1.00  0.00     0.031 C 
ATOM     44  C   UNL A   1      42.667  29.929  29.078  1.00  0.00     0.029 A 
ATOM     45  N   UNL A   1      44.004  28.275  28.463  1.00  0.00    -0.354 N 
ATOM     46  C   UNL A   1      42.622  24.571  26.872  1.00  0.00     0.074 A 
ATOM     47  C   UNL A   1      41.931  25.203  25.777  1.00  0.00     0.031 C 
ATOM     48  C   UNL A   1      43.909  30.449  28.971  1.00  0.00     0.029 A 
ATOM     49  C   UNL A   1      44.824  29.385  28.603  1.00  0.00     0.049 A 
ATOM     50  H   UNL A   1      44.350  27.372  28.280  1.00  0.00     0.167 HD
ATOM     51  C   UNL A   1      43.491  23.520  26.925  1.00  0.00     0.034 A 
ATOM     52  C   UNL A   1      46.169  29.447  28.451  1.00  0.00     0.034 A 
ATOM     53  C   UNL A   1      43.837  23.201  28.294  1.00  0.00     0.049 A 
ATOM     54  C   UNL A   1      46.698  28.087  28.698  1.00  0.00     0.074 A 
ATOM     55  C   UNL A   1      43.116  22.861  29.424  1.00  0.00     0.029 A 
ATOM     56  N   UNL A   1      45.078  23.571  28.761  1.00  0.00    -0.354 N 
ATOM     57  N   UNL A   1      46.616  27.488  29.855  1.00  0.00    -0.248 NA
ATOM     58  C   UNL A   1      46.944  27.209  27.567  1.00  0.00     0.031 C 
ATOM     59  C   UNL A   1      43.763  23.555  30.491  1.00  0.00     0.029 A 
ATOM     60  C   UNL A   1      44.875  24.211  29.959  1.00  0.00     0.049 A 
ATOM     61  H   UNL A   1      45.944  23.408  28.321  1.00  0.00     0.167 HD
ATOM     62  C   UNL A   1      46.355  26.162  29.554  1.00  0.00     0.074 A 
ATOM     63  C   UNL A   1      46.700  26.028  28.141  1.00  0.00     0.031 C 
ATOM     64  C   UNL A   1      45.627  25.372  30.399  1.00  0.00     0.034 A 
BRANCH  51  65
ATOM     65  C   UNL A   1      44.284  22.954  25.761  1.00  0.00     0.023 A 
ATOM     66  C   UNL A   1      44.233  21.558  25.552  1.00  0.00     0.031 A 
ATOM     67  C   UNL A   1      45.282  23.638  25.032  1.00  0.00     0.131 A 
ATOM     68  C   UNL A   1      45.191  20.900  24.759  1.00  0.00     0.055 A 
ATOM     69  C   UNL A   1      46.189  22.987  24.185  1.00  0.00     0.041 A 
ATOM     70  F   UNL A   1      45.499  24.951  25.162  1.00  0.00    -0.206 F 
ATOM     71  C   UNL A   1      46.170  21.607  24.070  1.00  0.00     0.022 A 
BRANCH  68  72
ATOM     72  S   UNL A   1      45.256  19.087  24.807  1.00  0.00     0.124 S 
ATOM     73  O   UNL A   1      44.183  18.779  25.745  1.00  0.00    -0.237 OA
ATOM     74  O   UNL A   1      45.013  18.742  23.410  1.00  0.00    -0.237 OA
ATOM     75  O   UNL A   1      46.607  18.810  25.291  1.00  0.00    -0.744 OA
ENDBRANCH  68  72
ENDBRANCH  51  65
BRANCH  52  76
ATOM     76  C   UNL A   1      46.952  30.569  27.882  1.00  0.00     0.023 A 
ATOM     77  C   UNL A   1      46.365  31.599  27.127  1.00  0.00     0.031 A 
ATOM     78  C   UNL A   1      48.294  30.754  28.286  1.00  0.00     0.131 A 
ATOM     79  C   UNL A   1      47.113  32.754  26.805  1.00  0.00     0.055 A 
ATOM     80  C   UNL A   1      49.031  31.893  27.959  1.00  0.00     0.041 A 
ATOM     81  F   UNL A   1      48.907  29.867  29.086  1.00  0.00    -0.206 F 
ATOM     82  C   UNL A   1      48.438  32.905  27.222  1.00  0.00     0.022 A 
BRANCH  79  83
ATOM     83  S   UNL A   1      46.322  34.136  25.922  1.00  0.00     0.124 S 
ATOM     84  O   UNL A   1      47.429  34.682  25.146  1.00  0.00    -0.237 OA
ATOM     85  O   UNL A   1      45.268  33.465  25.170  1.00  0.00    -0.237 OA
ATOM     86  O   UNL A   1      45.844  35.000  27.003  1.00  0.00    -0.744 OA
ENDBRANCH  79  83
ENDBRANCH  52  76
BRANCH  64  87
ATOM     87  C   UNL A   1      45.376  25.858  31.815  1.00  0.00     0.023 A 
ATOM     88  C   UNL A   1      46.286  25.717  32.888  1.00  0.00     0.031 A 
ATOM     89  C   UNL A   1      44.207  26.604  32.052  1.00  0.00     0.131 A 
ATOM     90  C   UNL A   1      46.000  26.297  34.141  1.00  0.00     0.055 A 
ATOM     91  C   UNL A   1      43.937  27.195  33.286  1.00  0.00     0.041 A 
ATOM     92  F   UNL A   1      43.313  26.801  31.067  1.00  0.00    -0.206 F 
ATOM     93  C   UNL A   1      44.830  27.038  34.338  1.00  0.00     0.022 A 
BRANCH  90  94
ATOM     94  S   UNL A   1      47.139  26.081  35.546  1.00  0.00     0.124 S 
ATOM     95  O   UNL A   1      47.513  27.445  35.901  1.00  0.00    -0.237 OA
ATOM     96  O   UNL A   1      46.310  25.373  36.519  1.00  0.00    -0.237 OA
ATOM     97  O   UNL A   1      48.228  25.281  34.981  1.00  0.00    -0.744 OA
ENDBRANCH  90  94
ENDBRANCH  64  87
ENDBRANCH  38  39
ENDBRANCH  30  33
ENDBRANCH  28  29
ENDBRANCH  27  28
ENDBRANCH   1  27
TORSDOF 18
ENDMDL
MODEL 3
REMARK VINA RESULT:     -12.4      2.655      7.377
REMARK SMILES CCn1cc(S(=O)(=O)Nc2c(C)cc(C)cc2C(=O)NCCCCNC(=O)c2ccc(-c3c4nc(c(-c5cc(S(=O)(=O)[O-])ccc5F)c5ccc([nH]5)c(-c5cc(S(=O)(=O)[O-])ccc5F)c5nc(c(-c6cc(S(=O)(=O)[O-])ccc6F)c6ccc3[nH]6)C=C5)C=C4)cc2)cn1
REMARK SMILES IDX 22 1 21 2 20 3 18 4 19 5 17 7 10 8 11 9 12 10 13 11 16 12
REMARK SMILES IDX 14 13 15 14 9 15 6 17 7 18 8 19 5 20 3 21 4 22 92 23 91 24
REMARK SMILES IDX 2 25 1 26 23 27 24 28 25 29 26 30 27 32 28 33 29 34 90 35
REMARK SMILES IDX 30 36 89 37 31 38 32 39 33 40 83 41 34 42 88 43 82 44 84 45
REMARK SMILES IDX 35 46 87 47 81 48 80 49 36 51 68 52 48 53 67 54 49 55 52 56
REMARK SMILES IDX 66 57 85 58 50 59 51 60 65 62 86 63 53 64 37 65 38 66 46 67
REMARK SMILES IDX 39 68 45 69 47 70 44 71 40 72 41 73 42 74 43 75 69 76 70 77
REMARK SMILES IDX 78 78 71 79 77 80 79 81 76 82 72 83 73 84 74 85 75 86 54 87
REMARK SMILES IDX 55 88 63 89 56 90 62 91 64 92 61 93 57 94 58 95 59 96 60 97
REMARK H PARENT 20 6 9 16 25 31 84 50 52 61
REMARK Flexibility Score: inf
ROOT
ATOM      1  C   UNL A   1      33.156  27.388  26.033  1.00  0.00     0.023 C 
ENDROOT
BRANCH   1   2
ATOM      2  C   UNL A   1      33.823  26.034  25.795  1.00  0.00     0.116 C 
BRANCH   2   3
ATOM      3  N   UNL A   1      33.818  25.538  24.447  1.00  0.00    -0.352 N 
ATOM      4  C   UNL A   1      34.430  24.429  23.917  1.00  0.00     0.253 C 
ATOM      5  O   UNL A   1      34.244  24.243  22.709  1.00  0.00    -0.269 OA
ATOM      6  H   UNL A   1      33.296  26.074  23.806  1.00  0.00     0.163 HD
BRANCH   4   7
ATOM      7  C   UNL A   1      35.352  23.468  24.630  1.00  0.00     0.064 A 
ATOM      8  C   UNL A   1      35.299  22.050  24.703  1.00  0.00     0.065 A 
ATOM      9  C   UNL A   1      36.457  21.339  25.129  1.00  0.00    -0.026 A 
ATOM     10  C   UNL A   1      36.605  19.838  25.079  1.00  0.00     0.046 C 
ATOM     11  C   UNL A   1      37.557  22.038  25.663  1.00  0.00     0.009 A 
ATOM     12  C   UNL A   1      36.498  24.122  25.155  1.00  0.00     0.019 A 
ATOM     13  C   UNL A   1      37.585  23.427  25.690  1.00  0.00    -0.050 A 
ATOM     14  C   UNL A   1      38.778  24.145  26.249  1.00  0.00     0.044 C 
BRANCH   8  15
ATOM     15  N   UNL A   1      34.144  21.319  24.258  1.00  0.00    -0.278 N 
ATOM     16  H   UNL A   1      34.100  21.013  23.323  1.00  0.00     0.180 HD
BRANCH  15  17
ATOM     17  S   UNL A   1      32.845  20.969  25.312  1.00  0.00     0.265 S 
ATOM     18  O   UNL A   1      33.436  20.607  26.577  1.00  0.00    -0.201 OA
ATOM     19  O   UNL A   1      31.939  20.056  24.641  1.00  0.00    -0.201 OA
BRANCH  17  20
ATOM     20  C   UNL A   1      31.826  22.287  25.709  1.00  0.00     0.125 A 
ATOM     21  N   UNL A   1      30.687  24.147  25.733  1.00  0.00    -0.272 N 
ATOM     22  C   UNL A   1      31.026  23.094  24.928  1.00  0.00     0.131 A 
ATOM     23  N   UNL A   1      30.980  23.929  27.033  1.00  0.00    -0.180 NA
ATOM     24  C   UNL A   1      31.693  22.798  27.009  1.00  0.00     0.157 A 
BRANCH  21  25
ATOM     25  C   UNL A   1      30.326  25.494  25.330  1.00  0.00     0.141 C 
ATOM     26  C   UNL A   1      29.807  25.649  23.911  1.00  0.00     0.029 C 
ENDBRANCH  21  25
ENDBRANCH  17  20
ENDBRANCH  15  17
ENDBRANCH   8  15
ENDBRANCH   4   7
ENDBRANCH   2   3
ENDBRANCH   1   2
BRANCH   1  27
ATOM     27  C   UNL A   1      34.004  28.653  25.874  1.00  0.00     0.023 C 
BRANCH  27  28
ATOM     28  C   UNL A   1      34.358  29.395  27.155  1.00  0.00     0.116 C 
BRANCH  28  29
ATOM     29  N   UNL A   1      34.471  30.845  27.024  1.00  0.00    -0.352 N 
ATOM     30  C   UNL A   1      35.289  31.675  27.777  1.00  0.00     0.251 C 
ATOM     31  H   UNL A   1      33.913  31.274  26.335  1.00  0.00     0.163 HD
ATOM     32  O   UNL A   1      35.125  32.888  27.796  1.00  0.00    -0.269 OA
BRANCH  30  33
ATOM     33  C   UNL A   1      36.348  31.035  28.586  1.00  0.00     0.039 A 
ATOM     34  C   UNL A   1      36.234  29.706  28.990  1.00  0.00     0.014 A 
ATOM     35  C   UNL A   1      37.530  31.744  28.789  1.00  0.00     0.014 A 
ATOM     36  C   UNL A   1      37.368  29.050  29.470  1.00  0.00     0.010 A 
ATOM     37  C   UNL A   1      38.674  31.064  29.160  1.00  0.00     0.010 A 
ATOM     38  C   UNL A   1      38.611  29.711  29.502  1.00  0.00    -0.014 A 
BRANCH  38  39
ATOM     39  C   UNL A   1      39.839  28.943  29.749  1.00  0.00     0.031 A 
ATOM     40  C   UNL A   1      40.192  28.690  31.180  1.00  0.00     0.074 A 
ATOM     41  C   UNL A   1      40.558  28.287  28.813  1.00  0.00     0.049 A 
ATOM     42  N   UNL A   1      41.204  29.151  31.839  1.00  0.00    -0.248 NA
ATOM     43  C   UNL A   1      39.275  27.885  31.999  1.00  0.00     0.031 C 
ATOM     44  C   UNL A   1      40.268  28.118  27.387  1.00  0.00     0.029 A 
ATOM     45  N   UNL A   1      41.683  27.530  28.985  1.00  0.00    -0.354 N 
ATOM     46  C   UNL A   1      41.180  28.544  33.093  1.00  0.00     0.074 A 
ATOM     47  C   UNL A   1      39.896  27.897  33.182  1.00  0.00     0.031 C 
ATOM     48  C   UNL A   1      41.047  27.138  26.879  1.00  0.00     0.029 A 
ATOM     49  C   UNL A   1      42.015  26.749  27.888  1.00  0.00     0.049 A 
ATOM     50  H   UNL A   1      42.211  27.539  29.816  1.00  0.00     0.167 HD
ATOM     51  C   UNL A   1      42.294  28.484  33.879  1.00  0.00     0.034 A 
ATOM     52  C   UNL A   1      43.024  25.850  27.784  1.00  0.00     0.034 A 
ATOM     53  C   UNL A   1      43.306  29.410  33.416  1.00  0.00     0.049 A 
ATOM     54  C   UNL A   1      44.059  26.242  28.766  1.00  0.00     0.074 A 
ATOM     55  C   UNL A   1      43.347  30.775  33.196  1.00  0.00     0.029 A 
ATOM     56  N   UNL A   1      44.397  28.907  32.742  1.00  0.00    -0.354 N 
ATOM     57  N   UNL A   1      44.728  27.361  28.692  1.00  0.00    -0.248 NA
ATOM     58  C   UNL A   1      44.070  25.604  30.072  1.00  0.00     0.031 C 
ATOM     59  C   UNL A   1      44.103  30.926  31.994  1.00  0.00     0.029 A 
ATOM     60  C   UNL A   1      44.537  29.658  31.601  1.00  0.00     0.049 A 
ATOM     61  H   UNL A   1      44.966  28.155  33.024  1.00  0.00     0.167 HD
ATOM     62  C   UNL A   1      44.859  27.787  30.002  1.00  0.00     0.074 A 
ATOM     63  C   UNL A   1      44.556  26.608  30.808  1.00  0.00     0.031 C 
ATOM     64  C   UNL A   1      44.929  29.117  30.312  1.00  0.00     0.034 A 
BRANCH  51  65
ATOM     65  C   UNL A   1      42.625  27.395  34.884  1.00  0.00     0.023 A 
ATOM     66  C   UNL A   1      43.444  26.329  34.448  1.00  0.00     0.031 A 
ATOM     67  C   UNL A   1      41.981  27.193  36.124  1.00  0.00     0.131 A 
ATOM     68  C   UNL A   1      43.508  25.116  35.159  1.00  0.00     0.055 A 
ATOM     69  C   UNL A   1      42.106  26.011  36.865  1.00  0.00     0.041 A 
ATOM     70  F   UNL A   1      41.128  28.080  36.647  1.00  0.00    -0.206 F 
ATOM     71  C   UNL A   1      42.845  24.951  36.369  1.00  0.00     0.022 A 
BRANCH  68  72
ATOM     72  S   UNL A   1      44.311  23.694  34.369  1.00  0.00     0.124 S 
ATOM     73  O   UNL A   1      45.292  24.348  33.511  1.00  0.00    -0.237 OA
ATOM     74  O   UNL A   1      44.840  22.971  35.521  1.00  0.00    -0.237 OA
ATOM     75  O   UNL A   1      43.212  23.031  33.668  1.00  0.00    -0.744 OA
ENDBRANCH  68  72
ENDBRANCH  51  65
BRANCH  52  76
ATOM     76  C   UNL A   1      43.003  24.567  27.043  1.00  0.00     0.023 A 
ATOM     77  C   UNL A   1      43.950  24.245  26.055  1.00  0.00     0.031 A 
ATOM     78  C   UNL A   1      42.153  23.525  27.481  1.00  0.00     0.131 A 
ATOM     79  C   UNL A   1      44.021  22.929  25.545  1.00  0.00     0.055 A 
ATOM     80  C   UNL A   1      42.222  22.229  26.969  1.00  0.00     0.041 A 
ATOM     81  F   UNL A   1      41.282  23.716  28.484  1.00  0.00    -0.206 F 
ATOM     82  C   UNL A   1      43.166  21.923  26.002  1.00  0.00     0.022 A 
BRANCH  79  83
ATOM     83  S   UNL A   1      45.317  22.484  24.347  1.00  0.00     0.124 S 
ATOM     84  O   UNL A   1      46.201  21.643  25.144  1.00  0.00    -0.237 OA
ATOM     85  O   UNL A   1      44.557  21.817  23.295  1.00  0.00    -0.237 OA
ATOM     86  O   UNL A   1      45.882  23.779  23.962  1.00  0.00    -0.744 OA
ENDBRANCH  79  83
ENDBRANCH  52  76
BRANCH  64  87
ATOM     87  C   UNL A   1      45.183  30.113  29.196  1.00  0.00     0.023 A 
ATOM     88  C   UNL A   1      46.464  30.507  28.744  1.00  0.00     0.031 A 
ATOM     89  C   UNL A   1      44.069  30.590  28.481  1.00  0.00     0.131 A 
ATOM     90  C   UNL A   1      46.591  31.360  27.629  1.00  0.00     0.055 A 
ATOM     91  C   UNL A   1      44.199  31.416  27.365  1.00  0.00     0.041 A 
ATOM     92  F   UNL A   1      42.824  30.231  28.839  1.00  0.00    -0.206 F 
ATOM     93  C   UNL A   1      45.461  31.811  26.938  1.00  0.00     0.022 A 
BRANCH  90  94
ATOM     94  S   UNL A   1      48.232  31.917  27.068  1.00  0.00     0.124 S 
ATOM     95  O   UNL A   1      48.864  32.412  28.286  1.00  0.00    -0.237 OA
ATOM     96  O   UNL A   1      48.804  30.697  26.503  1.00  0.00    -0.237 OA
ATOM     97  O   UNL A   1      47.920  32.954  26.082  1.00  0.00    -0.744 OA
ENDBRANCH  90  94
ENDBRANCH  64  87
ENDBRANCH  38  39
ENDBRANCH  30  33
ENDBRANCH  28  29
ENDBRANCH  27  28
ENDBRANCH   1  27
TORSDOF 18
ENDMDL
