MODEL 1
REMARK VINA RESULT:     -12.7      0.000      0.000
REMARK SMILES CC1(C)[C@H](C(=O)NCCCCNC(=O)c2ccc(-c3c4nc(c(-c5cc(S(=O)(=O)[O-])ccc5F)c5ccc([nH]5)c(-c5cc(S(=O)(=O)[O-])ccc5F)c5nc(c(-c6cc(S(=O)(=O)[O-])ccc6F)c6ccc3[nH]6)C=C5)C=C4)cc2)[C@H]1C(=O)Nc1cccc2[nH]ccc12
REMARK SMILES IDX 10 1 9 2 8 3 7 4 5 5 6 6 4 8 1 9 2 10 3 11 78 12 79 13 80 14
REMARK SMILES IDX 81 15 82 17 83 18 90 19 84 20 86 21 89 22 85 23 87 24 88 25
REMARK SMILES IDX 11 27 12 28 13 29 14 31 15 32 16 33 77 34 17 35 76 36 18 37
REMARK SMILES IDX 19 38 20 39 70 40 21 41 75 42 69 43 71 44 22 45 74 46 68 47
REMARK SMILES IDX 67 48 23 50 55 51 35 52 54 53 36 54 39 55 53 56 72 57 37 58
REMARK SMILES IDX 38 59 52 61 73 62 40 63 24 64 25 65 33 66 26 67 32 68 34 69
REMARK SMILES IDX 31 70 27 71 28 72 29 73 30 74 56 75 57 76 65 77 58 78 64 79
REMARK SMILES IDX 66 80 63 81 59 82 60 83 61 84 62 85 41 86 42 87 50 88 43 89
REMARK SMILES IDX 49 90 51 91 48 92 44 93 45 94 46 95 47 96
REMARK H PARENT 7 7 81 16 87 26 12 30 71 49 39 60
REMARK Flexibility Score: inf
ROOT
ATOM      1  C   UNL A   1      31.690  28.861  25.248  1.00  0.00     0.023 C 
ENDROOT
BRANCH   1   2
ATOM      2  C   UNL A   1      31.718  28.870  23.723  1.00  0.00     0.023 C 
BRANCH   2   3
ATOM      3  C   UNL A   1      33.107  28.938  23.091  1.00  0.00     0.116 C 
BRANCH   3   4
ATOM      4  N   UNL A   1      33.263  27.972  22.037  1.00  0.00    -0.356 N 
ATOM      5  C   UNL A   1      33.134  26.616  21.976  1.00  0.00     0.224 C 
ATOM      6  O   UNL A   1      33.278  26.120  20.856  1.00  0.00    -0.275 OA
ATOM      7  H   UNL A   1      33.519  28.376  21.175  1.00  0.00     0.163 HD
BRANCH   5   8
ATOM      8  C   UNL A   1      32.845  25.671  23.090  1.00  0.00     0.098 C 
ATOM      9  C   UNL A   1      31.418  23.700  23.732  1.00  0.00     0.013 C 
ATOM     10  C   UNL A   1      32.733  24.141  23.140  1.00  0.00    -0.011 C 
ATOM     11  C   UNL A   1      33.278  23.021  22.299  1.00  0.00     0.013 C 
ATOM     12  C   UNL A   1      33.851  24.913  23.871  1.00  0.00     0.098 C 
BRANCH  12  13
ATOM     13  C   UNL A   1      34.093  24.785  25.341  1.00  0.00     0.228 C 
ATOM     14  O   UNL A   1      33.781  25.745  26.044  1.00  0.00    -0.274 OA
ATOM     15  N   UNL A   1      34.354  23.582  25.951  1.00  0.00    -0.325 N 
ATOM     16  H   UNL A   1      33.812  23.381  26.748  1.00  0.00     0.169 HD
BRANCH  15  17
ATOM     17  C   UNL A   1      35.288  22.607  25.591  1.00  0.00     0.050 A 
ATOM     18  C   UNL A   1      36.625  22.997  25.460  1.00  0.00     0.027 A 
ATOM     19  C   UNL A   1      34.927  21.292  25.218  1.00  0.00     0.023 A 
ATOM     20  C   UNL A   1      37.613  22.057  25.174  1.00  0.00     0.004 A 
ATOM     21  C   UNL A   1      35.944  20.358  25.001  1.00  0.00     0.047 A 
ATOM     22  C   UNL A   1      33.703  20.618  24.925  1.00  0.00     0.030 A 
ATOM     23  C   UNL A   1      37.297  20.708  25.001  1.00  0.00     0.027 A 
ATOM     24  N   UNL A   1      35.342  19.132  24.832  1.00  0.00    -0.361 N 
ATOM     25  C   UNL A   1      33.986  19.283  24.735  1.00  0.00     0.083 A 
ATOM     26  H   UNL A   1      35.818  18.271  24.788  1.00  0.00     0.166 HD
ENDBRANCH  15  17
ENDBRANCH  12  13
ENDBRANCH   5   8
ENDBRANCH   3   4
ENDBRANCH   2   3
ENDBRANCH   1   2
BRANCH   1  27
ATOM     27  C   UNL A   1      32.824  29.620  25.923  1.00  0.00     0.116 C 
BRANCH  27  28
ATOM     28  N   UNL A   1      32.438  30.929  26.438  1.00  0.00    -0.352 N 
ATOM     29  C   UNL A   1      33.172  31.769  27.247  1.00  0.00     0.251 C 
ATOM     30  H   UNL A   1      31.546  31.252  26.175  1.00  0.00     0.163 HD
ATOM     31  O   UNL A   1      32.690  32.814  27.668  1.00  0.00    -0.269 OA
BRANCH  29  32
ATOM     32  C   UNL A   1      34.531  31.346  27.636  1.00  0.00     0.039 A 
ATOM     33  C   UNL A   1      35.528  32.314  27.769  1.00  0.00     0.014 A 
ATOM     34  C   UNL A   1      34.764  30.020  28.007  1.00  0.00     0.014 A 
ATOM     35  C   UNL A   1      36.733  31.970  28.383  1.00  0.00     0.010 A 
ATOM     36  C   UNL A   1      35.930  29.702  28.690  1.00  0.00     0.010 A 
ATOM     37  C   UNL A   1      36.916  30.679  28.905  1.00  0.00    -0.014 A 
BRANCH  37  38
ATOM     38  C   UNL A   1      38.109  30.330  29.718  1.00  0.00     0.031 A 
ATOM     39  C   UNL A   1      39.100  29.330  29.195  1.00  0.00     0.074 A 
ATOM     40  C   UNL A   1      38.241  30.837  30.960  1.00  0.00     0.049 A 
ATOM     41  N   UNL A   1      40.127  28.791  29.797  1.00  0.00    -0.248 NA
ATOM     42  C   UNL A   1      38.882  28.848  27.823  1.00  0.00     0.031 C 
ATOM     43  C   UNL A   1      37.319  31.786  31.589  1.00  0.00     0.029 A 
ATOM     44  N   UNL A   1      39.190  30.612  31.926  1.00  0.00    -0.354 N 
ATOM     45  C   UNL A   1      40.672  27.896  28.883  1.00  0.00     0.074 A 
ATOM     46  C   UNL A   1      39.819  27.920  27.713  1.00  0.00     0.031 C 
ATOM     47  C   UNL A   1      37.760  32.078  32.824  1.00  0.00     0.029 A 
ATOM     48  C   UNL A   1      38.961  31.295  33.099  1.00  0.00     0.049 A 
ATOM     49  H   UNL A   1      39.963  30.018  31.792  1.00  0.00     0.167 HD
ATOM     50  C   UNL A   1      41.793  27.144  29.002  1.00  0.00     0.034 A 
ATOM     51  C   UNL A   1      39.628  31.275  34.270  1.00  0.00     0.034 A 
ATOM     52  C   UNL A   1      42.632  27.141  30.175  1.00  0.00     0.049 A 
ATOM     53  C   UNL A   1      40.838  30.385  34.399  1.00  0.00     0.074 A 
ATOM     54  C   UNL A   1      43.826  26.471  30.378  1.00  0.00     0.029 A 
ATOM     55  N   UNL A   1      42.357  27.828  31.350  1.00  0.00    -0.354 N 
ATOM     56  N   UNL A   1      41.375  29.587  33.506  1.00  0.00    -0.248 NA
ATOM     57  C   UNL A   1      41.530  30.391  35.695  1.00  0.00     0.031 C 
ATOM     58  C   UNL A   1      44.234  26.695  31.698  1.00  0.00     0.029 A 
ATOM     59  C   UNL A   1      43.335  27.565  32.297  1.00  0.00     0.049 A 
ATOM     60  H   UNL A   1      41.581  28.418  31.490  1.00  0.00     0.167 HD
ATOM     61  C   UNL A   1      42.480  29.012  34.125  1.00  0.00     0.074 A 
ATOM     62  C   UNL A   1      42.542  29.567  35.462  1.00  0.00     0.031 C 
ATOM     63  C   UNL A   1      43.367  28.110  33.634  1.00  0.00     0.034 A 
BRANCH  50  64
ATOM     64  C   UNL A   1      42.152  26.250  27.839  1.00  0.00     0.023 A 
ATOM     65  C   UNL A   1      41.742  24.906  27.790  1.00  0.00     0.031 A 
ATOM     66  C   UNL A   1      42.946  26.733  26.785  1.00  0.00     0.131 A 
ATOM     67  C   UNL A   1      42.196  24.071  26.758  1.00  0.00     0.055 A 
ATOM     68  C   UNL A   1      43.323  25.919  25.715  1.00  0.00     0.041 A 
ATOM     69  F   UNL A   1      43.386  28.002  26.786  1.00  0.00    -0.206 F 
ATOM     70  C   UNL A   1      42.962  24.576  25.705  1.00  0.00     0.022 A 
BRANCH  67  71
ATOM     71  S   UNL A   1      41.898  22.288  26.896  1.00  0.00     0.124 S 
ATOM     72  O   UNL A   1      43.243  21.785  27.170  1.00  0.00    -0.237 OA
ATOM     73  O   UNL A   1      40.951  22.211  28.002  1.00  0.00    -0.237 OA
ATOM     74  O   UNL A   1      41.360  21.928  25.586  1.00  0.00    -0.744 OA
ENDBRANCH  67  71
ENDBRANCH  50  64
BRANCH  51  75
ATOM     75  C   UNL A   1      39.159  32.097  35.423  1.00  0.00     0.023 A 
ATOM     76  C   UNL A   1      39.628  33.405  35.615  1.00  0.00     0.031 A 
ATOM     77  C   UNL A   1      38.261  31.573  36.371  1.00  0.00     0.131 A 
ATOM     78  C   UNL A   1      39.229  34.133  36.747  1.00  0.00     0.055 A 
ATOM     79  C   UNL A   1      37.827  32.319  37.469  1.00  0.00     0.041 A 
ATOM     80  F   UNL A   1      37.778  30.327  36.234  1.00  0.00    -0.206 F 
ATOM     81  C   UNL A   1      38.322  33.604  37.668  1.00  0.00     0.022 A 
BRANCH  78  82
ATOM     82  S   UNL A   1      39.976  35.759  37.041  1.00  0.00     0.124 S 
ATOM     83  O   UNL A   1      39.278  36.193  38.246  1.00  0.00    -0.237 OA
ATOM     84  O   UNL A   1      41.386  35.420  37.203  1.00  0.00    -0.237 OA
ATOM     85  O   UNL A   1      39.653  36.507  35.828  1.00  0.00    -0.744 OA
ENDBRANCH  78  82
ENDBRANCH  51  75
BRANCH  63  86
ATOM     86  C   UNL A   1      44.493  27.690  34.543  1.00  0.00     0.023 A 
ATOM     87  C   UNL A   1      44.359  26.604  35.427  1.00  0.00     0.031 A 
ATOM     88  C   UNL A   1      45.720  28.377  34.517  1.00  0.00     0.131 A 
ATOM     89  C   UNL A   1      45.420  26.263  36.278  1.00  0.00     0.055 A 
ATOM     90  C   UNL A   1      46.790  27.998  35.328  1.00  0.00     0.041 A 
ATOM     91  F   UNL A   1      45.899  29.422  33.695  1.00  0.00    -0.206 F 
ATOM     92  C   UNL A   1      46.641  26.941  36.221  1.00  0.00     0.022 A 
BRANCH  89  93
ATOM     93  S   UNL A   1      45.165  24.957  37.510  1.00  0.00     0.124 S 
ATOM     94  O   UNL A   1      45.328  23.749  36.709  1.00  0.00    -0.237 OA
ATOM     95  O   UNL A   1      46.222  25.228  38.478  1.00  0.00    -0.237 OA
ATOM     96  O   UNL A   1      43.806  25.202  37.993  1.00  0.00    -0.744 OA
ENDBRANCH  89  93
ENDBRANCH  63  86
ENDBRANCH  37  38
ENDBRANCH  29  32
ENDBRANCH  27  28
ENDBRANCH   1  27
TORSDOF 16
ENDMDL
MODEL 2
REMARK VINA RESULT:     -12.7      4.906     10.271
REMARK SMILES CC1(C)[C@H](C(=O)NCCCCNC(=O)c2ccc(-c3c4nc(c(-c5cc(S(=O)(=O)[O-])ccc5F)c5ccc([nH]5)c(-c5cc(S(=O)(=O)[O-])ccc5F)c5nc(c(-c6cc(S(=O)(=O)[O-])ccc6F)c6ccc3[nH]6)C=C5)C=C4)cc2)[C@H]1C(=O)Nc1cccc2[nH]ccc12
REMARK SMILES IDX 10 1 9 2 8 3 7 4 5 5 6 6 4 8 1 9 2 10 3 11 78 12 79 13 80 14
REMARK SMILES IDX 81 15 82 17 83 18 90 19 84 20 86 21 89 22 85 23 87 24 88 25
REMARK SMILES IDX 11 27 12 28 13 29 14 31 15 32 16 33 77 34 17 35 76 36 18 37
REMARK SMILES IDX 19 38 20 39 70 40 21 41 75 42 69 43 71 44 22 45 74 46 68 47
REMARK SMILES IDX 67 48 23 50 55 51 35 52 54 53 36 54 39 55 53 56 72 57 37 58
REMARK SMILES IDX 38 59 52 61 73 62 40 63 24 64 25 65 33 66 26 67 32 68 34 69
REMARK SMILES IDX 31 70 27 71 28 72 29 73 30 74 56 75 57 76 65 77 58 78 64 79
REMARK SMILES IDX 66 80 63 81 59 82 60 83 61 84 62 85 41 86 42 87 50 88 43 89
REMARK SMILES IDX 49 90 51 91 48 92 44 93 45 94 46 95 47 96
REMARK H PARENT 7 7 81 16 87 26 12 30 71 49 39 60
REMARK Flexibility Score: inf
ROOT
ATOM      1  C   UNL A   1      36.080  21.613  24.421  1.00  0.00     0.023 C 
ENDROOT
BRANCH   1   2
ATOM      2  C   UNL A   1      34.749  20.984  24.820  1.00  0.00     0.023 C 
BRANCH   2   3
ATOM      3  C   UNL A   1      34.266  21.307  26.233  1.00  0.00     0.116 C 
BRANCH   3   4
ATOM      4  N   UNL A   1      32.830  21.325  26.317  1.00  0.00    -0.356 N 
ATOM      5  C   UNL A   1      31.863  22.098  25.744  1.00  0.00     0.224 C 
ATOM      6  O   UNL A   1      30.702  21.767  25.999  1.00  0.00    -0.275 OA
ATOM      7  H   UNL A   1      32.468  20.633  26.917  1.00  0.00     0.163 HD
BRANCH   5   8
ATOM      8  C   UNL A   1      32.040  23.281  24.859  1.00  0.00     0.098 C 
ATOM      9  C   UNL A   1      30.818  24.797  23.264  1.00  0.00     0.013 C 
ATOM     10  C   UNL A   1      31.232  24.577  24.697  1.00  0.00    -0.011 C 
ATOM     11  C   UNL A   1      30.301  25.351  25.588  1.00  0.00     0.013 C 
ATOM     12  C   UNL A   1      32.676  24.565  25.239  1.00  0.00     0.098 C 
BRANCH  12  13
ATOM     13  C   UNL A   1      33.778  25.362  24.618  1.00  0.00     0.228 C 
ATOM     14  O   UNL A   1      34.740  24.735  24.173  1.00  0.00    -0.274 OA
ATOM     15  N   UNL A   1      33.636  26.682  24.264  1.00  0.00    -0.325 N 
ATOM     16  H   UNL A   1      33.921  26.912  23.351  1.00  0.00     0.169 HD
BRANCH  15  17
ATOM     17  C   UNL A   1      33.139  27.740  25.030  1.00  0.00     0.050 A 
ATOM     18  C   UNL A   1      33.654  27.915  26.318  1.00  0.00     0.027 A 
ATOM     19  C   UNL A   1      32.051  28.546  24.620  1.00  0.00     0.023 A 
ATOM     20  C   UNL A   1      33.251  28.994  27.102  1.00  0.00     0.004 A 
ATOM     21  C   UNL A   1      31.716  29.657  25.397  1.00  0.00     0.047 A 
ATOM     22  C   UNL A   1      31.087  28.494  23.568  1.00  0.00     0.030 A 
ATOM     23  C   UNL A   1      32.320  29.922  26.630  1.00  0.00     0.027 A 
ATOM     24  N   UNL A   1      30.762  30.367  24.705  1.00  0.00    -0.361 N 
ATOM     25  C   UNL A   1      30.337  29.648  23.620  1.00  0.00     0.083 A 
ATOM     26  H   UNL A   1      30.432  31.261  24.952  1.00  0.00     0.166 HD
ENDBRANCH  15  17
ENDBRANCH  12  13
ENDBRANCH   5   8
ENDBRANCH   3   4
ENDBRANCH   2   3
ENDBRANCH   1   2
BRANCH   1  27
ATOM     27  C   UNL A   1      37.085  21.780  25.552  1.00  0.00     0.116 C 
BRANCH  27  28
ATOM     28  N   UNL A   1      38.145  20.779  25.558  1.00  0.00    -0.352 N 
ATOM     29  C   UNL A   1      39.417  20.898  26.073  1.00  0.00     0.251 C 
ATOM     30  H   UNL A   1      37.924  19.913  25.146  1.00  0.00     0.163 HD
ATOM     31  O   UNL A   1      40.235  19.995  25.940  1.00  0.00    -0.269 OA
BRANCH  29  32
ATOM     32  C   UNL A   1      39.782  22.164  26.737  1.00  0.00     0.039 A 
ATOM     33  C   UNL A   1      40.744  22.145  27.748  1.00  0.00     0.014 A 
ATOM     34  C   UNL A   1      39.277  23.372  26.250  1.00  0.00     0.014 A 
ATOM     35  C   UNL A   1      41.284  23.351  28.197  1.00  0.00     0.010 A 
ATOM     36  C   UNL A   1      39.874  24.563  26.640  1.00  0.00     0.010 A 
ATOM     37  C   UNL A   1      40.899  24.562  27.600  1.00  0.00    -0.014 A 
BRANCH  37  38
ATOM     38  C   UNL A   1      41.579  25.842  27.927  1.00  0.00     0.031 A 
ATOM     39  C   UNL A   1      40.831  26.914  28.666  1.00  0.00     0.074 A 
ATOM     40  C   UNL A   1      42.827  26.069  27.471  1.00  0.00     0.049 A 
ATOM     41  N   UNL A   1      41.193  28.142  28.930  1.00  0.00    -0.248 NA
ATOM     42  C   UNL A   1      39.484  26.566  29.139  1.00  0.00     0.031 C 
ATOM     43  C   UNL A   1      43.636  25.116  26.708  1.00  0.00     0.029 A 
ATOM     44  N   UNL A   1      43.629  27.179  27.564  1.00  0.00    -0.354 N 
ATOM     45  C   UNL A   1      40.113  28.719  29.589  1.00  0.00     0.074 A 
ATOM     46  C   UNL A   1      39.062  27.724  29.623  1.00  0.00     0.031 C 
ATOM     47  C   UNL A   1      44.824  25.674  26.422  1.00  0.00     0.029 A 
ATOM     48  C   UNL A   1      44.842  27.042  26.930  1.00  0.00     0.049 A 
ATOM     49  H   UNL A   1      43.362  27.998  28.041  1.00  0.00     0.167 HD
ATOM     50  C   UNL A   1      40.018  29.955  30.135  1.00  0.00     0.034 A 
ATOM     51  C   UNL A   1      45.846  27.925  26.755  1.00  0.00     0.034 A 
ATOM     52  C   UNL A   1      41.081  30.930  30.095  1.00  0.00     0.049 A 
ATOM     53  C   UNL A   1      45.694  29.315  27.320  1.00  0.00     0.074 A 
ATOM     54  C   UNL A   1      41.120  32.187  30.672  1.00  0.00     0.029 A 
ATOM     55  N   UNL A   1      42.287  30.763  29.425  1.00  0.00    -0.354 N 
ATOM     56  N   UNL A   1      44.689  29.828  27.991  1.00  0.00    -0.248 NA
ATOM     57  C   UNL A   1      46.809  30.245  27.101  1.00  0.00     0.031 C 
ATOM     58  C   UNL A   1      42.316  32.806  30.293  1.00  0.00     0.029 A 
ATOM     59  C   UNL A   1      43.058  31.910  29.539  1.00  0.00     0.049 A 
ATOM     60  H   UNL A   1      42.555  29.949  28.942  1.00  0.00     0.167 HD
ATOM     61  C   UNL A   1      45.061  31.134  28.292  1.00  0.00     0.074 A 
ATOM     62  C   UNL A   1      46.388  31.325  27.743  1.00  0.00     0.031 C 
ATOM     63  C   UNL A   1      44.371  32.089  28.965  1.00  0.00     0.034 A 
BRANCH  50  64
ATOM     64  C   UNL A   1      38.711  30.321  30.796  1.00  0.00     0.023 A 
ATOM     65  C   UNL A   1      37.674  30.946  30.082  1.00  0.00     0.031 A 
ATOM     66  C   UNL A   1      38.511  30.078  32.166  1.00  0.00     0.131 A 
ATOM     67  C   UNL A   1      36.523  31.383  30.754  1.00  0.00     0.055 A 
ATOM     68  C   UNL A   1      37.327  30.438  32.812  1.00  0.00     0.041 A 
ATOM     69  F   UNL A   1      39.472  29.503  32.906  1.00  0.00    -0.206 F 
ATOM     70  C   UNL A   1      36.330  31.109  32.109  1.00  0.00     0.022 A 
BRANCH  67  71
ATOM     71  S   UNL A   1      35.355  32.448  29.864  1.00  0.00     0.124 S 
ATOM     72  O   UNL A   1      34.968  31.590  28.745  1.00  0.00    -0.237 OA
ATOM     73  O   UNL A   1      34.326  32.695  30.866  1.00  0.00    -0.237 OA
ATOM     74  O   UNL A   1      36.164  33.609  29.498  1.00  0.00    -0.744 OA
ENDBRANCH  67  71
ENDBRANCH  50  64
BRANCH  51  75
ATOM     75  C   UNL A   1      47.069  27.541  25.993  1.00  0.00     0.023 A 
ATOM     76  C   UNL A   1      47.186  27.826  24.624  1.00  0.00     0.031 A 
ATOM     77  C   UNL A   1      48.126  26.850  26.614  1.00  0.00     0.131 A 
ATOM     78  C   UNL A   1      48.314  27.391  23.912  1.00  0.00     0.055 A 
ATOM     79  C   UNL A   1      49.270  26.463  25.913  1.00  0.00     0.041 A 
ATOM     80  F   UNL A   1      48.067  26.554  27.923  1.00  0.00    -0.206 F 
ATOM     81  C   UNL A   1      49.362  26.723  24.550  1.00  0.00     0.022 A 
BRANCH  78  82
ATOM     82  S   UNL A   1      48.358  27.642  22.116  1.00  0.00     0.124 S 
ATOM     83  O   UNL A   1      49.506  28.530  21.969  1.00  0.00    -0.237 OA
ATOM     84  O   UNL A   1      48.532  26.280  21.624  1.00  0.00    -0.237 OA
ATOM     85  O   UNL A   1      47.060  28.245  21.825  1.00  0.00    -0.744 OA
ENDBRANCH  78  82
ENDBRANCH  51  75
BRANCH  63  86
ATOM     86  C   UNL A   1      45.055  33.418  29.163  1.00  0.00     0.023 A 
ATOM     87  C   UNL A   1      44.877  34.480  28.259  1.00  0.00     0.031 A 
ATOM     88  C   UNL A   1      45.887  33.627  30.278  1.00  0.00     0.131 A 
ATOM     89  C   UNL A   1      45.554  35.691  28.464  1.00  0.00     0.055 A 
ATOM     90  C   UNL A   1      46.515  34.853  30.505  1.00  0.00     0.041 A 
ATOM     91  F   UNL A   1      46.094  32.646  31.169  1.00  0.00    -0.206 F 
ATOM     92  C   UNL A   1      46.357  35.890  29.591  1.00  0.00     0.022 A 
BRANCH  89  93
ATOM     93  S   UNL A   1      45.423  36.987  27.203  1.00  0.00     0.124 S 
ATOM     94  O   UNL A   1      45.905  38.160  27.924  1.00  0.00    -0.237 OA
ATOM     95  O   UNL A   1      46.294  36.486  26.146  1.00  0.00    -0.237 OA
ATOM     96  O   UNL A   1      43.998  37.004  26.874  1.00  0.00    -0.744 OA
ENDBRANCH  89  93
ENDBRANCH  63  86
ENDBRANCH  37  38
ENDBRANCH  29  32
ENDBRANCH  27  28
ENDBRANCH   1  27
TORSDOF 16
ENDMDL
MODEL 3
REMARK VINA RESULT:     -12.7      1.440      3.220
REMARK SMILES CC1(C)[C@H](C(=O)NCCCCNC(=O)c2ccc(-c3c4nc(c(-c5cc(S(=O)(=O)[O-])ccc5F)c5ccc([nH]5)c(-c5cc(S(=O)(=O)[O-])ccc5F)c5nc(c(-c6cc(S(=O)(=O)[O-])ccc6F)c6ccc3[nH]6)C=C5)C=C4)cc2)[C@H]1C(=O)Nc1cccc2[nH]ccc12
REMARK SMILES IDX 10 1 9 2 8 3 7 4 5 5 6 6 4 8 1 9 2 10 3 11 78 12 79 13 80 14
REMARK SMILES IDX 81 15 82 17 83 18 90 19 84 20 86 21 89 22 85 23 87 24 88 25
REMARK SMILES IDX 11 27 12 28 13 29 14 31 15 32 16 33 77 34 17 35 76 36 18 37
REMARK SMILES IDX 19 38 20 39 70 40 21 41 75 42 69 43 71 44 22 45 74 46 68 47
REMARK SMILES IDX 67 48 23 50 55 51 35 52 54 53 36 54 39 55 53 56 72 57 37 58
REMARK SMILES IDX 38 59 52 61 73 62 40 63 24 64 25 65 33 66 26 67 32 68 34 69
REMARK SMILES IDX 31 70 27 71 28 72 29 73 30 74 56 75 57 76 65 77 58 78 64 79
REMARK SMILES IDX 66 80 63 81 59 82 60 83 61 84 62 85 41 86 42 87 50 88 43 89
REMARK SMILES IDX 49 90 51 91 48 92 44 93 45 94 46 95 47 96
REMARK H PARENT 7 7 81 16 87 26 12 30 71 49 39 60
REMARK Flexibility Score: inf
ROOT
ATOM      1  C   UNL A   1      31.572  29.438  27.005  1.00  0.00     0.023 C 
ENDROOT
BRANCH   1   2
ATOM      2  C   UNL A   1      32.017  27.990  26.829  1.00  0.00     0.023 C 
BRANCH   2   3
ATOM      3  C   UNL A   1      30.950  27.034  26.299  1.00  0.00     0.116 C 
BRANCH   3   4
ATOM      4  N   UNL A   1      31.084  25.717  26.864  1.00  0.00    -0.356 N 
ATOM      5  C   UNL A   1      31.841  24.629  26.546  1.00  0.00     0.224 C 
ATOM      6  O   UNL A   1      31.743  23.673  27.318  1.00  0.00    -0.275 OA
ATOM      7  H   UNL A   1      30.503  25.570  27.646  1.00  0.00     0.163 HD
BRANCH   5   8
ATOM      8  C   UNL A   1      32.761  24.459  25.388  1.00  0.00     0.098 C 
ATOM      9  C   UNL A   1      35.175  24.089  24.778  1.00  0.00     0.013 C 
ATOM     10  C   UNL A   1      33.856  23.426  25.085  1.00  0.00    -0.011 C 
ATOM     11  C   UNL A   1      34.122  22.017  25.536  1.00  0.00     0.013 C 
ATOM     12  C   UNL A   1      32.564  23.532  24.248  1.00  0.00     0.098 C 
BRANCH  12  13
ATOM     13  C   UNL A   1      32.576  23.743  22.769  1.00  0.00     0.228 C 
ATOM     14  O   UNL A   1      32.819  22.762  22.066  1.00  0.00    -0.274 OA
ATOM     15  N   UNL A   1      32.053  24.864  22.171  1.00  0.00    -0.325 N 
ATOM     16  H   UNL A   1      31.434  24.701  21.423  1.00  0.00     0.169 HD
BRANCH  15  17
ATOM     17  C   UNL A   1      32.282  26.206  22.486  1.00  0.00     0.050 A 
ATOM     18  C   UNL A   1      33.606  26.621  22.661  1.00  0.00     0.027 A 
ATOM     19  C   UNL A   1      31.243  27.122  22.771  1.00  0.00     0.023 A 
ATOM     20  C   UNL A   1      33.905  27.960  22.906  1.00  0.00     0.004 A 
ATOM     21  C   UNL A   1      31.571  28.468  22.947  1.00  0.00     0.047 A 
ATOM     22  C   UNL A   1      29.838  27.024  23.003  1.00  0.00     0.030 A 
ATOM     23  C   UNL A   1      32.894  28.920  22.990  1.00  0.00     0.027 A 
ATOM     24  N   UNL A   1      30.390  29.169  23.031  1.00  0.00    -0.361 N 
ATOM     25  C   UNL A   1      29.334  28.302  23.116  1.00  0.00     0.083 A 
ATOM     26  H   UNL A   1      30.314  30.151  23.030  1.00  0.00     0.166 HD
ENDBRANCH  15  17
ENDBRANCH  12  13
ENDBRANCH   5   8
ENDBRANCH   3   4
ENDBRANCH   2   3
ENDBRANCH   1   2
BRANCH   1  27
ATOM     27  C   UNL A   1      32.470  30.479  26.352  1.00  0.00     0.116 C 
BRANCH  27  28
ATOM     28  N   UNL A   1      32.226  31.843  26.805  1.00  0.00    -0.352 N 
ATOM     29  C   UNL A   1      33.076  32.663  27.516  1.00  0.00     0.251 C 
ATOM     30  H   UNL A   1      31.348  32.225  26.574  1.00  0.00     0.163 HD
ATOM     31  O   UNL A   1      32.708  33.767  27.899  1.00  0.00    -0.269 OA
BRANCH  29  32
ATOM     32  C   UNL A   1      34.417  32.148  27.851  1.00  0.00     0.039 A 
ATOM     33  C   UNL A   1      35.481  33.047  27.946  1.00  0.00     0.014 A 
ATOM     34  C   UNL A   1      34.575  30.808  28.211  1.00  0.00     0.014 A 
ATOM     35  C   UNL A   1      36.683  32.620  28.512  1.00  0.00     0.010 A 
ATOM     36  C   UNL A   1      35.743  30.410  28.847  1.00  0.00     0.010 A 
ATOM     37  C   UNL A   1      36.800  31.318  29.025  1.00  0.00    -0.014 A 
BRANCH  37  38
ATOM     38  C   UNL A   1      37.998  30.887  29.790  1.00  0.00     0.031 A 
ATOM     39  C   UNL A   1      38.930  29.868  29.201  1.00  0.00     0.074 A 
ATOM     40  C   UNL A   1      38.183  31.338  31.047  1.00  0.00     0.049 A 
ATOM     41  N   UNL A   1      39.949  29.263  29.753  1.00  0.00    -0.248 NA
ATOM     42  C   UNL A   1      38.656  29.451  27.818  1.00  0.00     0.031 C 
ATOM     43  C   UNL A   1      37.320  32.299  31.738  1.00  0.00     0.029 A 
ATOM     44  N   UNL A   1      39.147  31.035  31.976  1.00  0.00    -0.354 N 
ATOM     45  C   UNL A   1      40.430  28.383  28.790  1.00  0.00     0.074 A 
ATOM     46  C   UNL A   1      39.549  28.490  27.646  1.00  0.00     0.031 C 
ATOM     47  C   UNL A   1      37.806  32.522  32.970  1.00  0.00     0.029 A 
ATOM     48  C   UNL A   1      38.978  31.679  33.181  1.00  0.00     0.049 A 
ATOM     49  H   UNL A   1      39.890  30.415  31.798  1.00  0.00     0.167 HD
ATOM     50  C   UNL A   1      41.520  27.581  28.848  1.00  0.00     0.034 A 
ATOM     51  C   UNL A   1      39.674  31.585  34.331  1.00  0.00     0.034 A 
ATOM     52  C   UNL A   1      42.389  27.495  29.996  1.00  0.00     0.049 A 
ATOM     53  C   UNL A   1      40.848  30.640  34.392  1.00  0.00     0.074 A 
ATOM     54  C   UNL A   1      43.558  26.768  30.141  1.00  0.00     0.029 A 
ATOM     55  N   UNL A   1      42.175  28.146  31.205  1.00  0.00    -0.354 N 
ATOM     56  N   UNL A   1      41.326  29.857  33.454  1.00  0.00    -0.248 NA
ATOM     57  C   UNL A   1      41.573  30.565  35.667  1.00  0.00     0.031 C 
ATOM     58  C   UNL A   1      44.009  26.922  31.456  1.00  0.00     0.029 A 
ATOM     59  C   UNL A   1      43.165  27.804  32.113  1.00  0.00     0.049 A 
ATOM     60  H   UNL A   1      41.429  28.762  31.389  1.00  0.00     0.167 HD
ATOM     61  C   UNL A   1      42.421  29.211  34.019  1.00  0.00     0.074 A 
ATOM     62  C   UNL A   1      42.542  29.709  35.375  1.00  0.00     0.031 C 
ATOM     63  C   UNL A   1      43.255  28.294  33.469  1.00  0.00     0.034 A 
BRANCH  50  64
ATOM     64  C   UNL A   1      41.810  26.719  27.643  1.00  0.00     0.023 A 
ATOM     65  C   UNL A   1      41.387  25.381  27.575  1.00  0.00     0.031 A 
ATOM     66  C   UNL A   1      42.552  27.229  26.562  1.00  0.00     0.131 A 
ATOM     67  C   UNL A   1      41.778  24.574  26.496  1.00  0.00     0.055 A 
ATOM     68  C   UNL A   1      42.865  26.445  25.450  1.00  0.00     0.041 A 
ATOM     69  F   UNL A   1      43.002  28.494  26.577  1.00  0.00    -0.206 F 
ATOM     70  C   UNL A   1      42.492  25.104  25.420  1.00  0.00     0.022 A 
BRANCH  67  71
ATOM     71  S   UNL A   1      41.474  22.789  26.597  1.00  0.00     0.124 S 
ATOM     72  O   UNL A   1      42.209  22.298  25.433  1.00  0.00    -0.237 OA
ATOM     73  O   UNL A   1      42.035  22.446  27.898  1.00  0.00    -0.237 OA
ATOM     74  O   UNL A   1      40.019  22.685  26.496  1.00  0.00    -0.744 OA
ENDBRANCH  67  71
ENDBRANCH  50  64
BRANCH  51  75
ATOM     75  C   UNL A   1      39.271  32.378  35.528  1.00  0.00     0.023 A 
ATOM     76  C   UNL A   1      39.704  33.703  35.694  1.00  0.00     0.031 A 
ATOM     77  C   UNL A   1      38.476  31.813  36.541  1.00  0.00     0.131 A 
ATOM     78  C   UNL A   1      39.373  34.406  36.863  1.00  0.00     0.055 A 
ATOM     79  C   UNL A   1      38.107  32.533  37.680  1.00  0.00     0.041 A 
ATOM     80  F   UNL A   1      38.032  30.550  36.432  1.00  0.00    -0.206 F 
ATOM     81  C   UNL A   1      38.567  33.835  37.850  1.00  0.00     0.022 A 
BRANCH  78  82
ATOM     82  S   UNL A   1      40.078  36.058  37.112  1.00  0.00     0.124 S 
ATOM     83  O   UNL A   1      41.475  35.745  37.397  1.00  0.00    -0.237 OA
ATOM     84  O   UNL A   1      39.813  36.698  35.828  1.00  0.00    -0.237 OA
ATOM     85  O   UNL A   1      39.315  36.588  38.239  1.00  0.00    -0.744 OA
ENDBRANCH  78  82
ENDBRANCH  51  75
BRANCH  63  86
ATOM     86  C   UNL A   1      44.385  27.790  34.330  1.00  0.00     0.023 A 
ATOM     87  C   UNL A   1      44.264  26.613  35.089  1.00  0.00     0.031 A 
ATOM     88  C   UNL A   1      45.604  28.492  34.382  1.00  0.00     0.131 A 
ATOM     89  C   UNL A   1      45.329  26.193  35.900  1.00  0.00     0.055 A 
ATOM     90  C   UNL A   1      46.678  28.039  35.149  1.00  0.00     0.041 A 
ATOM     91  F   UNL A   1      45.770  29.622  33.679  1.00  0.00    -0.206 F 
ATOM     92  C   UNL A   1      46.542  26.889  35.920  1.00  0.00     0.022 A 
BRANCH  89  93
ATOM     93  S   UNL A   1      45.089  24.757  36.981  1.00  0.00     0.124 S 
ATOM     94  O   UNL A   1      44.449  23.805  36.081  1.00  0.00    -0.237 OA
ATOM     95  O   UNL A   1      46.453  24.436  37.384  1.00  0.00    -0.237 OA
ATOM     96  O   UNL A   1      44.233  25.271  38.049  1.00  0.00    -0.744 OA
ENDBRANCH  89  93
ENDBRANCH  63  86
ENDBRANCH  37  38
ENDBRANCH  29  32
ENDBRANCH  27  28
ENDBRANCH   1  27
TORSDOF 16
ENDMDL
