MODEL 1
REMARK VINA RESULT:     -11.6      0.000      0.000
REMARK SMILES O=C(NCCCCNC(=O)[C@@H]1C=C[C@H](NC(=O)[C@@H]2CCSC2)C1)c1ccc(-c2c3nc(c(-c4cc(S(=O)(=O)[O-])ccc4F)c4ccc([nH]4)c(-c4cc(S(=O)(=O)[O-])ccc4F)c4nc(c(-c5cc(S(=O)(=O)[O-])ccc5F)c5ccc2[nH]5)C=C4)C=C3)cc1
REMARK SMILES IDX 5 1 4 2 3 3 1 4 2 5 24 7 25 8 86 9 26 10 85 11 27 12 28 13
REMARK SMILES IDX 29 14 79 15 30 16 84 17 78 18 80 19 31 20 83 21 77 22 76 23
REMARK SMILES IDX 32 25 64 26 44 27 63 28 45 29 48 30 62 31 81 32 46 33 47 34
REMARK SMILES IDX 61 36 82 37 49 38 33 39 34 40 42 41 35 42 41 43 43 44 40 45
REMARK SMILES IDX 36 46 37 47 38 48 39 49 65 50 66 51 74 52 67 53 73 54 75 55
REMARK SMILES IDX 72 56 68 57 69 58 70 59 71 60 50 61 51 62 59 63 52 64 58 65
REMARK SMILES IDX 60 66 57 67 53 68 54 69 55 70 56 71 6 72 7 73 8 74 9 75
REMARK SMILES IDX 10 77 11 78 12 79 23 80 13 81 14 82 15 83 16 84 17 86 18 87
REMARK SMILES IDX 19 88 22 89 20 90 21 91
REMARK H PARENT 3 6 80 24 48 35 8 76 15 85
REMARK Flexibility Score: inf
ROOT
ATOM      1  C   UNL A   1      31.652  31.831  26.607  1.00  0.00     0.023 C 
ENDROOT
BRANCH   1   2
ATOM      2  C   UNL A   1      32.814  32.505  27.335  1.00  0.00     0.116 C 
BRANCH   2   3
ATOM      3  N   UNL A   1      32.535  33.876  27.733  1.00  0.00    -0.352 N 
ATOM      4  O   UNL A   1      32.805  35.738  28.990  1.00  0.00    -0.269 OA
ATOM      5  C   UNL A   1      33.204  34.621  28.676  1.00  0.00     0.251 C 
ATOM      6  H   UNL A   1      31.785  34.321  27.276  1.00  0.00     0.163 HD
BRANCH   5   7
ATOM      7  C   UNL A   1      34.390  34.031  29.326  1.00  0.00     0.039 A 
ATOM      8  C   UNL A   1      35.673  34.381  28.895  1.00  0.00     0.014 A 
ATOM      9  C   UNL A   1      34.211  33.092  30.344  1.00  0.00     0.014 A 
ATOM     10  C   UNL A   1      36.778  33.719  29.417  1.00  0.00     0.010 A 
ATOM     11  C   UNL A   1      35.327  32.473  30.911  1.00  0.00     0.010 A 
ATOM     12  C   UNL A   1      36.616  32.773  30.443  1.00  0.00    -0.014 A 
BRANCH  12  13
ATOM     13  C   UNL A   1      37.813  32.190  31.095  1.00  0.00     0.031 A 
ATOM     14  C   UNL A   1      38.606  31.098  30.436  1.00  0.00     0.074 A 
ATOM     15  C   UNL A   1      38.156  32.655  32.313  1.00  0.00     0.049 A 
ATOM     16  N   UNL A   1      39.640  30.443  30.897  1.00  0.00    -0.248 NA
ATOM     17  C   UNL A   1      38.183  30.683  29.091  1.00  0.00     0.031 C 
ATOM     18  C   UNL A   1      37.441  33.710  33.041  1.00  0.00     0.029 A 
ATOM     19  N   UNL A   1      39.175  32.302  33.160  1.00  0.00    -0.354 N 
ATOM     20  C   UNL A   1      39.980  29.522  29.912  1.00  0.00     0.074 A 
ATOM     21  C   UNL A   1      39.035  29.697  28.830  1.00  0.00     0.031 C 
ATOM     22  C   UNL A   1      38.049  33.924  34.216  1.00  0.00     0.029 A 
ATOM     23  C   UNL A   1      39.149  32.978  34.358  1.00  0.00     0.049 A 
ATOM     24  H   UNL A   1      39.858  31.631  32.933  1.00  0.00     0.167 HD
ATOM     25  C   UNL A   1      40.989  28.617  29.923  1.00  0.00     0.034 A 
ATOM     26  C   UNL A   1      39.895  32.822  35.467  1.00  0.00     0.034 A 
ATOM     27  C   UNL A   1      41.928  28.475  31.012  1.00  0.00     0.049 A 
ATOM     28  C   UNL A   1      40.974  31.774  35.464  1.00  0.00     0.074 A 
ATOM     29  C   UNL A   1      43.046  27.662  31.083  1.00  0.00     0.029 A 
ATOM     30  N   UNL A   1      41.847  29.143  32.225  1.00  0.00    -0.354 N 
ATOM     31  N   UNL A   1      41.321  30.955  34.498  1.00  0.00    -0.248 NA
ATOM     32  C   UNL A   1      41.755  31.624  36.697  1.00  0.00     0.031 C 
ATOM     33  C   UNL A   1      43.596  27.783  32.363  1.00  0.00     0.029 A 
ATOM     34  C   UNL A   1      42.861  28.721  33.071  1.00  0.00     0.049 A 
ATOM     35  H   UNL A   1      41.167  29.820  32.453  1.00  0.00     0.167 HD
ATOM     36  C   UNL A   1      42.367  30.195  35.008  1.00  0.00     0.074 A 
ATOM     37  C   UNL A   1      42.613  30.675  36.353  1.00  0.00     0.031 C 
ATOM     38  C   UNL A   1      43.064  29.190  34.420  1.00  0.00     0.034 A 
BRANCH  25  39
ATOM     39  C   UNL A   1      41.110  27.673  28.754  1.00  0.00     0.023 A 
ATOM     40  C   UNL A   1      42.080  27.842  27.753  1.00  0.00     0.031 A 
ATOM     41  C   UNL A   1      40.258  26.556  28.667  1.00  0.00     0.131 A 
ATOM     42  C   UNL A   1      42.154  26.928  26.690  1.00  0.00     0.055 A 
ATOM     43  C   UNL A   1      40.373  25.621  27.638  1.00  0.00     0.041 A 
ATOM     44  F   UNL A   1      39.302  26.356  29.588  1.00  0.00    -0.206 F 
ATOM     45  C   UNL A   1      41.320  25.807  26.637  1.00  0.00     0.022 A 
BRANCH  42  46
ATOM     46  S   UNL A   1      43.305  27.261  25.327  1.00  0.00     0.124 S 
ATOM     47  O   UNL A   1      43.801  25.921  25.023  1.00  0.00    -0.237 OA
ATOM     48  O   UNL A   1      42.439  27.864  24.321  1.00  0.00    -0.237 OA
ATOM     49  O   UNL A   1      44.290  28.162  25.922  1.00  0.00    -0.744 OA
ENDBRANCH  42  46
ENDBRANCH  25  39
BRANCH  26  50
ATOM     50  C   UNL A   1      39.600  33.621  36.690  1.00  0.00     0.023 A 
ATOM     51  C   UNL A   1      38.935  33.052  37.786  1.00  0.00     0.031 A 
ATOM     52  C   UNL A   1      39.947  34.983  36.760  1.00  0.00     0.131 A 
ATOM     53  C   UNL A   1      38.601  33.852  38.889  1.00  0.00     0.055 A 
ATOM     54  C   UNL A   1      39.663  35.760  37.883  1.00  0.00     0.041 A 
ATOM     55  F   UNL A   1      40.584  35.576  35.738  1.00  0.00    -0.206 F 
ATOM     56  C   UNL A   1      38.972  35.199  38.951  1.00  0.00     0.022 A 
BRANCH  53  57
ATOM     57  S   UNL A   1      37.579  33.133  40.204  1.00  0.00     0.124 S 
ATOM     58  O   UNL A   1      38.392  31.999  40.628  1.00  0.00    -0.237 OA
ATOM     59  O   UNL A   1      37.481  34.241  41.148  1.00  0.00    -0.237 OA
ATOM     60  O   UNL A   1      36.336  32.787  39.517  1.00  0.00    -0.744 OA
ENDBRANCH  53  57
ENDBRANCH  26  50
BRANCH  38  61
ATOM     61  C   UNL A   1      44.154  28.558  35.244  1.00  0.00     0.023 A 
ATOM     62  C   UNL A   1      43.880  27.493  36.119  1.00  0.00     0.031 A 
ATOM     63  C   UNL A   1      45.471  29.045  35.177  1.00  0.00     0.131 A 
ATOM     64  C   UNL A   1      44.900  26.980  36.932  1.00  0.00     0.055 A 
ATOM     65  C   UNL A   1      46.493  28.493  35.949  1.00  0.00     0.041 A 
ATOM     66  F   UNL A   1      45.782  30.064  34.360  1.00  0.00    -0.206 F 
ATOM     67  C   UNL A   1      46.209  27.464  36.841  1.00  0.00     0.022 A 
BRANCH  64  68
ATOM     68  S   UNL A   1      44.479  25.721  38.167  1.00  0.00     0.124 S 
ATOM     69  O   UNL A   1      43.454  24.948  37.474  1.00  0.00    -0.237 OA
ATOM     70  O   UNL A   1      45.756  25.044  38.374  1.00  0.00    -0.237 OA
ATOM     71  O   UNL A   1      44.003  26.503  39.306  1.00  0.00    -0.744 OA
ENDBRANCH  64  68
ENDBRANCH  38  61
ENDBRANCH  12  13
ENDBRANCH   5   7
ENDBRANCH   2   3
ENDBRANCH   1   2
BRANCH   1  72
ATOM     72  C   UNL A   1      31.928  30.403  26.126  1.00  0.00     0.023 C 
BRANCH  72  73
ATOM     73  C   UNL A   1      32.370  29.461  27.240  1.00  0.00     0.116 C 
BRANCH  73  74
ATOM     74  N   UNL A   1      31.610  28.229  27.252  1.00  0.00    -0.356 N 
ATOM     75  C   UNL A   1      31.441  27.210  26.379  1.00  0.00     0.227 C 
ATOM     76  H   UNL A   1      31.101  28.105  28.086  1.00  0.00     0.163 HD
ATOM     77  O   UNL A   1      30.728  26.282  26.790  1.00  0.00    -0.274 OA
BRANCH  75  78
ATOM     78  C   UNL A   1      32.031  27.115  24.959  1.00  0.00     0.103 C 
ATOM     79  C   UNL A   1      31.372  25.956  24.238  1.00  0.00    -0.016 C 
ATOM     80  C   UNL A   1      33.496  26.815  24.664  1.00  0.00     0.047 C 
ATOM     81  C   UNL A   1      32.227  24.951  23.995  1.00  0.00    -0.006 C 
ATOM     82  C   UNL A   1      33.597  25.294  24.449  1.00  0.00     0.106 C 
BRANCH  82  83
ATOM     83  N   UNL A   1      34.069  24.532  25.597  1.00  0.00    -0.350 N 
ATOM     84  C   UNL A   1      35.154  23.762  25.888  1.00  0.00     0.224 C 
ATOM     85  H   UNL A   1      33.444  24.587  26.356  1.00  0.00     0.164 HD
ATOM     86  O   UNL A   1      35.024  22.971  26.828  1.00  0.00    -0.275 OA
BRANCH  84  87
ATOM     87  C   UNL A   1      36.472  23.900  25.146  1.00  0.00     0.089 C 
ATOM     88  C   UNL A   1      36.587  22.992  23.920  1.00  0.00     0.025 C 
ATOM     89  C   UNL A   1      37.639  23.597  26.078  1.00  0.00     0.083 C 
ATOM     90  C   UNL A   1      37.040  21.617  24.369  1.00  0.00     0.070 C 
ATOM     91  S   UNL A   1      38.263  21.944  25.660  1.00  0.00    -0.161 SA
ENDBRANCH  84  87
ENDBRANCH  82  83
ENDBRANCH  75  78
ENDBRANCH  73  74
ENDBRANCH  72  73
ENDBRANCH   1  72
TORSDOF 16
ENDMDL
MODEL 2
REMARK VINA RESULT:     -11.5      1.787      2.157
REMARK SMILES O=C(NCCCCNC(=O)[C@@H]1C=C[C@H](NC(=O)[C@@H]2CCSC2)C1)c1ccc(-c2c3nc(c(-c4cc(S(=O)(=O)[O-])ccc4F)c4ccc([nH]4)c(-c4cc(S(=O)(=O)[O-])ccc4F)c4nc(c(-c5cc(S(=O)(=O)[O-])ccc5F)c5ccc2[nH]5)C=C4)C=C3)cc1
REMARK SMILES IDX 5 1 4 2 3 3 1 4 2 5 24 7 25 8 86 9 26 10 85 11 27 12 28 13
REMARK SMILES IDX 29 14 79 15 30 16 84 17 78 18 80 19 31 20 83 21 77 22 76 23
REMARK SMILES IDX 32 25 64 26 44 27 63 28 45 29 48 30 62 31 81 32 46 33 47 34
REMARK SMILES IDX 61 36 82 37 49 38 33 39 34 40 42 41 35 42 41 43 43 44 40 45
REMARK SMILES IDX 36 46 37 47 38 48 39 49 65 50 66 51 74 52 67 53 73 54 75 55
REMARK SMILES IDX 72 56 68 57 69 58 70 59 71 60 50 61 51 62 59 63 52 64 58 65
REMARK SMILES IDX 60 66 57 67 53 68 54 69 55 70 56 71 6 72 7 73 8 74 9 75
REMARK SMILES IDX 10 77 11 78 12 79 23 80 13 81 14 82 15 83 16 84 17 86 18 87
REMARK SMILES IDX 19 88 22 89 20 90 21 91
REMARK H PARENT 3 6 80 24 48 35 8 76 15 85
REMARK Flexibility Score: inf
ROOT
ATOM      1  C   UNL A   1      31.420  31.888  26.670  1.00  0.00     0.023 C 
ENDROOT
BRANCH   1   2
ATOM      2  C   UNL A   1      32.680  32.613  27.139  1.00  0.00     0.116 C 
BRANCH   2   3
ATOM      3  N   UNL A   1      32.436  33.972  27.594  1.00  0.00    -0.352 N 
ATOM      4  O   UNL A   1      32.763  35.777  28.918  1.00  0.00    -0.269 OA
ATOM      5  C   UNL A   1      33.133  34.666  28.555  1.00  0.00     0.251 C 
ATOM      6  H   UNL A   1      31.689  34.450  27.166  1.00  0.00     0.163 HD
BRANCH   5   7
ATOM      7  C   UNL A   1      34.316  34.027  29.164  1.00  0.00     0.039 A 
ATOM      8  C   UNL A   1      35.600  34.389  28.749  1.00  0.00     0.014 A 
ATOM      9  C   UNL A   1      34.131  33.032  30.126  1.00  0.00     0.014 A 
ATOM     10  C   UNL A   1      36.701  33.686  29.226  1.00  0.00     0.010 A 
ATOM     11  C   UNL A   1      35.242  32.369  30.651  1.00  0.00     0.010 A 
ATOM     12  C   UNL A   1      36.533  32.684  30.195  1.00  0.00    -0.014 A 
BRANCH  12  13
ATOM     13  C   UNL A   1      37.726  32.052  30.807  1.00  0.00     0.031 A 
ATOM     14  C   UNL A   1      38.527  31.019  30.067  1.00  0.00     0.074 A 
ATOM     15  C   UNL A   1      38.059  32.415  32.062  1.00  0.00     0.049 A 
ATOM     16  N   UNL A   1      39.559  30.330  30.481  1.00  0.00    -0.248 NA
ATOM     17  C   UNL A   1      38.116  30.714  28.689  1.00  0.00     0.031 C 
ATOM     18  C   UNL A   1      37.336  33.405  32.868  1.00  0.00     0.029 A 
ATOM     19  N   UNL A   1      39.072  31.996  32.885  1.00  0.00    -0.354 N 
ATOM     20  C   UNL A   1      39.910  29.494  29.427  1.00  0.00     0.074 A 
ATOM     21  C   UNL A   1      38.972  29.755  28.355  1.00  0.00     0.031 C 
ATOM     22  C   UNL A   1      37.934  33.524  34.062  1.00  0.00     0.029 A 
ATOM     23  C   UNL A   1      39.035  32.571  34.134  1.00  0.00     0.049 A 
ATOM     24  H   UNL A   1      39.759  31.347  32.609  1.00  0.00     0.167 HD
ATOM     25  C   UNL A   1      40.921  28.593  29.372  1.00  0.00     0.034 A 
ATOM     26  C   UNL A   1      39.773  32.326  35.233  1.00  0.00     0.034 A 
ATOM     27  C   UNL A   1      41.851  28.364  30.452  1.00  0.00     0.049 A 
ATOM     28  C   UNL A   1      40.854  31.285  35.152  1.00  0.00     0.074 A 
ATOM     29  C   UNL A   1      42.971  27.549  30.465  1.00  0.00     0.029 A 
ATOM     30  N   UNL A   1      41.759  28.930  31.716  1.00  0.00    -0.354 N 
ATOM     31  N   UNL A   1      41.211  30.548  34.126  1.00  0.00    -0.248 NA
ATOM     32  C   UNL A   1      41.626  31.035  36.375  1.00  0.00     0.031 C 
ATOM     33  C   UNL A   1      43.510  27.566  31.756  1.00  0.00     0.029 A 
ATOM     34  C   UNL A   1      42.768  28.441  32.532  1.00  0.00     0.049 A 
ATOM     35  H   UNL A   1      41.076  29.584  31.993  1.00  0.00     0.167 HD
ATOM     36  C   UNL A   1      42.255  29.751  34.579  1.00  0.00     0.074 A 
ATOM     37  C   UNL A   1      42.489  30.119  35.962  1.00  0.00     0.031 C 
ATOM     38  C   UNL A   1      42.959  28.798  33.917  1.00  0.00     0.034 A 
BRANCH  25  39
ATOM     39  C   UNL A   1      41.054  27.748  28.129  1.00  0.00     0.023 A 
ATOM     40  C   UNL A   1      40.611  26.417  28.079  1.00  0.00     0.031 A 
ATOM     41  C   UNL A   1      41.600  28.310  26.959  1.00  0.00     0.131 A 
ATOM     42  C   UNL A   1      40.752  25.679  26.893  1.00  0.00     0.055 A 
ATOM     43  C   UNL A   1      41.687  27.588  25.768  1.00  0.00     0.041 A 
ATOM     44  F   UNL A   1      42.055  29.572  26.958  1.00  0.00    -0.206 F 
ATOM     45  C   UNL A   1      41.267  26.262  25.731  1.00  0.00     0.022 A 
BRANCH  42  46
ATOM     46  S   UNL A   1      40.323  23.916  26.903  1.00  0.00     0.124 S 
ATOM     47  O   UNL A   1      41.288  23.369  25.953  1.00  0.00    -0.237 OA
ATOM     48  O   UNL A   1      40.526  23.550  28.300  1.00  0.00    -0.237 OA
ATOM     49  O   UNL A   1      38.934  23.897  26.451  1.00  0.00    -0.744 OA
ENDBRANCH  42  46
ENDBRANCH  25  39
BRANCH  26  50
ATOM     50  C   UNL A   1      39.466  33.022  36.514  1.00  0.00     0.023 A 
ATOM     51  C   UNL A   1      38.591  32.459  37.455  1.00  0.00     0.031 A 
ATOM     52  C   UNL A   1      40.018  34.285  36.798  1.00  0.00     0.131 A 
ATOM     53  C   UNL A   1      38.260  33.175  38.615  1.00  0.00     0.055 A 
ATOM     54  C   UNL A   1      39.730  34.968  37.979  1.00  0.00     0.041 A 
ATOM     55  F   UNL A   1      40.860  34.868  35.931  1.00  0.00    -0.206 F 
ATOM     56  C   UNL A   1      38.834  34.420  38.890  1.00  0.00     0.022 A 
BRANCH  53  57
ATOM     57  S   UNL A   1      36.985  32.503  39.715  1.00  0.00     0.124 S 
ATOM     58  O   UNL A   1      37.423  31.120  39.872  1.00  0.00    -0.237 OA
ATOM     59  O   UNL A   1      37.122  33.356  40.891  1.00  0.00    -0.237 OA
ATOM     60  O   UNL A   1      35.750  32.683  38.954  1.00  0.00    -0.744 OA
ENDBRANCH  53  57
ENDBRANCH  26  50
BRANCH  38  61
ATOM     61  C   UNL A   1      44.044  28.103  34.695  1.00  0.00     0.023 A 
ATOM     62  C   UNL A   1      43.791  26.907  35.387  1.00  0.00     0.031 A 
ATOM     63  C   UNL A   1      45.333  28.657  34.770  1.00  0.00     0.131 A 
ATOM     64  C   UNL A   1      44.800  26.328  36.169  1.00  0.00     0.055 A 
ATOM     65  C   UNL A   1      46.349  28.046  35.505  1.00  0.00     0.041 A 
ATOM     66  F   UNL A   1      45.624  29.801  34.130  1.00  0.00    -0.206 F 
ATOM     67  C   UNL A   1      46.083  26.882  36.219  1.00  0.00     0.022 A 
BRANCH  64  68
ATOM     68  S   UNL A   1      44.395  24.878  37.180  1.00  0.00     0.124 S 
ATOM     69  O   UNL A   1      42.948  25.005  37.325  1.00  0.00    -0.237 OA
ATOM     70  O   UNL A   1      44.857  23.774  36.345  1.00  0.00    -0.237 OA
ATOM     71  O   UNL A   1      45.163  25.089  38.405  1.00  0.00    -0.744 OA
ENDBRANCH  64  68
ENDBRANCH  38  61
ENDBRANCH  12  13
ENDBRANCH   5   7
ENDBRANCH   2   3
ENDBRANCH   1   2
BRANCH   1  72
ATOM     72  C   UNL A   1      31.667  30.591  25.894  1.00  0.00     0.023 C 
BRANCH  72  73
ATOM     73  C   UNL A   1      32.659  29.655  26.574  1.00  0.00     0.116 C 
BRANCH  73  74
ATOM     74  N   UNL A   1      32.042  28.416  27.001  1.00  0.00    -0.356 N 
ATOM     75  C   UNL A   1      31.618  27.300  26.366  1.00  0.00     0.227 C 
ATOM     76  H   UNL A   1      31.899  28.378  27.974  1.00  0.00     0.163 HD
ATOM     77  O   UNL A   1      31.178  26.410  27.109  1.00  0.00    -0.274 OA
BRANCH  75  78
ATOM     78  C   UNL A   1      31.626  27.054  24.845  1.00  0.00     0.103 C 
ATOM     79  C   UNL A   1      30.203  27.156  24.331  1.00  0.00    -0.016 C 
ATOM     80  C   UNL A   1      32.051  25.741  24.196  1.00  0.00     0.047 C 
ATOM     81  C   UNL A   1      29.730  25.978  23.897  1.00  0.00    -0.006 C 
ATOM     82  C   UNL A   1      30.766  24.920  23.988  1.00  0.00     0.106 C 
BRANCH  82  83
ATOM     83  N   UNL A   1      30.509  23.897  24.992  1.00  0.00    -0.350 N 
ATOM     84  C   UNL A   1      31.069  22.710  25.353  1.00  0.00     0.224 C 
ATOM     85  H   UNL A   1      29.732  24.123  25.554  1.00  0.00     0.164 HD
ATOM     86  O   UNL A   1      30.350  21.943  26.001  1.00  0.00    -0.275 OA
BRANCH  84  87
ATOM     87  C   UNL A   1      32.513  22.361  25.033  1.00  0.00     0.089 C 
ATOM     88  C   UNL A   1      32.709  21.774  23.634  1.00  0.00     0.025 C 
ATOM     89  C   UNL A   1      33.055  21.364  26.051  1.00  0.00     0.083 C 
ATOM     90  C   UNL A   1      32.411  20.288  23.679  1.00  0.00     0.070 C 
ATOM     91  S   UNL A   1      33.110  19.735  25.252  1.00  0.00    -0.161 SA
ENDBRANCH  84  87
ENDBRANCH  82  83
ENDBRANCH  75  78
ENDBRANCH  73  74
ENDBRANCH  72  73
ENDBRANCH   1  72
TORSDOF 16
ENDMDL
MODEL 3
REMARK VINA RESULT:     -11.4      2.131      2.588
REMARK SMILES O=C(NCCCCNC(=O)[C@@H]1C=C[C@H](NC(=O)[C@@H]2CCSC2)C1)c1ccc(-c2c3nc(c(-c4cc(S(=O)(=O)[O-])ccc4F)c4ccc([nH]4)c(-c4cc(S(=O)(=O)[O-])ccc4F)c4nc(c(-c5cc(S(=O)(=O)[O-])ccc5F)c5ccc2[nH]5)C=C4)C=C3)cc1
REMARK SMILES IDX 5 1 4 2 3 3 1 4 2 5 24 7 25 8 86 9 26 10 85 11 27 12 28 13
REMARK SMILES IDX 29 14 79 15 30 16 84 17 78 18 80 19 31 20 83 21 77 22 76 23
REMARK SMILES IDX 32 25 64 26 44 27 63 28 45 29 48 30 62 31 81 32 46 33 47 34
REMARK SMILES IDX 61 36 82 37 49 38 33 39 34 40 42 41 35 42 41 43 43 44 40 45
REMARK SMILES IDX 36 46 37 47 38 48 39 49 65 50 66 51 74 52 67 53 73 54 75 55
REMARK SMILES IDX 72 56 68 57 69 58 70 59 71 60 50 61 51 62 59 63 52 64 58 65
REMARK SMILES IDX 60 66 57 67 53 68 54 69 55 70 56 71 6 72 7 73 8 74 9 75
REMARK SMILES IDX 10 77 11 78 12 79 23 80 13 81 14 82 15 83 16 84 17 86 18 87
REMARK SMILES IDX 19 88 22 89 20 90 21 91
REMARK H PARENT 3 6 80 24 48 35 8 76 15 85
REMARK Flexibility Score: inf
ROOT
ATOM      1  C   UNL A   1      31.653  32.130  26.749  1.00  0.00     0.023 C 
ENDROOT
BRANCH   1   2
ATOM      2  C   UNL A   1      32.863  32.833  27.362  1.00  0.00     0.116 C 
BRANCH   2   3
ATOM      3  N   UNL A   1      32.566  34.158  27.883  1.00  0.00    -0.352 N 
ATOM      4  O   UNL A   1      32.809  35.899  29.307  1.00  0.00    -0.269 OA
ATOM      5  C   UNL A   1      33.223  34.821  28.893  1.00  0.00     0.251 C 
ATOM      6  H   UNL A   1      31.812  34.633  27.466  1.00  0.00     0.163 HD
BRANCH   5   7
ATOM      7  C   UNL A   1      34.414  34.188  29.491  1.00  0.00     0.039 A 
ATOM      8  C   UNL A   1      34.277  33.331  30.587  1.00  0.00     0.014 A 
ATOM      9  C   UNL A   1      35.676  34.489  28.975  1.00  0.00     0.014 A 
ATOM     10  C   UNL A   1      35.411  32.849  31.230  1.00  0.00     0.010 A 
ATOM     11  C   UNL A   1      36.812  33.954  29.585  1.00  0.00     0.010 A 
ATOM     12  C   UNL A   1      36.688  33.141  30.723  1.00  0.00    -0.014 A 
BRANCH  12  13
ATOM     13  C   UNL A   1      37.879  32.496  31.326  1.00  0.00     0.031 A 
ATOM     14  C   UNL A   1      38.573  31.351  30.644  1.00  0.00     0.074 A 
ATOM     15  C   UNL A   1      38.307  32.951  32.519  1.00  0.00     0.049 A 
ATOM     16  N   UNL A   1      39.588  30.641  31.063  1.00  0.00    -0.248 NA
ATOM     17  C   UNL A   1      38.062  30.948  29.326  1.00  0.00     0.031 C 
ATOM     18  C   UNL A   1      37.692  34.055  33.266  1.00  0.00     0.029 A 
ATOM     19  N   UNL A   1      39.344  32.548  33.320  1.00  0.00    -0.354 N 
ATOM     20  C   UNL A   1      39.826  29.692  30.076  1.00  0.00     0.074 A 
ATOM     21  C   UNL A   1      38.841  29.911  29.038  1.00  0.00     0.031 C 
ATOM     22  C   UNL A   1      38.368  34.245  34.408  1.00  0.00     0.029 A 
ATOM     23  C   UNL A   1      39.415  33.237  34.509  1.00  0.00     0.049 A 
ATOM     24  H   UNL A   1      39.975  31.836  33.070  1.00  0.00     0.167 HD
ATOM     25  C   UNL A   1      40.780  28.729  30.050  1.00  0.00     0.034 A 
ATOM     26  C   UNL A   1      40.205  33.049  35.584  1.00  0.00     0.034 A 
ATOM     27  C   UNL A   1      41.760  28.543  31.094  1.00  0.00     0.049 A 
ATOM     28  C   UNL A   1      41.218  31.939  35.543  1.00  0.00     0.074 A 
ATOM     29  C   UNL A   1      42.831  27.665  31.123  1.00  0.00     0.029 A 
ATOM     30  N   UNL A   1      41.778  29.227  32.301  1.00  0.00    -0.354 N 
ATOM     31  N   UNL A   1      41.470  31.090  34.573  1.00  0.00    -0.248 NA
ATOM     32  C   UNL A   1      42.049  31.756  36.739  1.00  0.00     0.031 C 
ATOM     33  C   UNL A   1      43.448  27.768  32.374  1.00  0.00     0.029 A 
ATOM     34  C   UNL A   1      42.805  28.754  33.103  1.00  0.00     0.049 A 
ATOM     35  H   UNL A   1      41.151  29.945  32.552  1.00  0.00     0.167 HD
ATOM     36  C   UNL A   1      42.493  30.276  35.042  1.00  0.00     0.074 A 
ATOM     37  C   UNL A   1      42.831  30.754  36.367  1.00  0.00     0.031 C 
ATOM     38  C   UNL A   1      43.100  29.225  34.435  1.00  0.00     0.034 A 
BRANCH  25  39
ATOM     39  C   UNL A   1      40.788  27.767  28.889  1.00  0.00     0.023 A 
ATOM     40  C   UNL A   1      41.724  27.861  27.847  1.00  0.00     0.031 A 
ATOM     41  C   UNL A   1      39.861  26.709  28.853  1.00  0.00     0.131 A 
ATOM     42  C   UNL A   1      41.692  26.933  26.793  1.00  0.00     0.055 A 
ATOM     43  C   UNL A   1      39.869  25.757  27.832  1.00  0.00     0.041 A 
ATOM     44  F   UNL A   1      38.933  26.582  29.814  1.00  0.00    -0.206 F 
ATOM     45  C   UNL A   1      40.784  25.869  26.790  1.00  0.00     0.022 A 
BRANCH  42  46
ATOM     46  S   UNL A   1      42.805  27.174  25.381  1.00  0.00     0.124 S 
ATOM     47  O   UNL A   1      44.077  27.442  26.047  1.00  0.00    -0.237 OA
ATOM     48  O   UNL A   1      42.708  25.898  24.680  1.00  0.00    -0.237 OA
ATOM     49  O   UNL A   1      42.224  28.316  24.677  1.00  0.00    -0.744 OA
ENDBRANCH  42  46
ENDBRANCH  25  39
BRANCH  26  50
ATOM     50  C   UNL A   1      40.016  33.877  36.808  1.00  0.00     0.023 A 
ATOM     51  C   UNL A   1      40.878  34.943  37.104  1.00  0.00     0.031 A 
ATOM     52  C   UNL A   1      38.988  33.584  37.723  1.00  0.00     0.131 A 
ATOM     53  C   UNL A   1      40.722  35.653  38.304  1.00  0.00     0.055 A 
ATOM     54  C   UNL A   1      38.802  34.329  38.887  1.00  0.00     0.041 A 
ATOM     55  F   UNL A   1      38.136  32.574  37.488  1.00  0.00    -0.206 F 
ATOM     56  C   UNL A   1      39.681  35.362  39.192  1.00  0.00     0.022 A 
BRANCH  53  57
ATOM     57  S   UNL A   1      41.964  36.899  38.743  1.00  0.00     0.124 S 
ATOM     58  O   UNL A   1      42.757  36.192  39.743  1.00  0.00    -0.237 OA
ATOM     59  O   UNL A   1      42.616  37.137  37.460  1.00  0.00    -0.237 OA
ATOM     60  O   UNL A   1      41.165  38.011  39.253  1.00  0.00    -0.744 OA
ENDBRANCH  53  57
ENDBRANCH  26  50
BRANCH  38  61
ATOM     61  C   UNL A   1      44.190  28.538  35.214  1.00  0.00     0.023 A 
ATOM     62  C   UNL A   1      43.890  27.570  36.187  1.00  0.00     0.031 A 
ATOM     63  C   UNL A   1      45.538  28.878  35.004  1.00  0.00     0.131 A 
ATOM     64  C   UNL A   1      44.922  27.009  36.952  1.00  0.00     0.055 A 
ATOM     65  C   UNL A   1      46.565  28.275  35.730  1.00  0.00     0.041 A 
ATOM     66  F   UNL A   1      45.876  29.800  34.089  1.00  0.00    -0.206 F 
ATOM     67  C   UNL A   1      46.259  27.343  36.719  1.00  0.00     0.022 A 
BRANCH  64  68
ATOM     68  S   UNL A   1      44.488  25.887  38.309  1.00  0.00     0.124 S 
ATOM     69  O   UNL A   1      44.523  24.586  37.649  1.00  0.00    -0.237 OA
ATOM     70  O   UNL A   1      45.551  26.140  39.277  1.00  0.00    -0.237 OA
ATOM     71  O   UNL A   1      43.160  26.341  38.717  1.00  0.00    -0.744 OA
ENDBRANCH  64  68
ENDBRANCH  38  61
ENDBRANCH  12  13
ENDBRANCH   5   7
ENDBRANCH   2   3
ENDBRANCH   1   2
BRANCH   1  72
ATOM     72  C   UNL A   1      31.818  30.624  26.531  1.00  0.00     0.023 C 
BRANCH  72  73
ATOM     73  C   UNL A   1      33.261  30.147  26.650  1.00  0.00     0.116 C 
BRANCH  73  74
ATOM     74  N   UNL A   1      33.705  29.434  25.470  1.00  0.00    -0.356 N 
ATOM     75  C   UNL A   1      33.098  28.993  24.344  1.00  0.00     0.227 C 
ATOM     76  H   UNL A   1      34.666  29.225  25.491  1.00  0.00     0.163 HD
ATOM     77  O   UNL A   1      33.852  28.455  23.520  1.00  0.00    -0.274 OA
BRANCH  75  78
ATOM     78  C   UNL A   1      31.595  29.091  24.018  1.00  0.00     0.103 C 
ATOM     79  C   UNL A   1      30.881  27.925  24.673  1.00  0.00    -0.016 C 
ATOM     80  C   UNL A   1      31.022  28.996  22.608  1.00  0.00     0.047 C 
ATOM     81  C   UNL A   1      30.391  27.055  23.777  1.00  0.00    -0.006 C 
ATOM     82  C   UNL A   1      30.636  27.523  22.390  1.00  0.00     0.106 C 
BRANCH  82  83
ATOM     83  N   UNL A   1      31.599  26.730  21.639  1.00  0.00    -0.350 N 
ATOM     84  C   UNL A   1      32.588  25.842  21.936  1.00  0.00     0.224 C 
ATOM     85  H   UNL A   1      31.512  26.872  20.668  1.00  0.00     0.164 HD
ATOM     86  O   UNL A   1      33.441  25.665  21.061  1.00  0.00    -0.275 OA
BRANCH  84  87
ATOM     87  C   UNL A   1      32.618  25.065  23.241  1.00  0.00     0.089 C 
ATOM     88  C   UNL A   1      34.020  24.625  23.663  1.00  0.00     0.025 C 
ATOM     89  C   UNL A   1      31.737  23.825  23.139  1.00  0.00     0.083 C 
ATOM     90  C   UNL A   1      34.368  23.336  22.944  1.00  0.00     0.070 C 
ATOM     91  S   UNL A   1      32.828  22.387  22.950  1.00  0.00    -0.161 SA
ENDBRANCH  84  87
ENDBRANCH  82  83
ENDBRANCH  75  78
ENDBRANCH  73  74
ENDBRANCH  72  73
ENDBRANCH   1  72
TORSDOF 16
ENDMDL
