MODEL 1
REMARK VINA RESULT:     -11.8      0.000      0.000
REMARK SMILES O=C(CCNC(=O)[C@H]1CCCN(S(=O)(=O)c2ccc(Cl)cc2)C1)NCCCCNC(=O)c1ccc(-c2c3nc(c(-c4cc(S(=O)(=O)[O-])ccc4F)c4ccc([nH]4)c(-c4cc(S(=O)(=O)[O-])ccc4F)c4nc(c(-c5cc(S(=O)(=O)[O-])ccc5F)c5ccc2[nH]5)C=C4)C=C3)cc1
REMARK SMILES IDX 25 1 24 2 1 3 2 4 3 6 4 7 5 8 6 9 7 11 8 12 9 13 23 14 10 15
REMARK SMILES IDX 12 16 11 17 13 18 14 19 15 20 16 21 17 22 22 23 18 24 21 25
REMARK SMILES IDX 19 26 20 27 26 28 27 29 28 30 29 31 30 32 31 34 32 35 33 36
REMARK SMILES IDX 94 37 34 38 93 39 35 40 36 41 37 42 87 43 38 44 92 45 86 46
REMARK SMILES IDX 88 47 39 48 91 49 85 50 84 51 40 53 72 54 52 55 71 56 53 57
REMARK SMILES IDX 56 58 70 59 89 60 54 61 55 62 69 64 90 65 57 66 41 67 42 68
REMARK SMILES IDX 50 69 43 70 49 71 51 72 48 73 44 74 45 75 46 76 47 77 73 78
REMARK SMILES IDX 74 79 82 80 75 81 81 82 83 83 80 84 76 85 77 86 78 87 79 88
REMARK SMILES IDX 58 89 59 90 67 91 60 92 66 93 68 94 65 95 61 96 62 97 63 98
REMARK SMILES IDX 64 99
REMARK H PARENT 24 5 5 10 29 33 88 52 56 63
REMARK Flexibility Score: inf
ROOT
ATOM      1  C   UNL A   1      33.051  29.740  25.583  1.00  0.00     0.116 C 
ENDROOT
BRANCH   1   2
ATOM      2  N   UNL A   1      32.054  29.679  24.533  1.00  0.00    -0.356 N 
ATOM      3  O   UNL A   1      33.352  28.550  23.004  1.00  0.00    -0.275 OA
ATOM      4  C   UNL A   1      32.290  29.074  23.319  1.00  0.00     0.221 C 
ATOM      5  H   UNL A   1      31.172  30.086  24.695  1.00  0.00     0.163 HD
BRANCH   4   6
ATOM      6  C   UNL A   1      31.092  29.073  22.401  1.00  0.00     0.121 C 
BRANCH   6   7
ATOM      7  C   UNL A   1      29.813  29.315  23.189  1.00  0.00     0.125 C 
BRANCH   7   8
ATOM      8  N   UNL A   1      28.973  28.122  23.265  1.00  0.00    -0.355 N 
ATOM      9  C   UNL A   1      29.205  26.870  23.746  1.00  0.00     0.224 C 
ATOM     10  H   UNL A   1      28.067  28.247  22.899  1.00  0.00     0.163 HD
ATOM     11  O   UNL A   1      28.292  26.050  23.632  1.00  0.00    -0.275 OA
BRANCH   9  12
ATOM     12  C   UNL A   1      30.527  26.481  24.393  1.00  0.00     0.093 C 
ATOM     13  C   UNL A   1      30.323  25.975  25.817  1.00  0.00     0.016 C 
ATOM     14  C   UNL A   1      31.323  25.576  23.447  1.00  0.00     0.116 C 
ATOM     15  C   UNL A   1      31.608  25.372  26.349  1.00  0.00     0.018 C 
ATOM     16  N   UNL A   1      32.366  24.698  24.083  1.00  0.00    -0.197 NA
ATOM     17  C   UNL A   1      32.041  24.226  25.455  1.00  0.00     0.102 C 
BRANCH  16  18
ATOM     18  S   UNL A   1      32.799  23.419  22.994  1.00  0.00     0.243 S 
ATOM     19  O   UNL A   1      31.759  22.415  23.074  1.00  0.00    -0.207 OA
ATOM     20  O   UNL A   1      33.147  24.020  21.724  1.00  0.00    -0.207 OA
BRANCH  18  21
ATOM     21  C   UNL A   1      34.284  22.720  23.679  1.00  0.00     0.082 A 
ATOM     22  C   UNL A   1      34.212  21.549  24.442  1.00  0.00     0.023 A 
ATOM     23  C   UNL A   1      35.525  23.270  23.339  1.00  0.00     0.023 A 
ATOM     24  C   UNL A   1      35.386  20.961  24.918  1.00  0.00     0.022 A 
ATOM     25  C   UNL A   1      36.697  22.663  23.796  1.00  0.00     0.022 A 
ATOM     26  C   UNL A   1      36.623  21.519  24.591  1.00  0.00     0.041 A 
ATOM     27  Cl  UNL A   1      38.068  20.775  25.156  1.00  0.00    -0.084 Cl
ENDBRANCH  18  21
ENDBRANCH  16  18
ENDBRANCH   9  12
ENDBRANCH   7   8
ENDBRANCH   6   7
ENDBRANCH   4   6
ENDBRANCH   1   2
BRANCH   1  28
ATOM     28  C   UNL A   1      32.423  29.991  26.952  1.00  0.00     0.023 C 
BRANCH  28  29
ATOM     29  C   UNL A   1      32.044  31.447  27.238  1.00  0.00     0.023 C 
BRANCH  29  30
ATOM     30  C   UNL A   1      33.191  32.454  27.170  1.00  0.00     0.116 C 
BRANCH  30  31
ATOM     31  N   UNL A   1      32.806  33.767  27.657  1.00  0.00    -0.352 N 
ATOM     32  C   UNL A   1      33.282  34.474  28.738  1.00  0.00     0.251 C 
ATOM     33  H   UNL A   1      32.102  34.219  27.138  1.00  0.00     0.163 HD
ATOM     34  O   UNL A   1      32.702  35.499  29.086  1.00  0.00    -0.269 OA
BRANCH  32  35
ATOM     35  C   UNL A   1      34.458  33.989  29.496  1.00  0.00     0.039 A 
ATOM     36  C   UNL A   1      34.252  33.134  30.583  1.00  0.00     0.014 A 
ATOM     37  C   UNL A   1      35.757  34.381  29.157  1.00  0.00     0.014 A 
ATOM     38  C   UNL A   1      35.347  32.620  31.284  1.00  0.00     0.010 A 
ATOM     39  C   UNL A   1      36.849  33.819  29.816  1.00  0.00     0.010 A 
ATOM     40  C   UNL A   1      36.657  32.929  30.885  1.00  0.00    -0.014 A 
BRANCH  40  41
ATOM     41  C   UNL A   1      37.834  32.330  31.568  1.00  0.00     0.031 A 
ATOM     42  C   UNL A   1      38.604  31.214  30.914  1.00  0.00     0.074 A 
ATOM     43  C   UNL A   1      38.170  32.745  32.806  1.00  0.00     0.049 A 
ATOM     44  N   UNL A   1      39.598  30.504  31.385  1.00  0.00    -0.248 NA
ATOM     45  C   UNL A   1      38.179  30.831  29.559  1.00  0.00     0.031 C 
ATOM     46  C   UNL A   1      37.480  33.792  33.562  1.00  0.00     0.029 A 
ATOM     47  N   UNL A   1      39.167  32.326  33.653  1.00  0.00    -0.354 N 
ATOM     48  C   UNL A   1      39.911  29.583  30.392  1.00  0.00     0.074 A 
ATOM     49  C   UNL A   1      38.962  29.790  29.317  1.00  0.00     0.031 C 
ATOM     50  C   UNL A   1      38.080  33.940  34.754  1.00  0.00     0.029 A 
ATOM     51  C   UNL A   1      39.168  32.974  34.867  1.00  0.00     0.049 A 
ATOM     52  H   UNL A   1      39.818  31.628  33.416  1.00  0.00     0.167 HD
ATOM     53  C   UNL A   1      40.907  28.662  30.369  1.00  0.00     0.034 A 
ATOM     54  C   UNL A   1      39.946  32.799  35.955  1.00  0.00     0.034 A 
ATOM     55  C   UNL A   1      41.849  28.469  31.446  1.00  0.00     0.049 A 
ATOM     56  C   UNL A   1      41.034  31.757  35.916  1.00  0.00     0.074 A 
ATOM     57  C   UNL A   1      42.925  27.599  31.507  1.00  0.00     0.029 A 
ATOM     58  N   UNL A   1      41.827  29.152  32.655  1.00  0.00    -0.354 N 
ATOM     59  N   UNL A   1      41.342  30.921  34.952  1.00  0.00    -0.248 NA
ATOM     60  C   UNL A   1      41.884  31.644  37.108  1.00  0.00     0.031 C 
ATOM     61  C   UNL A   1      43.514  27.713  32.772  1.00  0.00     0.029 A 
ATOM     62  C   UNL A   1      42.851  28.705  33.476  1.00  0.00     0.049 A 
ATOM     63  H   UNL A   1      41.178  29.853  32.895  1.00  0.00     0.167 HD
ATOM     64  C   UNL A   1      42.442  30.202  35.413  1.00  0.00     0.074 A 
ATOM     65  C   UNL A   1      42.749  30.713  36.734  1.00  0.00     0.031 C 
ATOM     66  C   UNL A   1      43.138  29.213  34.798  1.00  0.00     0.034 A 
BRANCH  53  67
ATOM     67  C   UNL A   1      41.005  27.778  29.149  1.00  0.00     0.023 A 
ATOM     68  C   UNL A   1      41.991  27.983  28.167  1.00  0.00     0.031 A 
ATOM     69  C   UNL A   1      40.083  26.735  28.946  1.00  0.00     0.131 A 
ATOM     70  C   UNL A   1      41.985  27.214  26.995  1.00  0.00     0.055 A 
ATOM     71  C   UNL A   1      40.132  25.919  27.813  1.00  0.00     0.041 A 
ATOM     72  F   UNL A   1      39.108  26.501  29.839  1.00  0.00    -0.206 F 
ATOM     73  C   UNL A   1      41.077  26.167  26.822  1.00  0.00     0.022 A 
BRANCH  70  74
ATOM     74  S   UNL A   1      43.088  27.694  25.638  1.00  0.00     0.124 S 
ATOM     75  O   UNL A   1      43.958  28.666  26.296  1.00  0.00    -0.237 OA
ATOM     76  O   UNL A   1      43.708  26.427  25.270  1.00  0.00    -0.237 OA
ATOM     77  O   UNL A   1      42.180  28.258  24.641  1.00  0.00    -0.744 OA
ENDBRANCH  70  74
ENDBRANCH  53  67
BRANCH  54  78
ATOM     78  C   UNL A   1      39.716  33.614  37.182  1.00  0.00     0.023 A 
ATOM     79  C   UNL A   1      38.971  33.107  38.258  1.00  0.00     0.031 A 
ATOM     80  C   UNL A   1      40.209  34.927  37.279  1.00  0.00     0.131 A 
ATOM     81  C   UNL A   1      38.701  33.924  39.366  1.00  0.00     0.055 A 
ATOM     82  C   UNL A   1      39.980  35.719  38.406  1.00  0.00     0.041 A 
ATOM     83  F   UNL A   1      40.934  35.457  36.281  1.00  0.00    -0.206 F 
ATOM     84  C   UNL A   1      39.210  35.221  39.454  1.00  0.00     0.022 A 
BRANCH  81  85
ATOM     85  S   UNL A   1      37.607  33.289  40.667  1.00  0.00     0.124 S 
ATOM     86  O   UNL A   1      36.532  32.689  39.885  1.00  0.00    -0.237 OA
ATOM     87  O   UNL A   1      38.483  32.362  41.374  1.00  0.00    -0.237 OA
ATOM     88  O   UNL A   1      37.239  34.489  41.416  1.00  0.00    -0.744 OA
ENDBRANCH  81  85
ENDBRANCH  54  78
BRANCH  66  89
ATOM     89  C   UNL A   1      44.329  28.653  35.538  1.00  0.00     0.023 A 
ATOM     90  C   UNL A   1      44.192  27.636  36.498  1.00  0.00     0.031 A 
ATOM     91  C   UNL A   1      45.617  29.159  35.287  1.00  0.00     0.131 A 
ATOM     92  C   UNL A   1      45.316  27.194  37.212  1.00  0.00     0.055 A 
ATOM     93  C   UNL A   1      46.739  28.676  35.960  1.00  0.00     0.041 A 
ATOM     94  F   UNL A   1      45.803  30.133  34.381  1.00  0.00    -0.206 F 
ATOM     95  C   UNL A   1      46.591  27.697  36.938  1.00  0.00     0.022 A 
BRANCH  92  96
ATOM     96  S   UNL A   1      45.081  26.009  38.564  1.00  0.00     0.124 S 
ATOM     97  O   UNL A   1      43.819  26.458  39.146  1.00  0.00    -0.237 OA
ATOM     98  O   UNL A   1      45.038  24.732  37.859  1.00  0.00    -0.237 OA
ATOM     99  O   UNL A   1      46.258  26.211  39.408  1.00  0.00    -0.744 OA
ENDBRANCH  92  96
ENDBRANCH  66  89
ENDBRANCH  40  41
ENDBRANCH  32  35
ENDBRANCH  30  31
ENDBRANCH  29  30
ENDBRANCH  28  29
ENDBRANCH   1  28
TORSDOF 19
ENDMDL
MODEL 2
REMARK VINA RESULT:     -11.4      1.531      7.519
REMARK SMILES O=C(CCNC(=O)[C@H]1CCCN(S(=O)(=O)c2ccc(Cl)cc2)C1)NCCCCNC(=O)c1ccc(-c2c3nc(c(-c4cc(S(=O)(=O)[O-])ccc4F)c4ccc([nH]4)c(-c4cc(S(=O)(=O)[O-])ccc4F)c4nc(c(-c5cc(S(=O)(=O)[O-])ccc5F)c5ccc2[nH]5)C=C4)C=C3)cc1
REMARK SMILES IDX 25 1 24 2 1 3 2 4 3 6 4 7 5 8 6 9 7 11 8 12 9 13 23 14 10 15
REMARK SMILES IDX 12 16 11 17 13 18 14 19 15 20 16 21 17 22 22 23 18 24 21 25
REMARK SMILES IDX 19 26 20 27 26 28 27 29 28 30 29 31 30 32 31 34 32 35 33 36
REMARK SMILES IDX 94 37 34 38 93 39 35 40 36 41 37 42 87 43 38 44 92 45 86 46
REMARK SMILES IDX 88 47 39 48 91 49 85 50 84 51 40 53 72 54 52 55 71 56 53 57
REMARK SMILES IDX 56 58 70 59 89 60 54 61 55 62 69 64 90 65 57 66 41 67 42 68
REMARK SMILES IDX 50 69 43 70 49 71 51 72 48 73 44 74 45 75 46 76 47 77 73 78
REMARK SMILES IDX 74 79 82 80 75 81 81 82 83 83 80 84 76 85 77 86 78 87 79 88
REMARK SMILES IDX 58 89 59 90 67 91 60 92 66 93 68 94 65 95 61 96 62 97 63 98
REMARK SMILES IDX 64 99
REMARK H PARENT 24 5 5 10 29 33 88 52 56 63
REMARK Flexibility Score: inf
ROOT
ATOM      1  C   UNL A   1      32.785  29.988  25.753  1.00  0.00     0.116 C 
ENDROOT
BRANCH   1   2
ATOM      2  N   UNL A   1      31.930  29.677  24.625  1.00  0.00    -0.356 N 
ATOM      3  O   UNL A   1      33.586  28.839  23.264  1.00  0.00    -0.275 OA
ATOM      4  C   UNL A   1      32.409  29.114  23.464  1.00  0.00     0.221 C 
ATOM      5  H   UNL A   1      30.968  29.877  24.693  1.00  0.00     0.163 HD
BRANCH   4   6
ATOM      6  C   UNL A   1      31.332  28.819  22.447  1.00  0.00     0.121 C 
BRANCH   6   7
ATOM      7  C   UNL A   1      29.965  29.214  22.984  1.00  0.00     0.125 C 
BRANCH   7   8
ATOM      8  N   UNL A   1      29.094  28.060  23.191  1.00  0.00    -0.355 N 
ATOM      9  C   UNL A   1      29.311  26.838  23.751  1.00  0.00     0.224 C 
ATOM     10  H   UNL A   1      28.175  28.190  22.861  1.00  0.00     0.163 HD
ATOM     11  O   UNL A   1      28.369  26.044  23.742  1.00  0.00    -0.275 OA
BRANCH   9  12
ATOM     12  C   UNL A   1      30.653  26.452  24.358  1.00  0.00     0.093 C 
ATOM     13  C   UNL A   1      30.670  26.683  25.865  1.00  0.00     0.016 C 
ATOM     14  C   UNL A   1      31.064  25.059  23.870  1.00  0.00     0.116 C 
ATOM     15  C   UNL A   1      31.914  26.071  26.477  1.00  0.00     0.018 C 
ATOM     16  N   UNL A   1      32.050  24.314  24.728  1.00  0.00    -0.197 NA
ATOM     17  C   UNL A   1      31.944  24.583  26.186  1.00  0.00     0.102 C 
BRANCH  16  18
ATOM     18  S   UNL A   1      32.017  22.626  24.329  1.00  0.00     0.243 S 
ATOM     19  O   UNL A   1      31.285  21.950  25.380  1.00  0.00    -0.207 OA
ATOM     20  O   UNL A   1      31.602  22.508  22.947  1.00  0.00    -0.207 OA
BRANCH  18  21
ATOM     21  C   UNL A   1      33.713  22.101  24.425  1.00  0.00     0.082 A 
ATOM     22  C   UNL A   1      34.739  23.020  24.175  1.00  0.00     0.023 A 
ATOM     23  C   UNL A   1      34.011  20.811  24.878  1.00  0.00     0.023 A 
ATOM     24  C   UNL A   1      36.070  22.625  24.321  1.00  0.00     0.022 A 
ATOM     25  C   UNL A   1      35.343  20.430  25.046  1.00  0.00     0.022 A 
ATOM     26  C   UNL A   1      36.367  21.333  24.758  1.00  0.00     0.041 A 
ATOM     27  Cl  UNL A   1      38.009  20.860  24.964  1.00  0.00    -0.084 Cl
ENDBRANCH  18  21
ENDBRANCH  16  18
ENDBRANCH   9  12
ENDBRANCH   7   8
ENDBRANCH   6   7
ENDBRANCH   4   6
ENDBRANCH   1   2
BRANCH   1  28
ATOM     28  C   UNL A   1      31.982  30.434  26.973  1.00  0.00     0.023 C 
BRANCH  28  29
ATOM     29  C   UNL A   1      31.715  31.939  27.061  1.00  0.00     0.023 C 
BRANCH  29  30
ATOM     30  C   UNL A   1      32.956  32.830  27.085  1.00  0.00     0.116 C 
BRANCH  30  31
ATOM     31  N   UNL A   1      32.712  34.104  27.739  1.00  0.00    -0.352 N 
ATOM     32  C   UNL A   1      33.294  34.635  28.866  1.00  0.00     0.251 C 
ATOM     33  H   UNL A   1      32.029  34.671  27.313  1.00  0.00     0.163 HD
ATOM     34  O   UNL A   1      32.825  35.657  29.360  1.00  0.00    -0.269 OA
BRANCH  32  35
ATOM     35  C   UNL A   1      34.454  33.967  29.500  1.00  0.00     0.039 A 
ATOM     36  C   UNL A   1      34.218  32.967  30.449  1.00  0.00     0.014 A 
ATOM     37  C   UNL A   1      35.767  34.327  29.182  1.00  0.00     0.014 A 
ATOM     38  C   UNL A   1      35.293  32.283  31.025  1.00  0.00     0.010 A 
ATOM     39  C   UNL A   1      36.836  33.604  29.710  1.00  0.00     0.010 A 
ATOM     40  C   UNL A   1      36.611  32.571  30.635  1.00  0.00    -0.014 A 
BRANCH  40  41
ATOM     41  C   UNL A   1      37.762  31.802  31.177  1.00  0.00     0.031 A 
ATOM     42  C   UNL A   1      38.314  32.122  32.541  1.00  0.00     0.074 A 
ATOM     43  C   UNL A   1      38.354  30.860  30.416  1.00  0.00     0.049 A 
ATOM     44  N   UNL A   1      39.363  31.629  33.148  1.00  0.00    -0.248 NA
ATOM     45  C   UNL A   1      37.602  33.154  33.309  1.00  0.00     0.031 C 
ATOM     46  C   UNL A   1      37.938  30.483  29.063  1.00  0.00     0.029 A 
ATOM     47  N   UNL A   1      39.442  30.059  30.663  1.00  0.00    -0.354 N 
ATOM     48  C   UNL A   1      39.447  32.297  34.365  1.00  0.00     0.074 A 
ATOM     49  C   UNL A   1      38.373  33.269  34.381  1.00  0.00     0.031 C 
ATOM     50  C   UNL A   1      38.751  29.518  28.606  1.00  0.00     0.029 A 
ATOM     51  C   UNL A   1      39.772  29.236  29.611  1.00  0.00     0.049 A 
ATOM     52  H   UNL A   1      39.938  30.071  31.512  1.00  0.00     0.167 HD
ATOM     53  C   UNL A   1      40.325  32.106  35.382  1.00  0.00     0.034 A 
ATOM     54  C   UNL A   1      40.791  28.365  29.463  1.00  0.00     0.034 A 
ATOM     55  C   UNL A   1      41.388  31.130  35.354  1.00  0.00     0.049 A 
ATOM     56  C   UNL A   1      41.767  28.182  30.597  1.00  0.00     0.074 A 
ATOM     57  C   UNL A   1      42.303  30.820  36.347  1.00  0.00     0.029 A 
ATOM     58  N   UNL A   1      41.684  30.306  34.276  1.00  0.00    -0.354 N 
ATOM     59  N   UNL A   1      41.807  28.794  31.758  1.00  0.00    -0.248 NA
ATOM     60  C   UNL A   1      42.827  27.185  30.403  1.00  0.00     0.031 C 
ATOM     61  C   UNL A   1      43.187  29.856  35.848  1.00  0.00     0.029 A 
ATOM     62  C   UNL A   1      42.782  29.510  34.569  1.00  0.00     0.049 A 
ATOM     63  H   UNL A   1      41.188  30.289  33.426  1.00  0.00     0.167 HD
ATOM     64  C   UNL A   1      42.881  28.232  32.444  1.00  0.00     0.074 A 
ATOM     65  C   UNL A   1      43.451  27.226  31.571  1.00  0.00     0.031 C 
ATOM     66  C   UNL A   1      43.350  28.520  33.684  1.00  0.00     0.034 A 
BRANCH  53  67
ATOM     67  C   UNL A   1      40.183  32.994  36.594  1.00  0.00     0.023 A 
ATOM     68  C   UNL A   1      39.408  32.608  37.703  1.00  0.00     0.031 A 
ATOM     69  C   UNL A   1      40.803  34.256  36.634  1.00  0.00     0.131 A 
ATOM     70  C   UNL A   1      39.209  33.502  38.765  1.00  0.00     0.055 A 
ATOM     71  C   UNL A   1      40.666  35.110  37.731  1.00  0.00     0.041 A 
ATOM     72  F   UNL A   1      41.540  34.687  35.598  1.00  0.00    -0.206 F 
ATOM     73  C   UNL A   1      39.852  34.741  38.798  1.00  0.00     0.022 A 
BRANCH  70  74
ATOM     74  S   UNL A   1      37.983  33.080  40.034  1.00  0.00     0.124 S 
ATOM     75  O   UNL A   1      38.596  31.911  40.659  1.00  0.00    -0.237 OA
ATOM     76  O   UNL A   1      37.940  34.290  40.846  1.00  0.00    -0.237 OA
ATOM     77  O   UNL A   1      36.773  32.802  39.263  1.00  0.00    -0.744 OA
ENDBRANCH  70  74
ENDBRANCH  53  67
BRANCH  54  78
ATOM     78  C   UNL A   1      40.957  27.611  28.188  1.00  0.00     0.023 A 
ATOM     79  C   UNL A   1      40.628  26.248  28.106  1.00  0.00     0.031 A 
ATOM     80  C   UNL A   1      41.484  28.234  27.044  1.00  0.00     0.131 A 
ATOM     81  C   UNL A   1      40.870  25.543  26.917  1.00  0.00     0.055 A 
ATOM     82  C   UNL A   1      41.678  27.539  25.849  1.00  0.00     0.041 A 
ATOM     83  F   UNL A   1      41.809  29.537  27.068  1.00  0.00    -0.206 F 
ATOM     84  C   UNL A   1      41.382  26.181  25.785  1.00  0.00     0.022 A 
BRANCH  81  85
ATOM     85  S   UNL A   1      40.577  23.752  26.896  1.00  0.00     0.124 S 
ATOM     86  O   UNL A   1      41.535  23.306  25.891  1.00  0.00    -0.237 OA
ATOM     87  O   UNL A   1      40.872  23.381  28.275  1.00  0.00    -0.237 OA
ATOM     88  O   UNL A   1      39.171  23.643  26.511  1.00  0.00    -0.744 OA
ENDBRANCH  81  85
ENDBRANCH  54  78
BRANCH  66  89
ATOM     89  C   UNL A   1      44.514  27.697  34.182  1.00  0.00     0.023 A 
ATOM     90  C   UNL A   1      44.323  26.523  34.929  1.00  0.00     0.031 A 
ATOM     91  C   UNL A   1      45.832  28.109  33.917  1.00  0.00     0.131 A 
ATOM     92  C   UNL A   1      45.434  25.827  35.431  1.00  0.00     0.055 A 
ATOM     93  C   UNL A   1      46.933  27.382  34.372  1.00  0.00     0.041 A 
ATOM     94  F   UNL A   1      46.070  29.225  33.210  1.00  0.00    -0.206 F 
ATOM     95  C   UNL A   1      46.738  26.241  35.144  1.00  0.00     0.022 A 
BRANCH  92  96
ATOM     96  S   UNL A   1      45.153  24.416  36.537  1.00  0.00     0.124 S 
ATOM     97  O   UNL A   1      46.501  24.140  37.026  1.00  0.00    -0.237 OA
ATOM     98  O   UNL A   1      44.220  24.965  37.515  1.00  0.00    -0.237 OA
ATOM     99  O   UNL A   1      44.593  23.394  35.654  1.00  0.00    -0.744 OA
ENDBRANCH  92  96
ENDBRANCH  66  89
ENDBRANCH  40  41
ENDBRANCH  32  35
ENDBRANCH  30  31
ENDBRANCH  29  30
ENDBRANCH  28  29
ENDBRANCH   1  28
TORSDOF 19
ENDMDL
MODEL 3
REMARK VINA RESULT:     -11.3      5.972     10.366
REMARK SMILES O=C(CCNC(=O)[C@H]1CCCN(S(=O)(=O)c2ccc(Cl)cc2)C1)NCCCCNC(=O)c1ccc(-c2c3nc(c(-c4cc(S(=O)(=O)[O-])ccc4F)c4ccc([nH]4)c(-c4cc(S(=O)(=O)[O-])ccc4F)c4nc(c(-c5cc(S(=O)(=O)[O-])ccc5F)c5ccc2[nH]5)C=C4)C=C3)cc1
REMARK SMILES IDX 25 1 24 2 1 3 2 4 3 6 4 7 5 8 6 9 7 11 8 12 9 13 23 14 10 15
REMARK SMILES IDX 12 16 11 17 13 18 14 19 15 20 16 21 17 22 22 23 18 24 21 25
REMARK SMILES IDX 19 26 20 27 26 28 27 29 28 30 29 31 30 32 31 34 32 35 33 36
REMARK SMILES IDX 94 37 34 38 93 39 35 40 36 41 37 42 87 43 38 44 92 45 86 46
REMARK SMILES IDX 88 47 39 48 91 49 85 50 84 51 40 53 72 54 52 55 71 56 53 57
REMARK SMILES IDX 56 58 70 59 89 60 54 61 55 62 69 64 90 65 57 66 41 67 42 68
REMARK SMILES IDX 50 69 43 70 49 71 51 72 48 73 44 74 45 75 46 76 47 77 73 78
REMARK SMILES IDX 74 79 82 80 75 81 81 82 83 83 80 84 76 85 77 86 78 87 79 88
REMARK SMILES IDX 58 89 59 90 67 91 60 92 66 93 68 94 65 95 61 96 62 97 63 98
REMARK SMILES IDX 64 99
REMARK H PARENT 24 5 5 10 29 33 88 52 56 63
REMARK Flexibility Score: inf
ROOT
ATOM      1  C   UNL A   1      40.270  22.212  26.504  1.00  0.00     0.116 C 
ENDROOT
BRANCH   1   2
ATOM      2  N   UNL A   1      38.823  22.290  26.482  1.00  0.00    -0.356 N 
ATOM      3  O   UNL A   1      38.687  24.557  26.107  1.00  0.00    -0.275 OA
ATOM      4  C   UNL A   1      38.146  23.470  26.275  1.00  0.00     0.221 C 
ATOM      5  H   UNL A   1      38.304  21.465  26.621  1.00  0.00     0.163 HD
BRANCH   4   6
ATOM      6  C   UNL A   1      36.645  23.307  26.231  1.00  0.00     0.121 C 
BRANCH   6   7
ATOM      7  C   UNL A   1      36.157  23.230  24.792  1.00  0.00     0.125 C 
BRANCH   7   8
ATOM      8  N   UNL A   1      35.482  21.968  24.500  1.00  0.00    -0.355 N 
ATOM      9  C   UNL A   1      34.174  21.594  24.567  1.00  0.00     0.224 C 
ATOM     10  H   UNL A   1      36.087  21.252  24.199  1.00  0.00     0.163 HD
ATOM     11  O   UNL A   1      33.914  20.421  24.290  1.00  0.00    -0.275 OA
BRANCH   9  12
ATOM     12  C   UNL A   1      33.072  22.564  24.970  1.00  0.00     0.093 C 
ATOM     13  C   UNL A   1      33.081  22.823  26.473  1.00  0.00     0.016 C 
ATOM     14  C   UNL A   1      33.101  23.793  24.057  1.00  0.00     0.116 C 
ATOM     15  C   UNL A   1      32.144  23.964  26.814  1.00  0.00     0.018 C 
ATOM     16  N   UNL A   1      32.467  25.044  24.601  1.00  0.00    -0.197 NA
ATOM     17  C   UNL A   1      32.576  25.216  26.074  1.00  0.00     0.102 C 
BRANCH  16  18
ATOM     18  S   UNL A   1      33.016  26.421  23.700  1.00  0.00     0.243 S 
ATOM     19  O   UNL A   1      33.870  27.196  24.576  1.00  0.00    -0.207 OA
ATOM     20  O   UNL A   1      33.508  25.944  22.424  1.00  0.00    -0.207 OA
BRANCH  18  21
ATOM     21  C   UNL A   1      31.550  27.375  23.385  1.00  0.00     0.082 A 
ATOM     22  C   UNL A   1      31.647  28.592  22.700  1.00  0.00     0.023 A 
ATOM     23  C   UNL A   1      30.297  26.840  23.706  1.00  0.00     0.023 A 
ATOM     24  C   UNL A   1      30.487  29.305  22.390  1.00  0.00     0.022 A 
ATOM     25  C   UNL A   1      29.140  27.546  23.370  1.00  0.00     0.022 A 
ATOM     26  C   UNL A   1      29.239  28.778  22.724  1.00  0.00     0.041 A 
ATOM     27  Cl  UNL A   1      27.811  29.647  22.314  1.00  0.00    -0.084 Cl
ENDBRANCH  18  21
ENDBRANCH  16  18
ENDBRANCH   9  12
ENDBRANCH   7   8
ENDBRANCH   6   7
ENDBRANCH   4   6
ENDBRANCH   1   2
BRANCH   1  28
ATOM     28  C   UNL A   1      40.780  21.405  27.696  1.00  0.00     0.023 C 
BRANCH  28  29
ATOM     29  C   UNL A   1      41.337  20.020  27.353  1.00  0.00     0.023 C 
BRANCH  29  30
ATOM     30  C   UNL A   1      41.358  19.665  25.868  1.00  0.00     0.116 C 
BRANCH  30  31
ATOM     31  N   UNL A   1      42.664  19.211  25.424  1.00  0.00    -0.352 N 
ATOM     32  C   UNL A   1      43.816  19.933  25.210  1.00  0.00     0.251 C 
ATOM     33  H   UNL A   1      42.737  18.245  25.250  1.00  0.00     0.163 HD
ATOM     34  O   UNL A   1      44.773  19.388  24.666  1.00  0.00    -0.269 OA
BRANCH  32  35
ATOM     35  C   UNL A   1      43.893  21.360  25.600  1.00  0.00     0.039 A 
ATOM     36  C   UNL A   1      44.316  21.681  26.893  1.00  0.00     0.014 A 
ATOM     37  C   UNL A   1      43.538  22.378  24.711  1.00  0.00     0.014 A 
ATOM     38  C   UNL A   1      44.448  23.021  27.271  1.00  0.00     0.010 A 
ATOM     39  C   UNL A   1      43.730  23.713  25.067  1.00  0.00     0.010 A 
ATOM     40  C   UNL A   1      44.190  24.049  26.351  1.00  0.00    -0.014 A 
BRANCH  40  41
ATOM     41  C   UNL A   1      44.401  25.477  26.709  1.00  0.00     0.031 A 
ATOM     42  C   UNL A   1      45.774  26.088  26.617  1.00  0.00     0.074 A 
ATOM     43  C   UNL A   1      43.369  26.206  27.181  1.00  0.00     0.049 A 
ATOM     44  N   UNL A   1      46.175  27.283  26.970  1.00  0.00    -0.248 NA
ATOM     45  C   UNL A   1      46.839  25.227  26.083  1.00  0.00     0.031 C 
ATOM     46  C   UNL A   1      41.999  25.718  27.352  1.00  0.00     0.029 A 
ATOM     47  N   UNL A   1      43.315  27.507  27.617  1.00  0.00    -0.354 N 
ATOM     48  C   UNL A   1      47.541  27.316  26.711  1.00  0.00     0.074 A 
ATOM     49  C   UNL A   1      47.905  26.001  26.225  1.00  0.00     0.031 C 
ATOM     50  C   UNL A   1      41.239  26.709  27.845  1.00  0.00     0.029 A 
ATOM     51  C   UNL A   1      42.071  27.887  28.066  1.00  0.00     0.049 A 
ATOM     52  H   UNL A   1      44.092  28.111  27.610  1.00  0.00     0.167 HD
ATOM     53  C   UNL A   1      48.408  28.351  26.848  1.00  0.00     0.034 A 
ATOM     54  C   UNL A   1      41.651  29.047  28.610  1.00  0.00     0.034 A 
ATOM     55  C   UNL A   1      48.030  29.659  27.329  1.00  0.00     0.049 A 
ATOM     56  C   UNL A   1      42.634  30.178  28.772  1.00  0.00     0.074 A 
ATOM     57  C   UNL A   1      48.816  30.791  27.462  1.00  0.00     0.029 A 
ATOM     58  N   UNL A   1      46.758  30.010  27.763  1.00  0.00    -0.354 N 
ATOM     59  N   UNL A   1      43.915  30.205  28.483  1.00  0.00    -0.248 NA
ATOM     60  C   UNL A   1      42.113  31.435  29.322  1.00  0.00     0.031 C 
ATOM     61  C   UNL A   1      48.038  31.806  28.030  1.00  0.00     0.029 A 
ATOM     62  C   UNL A   1      46.745  31.331  28.188  1.00  0.00     0.049 A 
ATOM     63  H   UNL A   1      45.978  29.410  27.769  1.00  0.00     0.167 HD
ATOM     64  C   UNL A   1      44.344  31.494  28.791  1.00  0.00     0.074 A 
ATOM     65  C   UNL A   1      43.183  32.214  29.274  1.00  0.00     0.031 C 
ATOM     66  C   UNL A   1      45.584  32.034  28.681  1.00  0.00     0.034 A 
BRANCH  53  67
ATOM     67  C   UNL A   1      49.853  28.094  26.496  1.00  0.00     0.023 A 
ATOM     68  C   UNL A   1      50.328  28.238  25.180  1.00  0.00     0.031 A 
ATOM     69  C   UNL A   1      50.764  27.671  27.480  1.00  0.00     0.131 A 
ATOM     70  C   UNL A   1      51.650  27.886  24.868  1.00  0.00     0.055 A 
ATOM     71  C   UNL A   1      52.101  27.399  27.179  1.00  0.00     0.041 A 
ATOM     72  F   UNL A   1      50.366  27.498  28.751  1.00  0.00    -0.206 F 
ATOM     73  C   UNL A   1      52.546  27.490  25.863  1.00  0.00     0.022 A 
BRANCH  70  74
ATOM     74  S   UNL A   1      52.138  27.815  23.123  1.00  0.00     0.124 S 
ATOM     75  O   UNL A   1      50.927  27.287  22.499  1.00  0.00    -0.237 OA
ATOM     76  O   UNL A   1      52.456  29.207  22.827  1.00  0.00    -0.237 OA
ATOM     77  O   UNL A   1      53.278  26.900  23.123  1.00  0.00    -0.744 OA
ENDBRANCH  70  74
ENDBRANCH  53  67
BRANCH  54  78
ATOM     78  C   UNL A   1      40.239  29.198  29.061  1.00  0.00     0.023 A 
ATOM     79  C   UNL A   1      39.896  29.084  30.418  1.00  0.00     0.031 A 
ATOM     80  C   UNL A   1      39.205  29.422  28.135  1.00  0.00     0.131 A 
ATOM     81  C   UNL A   1      38.549  29.150  30.806  1.00  0.00     0.055 A 
ATOM     82  C   UNL A   1      37.871  29.535  28.531  1.00  0.00     0.041 A 
ATOM     83  F   UNL A   1      39.479  29.545  26.826  1.00  0.00    -0.206 F 
ATOM     84  C   UNL A   1      37.536  29.386  29.874  1.00  0.00     0.022 A 
BRANCH  81  85
ATOM     85  S   UNL A   1      38.130  28.844  32.545  1.00  0.00     0.124 S 
ATOM     86  O   UNL A   1      36.717  29.202  32.577  1.00  0.00    -0.237 OA
ATOM     87  O   UNL A   1      38.438  27.425  32.685  1.00  0.00    -0.237 OA
ATOM     88  O   UNL A   1      39.020  29.747  33.272  1.00  0.00    -0.744 OA
ENDBRANCH  81  85
ENDBRANCH  54  78
BRANCH  66  89
ATOM     89  C   UNL A   1      45.731  33.490  29.050  1.00  0.00     0.023 A 
ATOM     90  C   UNL A   1      45.540  34.515  28.108  1.00  0.00     0.031 A 
ATOM     91  C   UNL A   1      46.084  33.852  30.362  1.00  0.00     0.131 A 
ATOM     92  C   UNL A   1      45.755  35.852  28.477  1.00  0.00     0.055 A 
ATOM     93  C   UNL A   1      46.242  35.187  30.738  1.00  0.00     0.041 A 
ATOM     94  F   UNL A   1      46.281  32.913  31.301  1.00  0.00    -0.206 F 
ATOM     95  C   UNL A   1      46.090  36.195  29.790  1.00  0.00     0.022 A 
BRANCH  92  96
ATOM     96  S   UNL A   1      45.672  37.135  27.197  1.00  0.00     0.124 S 
ATOM     97  O   UNL A   1      44.234  37.252  26.977  1.00  0.00    -0.237 OA
ATOM     98  O   UNL A   1      46.311  38.272  27.851  1.00  0.00    -0.237 OA
ATOM     99  O   UNL A   1      46.424  36.558  26.083  1.00  0.00    -0.744 OA
ENDBRANCH  92  96
ENDBRANCH  66  89
ENDBRANCH  40  41
ENDBRANCH  32  35
ENDBRANCH  30  31
ENDBRANCH  29  30
ENDBRANCH  28  29
ENDBRANCH   1  28
TORSDOF 19
ENDMDL
