MODEL 1
REMARK VINA RESULT:     -13.7      0.000      0.000
REMARK SMILES O=C(NCCCCNC(=O)c1cc(N2C(=O)[C@H]3[C@@H]4C=C[C@@H]([C@@H]5C[C@H]45)[C@@H]3C2=O)ccc1Cl)c1ccc(-c2c3nc(c(-c4cc(S(=O)(=O)[O-])ccc4F)c4ccc([nH]4)c(-c4cc(S(=O)(=O)[O-])ccc4F)c4nc(c(-c5cc(S(=O)(=O)[O-])ccc5F)c5ccc2[nH]5)C=C4)C=C3)cc1
REMARK SMILES IDX 4 1 3 2 1 3 2 4 32 6 33 7 94 8 34 9 93 10 35 11 36 12 37 13
REMARK SMILES IDX 87 14 38 15 92 16 86 17 88 18 39 19 91 20 85 21 84 22 40 24
REMARK SMILES IDX 72 25 52 26 71 27 53 28 56 29 70 30 89 31 54 32 55 33 69 35
REMARK SMILES IDX 90 36 57 37 41 38 42 39 50 40 43 41 49 42 51 43 48 44 44 45
REMARK SMILES IDX 45 46 46 47 47 48 73 49 74 50 82 51 75 52 81 53 83 54 80 55
REMARK SMILES IDX 76 56 77 57 78 58 79 59 58 60 59 61 67 62 60 63 66 64 68 65
REMARK SMILES IDX 65 66 61 67 62 68 63 69 64 70 5 71 6 72 7 73 8 74 9 75 10 77
REMARK SMILES IDX 11 78 12 79 30 80 13 81 29 82 31 83 28 84 14 85 15 86 26 87
REMARK SMILES IDX 16 88 17 89 25 90 27 91 18 92 21 93 19 94 24 95 20 96 22 97
REMARK SMILES IDX 23 98
REMARK H PARENT 3 5 88 23 56 34 8 76
REMARK Flexibility Score: inf
ROOT
ATOM      1  C   UNL A   1      32.684  32.859  27.055  1.00  0.00     0.116 C 
ENDROOT
BRANCH   1   2
ATOM      2  N   UNL A   1      32.490  34.153  27.697  1.00  0.00    -0.352 N 
ATOM      3  O   UNL A   1      32.799  35.750  29.269  1.00  0.00    -0.269 OA
ATOM      4  C   UNL A   1      33.168  34.692  28.770  1.00  0.00     0.251 C 
ATOM      5  H   UNL A   1      31.780  34.716  27.314  1.00  0.00     0.163 HD
BRANCH   4   6
ATOM      6  C   UNL A   1      34.328  33.961  29.325  1.00  0.00     0.039 A 
ATOM      7  C   UNL A   1      34.117  32.872  30.170  1.00  0.00     0.014 A 
ATOM      8  C   UNL A   1      35.626  34.399  29.053  1.00  0.00     0.014 A 
ATOM      9  C   UNL A   1      35.180  32.351  30.891  1.00  0.00     0.010 A 
ATOM     10  C   UNL A   1      36.712  33.782  29.685  1.00  0.00     0.010 A 
ATOM     11  C   UNL A   1      36.495  32.773  30.636  1.00  0.00    -0.014 A 
BRANCH  11  12
ATOM     12  C   UNL A   1      37.609  32.063  31.322  1.00  0.00     0.031 A 
ATOM     13  C   UNL A   1      38.363  30.941  30.664  1.00  0.00     0.074 A 
ATOM     14  C   UNL A   1      37.977  32.507  32.543  1.00  0.00     0.049 A 
ATOM     15  N   UNL A   1      39.384  30.261  31.120  1.00  0.00    -0.248 NA
ATOM     16  C   UNL A   1      37.913  30.519  29.329  1.00  0.00     0.031 C 
ATOM     17  C   UNL A   1      37.308  33.588  33.277  1.00  0.00     0.029 A 
ATOM     18  N   UNL A   1      39.009  32.144  33.365  1.00  0.00    -0.354 N 
ATOM     19  C   UNL A   1      39.700  29.330  30.137  1.00  0.00     0.074 A 
ATOM     20  C   UNL A   1      38.734  29.507  29.073  1.00  0.00     0.031 C 
ATOM     21  C   UNL A   1      37.990  33.846  34.400  1.00  0.00     0.029 A 
ATOM     22  C   UNL A   1      39.078  32.888  34.522  1.00  0.00     0.049 A 
ATOM     23  H   UNL A   1      39.641  31.419  33.151  1.00  0.00     0.167 HD
ATOM     24  C   UNL A   1      40.709  28.422  30.124  1.00  0.00     0.034 A 
ATOM     25  C   UNL A   1      39.903  32.793  35.581  1.00  0.00     0.034 A 
ATOM     26  C   UNL A   1      41.661  28.259  31.201  1.00  0.00     0.049 A 
ATOM     27  C   UNL A   1      40.975  31.738  35.557  1.00  0.00     0.074 A 
ATOM     28  C   UNL A   1      42.724  27.376  31.284  1.00  0.00     0.029 A 
ATOM     29  N   UNL A   1      41.664  28.990  32.383  1.00  0.00    -0.354 N 
ATOM     30  N   UNL A   1      41.263  30.874  34.611  1.00  0.00    -0.248 NA
ATOM     31  C   UNL A   1      41.838  31.651  36.740  1.00  0.00     0.031 C 
ATOM     32  C   UNL A   1      43.322  27.520  32.541  1.00  0.00     0.029 A 
ATOM     33  C   UNL A   1      42.690  28.554  33.212  1.00  0.00     0.049 A 
ATOM     34  H   UNL A   1      41.031  29.711  32.602  1.00  0.00     0.167 HD
ATOM     35  C   UNL A   1      42.353  30.151  35.083  1.00  0.00     0.074 A 
ATOM     36  C   UNL A   1      42.695  30.712  36.374  1.00  0.00     0.031 C 
ATOM     37  C   UNL A   1      43.007  29.110  34.506  1.00  0.00     0.034 A 
BRANCH  24  38
ATOM     38  C   UNL A   1      40.820  27.507  28.926  1.00  0.00     0.023 A 
ATOM     39  C   UNL A   1      41.783  27.711  27.923  1.00  0.00     0.031 A 
ATOM     40  C   UNL A   1      39.966  26.395  28.799  1.00  0.00     0.131 A 
ATOM     41  C   UNL A   1      41.840  26.847  26.817  1.00  0.00     0.055 A 
ATOM     42  C   UNL A   1      40.076  25.499  27.733  1.00  0.00     0.041 A 
ATOM     43  F   UNL A   1      39.013  26.157  29.714  1.00  0.00    -0.206 F 
ATOM     44  C   UNL A   1      41.010  25.727  26.729  1.00  0.00     0.022 A 
BRANCH  41  45
ATOM     45  S   UNL A   1      42.941  27.270  25.439  1.00  0.00     0.124 S 
ATOM     46  O   UNL A   1      43.003  26.005  24.711  1.00  0.00    -0.237 OA
ATOM     47  O   UNL A   1      42.221  28.352  24.780  1.00  0.00    -0.237 OA
ATOM     48  O   UNL A   1      44.184  27.660  26.100  1.00  0.00    -0.744 OA
ENDBRANCH  41  45
ENDBRANCH  24  38
BRANCH  25  49
ATOM     49  C   UNL A   1      39.714  33.673  36.770  1.00  0.00     0.023 A 
ATOM     50  C   UNL A   1      39.136  33.186  37.951  1.00  0.00     0.031 A 
ATOM     51  C   UNL A   1      40.052  35.039  36.718  1.00  0.00     0.131 A 
ATOM     52  C   UNL A   1      38.852  34.068  39.004  1.00  0.00     0.055 A 
ATOM     53  C   UNL A   1      39.838  35.896  37.797  1.00  0.00     0.041 A 
ATOM     54  F   UNL A   1      40.606  35.562  35.613  1.00  0.00    -0.206 F 
ATOM     55  C   UNL A   1      39.215  35.415  38.943  1.00  0.00     0.022 A 
BRANCH  52  56
ATOM     56  S   UNL A   1      37.872  33.457  40.403  1.00  0.00     0.124 S 
ATOM     57  O   UNL A   1      36.675  32.963  39.732  1.00  0.00    -0.237 OA
ATOM     58  O   UNL A   1      38.755  32.443  40.969  1.00  0.00    -0.237 OA
ATOM     59  O   UNL A   1      37.680  34.647  41.228  1.00  0.00    -0.744 OA
ENDBRANCH  52  56
ENDBRANCH  25  49
BRANCH  37  60
ATOM     60  C   UNL A   1      44.180  28.545  35.274  1.00  0.00     0.023 A 
ATOM     61  C   UNL A   1      44.020  27.486  36.184  1.00  0.00     0.031 A 
ATOM     62  C   UNL A   1      45.459  29.109  35.134  1.00  0.00     0.131 A 
ATOM     63  C   UNL A   1      45.101  27.082  36.983  1.00  0.00     0.055 A 
ATOM     64  C   UNL A   1      46.549  28.651  35.876  1.00  0.00     0.041 A 
ATOM     65  F   UNL A   1      45.671  30.126  34.283  1.00  0.00    -0.206 F 
ATOM     66  C   UNL A   1      46.369  27.645  36.821  1.00  0.00     0.022 A 
BRANCH  63  67
ATOM     67  S   UNL A   1      44.792  25.907  38.330  1.00  0.00     0.124 S 
ATOM     68  O   UNL A   1      46.145  25.508  38.699  1.00  0.00    -0.237 OA
ATOM     69  O   UNL A   1      44.082  26.731  39.304  1.00  0.00    -0.237 OA
ATOM     70  O   UNL A   1      43.987  24.864  37.696  1.00  0.00    -0.744 OA
ENDBRANCH  63  67
ENDBRANCH  37  60
ENDBRANCH  11  12
ENDBRANCH   4   6
ENDBRANCH   1   2
BRANCH   1  71
ATOM     71  C   UNL A   1      31.383  32.181  26.656  1.00  0.00     0.023 C 
BRANCH  71  72
ATOM     72  C   UNL A   1      31.387  30.661  26.760  1.00  0.00     0.023 C 
BRANCH  72  73
ATOM     73  C   UNL A   1      31.770  29.929  25.480  1.00  0.00     0.116 C 
BRANCH  73  74
ATOM     74  N   UNL A   1      30.927  30.285  24.351  1.00  0.00    -0.352 N 
ATOM     75  C   UNL A   1      30.259  29.459  23.487  1.00  0.00     0.252 C 
ATOM     76  H   UNL A   1      30.822  31.249  24.185  1.00  0.00     0.163 HD
ATOM     77  O   UNL A   1      29.608  29.909  22.550  1.00  0.00    -0.269 OA
BRANCH  75  78
ATOM     78  C   UNL A   1      30.372  28.002  23.634  1.00  0.00     0.060 A 
ATOM     79  C   UNL A   1      31.673  27.478  23.694  1.00  0.00     0.042 A 
ATOM     80  C   UNL A   1      29.256  27.158  23.674  1.00  0.00     0.053 A 
ATOM     81  C   UNL A   1      31.855  26.100  23.773  1.00  0.00     0.053 A 
ATOM     82  C   UNL A   1      29.444  25.785  23.826  1.00  0.00     0.023 A 
ATOM     83  Cl  UNL A   1      27.633  27.725  23.527  1.00  0.00    -0.083 Cl
ATOM     84  C   UNL A   1      30.735  25.258  23.852  1.00  0.00     0.028 A 
BRANCH  81  85
ATOM     85  N   UNL A   1      33.141  25.541  23.884  1.00  0.00    -0.250 N 
ATOM     86  C   UNL A   1      33.757  25.343  25.133  1.00  0.00     0.238 C 
ATOM     87  C   UNL A   1      33.713  24.738  22.875  1.00  0.00     0.238 C 
ATOM     88  O   UNL A   1      33.395  25.679  26.247  1.00  0.00    -0.274 OA
ATOM     89  C   UNL A   1      34.979  24.550  24.804  1.00  0.00     0.100 C 
ATOM     90  C   UNL A   1      34.399  23.694  23.676  1.00  0.00     0.100 C 
ATOM     91  O   UNL A   1      33.523  24.730  21.673  1.00  0.00    -0.274 OA
ATOM     92  C   UNL A   1      35.838  23.661  25.719  1.00  0.00     0.028 C 
ATOM     93  C   UNL A   1      35.307  22.503  23.420  1.00  0.00     0.028 C 
ATOM     94  C   UNL A   1      37.072  23.452  24.804  1.00  0.00    -0.026 C 
ATOM     95  C   UNL A   1      35.300  22.237  25.958  1.00  0.00     0.001 C 
ATOM     96  C   UNL A   1      36.778  22.909  23.599  1.00  0.00    -0.026 C 
ATOM     97  C   UNL A   1      34.994  21.537  24.624  1.00  0.00     0.001 C 
ATOM     98  C   UNL A   1      33.916  21.715  25.699  1.00  0.00     0.009 C 
ENDBRANCH  81  85
ENDBRANCH  75  78
ENDBRANCH  73  74
ENDBRANCH  72  73
ENDBRANCH  71  72
ENDBRANCH   1  71
TORSDOF 15
ENDMDL
MODEL 2
REMARK VINA RESULT:     -13.6      0.909      1.797
REMARK SMILES O=C(NCCCCNC(=O)c1cc(N2C(=O)[C@H]3[C@@H]4C=C[C@@H]([C@@H]5C[C@H]45)[C@@H]3C2=O)ccc1Cl)c1ccc(-c2c3nc(c(-c4cc(S(=O)(=O)[O-])ccc4F)c4ccc([nH]4)c(-c4cc(S(=O)(=O)[O-])ccc4F)c4nc(c(-c5cc(S(=O)(=O)[O-])ccc5F)c5ccc2[nH]5)C=C4)C=C3)cc1
REMARK SMILES IDX 4 1 3 2 1 3 2 4 32 6 33 7 94 8 34 9 93 10 35 11 36 12 37 13
REMARK SMILES IDX 87 14 38 15 92 16 86 17 88 18 39 19 91 20 85 21 84 22 40 24
REMARK SMILES IDX 72 25 52 26 71 27 53 28 56 29 70 30 89 31 54 32 55 33 69 35
REMARK SMILES IDX 90 36 57 37 41 38 42 39 50 40 43 41 49 42 51 43 48 44 44 45
REMARK SMILES IDX 45 46 46 47 47 48 73 49 74 50 82 51 75 52 81 53 83 54 80 55
REMARK SMILES IDX 76 56 77 57 78 58 79 59 58 60 59 61 67 62 60 63 66 64 68 65
REMARK SMILES IDX 65 66 61 67 62 68 63 69 64 70 5 71 6 72 7 73 8 74 9 75 10 77
REMARK SMILES IDX 11 78 12 79 30 80 13 81 29 82 31 83 28 84 14 85 15 86 26 87
REMARK SMILES IDX 16 88 17 89 25 90 27 91 18 92 21 93 19 94 24 95 20 96 22 97
REMARK SMILES IDX 23 98
REMARK H PARENT 3 5 88 23 56 34 8 76
REMARK Flexibility Score: inf
ROOT
ATOM      1  C   UNL A   1      32.717  32.467  27.337  1.00  0.00     0.116 C 
ENDROOT
BRANCH   1   2
ATOM      2  N   UNL A   1      32.596  33.890  27.626  1.00  0.00    -0.352 N 
ATOM      3  O   UNL A   1      32.964  35.809  28.766  1.00  0.00    -0.269 OA
ATOM      4  C   UNL A   1      33.272  34.639  28.566  1.00  0.00     0.251 C 
ATOM      5  H   UNL A   1      31.945  34.383  27.076  1.00  0.00     0.163 HD
BRANCH   4   6
ATOM      6  C   UNL A   1      34.352  34.000  29.349  1.00  0.00     0.039 A 
ATOM      7  C   UNL A   1      35.682  34.205  28.986  1.00  0.00     0.014 A 
ATOM      8  C   UNL A   1      34.036  33.147  30.409  1.00  0.00     0.014 A 
ATOM      9  C   UNL A   1      36.673  33.414  29.546  1.00  0.00     0.010 A 
ATOM     10  C   UNL A   1      35.056  32.446  31.062  1.00  0.00     0.010 A 
ATOM     11  C   UNL A   1      36.382  32.549  30.614  1.00  0.00    -0.014 A 
BRANCH  11  12
ATOM     12  C   UNL A   1      37.513  31.849  31.281  1.00  0.00     0.031 A 
ATOM     13  C   UNL A   1      38.282  30.751  30.600  1.00  0.00     0.074 A 
ATOM     14  C   UNL A   1      37.881  32.279  32.506  1.00  0.00     0.049 A 
ATOM     15  N   UNL A   1      39.318  30.082  31.038  1.00  0.00    -0.248 NA
ATOM     16  C   UNL A   1      37.831  30.342  29.262  1.00  0.00     0.031 C 
ATOM     17  C   UNL A   1      37.199  33.336  33.263  1.00  0.00     0.029 A 
ATOM     18  N   UNL A   1      38.925  31.921  33.316  1.00  0.00    -0.354 N 
ATOM     19  C   UNL A   1      39.644  29.173  30.038  1.00  0.00     0.074 A 
ATOM     20  C   UNL A   1      38.668  29.349  28.984  1.00  0.00     0.031 C 
ATOM     21  C   UNL A   1      37.883  33.588  34.385  1.00  0.00     0.029 A 
ATOM     22  C   UNL A   1      38.989  32.648  34.484  1.00  0.00     0.049 A 
ATOM     23  H   UNL A   1      39.569  31.212  33.086  1.00  0.00     0.167 HD
ATOM     24  C   UNL A   1      40.669  28.283  30.003  1.00  0.00     0.034 A 
ATOM     25  C   UNL A   1      39.824  32.550  35.536  1.00  0.00     0.034 A 
ATOM     26  C   UNL A   1      41.631  28.120  31.071  1.00  0.00     0.049 A 
ATOM     27  C   UNL A   1      40.914  31.515  35.488  1.00  0.00     0.074 A 
ATOM     28  C   UNL A   1      42.711  27.255  31.133  1.00  0.00     0.029 A 
ATOM     29  N   UNL A   1      41.630  28.832  32.265  1.00  0.00    -0.354 N 
ATOM     30  N   UNL A   1      41.210  30.672  34.526  1.00  0.00    -0.248 NA
ATOM     31  C   UNL A   1      41.787  31.425  36.664  1.00  0.00     0.031 C 
ATOM     32  C   UNL A   1      43.314  27.390  32.388  1.00  0.00     0.029 A 
ATOM     33  C   UNL A   1      42.669  28.401  33.080  1.00  0.00     0.049 A 
ATOM     34  H   UNL A   1      40.986  29.538  32.499  1.00  0.00     0.167 HD
ATOM     35  C   UNL A   1      42.316  29.961  34.979  1.00  0.00     0.074 A 
ATOM     36  C   UNL A   1      42.657  30.508  36.276  1.00  0.00     0.031 C 
ATOM     37  C   UNL A   1      42.985  28.942  34.381  1.00  0.00     0.034 A 
BRANCH  24  38
ATOM     38  C   UNL A   1      40.789  27.390  28.790  1.00  0.00     0.023 A 
ATOM     39  C   UNL A   1      41.777  27.594  27.813  1.00  0.00     0.031 A 
ATOM     40  C   UNL A   1      39.916  26.298  28.622  1.00  0.00     0.131 A 
ATOM     41  C   UNL A   1      41.841  26.751  26.691  1.00  0.00     0.055 A 
ATOM     42  C   UNL A   1      40.030  25.421  27.542  1.00  0.00     0.041 A 
ATOM     43  F   UNL A   1      38.938  26.062  29.511  1.00  0.00    -0.206 F 
ATOM     44  C   UNL A   1      40.991  25.650  26.563  1.00  0.00     0.022 A 
BRANCH  41  45
ATOM     45  S   UNL A   1      42.980  27.178  25.345  1.00  0.00     0.124 S 
ATOM     46  O   UNL A   1      44.161  27.616  26.086  1.00  0.00    -0.237 OA
ATOM     47  O   UNL A   1      43.107  25.918  24.626  1.00  0.00    -0.237 OA
ATOM     48  O   UNL A   1      42.278  28.239  24.626  1.00  0.00    -0.744 OA
ENDBRANCH  41  45
ENDBRANCH  24  38
BRANCH  25  49
ATOM     49  C   UNL A   1      39.626  33.407  36.740  1.00  0.00     0.023 A 
ATOM     50  C   UNL A   1      39.028  32.902  37.904  1.00  0.00     0.031 A 
ATOM     51  C   UNL A   1      39.978  34.771  36.721  1.00  0.00     0.131 A 
ATOM     52  C   UNL A   1      38.738  33.765  38.971  1.00  0.00     0.055 A 
ATOM     53  C   UNL A   1      39.759  35.608  37.816  1.00  0.00     0.041 A 
ATOM     54  F   UNL A   1      40.553  35.311  35.635  1.00  0.00    -0.206 F 
ATOM     55  C   UNL A   1      39.116  35.110  38.943  1.00  0.00     0.022 A 
BRANCH  52  56
ATOM     56  S   UNL A   1      37.734  33.135  40.343  1.00  0.00     0.124 S 
ATOM     57  O   UNL A   1      38.520  31.988  40.782  1.00  0.00    -0.237 OA
ATOM     58  O   UNL A   1      37.707  34.278  41.248  1.00  0.00    -0.237 OA
ATOM     59  O   UNL A   1      36.458  32.812  39.709  1.00  0.00    -0.744 OA
ENDBRANCH  52  56
ENDBRANCH  25  49
BRANCH  37  60
ATOM     60  C   UNL A   1      44.173  28.386  35.131  1.00  0.00     0.023 A 
ATOM     61  C   UNL A   1      44.025  27.370  36.093  1.00  0.00     0.031 A 
ATOM     62  C   UNL A   1      45.458  28.916  34.922  1.00  0.00     0.131 A 
ATOM     63  C   UNL A   1      45.125  26.979  36.870  1.00  0.00     0.055 A 
ATOM     64  C   UNL A   1      46.563  28.467  35.645  1.00  0.00     0.041 A 
ATOM     65  F   UNL A   1      45.659  29.890  34.021  1.00  0.00    -0.206 F 
ATOM     66  C   UNL A   1      46.398  27.507  36.640  1.00  0.00     0.022 A 
BRANCH  63  67
ATOM     67  S   UNL A   1      44.842  25.871  38.278  1.00  0.00     0.124 S 
ATOM     68  O   UNL A   1      44.031  26.703  39.160  1.00  0.00    -0.237 OA
ATOM     69  O   UNL A   1      44.153  24.745  37.653  1.00  0.00    -0.237 OA
ATOM     70  O   UNL A   1      46.190  25.581  38.762  1.00  0.00    -0.744 OA
ENDBRANCH  63  67
ENDBRANCH  37  60
ENDBRANCH  11  12
ENDBRANCH   4   6
ENDBRANCH   1   2
BRANCH   1  71
ATOM     71  C   UNL A   1      31.571  31.921  26.501  1.00  0.00     0.023 C 
BRANCH  71  72
ATOM     72  C   UNL A   1      31.459  30.402  26.470  1.00  0.00     0.023 C 
BRANCH  72  73
ATOM     73  C   UNL A   1      32.772  29.664  26.234  1.00  0.00     0.116 C 
BRANCH  73  74
ATOM     74  N   UNL A   1      33.235  29.760  24.859  1.00  0.00    -0.352 N 
ATOM     75  C   UNL A   1      32.827  29.043  23.767  1.00  0.00     0.252 C 
ATOM     76  H   UNL A   1      33.934  30.430  24.692  1.00  0.00     0.163 HD
ATOM     77  O   UNL A   1      33.340  29.212  22.665  1.00  0.00    -0.269 OA
BRANCH  75  78
ATOM     78  C   UNL A   1      31.805  27.999  23.917  1.00  0.00     0.060 A 
ATOM     79  C   UNL A   1      32.265  26.716  24.249  1.00  0.00     0.042 A 
ATOM     80  C   UNL A   1      30.443  28.240  23.706  1.00  0.00     0.053 A 
ATOM     81  C   UNL A   1      31.357  25.664  24.348  1.00  0.00     0.053 A 
ATOM     82  C   UNL A   1      29.530  27.200  23.878  1.00  0.00     0.023 A 
ATOM     83  Cl  UNL A   1      29.815  29.773  23.221  1.00  0.00    -0.083 Cl
ATOM     84  C   UNL A   1      29.987  25.916  24.175  1.00  0.00     0.028 A 
BRANCH  81  85
ATOM     85  N   UNL A   1      31.773  24.375  24.726  1.00  0.00    -0.250 N 
ATOM     86  C   UNL A   1      32.407  23.507  23.818  1.00  0.00     0.238 C 
ATOM     87  C   UNL A   1      32.019  24.015  26.067  1.00  0.00     0.238 C 
ATOM     88  O   UNL A   1      32.605  23.633  22.622  1.00  0.00    -0.274 OA
ATOM     89  C   UNL A   1      32.860  22.369  24.673  1.00  0.00     0.100 C 
ATOM     90  C   UNL A   1      33.224  23.160  25.931  1.00  0.00     0.100 C 
ATOM     91  O   UNL A   1      31.546  24.453  27.099  1.00  0.00    -0.274 OA
ATOM     92  C   UNL A   1      33.954  21.323  24.402  1.00  0.00     0.028 C 
ATOM     93  C   UNL A   1      34.099  22.306  26.835  1.00  0.00     0.028 C 
ATOM     94  C   UNL A   1      33.634  20.305  25.527  1.00  0.00    -0.026 C 
ATOM     95  C   UNL A   1      35.396  21.776  24.702  1.00  0.00     0.001 C 
ATOM     96  C   UNL A   1      33.653  20.837  26.772  1.00  0.00    -0.026 C 
ATOM     97  C   UNL A   1      35.505  22.344  26.126  1.00  0.00     0.001 C 
ATOM     98  C   UNL A   1      35.903  23.174  24.902  1.00  0.00     0.009 C 
ENDBRANCH  81  85
ENDBRANCH  75  78
ENDBRANCH  73  74
ENDBRANCH  72  73
ENDBRANCH  71  72
ENDBRANCH   1  71
TORSDOF 15
ENDMDL
MODEL 3
REMARK VINA RESULT:     -13.6      0.998      7.720
REMARK SMILES O=C(NCCCCNC(=O)c1cc(N2C(=O)[C@H]3[C@@H]4C=C[C@@H]([C@@H]5C[C@H]45)[C@@H]3C2=O)ccc1Cl)c1ccc(-c2c3nc(c(-c4cc(S(=O)(=O)[O-])ccc4F)c4ccc([nH]4)c(-c4cc(S(=O)(=O)[O-])ccc4F)c4nc(c(-c5cc(S(=O)(=O)[O-])ccc5F)c5ccc2[nH]5)C=C4)C=C3)cc1
REMARK SMILES IDX 4 1 3 2 1 3 2 4 32 6 33 7 94 8 34 9 93 10 35 11 36 12 37 13
REMARK SMILES IDX 87 14 38 15 92 16 86 17 88 18 39 19 91 20 85 21 84 22 40 24
REMARK SMILES IDX 72 25 52 26 71 27 53 28 56 29 70 30 89 31 54 32 55 33 69 35
REMARK SMILES IDX 90 36 57 37 41 38 42 39 50 40 43 41 49 42 51 43 48 44 44 45
REMARK SMILES IDX 45 46 46 47 47 48 73 49 74 50 82 51 75 52 81 53 83 54 80 55
REMARK SMILES IDX 76 56 77 57 78 58 79 59 58 60 59 61 67 62 60 63 66 64 68 65
REMARK SMILES IDX 65 66 61 67 62 68 63 69 64 70 5 71 6 72 7 73 8 74 9 75 10 77
REMARK SMILES IDX 11 78 12 79 30 80 13 81 29 82 31 83 28 84 14 85 15 86 26 87
REMARK SMILES IDX 16 88 17 89 25 90 27 91 18 92 21 93 19 94 24 95 20 96 22 97
REMARK SMILES IDX 23 98
REMARK H PARENT 3 5 88 23 56 34 8 76
REMARK Flexibility Score: inf
ROOT
ATOM      1  C   UNL A   1      32.853  32.521  27.340  1.00  0.00     0.116 C 
ENDROOT
BRANCH   1   2
ATOM      2  N   UNL A   1      32.546  33.906  27.676  1.00  0.00    -0.352 N 
ATOM      3  O   UNL A   1      32.654  35.815  28.884  1.00  0.00    -0.269 OA
ATOM      4  C   UNL A   1      33.112  34.702  28.648  1.00  0.00     0.251 C 
ATOM      5  H   UNL A   1      31.840  34.329  27.136  1.00  0.00     0.163 HD
BRANCH   4   6
ATOM      6  C   UNL A   1      34.261  34.182  29.422  1.00  0.00     0.039 A 
ATOM      7  C   UNL A   1      35.560  34.477  29.011  1.00  0.00     0.014 A 
ATOM      8  C   UNL A   1      34.043  33.348  30.521  1.00  0.00     0.014 A 
ATOM      9  C   UNL A   1      36.626  33.790  29.570  1.00  0.00     0.010 A 
ATOM     10  C   UNL A   1      35.134  32.756  31.168  1.00  0.00     0.010 A 
ATOM     11  C   UNL A   1      36.434  32.946  30.677  1.00  0.00    -0.014 A 
BRANCH  11  12
ATOM     12  C   UNL A   1      37.635  32.364  31.335  1.00  0.00     0.031 A 
ATOM     13  C   UNL A   1      38.117  32.841  32.678  1.00  0.00     0.074 A 
ATOM     14  C   UNL A   1      38.249  31.331  30.720  1.00  0.00     0.049 A 
ATOM     15  N   UNL A   1      39.119  32.398  33.394  1.00  0.00    -0.248 NA
ATOM     16  C   UNL A   1      37.392  33.962  33.294  1.00  0.00     0.031 C 
ATOM     17  C   UNL A   1      37.866  30.790  29.409  1.00  0.00     0.029 A 
ATOM     18  N   UNL A   1      39.287  30.530  31.112  1.00  0.00    -0.354 N 
ATOM     19  C   UNL A   1      39.151  33.183  34.542  1.00  0.00     0.074 A 
ATOM     20  C   UNL A   1      38.089  34.158  34.406  1.00  0.00     0.031 C 
ATOM     21  C   UNL A   1      38.607  29.707  29.145  1.00  0.00     0.029 A 
ATOM     22  C   UNL A   1      39.584  29.534  30.209  1.00  0.00     0.049 A 
ATOM     23  H   UNL A   1      39.774  30.653  31.960  1.00  0.00     0.167 HD
ATOM     24  C   UNL A   1      39.984  33.088  35.609  1.00  0.00     0.034 A 
ATOM     25  C   UNL A   1      40.556  28.603  30.216  1.00  0.00     0.034 A 
ATOM     26  C   UNL A   1      41.042  32.107  35.721  1.00  0.00     0.049 A 
ATOM     27  C   UNL A   1      41.497  28.561  31.389  1.00  0.00     0.074 A 
ATOM     28  C   UNL A   1      41.936  31.920  36.762  1.00  0.00     0.029 A 
ATOM     29  N   UNL A   1      41.353  31.153  34.760  1.00  0.00    -0.354 N 
ATOM     30  N   UNL A   1      41.503  29.308  32.469  1.00  0.00    -0.248 NA
ATOM     31  C   UNL A   1      42.557  27.548  31.346  1.00  0.00     0.031 C 
ATOM     32  C   UNL A   1      42.830  30.906  36.400  1.00  0.00     0.029 A 
ATOM     33  C   UNL A   1      42.444  30.398  35.171  1.00  0.00     0.049 A 
ATOM     34  H   UNL A   1      40.871  31.030  33.911  1.00  0.00     0.167 HD
ATOM     35  C   UNL A   1      42.559  28.839  33.242  1.00  0.00     0.074 A 
ATOM     36  C   UNL A   1      43.135  27.721  32.523  1.00  0.00     0.031 C 
ATOM     37  C   UNL A   1      43.020  29.298  34.434  1.00  0.00     0.034 A 
BRANCH  24  38
ATOM     38  C   UNL A   1      39.814  34.088  36.730  1.00  0.00     0.023 A 
ATOM     39  C   UNL A   1      39.350  33.706  38.000  1.00  0.00     0.031 A 
ATOM     40  C   UNL A   1      40.148  35.441  36.532  1.00  0.00     0.131 A 
ATOM     41  C   UNL A   1      39.189  34.672  39.008  1.00  0.00     0.055 A 
ATOM     42  C   UNL A   1      40.054  36.382  37.559  1.00  0.00     0.041 A 
ATOM     43  F   UNL A   1      40.578  35.870  35.335  1.00  0.00    -0.206 F 
ATOM     44  C   UNL A   1      39.563  36.002  38.804  1.00  0.00     0.022 A 
BRANCH  41  45
ATOM     45  S   UNL A   1      38.379  34.185  40.556  1.00  0.00     0.124 S 
ATOM     46  O   UNL A   1      37.272  33.368  40.067  1.00  0.00    -0.237 OA
ATOM     47  O   UNL A   1      39.439  33.473  41.258  1.00  0.00    -0.237 OA
ATOM     48  O   UNL A   1      37.985  35.460  41.152  1.00  0.00    -0.744 OA
ENDBRANCH  41  45
ENDBRANCH  24  38
BRANCH  25  49
ATOM     49  C   UNL A   1      40.728  27.680  29.057  1.00  0.00     0.023 A 
ATOM     50  C   UNL A   1      41.660  27.948  28.044  1.00  0.00     0.031 A 
ATOM     51  C   UNL A   1      39.911  26.541  28.913  1.00  0.00     0.131 A 
ATOM     52  C   UNL A   1      41.707  27.132  26.904  1.00  0.00     0.055 A 
ATOM     53  C   UNL A   1      40.016  25.689  27.814  1.00  0.00     0.041 A 
ATOM     54  F   UNL A   1      39.000  26.235  29.850  1.00  0.00    -0.206 F 
ATOM     55  C   UNL A   1      40.904  25.994  26.790  1.00  0.00     0.022 A 
BRANCH  52  56
ATOM     56  S   UNL A   1      42.735  27.659  25.506  1.00  0.00     0.124 S 
ATOM     57  O   UNL A   1      44.008  27.934  26.163  1.00  0.00    -0.237 OA
ATOM     58  O   UNL A   1      42.700  26.483  24.644  1.00  0.00    -0.237 OA
ATOM     59  O   UNL A   1      42.032  28.831  24.991  1.00  0.00    -0.744 OA
ENDBRANCH  52  56
ENDBRANCH  25  49
BRANCH  37  60
ATOM     60  C   UNL A   1      44.189  28.552  35.035  1.00  0.00     0.023 A 
ATOM     61  C   UNL A   1      43.999  27.512  35.961  1.00  0.00     0.031 A 
ATOM     62  C   UNL A   1      45.507  28.925  34.721  1.00  0.00     0.131 A 
ATOM     63  C   UNL A   1      45.106  26.939  36.605  1.00  0.00     0.055 A 
ATOM     64  C   UNL A   1      46.607  28.297  35.307  1.00  0.00     0.041 A 
ATOM     65  F   UNL A   1      45.750  29.915  33.847  1.00  0.00    -0.206 F 
ATOM     66  C   UNL A   1      46.410  27.312  36.271  1.00  0.00     0.022 A 
BRANCH  63  67
ATOM     67  S   UNL A   1      44.812  25.798  37.984  1.00  0.00     0.124 S 
ATOM     68  O   UNL A   1      46.067  25.886  38.723  1.00  0.00    -0.237 OA
ATOM     69  O   UNL A   1      43.647  26.390  38.635  1.00  0.00    -0.237 OA
ATOM     70  O   UNL A   1      44.568  24.517  37.323  1.00  0.00    -0.744 OA
ENDBRANCH  63  67
ENDBRANCH  37  60
ENDBRANCH  11  12
ENDBRANCH   4   6
ENDBRANCH   1   2
BRANCH   1  71
ATOM     71  C   UNL A   1      31.730  31.817  26.595  1.00  0.00     0.023 C 
BRANCH  71  72
ATOM     72  C   UNL A   1      31.636  30.316  26.835  1.00  0.00     0.023 C 
BRANCH  72  73
ATOM     73  C   UNL A   1      32.911  29.535  26.542  1.00  0.00     0.116 C 
BRANCH  73  74
ATOM     74  N   UNL A   1      33.376  29.704  25.175  1.00  0.00    -0.352 N 
ATOM     75  C   UNL A   1      32.955  29.063  24.042  1.00  0.00     0.252 C 
ATOM     76  H   UNL A   1      34.090  30.370  25.048  1.00  0.00     0.163 HD
ATOM     77  O   UNL A   1      33.471  29.289  22.952  1.00  0.00    -0.269 OA
BRANCH  75  78
ATOM     78  C   UNL A   1      31.911  28.034  24.129  1.00  0.00     0.060 A 
ATOM     79  C   UNL A   1      32.341  26.731  24.424  1.00  0.00     0.042 A 
ATOM     80  C   UNL A   1      30.558  28.307  23.896  1.00  0.00     0.053 A 
ATOM     81  C   UNL A   1      31.412  25.693  24.464  1.00  0.00     0.053 A 
ATOM     82  C   UNL A   1      29.624  27.278  24.008  1.00  0.00     0.023 A 
ATOM     83  Cl  UNL A   1      29.969  29.868  23.453  1.00  0.00    -0.083 Cl
ATOM     84  C   UNL A   1      30.052  25.976  24.268  1.00  0.00     0.028 A 
BRANCH  81  85
ATOM     85  N   UNL A   1      31.797  24.384  24.803  1.00  0.00    -0.250 N 
ATOM     86  C   UNL A   1      32.424  23.533  23.875  1.00  0.00     0.238 C 
ATOM     87  C   UNL A   1      32.019  23.975  26.135  1.00  0.00     0.238 C 
ATOM     88  O   UNL A   1      32.638  23.693  22.685  1.00  0.00    -0.274 OA
ATOM     89  C   UNL A   1      32.842  22.358  24.696  1.00  0.00     0.100 C 
ATOM     90  C   UNL A   1      33.207  23.099  25.984  1.00  0.00     0.100 C 
ATOM     91  O   UNL A   1      31.542  24.389  27.175  1.00  0.00    -0.274 OA
ATOM     92  C   UNL A   1      33.917  21.298  24.404  1.00  0.00     0.028 C 
ATOM     93  C   UNL A   1      34.053  22.198  26.869  1.00  0.00     0.028 C 
ATOM     94  C   UNL A   1      33.562  20.252  25.490  1.00  0.00    -0.026 C 
ATOM     95  C   UNL A   1      35.365  21.710  24.735  1.00  0.00     0.001 C 
ATOM     96  C   UNL A   1      33.577  20.741  26.752  1.00  0.00    -0.026 C 
ATOM     97  C   UNL A   1      35.468  22.229  26.178  1.00  0.00     0.001 C 
ATOM     98  C   UNL A   1      35.898  23.090  24.987  1.00  0.00     0.009 C 
ENDBRANCH  81  85
ENDBRANCH  75  78
ENDBRANCH  73  74
ENDBRANCH  72  73
ENDBRANCH  71  72
ENDBRANCH   1  71
TORSDOF 15
ENDMDL
