MODEL 1
REMARK VINA RESULT:     -12.6      0.000      0.000
REMARK SMILES Cc1ccc(S(=O)(=O)Nc2cc3c(cc2C(=O)NCCCCNC(=O)c2ccc(-c4c5nc(c(-c6cc(S(=O)(=O)[O-])ccc6F)c6ccc([nH]6)c(-c6cc(S(=O)(=O)[O-])ccc6F)c6nc(c(-c7cc(S(=O)(=O)[O-])ccc7F)c7ccc4[nH]7)C=C6)C=C5)cc2)OCCO3)s1
REMARK SMILES IDX 20 1 19 2 18 3 16 4 17 5 15 7 10 8 11 9 12 10 14 11 13 12
REMARK SMILES IDX 92 13 89 14 91 15 90 16 9 17 6 19 7 20 8 21 5 22 1 23 2 24
REMARK SMILES IDX 3 25 93 26 4 27 21 28 22 29 23 30 24 31 25 33 26 34 27 35
REMARK SMILES IDX 88 36 28 37 87 38 29 39 30 40 31 41 81 42 32 43 86 44 80 45
REMARK SMILES IDX 82 46 33 47 85 48 79 49 78 50 34 52 66 53 46 54 65 55 47 56
REMARK SMILES IDX 50 57 64 58 83 59 48 60 49 61 63 63 84 64 51 65 35 66 36 67
REMARK SMILES IDX 44 68 37 69 43 70 45 71 42 72 38 73 39 74 40 75 41 76 67 77
REMARK SMILES IDX 68 78 76 79 69 80 75 81 77 82 74 83 70 84 71 85 72 86 73 87
REMARK SMILES IDX 52 88 53 89 61 90 54 91 60 92 62 93 59 94 55 95 56 96 57 97
REMARK SMILES IDX 58 98
REMARK H PARENT 18 6 9 18 23 32 82 51 50 62
REMARK Flexibility Score: inf
ROOT
ATOM      1  C   UNL A   1      31.807  30.374  26.747  1.00  0.00     0.023 C 
ENDROOT
BRANCH   1   2
ATOM      2  C   UNL A   1      33.216  29.872  26.467  1.00  0.00     0.116 C 
BRANCH   2   3
ATOM      3  N   UNL A   1      33.555  29.715  25.061  1.00  0.00    -0.352 N 
ATOM      4  C   UNL A   1      33.297  28.691  24.176  1.00  0.00     0.253 C 
ATOM      5  O   UNL A   1      33.543  28.866  22.986  1.00  0.00    -0.269 OA
ATOM      6  H   UNL A   1      34.056  30.469  24.676  1.00  0.00     0.163 HD
BRANCH   4   7
ATOM      7  C   UNL A   1      32.764  27.384  24.642  1.00  0.00     0.067 A 
ATOM      8  C   UNL A   1      31.375  27.167  24.753  1.00  0.00     0.066 A 
ATOM      9  C   UNL A   1      30.894  25.892  25.082  1.00  0.00     0.078 A 
ATOM     10  C   UNL A   1      31.789  24.840  25.280  1.00  0.00     0.163 A 
ATOM     11  C   UNL A   1      33.649  26.350  24.969  1.00  0.00     0.066 A 
ATOM     12  C   UNL A   1      33.164  25.072  25.213  1.00  0.00     0.162 A 
ATOM     13  O   UNL A   1      31.252  23.601  25.518  1.00  0.00    -0.486 OA
ATOM     14  O   UNL A   1      34.102  24.080  25.340  1.00  0.00    -0.486 OA
ATOM     15  C   UNL A   1      32.246  22.649  25.924  1.00  0.00     0.271 C 
ATOM     16  C   UNL A   1      33.514  22.798  25.099  1.00  0.00     0.271 C 
BRANCH   8  17
ATOM     17  N   UNL A   1      30.447  28.239  24.549  1.00  0.00    -0.278 N 
ATOM     18  H   UNL A   1      30.341  28.943  25.228  1.00  0.00     0.180 HD
BRANCH  17  19
ATOM     19  S   UNL A   1      29.540  28.277  23.130  1.00  0.00     0.271 S 
ATOM     20  O   UNL A   1      28.354  27.485  23.349  1.00  0.00    -0.200 OA
ATOM     21  O   UNL A   1      30.445  27.956  22.039  1.00  0.00    -0.200 OA
BRANCH  19  22
ATOM     22  C   UNL A   1      29.046  29.955  22.804  1.00  0.00     0.140 A 
ATOM     23  C   UNL A   1      27.665  32.934  20.654  1.00  0.00     0.056 C 
ATOM     24  C   UNL A   1      28.220  31.977  21.655  1.00  0.00     0.003 A 
ATOM     25  C   UNL A   1      28.683  32.254  22.924  1.00  0.00     0.016 A 
ATOM     26  S   UNL A   1      28.341  30.308  21.290  1.00  0.00    -0.127 S 
ATOM     27  C   UNL A   1      29.142  31.086  23.592  1.00  0.00     0.034 A 
ENDBRANCH  19  22
ENDBRANCH  17  19
ENDBRANCH   8  17
ENDBRANCH   4   7
ENDBRANCH   2   3
ENDBRANCH   1   2
BRANCH   1  28
ATOM     28  C   UNL A   1      31.624  31.877  26.899  1.00  0.00     0.023 C 
BRANCH  28  29
ATOM     29  C   UNL A   1      32.882  32.660  27.248  1.00  0.00     0.116 C 
BRANCH  29  30
ATOM     30  N   UNL A   1      32.613  34.018  27.686  1.00  0.00    -0.352 N 
ATOM     31  C   UNL A   1      33.212  34.757  28.678  1.00  0.00     0.251 C 
ATOM     32  H   UNL A   1      31.893  34.481  27.199  1.00  0.00     0.163 HD
ATOM     33  O   UNL A   1      32.762  35.866  28.951  1.00  0.00    -0.269 OA
BRANCH  31  34
ATOM     34  C   UNL A   1      34.356  34.205  29.438  1.00  0.00     0.039 A 
ATOM     35  C   UNL A   1      34.099  33.319  30.488  1.00  0.00     0.014 A 
ATOM     36  C   UNL A   1      35.674  34.551  29.127  1.00  0.00     0.014 A 
ATOM     37  C   UNL A   1      35.160  32.739  31.185  1.00  0.00     0.010 A 
ATOM     38  C   UNL A   1      36.731  33.905  29.761  1.00  0.00     0.010 A 
ATOM     39  C   UNL A   1      36.487  33.007  30.810  1.00  0.00    -0.014 A 
BRANCH  39  40
ATOM     40  C   UNL A   1      37.630  32.398  31.536  1.00  0.00     0.031 A 
ATOM     41  C   UNL A   1      38.403  31.274  30.903  1.00  0.00     0.074 A 
ATOM     42  C   UNL A   1      37.931  32.814  32.782  1.00  0.00     0.049 A 
ATOM     43  N   UNL A   1      39.394  30.570  31.386  1.00  0.00    -0.248 NA
ATOM     44  C   UNL A   1      37.972  30.857  29.559  1.00  0.00     0.031 C 
ATOM     45  C   UNL A   1      37.209  33.848  33.528  1.00  0.00     0.029 A 
ATOM     46  N   UNL A   1      38.918  32.411  33.644  1.00  0.00    -0.354 N 
ATOM     47  C   UNL A   1      39.685  29.611  30.420  1.00  0.00     0.074 A 
ATOM     48  C   UNL A   1      38.717  29.783  29.359  1.00  0.00     0.031 C 
ATOM     49  C   UNL A   1      37.793  34.013  34.726  1.00  0.00     0.029 A 
ATOM     50  C   UNL A   1      38.910  33.082  34.845  1.00  0.00     0.049 A 
ATOM     51  H   UNL A   1      39.570  31.707  33.425  1.00  0.00     0.167 HD
ATOM     52  C   UNL A   1      40.683  28.691  30.406  1.00  0.00     0.034 A 
ATOM     53  C   UNL A   1      39.718  32.961  35.916  1.00  0.00     0.034 A 
ATOM     54  C   UNL A   1      41.655  28.556  31.464  1.00  0.00     0.049 A 
ATOM     55  C   UNL A   1      40.856  31.976  35.859  1.00  0.00     0.074 A 
ATOM     56  C   UNL A   1      42.744  27.705  31.536  1.00  0.00     0.029 A 
ATOM     57  N   UNL A   1      41.654  29.299  32.639  1.00  0.00    -0.354 N 
ATOM     58  N   UNL A   1      41.159  31.119  34.913  1.00  0.00    -0.248 NA
ATOM     59  C   UNL A   1      41.775  31.965  37.004  1.00  0.00     0.031 C 
ATOM     60  C   UNL A   1      43.370  27.898  32.774  1.00  0.00     0.029 A 
ATOM     61  C   UNL A   1      42.714  28.917  33.447  1.00  0.00     0.049 A 
ATOM     62  H   UNL A   1      40.997  29.995  32.865  1.00  0.00     0.167 HD
ATOM     63  C   UNL A   1      42.324  30.484  35.336  1.00  0.00     0.074 A 
ATOM     64  C   UNL A   1      42.674  31.073  36.613  1.00  0.00     0.031 C 
ATOM     65  C   UNL A   1      43.043  29.509  34.723  1.00  0.00     0.034 A 
BRANCH  52  66
ATOM     66  C   UNL A   1      40.742  27.759  29.217  1.00  0.00     0.023 A 
ATOM     67  C   UNL A   1      41.681  27.936  28.186  1.00  0.00     0.031 A 
ATOM     68  C   UNL A   1      39.805  26.720  29.077  1.00  0.00     0.131 A 
ATOM     69  C   UNL A   1      41.598  27.164  27.018  1.00  0.00     0.055 A 
ATOM     70  C   UNL A   1      39.787  25.892  27.952  1.00  0.00     0.041 A 
ATOM     71  F   UNL A   1      38.870  26.509  30.018  1.00  0.00    -0.206 F 
ATOM     72  C   UNL A   1      40.672  26.125  26.904  1.00  0.00     0.022 A 
BRANCH  69  73
ATOM     73  S   UNL A   1      42.596  27.655  25.585  1.00  0.00     0.124 S 
ATOM     74  O   UNL A   1      43.887  27.936  26.208  1.00  0.00    -0.237 OA
ATOM     75  O   UNL A   1      42.538  26.470  24.738  1.00  0.00    -0.237 OA
ATOM     76  O   UNL A   1      41.896  28.828  25.066  1.00  0.00    -0.744 OA
ENDBRANCH  69  73
ENDBRANCH  52  66
BRANCH  53  77
ATOM     77  C   UNL A   1      39.497  33.808  37.121  1.00  0.00     0.023 A 
ATOM     78  C   UNL A   1      38.825  33.304  38.246  1.00  0.00     0.031 A 
ATOM     79  C   UNL A   1      39.939  35.142  37.158  1.00  0.00     0.131 A 
ATOM     80  C   UNL A   1      38.578  34.140  39.346  1.00  0.00     0.055 A 
ATOM     81  C   UNL A   1      39.727  35.958  38.270  1.00  0.00     0.041 A 
ATOM     82  F   UNL A   1      40.600  35.665  36.113  1.00  0.00    -0.206 F 
ATOM     83  C   UNL A   1      39.033  35.461  39.369  1.00  0.00     0.022 A 
BRANCH  80  84
ATOM     84  S   UNL A   1      37.601  33.491  40.730  1.00  0.00     0.124 S 
ATOM     85  O   UNL A   1      37.288  34.707  41.470  1.00  0.00    -0.237 OA
ATOM     86  O   UNL A   1      36.485  32.854  40.040  1.00  0.00    -0.237 OA
ATOM     87  O   UNL A   1      38.524  32.574  41.396  1.00  0.00    -0.744 OA
ENDBRANCH  80  84
ENDBRANCH  53  77
BRANCH  65  88
ATOM     88  C   UNL A   1      44.305  29.058  35.415  1.00  0.00     0.023 A 
ATOM     89  C   UNL A   1      44.294  28.048  36.392  1.00  0.00     0.031 A 
ATOM     90  C   UNL A   1      45.532  29.672  35.109  1.00  0.00     0.131 A 
ATOM     91  C   UNL A   1      45.476  27.726  37.076  1.00  0.00     0.055 A 
ATOM     92  C   UNL A   1      46.716  29.305  35.750  1.00  0.00     0.041 A 
ATOM     93  F   UNL A   1      45.599  30.643  34.183  1.00  0.00    -0.206 F 
ATOM     94  C   UNL A   1      46.689  28.339  36.751  1.00  0.00     0.022 A 
BRANCH  91  95
ATOM     95  S   UNL A   1      45.386  26.571  38.472  1.00  0.00     0.124 S 
ATOM     96  O   UNL A   1      45.739  25.303  37.841  1.00  0.00    -0.237 OA
ATOM     97  O   UNL A   1      46.373  27.122  39.395  1.00  0.00    -0.237 OA
ATOM     98  O   UNL A   1      43.996  26.677  38.914  1.00  0.00    -0.744 OA
ENDBRANCH  91  95
ENDBRANCH  65  88
ENDBRANCH  39  40
ENDBRANCH  31  34
ENDBRANCH  29  30
ENDBRANCH  28  29
ENDBRANCH   1  28
TORSDOF 17
ENDMDL
MODEL 2
REMARK VINA RESULT:     -12.6      5.641      8.406
REMARK SMILES Cc1ccc(S(=O)(=O)Nc2cc3c(cc2C(=O)NCCCCNC(=O)c2ccc(-c4c5nc(c(-c6cc(S(=O)(=O)[O-])ccc6F)c6ccc([nH]6)c(-c6cc(S(=O)(=O)[O-])ccc6F)c6nc(c(-c7cc(S(=O)(=O)[O-])ccc7F)c7ccc4[nH]7)C=C6)C=C5)cc2)OCCO3)s1
REMARK SMILES IDX 20 1 19 2 18 3 16 4 17 5 15 7 10 8 11 9 12 10 14 11 13 12
REMARK SMILES IDX 92 13 89 14 91 15 90 16 9 17 6 19 7 20 8 21 5 22 1 23 2 24
REMARK SMILES IDX 3 25 93 26 4 27 21 28 22 29 23 30 24 31 25 33 26 34 27 35
REMARK SMILES IDX 88 36 28 37 87 38 29 39 30 40 31 41 81 42 32 43 86 44 80 45
REMARK SMILES IDX 82 46 33 47 85 48 79 49 78 50 34 52 66 53 46 54 65 55 47 56
REMARK SMILES IDX 50 57 64 58 83 59 48 60 49 61 63 63 84 64 51 65 35 66 36 67
REMARK SMILES IDX 44 68 37 69 43 70 45 71 42 72 38 73 39 74 40 75 41 76 67 77
REMARK SMILES IDX 68 78 76 79 69 80 75 81 77 82 74 83 70 84 71 85 72 86 73 87
REMARK SMILES IDX 52 88 53 89 61 90 54 91 60 92 62 93 59 94 55 95 56 96 57 97
REMARK SMILES IDX 58 98
REMARK H PARENT 18 6 9 18 23 32 82 51 50 62
REMARK Flexibility Score: inf
ROOT
ATOM      1  C   UNL A   1      34.593  23.075  26.881  1.00  0.00     0.023 C 
ENDROOT
BRANCH   1   2
ATOM      2  C   UNL A   1      34.242  24.225  25.946  1.00  0.00     0.116 C 
BRANCH   2   3
ATOM      3  N   UNL A   1      32.844  24.624  25.947  1.00  0.00    -0.352 N 
ATOM      4  C   UNL A   1      31.715  23.970  25.503  1.00  0.00     0.253 C 
ATOM      5  O   UNL A   1      30.615  24.449  25.767  1.00  0.00    -0.269 OA
ATOM      6  H   UNL A   1      32.674  25.515  26.328  1.00  0.00     0.163 HD
BRANCH   4   7
ATOM      7  C   UNL A   1      31.811  22.729  24.691  1.00  0.00     0.067 A 
ATOM      8  C   UNL A   1      31.830  22.786  23.282  1.00  0.00     0.066 A 
ATOM      9  C   UNL A   1      32.037  21.615  22.541  1.00  0.00     0.078 A 
ATOM     10  C   UNL A   1      32.242  20.401  23.199  1.00  0.00     0.163 A 
ATOM     11  C   UNL A   1      31.889  21.486  25.329  1.00  0.00     0.066 A 
ATOM     12  C   UNL A   1      32.177  20.344  24.592  1.00  0.00     0.162 A 
ATOM     13  O   UNL A   1      32.521  19.308  22.419  1.00  0.00    -0.486 OA
ATOM     14  O   UNL A   1      32.421  19.203  25.311  1.00  0.00    -0.486 OA
ATOM     15  C   UNL A   1      32.492  18.086  23.170  1.00  0.00     0.271 C 
ATOM     16  C   UNL A   1      33.159  18.261  24.525  1.00  0.00     0.271 C 
BRANCH   8  17
ATOM     17  N   UNL A   1      31.625  24.026  22.595  1.00  0.00    -0.278 N 
ATOM     18  H   UNL A   1      30.713  24.340  22.394  1.00  0.00     0.180 HD
BRANCH  17  19
ATOM     19  S   UNL A   1      32.963  24.941  22.139  1.00  0.00     0.271 S 
ATOM     20  O   UNL A   1      32.946  25.050  20.700  1.00  0.00    -0.200 OA
ATOM     21  O   UNL A   1      34.116  24.373  22.817  1.00  0.00    -0.200 OA
BRANCH  19  22
ATOM     22  C   UNL A   1      32.813  26.573  22.831  1.00  0.00     0.140 A 
ATOM     23  C   UNL A   1      30.936  29.661  24.362  1.00  0.00     0.056 C 
ATOM     24  C   UNL A   1      31.859  28.633  23.799  1.00  0.00     0.003 A 
ATOM     25  C   UNL A   1      33.209  28.756  23.544  1.00  0.00     0.016 A 
ATOM     26  S   UNL A   1      31.280  27.075  23.388  1.00  0.00    -0.127 S 
ATOM     27  C   UNL A   1      33.761  27.564  23.003  1.00  0.00     0.034 A 
ENDBRANCH  19  22
ENDBRANCH  17  19
ENDBRANCH   8  17
ENDBRANCH   4   7
ENDBRANCH   2   3
ENDBRANCH   1   2
BRANCH   1  28
ATOM     28  C   UNL A   1      35.414  21.934  26.298  1.00  0.00     0.023 C 
BRANCH  28  29
ATOM     29  C   UNL A   1      36.740  22.333  25.668  1.00  0.00     0.116 C 
BRANCH  29  30
ATOM     30  N   UNL A   1      37.781  21.334  25.833  1.00  0.00    -0.352 N 
ATOM     31  C   UNL A   1      39.083  21.481  26.246  1.00  0.00     0.251 C 
ATOM     32  H   UNL A   1      37.514  20.412  25.614  1.00  0.00     0.163 HD
ATOM     33  O   UNL A   1      39.831  20.507  26.223  1.00  0.00    -0.269 OA
BRANCH  31  34
ATOM     34  C   UNL A   1      39.590  22.804  26.673  1.00  0.00     0.039 A 
ATOM     35  C   UNL A   1      40.557  22.858  27.682  1.00  0.00     0.014 A 
ATOM     36  C   UNL A   1      39.123  23.987  26.093  1.00  0.00     0.014 A 
ATOM     37  C   UNL A   1      41.094  24.088  28.065  1.00  0.00     0.010 A 
ATOM     38  C   UNL A   1      39.723  25.201  26.411  1.00  0.00     0.010 A 
ATOM     39  C   UNL A   1      40.701  25.269  27.414  1.00  0.00    -0.014 A 
BRANCH  39  40
ATOM     40  C   UNL A   1      41.263  26.587  27.805  1.00  0.00     0.031 A 
ATOM     41  C   UNL A   1      42.683  26.929  27.445  1.00  0.00     0.074 A 
ATOM     42  C   UNL A   1      40.519  27.444  28.530  1.00  0.00     0.049 A 
ATOM     43  N   UNL A   1      43.381  27.996  27.738  1.00  0.00    -0.248 NA
ATOM     44  C   UNL A   1      43.432  25.911  26.692  1.00  0.00     0.031 C 
ATOM     45  C   UNL A   1      39.153  27.194  28.999  1.00  0.00     0.029 A 
ATOM     46  N   UNL A   1      40.810  28.696  29.009  1.00  0.00    -0.354 N 
ATOM     47  C   UNL A   1      44.656  27.766  27.230  1.00  0.00     0.074 A 
ATOM     48  C   UNL A   1      44.649  26.429  26.677  1.00  0.00     0.031 C 
ATOM     49  C   UNL A   1      38.719  28.270  29.677  1.00  0.00     0.029 A 
ATOM     50  C   UNL A   1      39.779  29.271  29.715  1.00  0.00     0.049 A 
ATOM     51  H   UNL A   1      41.676  29.140  28.862  1.00  0.00     0.167 HD
ATOM     52  C   UNL A   1      45.726  28.600  27.202  1.00  0.00     0.034 A 
ATOM     53  C   UNL A   1      39.700  30.472  30.319  1.00  0.00     0.034 A 
ATOM     54  C   UNL A   1      45.703  29.941  27.736  1.00  0.00     0.049 A 
ATOM     55  C   UNL A   1      40.876  31.409  30.227  1.00  0.00     0.074 A 
ATOM     56  C   UNL A   1      46.700  30.900  27.714  1.00  0.00     0.029 A 
ATOM     57  N   UNL A   1      44.617  30.514  28.388  1.00  0.00    -0.354 N 
ATOM     58  N   UNL A   1      42.055  31.204  29.689  1.00  0.00    -0.248 NA
ATOM     59  C   UNL A   1      40.698  32.748  30.801  1.00  0.00     0.031 C 
ATOM     60  C   UNL A   1      46.236  32.032  28.396  1.00  0.00     0.029 A 
ATOM     61  C   UNL A   1      44.925  31.807  28.785  1.00  0.00     0.049 A 
ATOM     62  H   UNL A   1      43.754  30.068  28.546  1.00  0.00     0.167 HD
ATOM     63  C   UNL A   1      42.751  32.401  29.834  1.00  0.00     0.074 A 
ATOM     64  C   UNL A   1      41.851  33.325  30.494  1.00  0.00     0.031 C 
ATOM     65  C   UNL A   1      44.017  32.711  29.451  1.00  0.00     0.034 A 
BRANCH  52  66
ATOM     66  C   UNL A   1      47.002  28.064  26.594  1.00  0.00     0.023 A 
ATOM     67  C   UNL A   1      47.286  28.211  25.225  1.00  0.00     0.031 A 
ATOM     68  C   UNL A   1      47.916  27.337  27.377  1.00  0.00     0.131 A 
ATOM     69  C   UNL A   1      48.389  27.553  24.661  1.00  0.00     0.055 A 
ATOM     70  C   UNL A   1      49.064  26.763  26.826  1.00  0.00     0.041 A 
ATOM     71  F   UNL A   1      47.694  27.145  28.688  1.00  0.00    -0.206 F 
ATOM     72  C   UNL A   1      49.295  26.850  25.456  1.00  0.00     0.022 A 
BRANCH  69  73
ATOM     73  S   UNL A   1      48.520  27.482  22.853  1.00  0.00     0.124 S 
ATOM     74  O   UNL A   1      49.793  28.162  22.622  1.00  0.00    -0.237 OA
ATOM     75  O   UNL A   1      48.504  26.048  22.591  1.00  0.00    -0.237 OA
ATOM     76  O   UNL A   1      47.341  28.214  22.395  1.00  0.00    -0.744 OA
ENDBRANCH  69  73
ENDBRANCH  52  66
BRANCH  53  77
ATOM     77  C   UNL A   1      38.459  30.868  31.041  1.00  0.00     0.023 A 
ATOM     78  C   UNL A   1      37.421  31.543  30.378  1.00  0.00     0.031 A 
ATOM     79  C   UNL A   1      38.301  30.593  32.410  1.00  0.00     0.131 A 
ATOM     80  C   UNL A   1      36.288  31.957  31.095  1.00  0.00     0.055 A 
ATOM     81  C   UNL A   1      37.154  30.971  33.110  1.00  0.00     0.041 A 
ATOM     82  F   UNL A   1      39.259  29.937  33.084  1.00  0.00    -0.206 F 
ATOM     83  C   UNL A   1      36.143  31.667  32.454  1.00  0.00     0.022 A 
BRANCH  80  84
ATOM     84  S   UNL A   1      35.023  32.932  30.234  1.00  0.00     0.124 S 
ATOM     85  O   UNL A   1      34.526  31.974  29.253  1.00  0.00    -0.237 OA
ATOM     86  O   UNL A   1      34.110  33.271  31.320  1.00  0.00    -0.237 OA
ATOM     87  O   UNL A   1      35.777  34.056  29.683  1.00  0.00    -0.744 OA
ENDBRANCH  80  84
ENDBRANCH  53  77
BRANCH  65  88
ATOM     88  C   UNL A   1      44.474  34.126  29.700  1.00  0.00     0.023 A 
ATOM     89  C   UNL A   1      44.233  35.157  28.775  1.00  0.00     0.031 A 
ATOM     90  C   UNL A   1      45.186  34.440  30.871  1.00  0.00     0.131 A 
ATOM     91  C   UNL A   1      44.756  36.438  29.005  1.00  0.00     0.055 A 
ATOM     92  C   UNL A   1      45.653  35.731  31.123  1.00  0.00     0.041 A 
ATOM     93  F   UNL A   1      45.444  33.494  31.789  1.00  0.00    -0.206 F 
ATOM     94  C   UNL A   1      45.452  36.734  30.180  1.00  0.00     0.022 A 
BRANCH  91  95
ATOM     95  S   UNL A   1      44.608  37.686  27.697  1.00  0.00     0.124 S 
ATOM     96  O   UNL A   1      44.332  38.898  28.462  1.00  0.00    -0.237 OA
ATOM     97  O   UNL A   1      45.916  37.619  27.054  1.00  0.00    -0.237 OA
ATOM     98  O   UNL A   1      43.492  37.199  26.885  1.00  0.00    -0.744 OA
ENDBRANCH  91  95
ENDBRANCH  65  88
ENDBRANCH  39  40
ENDBRANCH  31  34
ENDBRANCH  29  30
ENDBRANCH  28  29
ENDBRANCH   1  28
TORSDOF 17
ENDMDL
MODEL 3
REMARK VINA RESULT:     -12.4      2.657      8.489
REMARK SMILES Cc1ccc(S(=O)(=O)Nc2cc3c(cc2C(=O)NCCCCNC(=O)c2ccc(-c4c5nc(c(-c6cc(S(=O)(=O)[O-])ccc6F)c6ccc([nH]6)c(-c6cc(S(=O)(=O)[O-])ccc6F)c6nc(c(-c7cc(S(=O)(=O)[O-])ccc7F)c7ccc4[nH]7)C=C6)C=C5)cc2)OCCO3)s1
REMARK SMILES IDX 20 1 19 2 18 3 16 4 17 5 15 7 10 8 11 9 12 10 14 11 13 12
REMARK SMILES IDX 92 13 89 14 91 15 90 16 9 17 6 19 7 20 8 21 5 22 1 23 2 24
REMARK SMILES IDX 3 25 93 26 4 27 21 28 22 29 23 30 24 31 25 33 26 34 27 35
REMARK SMILES IDX 88 36 28 37 87 38 29 39 30 40 31 41 81 42 32 43 86 44 80 45
REMARK SMILES IDX 82 46 33 47 85 48 79 49 78 50 34 52 66 53 46 54 65 55 47 56
REMARK SMILES IDX 50 57 64 58 83 59 48 60 49 61 63 63 84 64 51 65 35 66 36 67
REMARK SMILES IDX 44 68 37 69 43 70 45 71 42 72 38 73 39 74 40 75 41 76 67 77
REMARK SMILES IDX 68 78 76 79 69 80 75 81 77 82 74 83 70 84 71 85 72 86 73 87
REMARK SMILES IDX 52 88 53 89 61 90 54 91 60 92 62 93 59 94 55 95 56 96 57 97
REMARK SMILES IDX 58 98
REMARK H PARENT 18 6 9 18 23 32 82 51 50 62
REMARK Flexibility Score: inf
ROOT
ATOM      1  C   UNL A   1      33.795  28.444  25.085  1.00  0.00     0.023 C 
ENDROOT
BRANCH   1   2
ATOM      2  C   UNL A   1      33.531  26.996  25.473  1.00  0.00     0.116 C 
BRANCH   2   3
ATOM      3  N   UNL A   1      33.656  26.028  24.394  1.00  0.00    -0.352 N 
ATOM      4  C   UNL A   1      32.804  25.710  23.360  1.00  0.00     0.253 C 
ATOM      5  O   UNL A   1      33.210  24.967  22.470  1.00  0.00    -0.269 OA
ATOM      6  H   UNL A   1      34.493  25.511  24.407  1.00  0.00     0.163 HD
BRANCH   4   7
ATOM      7  C   UNL A   1      31.408  26.219  23.325  1.00  0.00     0.067 A 
ATOM      8  C   UNL A   1      30.350  25.469  23.881  1.00  0.00     0.066 A 
ATOM      9  C   UNL A   1      29.063  26.020  23.940  1.00  0.00     0.078 A 
ATOM     10  C   UNL A   1      28.836  27.313  23.466  1.00  0.00     0.163 A 
ATOM     11  C   UNL A   1      31.135  27.460  22.739  1.00  0.00     0.066 A 
ATOM     12  C   UNL A   1      29.877  28.032  22.876  1.00  0.00     0.162 A 
ATOM     13  O   UNL A   1      27.574  27.823  23.627  1.00  0.00    -0.486 OA
ATOM     14  O   UNL A   1      29.746  29.324  22.438  1.00  0.00    -0.486 OA
ATOM     15  C   UNL A   1      27.393  29.055  22.914  1.00  0.00     0.271 C 
ATOM     16  C   UNL A   1      28.614  29.951  23.051  1.00  0.00     0.271 C 
BRANCH   8  17
ATOM     17  N   UNL A   1      30.572  24.142  24.373  1.00  0.00    -0.278 N 
ATOM     18  H   UNL A   1      30.487  23.367  23.773  1.00  0.00     0.180 HD
BRANCH  17  19
ATOM     19  S   UNL A   1      30.981  23.928  25.993  1.00  0.00     0.271 S 
ATOM     20  O   UNL A   1      30.011  23.032  26.573  1.00  0.00    -0.200 OA
ATOM     21  O   UNL A   1      31.186  25.252  26.557  1.00  0.00    -0.200 OA
BRANCH  19  22
ATOM     22  C   UNL A   1      32.585  23.164  26.090  1.00  0.00     0.140 A 
ATOM     23  C   UNL A   1      35.463  20.719  25.020  1.00  0.00     0.056 C 
ATOM     24  C   UNL A   1      34.526  21.714  25.617  1.00  0.00     0.003 A 
ATOM     25  C   UNL A   1      34.700  22.457  26.767  1.00  0.00     0.016 A 
ATOM     26  S   UNL A   1      33.025  22.057  24.868  1.00  0.00    -0.127 S 
ATOM     27  C   UNL A   1      33.590  23.304  27.028  1.00  0.00     0.034 A 
ENDBRANCH  19  22
ENDBRANCH  17  19
ENDBRANCH   8  17
ENDBRANCH   4   7
ENDBRANCH   2   3
ENDBRANCH   1   2
BRANCH   1  28
ATOM     28  C   UNL A   1      32.613  29.401  25.135  1.00  0.00     0.023 C 
BRANCH  28  29
ATOM     29  C   UNL A   1      32.214  29.881  26.522  1.00  0.00     0.116 C 
BRANCH  29  30
ATOM     30  N   UNL A   1      32.152  31.328  26.637  1.00  0.00    -0.352 N 
ATOM     31  C   UNL A   1      33.011  32.198  27.265  1.00  0.00     0.251 C 
ATOM     32  H   UNL A   1      31.376  31.749  26.200  1.00  0.00     0.163 HD
ATOM     33  O   UNL A   1      32.717  33.389  27.324  1.00  0.00    -0.269 OA
BRANCH  31  34
ATOM     34  C   UNL A   1      34.252  31.700  27.898  1.00  0.00     0.039 A 
ATOM     35  C   UNL A   1      35.297  32.601  28.124  1.00  0.00     0.014 A 
ATOM     36  C   UNL A   1      34.396  30.361  28.269  1.00  0.00     0.014 A 
ATOM     37  C   UNL A   1      36.457  32.172  28.771  1.00  0.00     0.010 A 
ATOM     38  C   UNL A   1      35.513  29.956  28.993  1.00  0.00     0.010 A 
ATOM     39  C   UNL A   1      36.565  30.852  29.235  1.00  0.00    -0.014 A 
BRANCH  39  40
ATOM     40  C   UNL A   1      37.789  30.377  29.928  1.00  0.00     0.031 A 
ATOM     41  C   UNL A   1      38.065  30.814  31.342  1.00  0.00     0.074 A 
ATOM     42  C   UNL A   1      38.677  29.607  29.269  1.00  0.00     0.049 A 
ATOM     43  N   UNL A   1      39.096  30.562  32.104  1.00  0.00    -0.248 NA
ATOM     44  C   UNL A   1      37.061  31.693  31.963  1.00  0.00     0.031 C 
ATOM     45  C   UNL A   1      38.554  29.177  27.874  1.00  0.00     0.029 A 
ATOM     46  N   UNL A   1      39.863  29.058  29.682  1.00  0.00    -0.354 N 
ATOM     47  C   UNL A   1      38.880  31.271  33.282  1.00  0.00     0.074 A 
ATOM     48  C   UNL A   1      37.654  32.018  33.099  1.00  0.00     0.031 C 
ATOM     49  C   UNL A   1      39.611  28.411  27.557  1.00  0.00     0.029 A 
ATOM     50  C   UNL A   1      40.497  28.317  28.712  1.00  0.00     0.049 A 
ATOM     51  H   UNL A   1      40.228  29.182  30.589  1.00  0.00     0.167 HD
ATOM     52  C   UNL A   1      39.619  31.278  34.420  1.00  0.00     0.034 A 
ATOM     53  C   UNL A   1      41.659  27.637  28.754  1.00  0.00     0.034 A 
ATOM     54  C   UNL A   1      40.824  30.503  34.591  1.00  0.00     0.049 A 
ATOM     55  C   UNL A   1      42.436  27.608  30.044  1.00  0.00     0.074 A 
ATOM     56  C   UNL A   1      41.624  30.381  35.714  1.00  0.00     0.029 A 
ATOM     57  N   UNL A   1      41.403  29.712  33.605  1.00  0.00    -0.354 N 
ATOM     58  N   UNL A   1      42.188  28.232  31.172  1.00  0.00    -0.248 NA
ATOM     59  C   UNL A   1      43.634  26.760  30.073  1.00  0.00     0.031 C 
ATOM     60  C   UNL A   1      42.711  29.558  35.391  1.00  0.00     0.029 A 
ATOM     61  C   UNL A   1      42.555  29.111  34.089  1.00  0.00     0.049 A 
ATOM     62  H   UNL A   1      41.047  29.595  32.695  1.00  0.00     0.167 HD
ATOM     63  C   UNL A   1      43.185  27.827  32.056  1.00  0.00     0.074 A 
ATOM     64  C   UNL A   1      44.025  26.894  31.332  1.00  0.00     0.031 C 
ATOM     65  C   UNL A   1      43.385  28.190  33.349  1.00  0.00     0.034 A 
BRANCH  52  66
ATOM     66  C   UNL A   1      39.142  32.170  35.545  1.00  0.00     0.023 A 
ATOM     67  C   UNL A   1      39.537  33.516  35.636  1.00  0.00     0.031 A 
ATOM     68  C   UNL A   1      38.339  31.652  36.575  1.00  0.00     0.131 A 
ATOM     69  C   UNL A   1      39.221  34.266  36.779  1.00  0.00     0.055 A 
ATOM     70  C   UNL A   1      37.949  32.432  37.667  1.00  0.00     0.041 A 
ATOM     71  F   UNL A   1      37.943  30.369  36.557  1.00  0.00    -0.206 F 
ATOM     72  C   UNL A   1      38.408  33.741  37.785  1.00  0.00     0.022 A 
BRANCH  69  73
ATOM     73  S   UNL A   1      40.037  35.869  37.013  1.00  0.00     0.124 S 
ATOM     74  O   UNL A   1      41.434  35.468  37.171  1.00  0.00    -0.237 OA
ATOM     75  O   UNL A   1      39.710  36.573  35.780  1.00  0.00    -0.237 OA
ATOM     76  O   UNL A   1      39.410  36.400  38.221  1.00  0.00    -0.744 OA
ENDBRANCH  69  73
ENDBRANCH  52  66
BRANCH  53  77
ATOM     77  C   UNL A   1      42.147  26.910  27.549  1.00  0.00     0.023 A 
ATOM     78  C   UNL A   1      41.952  25.527  27.411  1.00  0.00     0.031 A 
ATOM     79  C   UNL A   1      42.831  27.588  26.525  1.00  0.00     0.131 A 
ATOM     80  C   UNL A   1      42.473  24.857  26.293  1.00  0.00     0.055 A 
ATOM     81  C   UNL A   1      43.312  26.923  25.395  1.00  0.00     0.041 A 
ATOM     82  F   UNL A   1      43.029  28.914  26.604  1.00  0.00    -0.206 F 
ATOM     83  C   UNL A   1      43.143  25.547  25.280  1.00  0.00     0.022 A 
BRANCH  80  84
ATOM     84  S   UNL A   1      42.309  23.052  26.208  1.00  0.00     0.124 S 
ATOM     85  O   UNL A   1      42.755  22.776  24.847  1.00  0.00    -0.237 OA
ATOM     86  O   UNL A   1      43.201  22.616  27.277  1.00  0.00    -0.237 OA
ATOM     87  O   UNL A   1      40.887  22.827  26.458  1.00  0.00    -0.744 OA
ENDBRANCH  80  84
ENDBRANCH  53  77
BRANCH  65  88
ATOM     88  C   UNL A   1      44.535  27.530  34.068  1.00  0.00     0.023 A 
ATOM     89  C   UNL A   1      44.370  26.337  34.793  1.00  0.00     0.031 A 
ATOM     90  C   UNL A   1      45.810  28.122  34.048  1.00  0.00     0.131 A 
ATOM     91  C   UNL A   1      45.445  25.809  35.523  1.00  0.00     0.055 A 
ATOM     92  C   UNL A   1      46.891  27.559  34.727  1.00  0.00     0.041 A 
ATOM     93  F   UNL A   1      46.024  29.262  33.371  1.00  0.00    -0.206 F 
ATOM     94  C   UNL A   1      46.708  26.405  35.482  1.00  0.00     0.022 A 
BRANCH  91  95
ATOM     95  S   UNL A   1      45.143  24.390  36.613  1.00  0.00     0.124 S 
ATOM     96  O   UNL A   1      44.580  23.411  35.689  1.00  0.00    -0.237 OA
ATOM     97  O   UNL A   1      46.480  24.097  37.118  1.00  0.00    -0.237 OA
ATOM     98  O   UNL A   1      44.207  24.915  37.606  1.00  0.00    -0.744 OA
ENDBRANCH  91  95
ENDBRANCH  65  88
ENDBRANCH  39  40
ENDBRANCH  31  34
ENDBRANCH  29  30
ENDBRANCH  28  29
ENDBRANCH   1  28
TORSDOF 17
ENDMDL
