MODEL 1
REMARK VINA RESULT:     -12.3      0.000      0.000
REMARK SMILES C[C@H]1CN(c2ccc(C(=O)NCCCCNC(=O)c3ccc(-c4c5nc(c(-c6cc(S(=O)(=O)[O-])ccc6F)c6ccc([nH]6)c(-c6cc(S(=O)(=O)[O-])ccc6F)c6nc(c(-c7cc(S(=O)(=O)[O-])ccc7F)c7ccc4[nH]7)C=C6)C=C5)cc3)cc2[N+](=O)[O-])C[C@@H]1C
REMARK SMILES IDX 14 1 13 2 12 3 11 4 9 5 10 6 8 8 5 9 6 10 83 11 7 12 82 13
REMARK SMILES IDX 4 14 1 15 2 16 3 17 88 18 87 19 89 20 84 21 85 22 86 23
REMARK SMILES IDX 15 24 16 25 17 26 18 28 19 29 20 30 81 31 21 32 80 33 22 34
REMARK SMILES IDX 23 35 24 36 74 37 25 38 79 39 73 40 75 41 26 42 78 43 72 44
REMARK SMILES IDX 71 45 27 47 59 48 39 49 58 50 40 51 43 52 57 53 76 54 41 55
REMARK SMILES IDX 42 56 56 58 77 59 44 60 28 61 29 62 37 63 30 64 36 65 38 66
REMARK SMILES IDX 35 67 31 68 32 69 33 70 34 71 60 72 61 73 69 74 62 75 68 76
REMARK SMILES IDX 70 77 67 78 63 79 64 80 65 81 66 82 45 83 46 84 54 85 47 86
REMARK SMILES IDX 53 87 55 88 52 89 48 90 49 91 50 92 51 93
REMARK H PARENT 11 7 16 27 75 46 43 57
REMARK Flexibility Score: inf
ROOT
ATOM      1  C   UNL A   1      32.180  28.999  24.255  1.00  0.00     0.023 C 
ENDROOT
BRANCH   1   2
ATOM      2  C   UNL A   1      30.798  29.625  24.060  1.00  0.00     0.023 C 
BRANCH   2   3
ATOM      3  C   UNL A   1      30.021  29.043  22.876  1.00  0.00     0.116 C 
BRANCH   3   4
ATOM      4  N   UNL A   1      28.982  28.149  23.351  1.00  0.00    -0.352 N 
ATOM      5  C   UNL A   1      29.015  26.843  23.763  1.00  0.00     0.251 C 
ATOM      6  O   UNL A   1      27.955  26.324  24.114  1.00  0.00    -0.269 OA
ATOM      7  H   UNL A   1      28.087  28.558  23.385  1.00  0.00     0.163 HD
BRANCH   5   8
ATOM      8  C   UNL A   1      30.268  26.043  23.850  1.00  0.00     0.046 A 
ATOM      9  C   UNL A   1      32.675  24.531  24.224  1.00  0.00     0.116 A 
ATOM     10  C   UNL A   1      31.779  24.773  25.278  1.00  0.00     0.034 A 
ATOM     11  C   UNL A   1      32.314  25.065  22.983  1.00  0.00     0.293 A 
ATOM     12  C   UNL A   1      30.611  25.527  25.105  1.00  0.00     0.016 A 
ATOM     13  C   UNL A   1      31.108  25.757  22.779  1.00  0.00     0.101 A 
BRANCH   9  14
ATOM     14  N   UNL A   1      33.778  23.762  24.476  1.00  0.00    -0.365 N 
ATOM     15  C   UNL A   1      36.583  22.822  23.218  1.00  0.00     0.010 C 
ATOM     16  C   UNL A   1      36.000  22.980  24.625  1.00  0.00     0.010 C 
ATOM     17  C   UNL A   1      35.129  24.246  24.733  1.00  0.00     0.120 C 
ATOM     18  C   UNL A   1      35.023  21.837  24.961  1.00  0.00     0.010 C 
ATOM     19  C   UNL A   1      33.708  22.312  24.335  1.00  0.00     0.120 C 
ATOM     20  C   UNL A   1      34.864  21.646  26.472  1.00  0.00     0.010 C 
ENDBRANCH   9  14
BRANCH  11  21
ATOM     21  N   UNL A   1      33.168  24.931  21.817  1.00  0.00     0.065 N 
ATOM     22  O   UNL A   1      33.616  25.985  21.339  1.00  0.00    -0.258 OA
ATOM     23  O   UNL A   1      33.344  23.801  21.344  1.00  0.00    -0.258 OA
ENDBRANCH  11  21
ENDBRANCH   5   8
ENDBRANCH   3   4
ENDBRANCH   2   3
ENDBRANCH   1   2
BRANCH   1  24
ATOM     24  C   UNL A   1      32.917  29.485  25.496  1.00  0.00     0.116 C 
BRANCH  24  25
ATOM     25  N   UNL A   1      32.466  30.791  25.946  1.00  0.00    -0.352 N 
ATOM     26  C   UNL A   1      32.980  31.573  26.951  1.00  0.00     0.251 C 
ATOM     27  H   UNL A   1      31.691  31.164  25.467  1.00  0.00     0.163 HD
ATOM     28  O   UNL A   1      32.385  32.584  27.300  1.00  0.00    -0.269 OA
BRANCH  26  29
ATOM     29  C   UNL A   1      34.229  31.159  27.625  1.00  0.00     0.039 A 
ATOM     30  C   UNL A   1      35.194  32.130  27.897  1.00  0.00     0.014 A 
ATOM     31  C   UNL A   1      34.446  29.829  27.993  1.00  0.00     0.014 A 
ATOM     32  C   UNL A   1      36.363  31.768  28.565  1.00  0.00     0.010 A 
ATOM     33  C   UNL A   1      35.569  29.487  28.739  1.00  0.00     0.010 A 
ATOM     34  C   UNL A   1      36.553  30.449  29.012  1.00  0.00    -0.014 A 
BRANCH  34  35
ATOM     35  C   UNL A   1      37.799  30.064  29.722  1.00  0.00     0.031 A 
ATOM     36  C   UNL A   1      38.018  30.501  31.148  1.00  0.00     0.074 A 
ATOM     37  C   UNL A   1      38.735  29.338  29.078  1.00  0.00     0.049 A 
ATOM     38  N   UNL A   1      39.029  30.256  31.941  1.00  0.00    -0.248 NA
ATOM     39  C   UNL A   1      36.978  31.348  31.754  1.00  0.00     0.031 C 
ATOM     40  C   UNL A   1      38.656  28.909  27.679  1.00  0.00     0.029 A 
ATOM     41  N   UNL A   1      39.933  28.828  29.510  1.00  0.00    -0.354 N 
ATOM     42  C   UNL A   1      38.755  30.927  33.127  1.00  0.00     0.074 A 
ATOM     43  C   UNL A   1      37.513  31.640  32.931  1.00  0.00     0.031 C 
ATOM     44  C   UNL A   1      39.739  28.172  27.381  1.00  0.00     0.029 A 
ATOM     45  C   UNL A   1      40.610  28.110  28.550  1.00  0.00     0.049 A 
ATOM     46  H   UNL A   1      40.276  28.962  30.423  1.00  0.00     0.167 HD
ATOM     47  C   UNL A   1      39.462  30.928  34.283  1.00  0.00     0.034 A 
ATOM     48  C   UNL A   1      41.800  27.479  28.606  1.00  0.00     0.034 A 
ATOM     49  C   UNL A   1      40.685  30.187  34.470  1.00  0.00     0.049 A 
ATOM     50  C   UNL A   1      42.557  27.484  29.913  1.00  0.00     0.074 A 
ATOM     51  C   UNL A   1      41.443  30.055  35.620  1.00  0.00     0.029 A 
ATOM     52  N   UNL A   1      41.335  29.459  33.482  1.00  0.00    -0.354 N 
ATOM     53  N   UNL A   1      42.237  28.056  31.053  1.00  0.00    -0.248 NA
ATOM     54  C   UNL A   1      43.820  26.738  29.947  1.00  0.00     0.031 C 
ATOM     55  C   UNL A   1      42.589  29.318  35.308  1.00  0.00     0.029 A 
ATOM     56  C   UNL A   1      42.502  28.907  33.987  1.00  0.00     0.049 A 
ATOM     57  H   UNL A   1      41.013  29.350  32.557  1.00  0.00     0.167 HD
ATOM     58  C   UNL A   1      43.246  27.706  31.946  1.00  0.00     0.074 A 
ATOM     59  C   UNL A   1      44.161  26.849  31.222  1.00  0.00     0.031 C 
ATOM     60  C   UNL A   1      43.408  28.062  33.247  1.00  0.00     0.034 A 
BRANCH  47  61
ATOM     61  C   UNL A   1      38.950  31.772  35.425  1.00  0.00     0.023 A 
ATOM     62  C   UNL A   1      38.354  31.204  36.566  1.00  0.00     0.031 A 
ATOM     63  C   UNL A   1      39.073  33.173  35.376  1.00  0.00     0.131 A 
ATOM     64  C   UNL A   1      37.859  32.035  37.584  1.00  0.00     0.055 A 
ATOM     65  C   UNL A   1      38.648  33.988  36.427  1.00  0.00     0.041 A 
ATOM     66  F   UNL A   1      39.608  33.773  34.302  1.00  0.00    -0.206 F 
ATOM     67  C   UNL A   1      38.029  33.420  37.536  1.00  0.00     0.022 A 
BRANCH  64  68
ATOM     68  S   UNL A   1      36.890  31.287  38.923  1.00  0.00     0.124 S 
ATOM     69  O   UNL A   1      36.683  29.933  38.416  1.00  0.00    -0.237 OA
ATOM     70  O   UNL A   1      37.783  31.411  40.069  1.00  0.00    -0.237 OA
ATOM     71  O   UNL A   1      35.685  32.114  38.977  1.00  0.00    -0.744 OA
ENDBRANCH  64  68
ENDBRANCH  47  61
BRANCH  48  72
ATOM     72  C   UNL A   1      42.368  26.804  27.400  1.00  0.00     0.023 A 
ATOM     73  C   UNL A   1      42.129  25.442  27.145  1.00  0.00     0.031 A 
ATOM     74  C   UNL A   1      43.231  27.491  26.528  1.00  0.00     0.131 A 
ATOM     75  C   UNL A   1      42.804  24.797  26.096  1.00  0.00     0.055 A 
ATOM     76  C   UNL A   1      43.845  26.860  25.444  1.00  0.00     0.041 A 
ATOM     77  F   UNL A   1      43.496  28.794  26.720  1.00  0.00    -0.206 F 
ATOM     78  C   UNL A   1      43.649  25.499  25.236  1.00  0.00     0.022 A 
BRANCH  75  79
ATOM     79  S   UNL A   1      42.666  22.992  25.956  1.00  0.00     0.124 S 
ATOM     80  O   UNL A   1      41.258  22.778  26.268  1.00  0.00    -0.237 OA
ATOM     81  O   UNL A   1      43.057  22.766  24.569  1.00  0.00    -0.237 OA
ATOM     82  O   UNL A   1      43.609  22.501  26.958  1.00  0.00    -0.744 OA
ENDBRANCH  75  79
ENDBRANCH  48  72
BRANCH  60  83
ATOM     83  C   UNL A   1      44.599  27.476  33.972  1.00  0.00     0.023 A 
ATOM     84  C   UNL A   1      44.532  26.229  34.617  1.00  0.00     0.031 A 
ATOM     85  C   UNL A   1      45.804  28.197  34.054  1.00  0.00     0.131 A 
ATOM     86  C   UNL A   1      45.613  25.784  35.392  1.00  0.00     0.055 A 
ATOM     87  C   UNL A   1      46.906  27.709  34.757  1.00  0.00     0.041 A 
ATOM     88  F   UNL A   1      45.928  29.395  33.460  1.00  0.00    -0.206 F 
ATOM     89  C   UNL A   1      46.807  26.506  35.449  1.00  0.00     0.022 A 
BRANCH  86  90
ATOM     90  S   UNL A   1      45.383  24.321  36.440  1.00  0.00     0.124 S 
ATOM     91  O   UNL A   1      44.242  23.671  35.804  1.00  0.00    -0.237 OA
ATOM     92  O   UNL A   1      46.664  23.637  36.305  1.00  0.00    -0.237 OA
ATOM     93  O   UNL A   1      45.118  24.886  37.761  1.00  0.00    -0.744 OA
ENDBRANCH  86  90
ENDBRANCH  60  83
ENDBRANCH  34  35
ENDBRANCH  26  29
ENDBRANCH  24  25
ENDBRANCH   1  24
TORSDOF 16
ENDMDL
MODEL 2
REMARK VINA RESULT:     -12.1      2.445      3.284
REMARK SMILES C[C@H]1CN(c2ccc(C(=O)NCCCCNC(=O)c3ccc(-c4c5nc(c(-c6cc(S(=O)(=O)[O-])ccc6F)c6ccc([nH]6)c(-c6cc(S(=O)(=O)[O-])ccc6F)c6nc(c(-c7cc(S(=O)(=O)[O-])ccc7F)c7ccc4[nH]7)C=C6)C=C5)cc3)cc2[N+](=O)[O-])C[C@@H]1C
REMARK SMILES IDX 14 1 13 2 12 3 11 4 9 5 10 6 8 8 5 9 6 10 83 11 7 12 82 13
REMARK SMILES IDX 4 14 1 15 2 16 3 17 88 18 87 19 89 20 84 21 85 22 86 23
REMARK SMILES IDX 15 24 16 25 17 26 18 28 19 29 20 30 81 31 21 32 80 33 22 34
REMARK SMILES IDX 23 35 24 36 74 37 25 38 79 39 73 40 75 41 26 42 78 43 72 44
REMARK SMILES IDX 71 45 27 47 59 48 39 49 58 50 40 51 43 52 57 53 76 54 41 55
REMARK SMILES IDX 42 56 56 58 77 59 44 60 28 61 29 62 37 63 30 64 36 65 38 66
REMARK SMILES IDX 35 67 31 68 32 69 33 70 34 71 60 72 61 73 69 74 62 75 68 76
REMARK SMILES IDX 70 77 67 78 63 79 64 80 65 81 66 82 45 83 46 84 54 85 47 86
REMARK SMILES IDX 53 87 55 88 52 89 48 90 49 91 50 92 51 93
REMARK H PARENT 11 7 16 27 75 46 43 57
REMARK Flexibility Score: inf
ROOT
ATOM      1  C   UNL A   1      33.764  28.664  25.807  1.00  0.00     0.023 C 
ENDROOT
BRANCH   1   2
ATOM      2  C   UNL A   1      32.900  29.632  24.997  1.00  0.00     0.023 C 
BRANCH   2   3
ATOM      3  C   UNL A   1      31.397  29.361  25.115  1.00  0.00     0.116 C 
BRANCH   3   4
ATOM      4  N   UNL A   1      30.853  28.988  23.823  1.00  0.00    -0.352 N 
ATOM      5  C   UNL A   1      30.913  27.824  23.105  1.00  0.00     0.251 C 
ATOM      6  O   UNL A   1      30.353  27.794  22.009  1.00  0.00    -0.269 OA
ATOM      7  H   UNL A   1      30.347  29.707  23.380  1.00  0.00     0.163 HD
BRANCH   5   8
ATOM      8  C   UNL A   1      31.578  26.587  23.604  1.00  0.00     0.046 A 
ATOM      9  C   UNL A   1      32.965  24.203  24.385  1.00  0.00     0.116 A 
ATOM     10  C   UNL A   1      33.449  25.045  23.371  1.00  0.00     0.034 A 
ATOM     11  C   UNL A   1      31.772  24.607  24.994  1.00  0.00     0.293 A 
ATOM     12  C   UNL A   1      32.765  26.200  22.971  1.00  0.00     0.016 A 
ATOM     13  C   UNL A   1      31.118  25.804  24.656  1.00  0.00     0.101 A 
BRANCH   9  14
ATOM     14  N   UNL A   1      33.710  23.109  24.729  1.00  0.00    -0.365 N 
ATOM     15  C   UNL A   1      36.671  21.871  24.551  1.00  0.00     0.010 C 
ATOM     16  C   UNL A   1      35.460  21.712  25.474  1.00  0.00     0.010 C 
ATOM     17  C   UNL A   1      34.769  23.064  25.731  1.00  0.00     0.120 C 
ATOM     18  C   UNL A   1      34.359  20.859  24.816  1.00  0.00     0.010 C 
ATOM     19  C   UNL A   1      33.602  21.876  23.957  1.00  0.00     0.120 C 
ATOM     20  C   UNL A   1      33.426  20.229  25.854  1.00  0.00     0.010 C 
ENDBRANCH   9  14
BRANCH  11  21
ATOM     21  N   UNL A   1      31.134  23.810  26.026  1.00  0.00     0.065 N 
ATOM     22  O   UNL A   1      31.273  24.206  27.193  1.00  0.00    -0.258 OA
ATOM     23  O   UNL A   1      30.551  22.771  25.690  1.00  0.00    -0.258 OA
ENDBRANCH  11  21
ENDBRANCH   5   8
ENDBRANCH   3   4
ENDBRANCH   2   3
ENDBRANCH   1   2
BRANCH   1  24
ATOM     24  C   UNL A   1      33.784  28.946  27.303  1.00  0.00     0.116 C 
BRANCH  24  25
ATOM     25  N   UNL A   1      33.614  30.356  27.615  1.00  0.00    -0.352 N 
ATOM     26  C   UNL A   1      34.461  31.185  28.309  1.00  0.00     0.251 C 
ATOM     27  H   UNL A   1      32.785  30.771  27.283  1.00  0.00     0.163 HD
ATOM     28  O   UNL A   1      34.095  32.313  28.611  1.00  0.00    -0.269 OA
BRANCH  26  29
ATOM     29  C   UNL A   1      35.791  30.687  28.716  1.00  0.00     0.039 A 
ATOM     30  C   UNL A   1      35.877  29.841  29.824  1.00  0.00     0.014 A 
ATOM     31  C   UNL A   1      36.944  31.043  28.012  1.00  0.00     0.014 A 
ATOM     32  C   UNL A   1      37.118  29.330  30.203  1.00  0.00     0.010 A 
ATOM     33  C   UNL A   1      38.165  30.460  28.336  1.00  0.00     0.010 A 
ATOM     34  C   UNL A   1      38.270  29.616  29.450  1.00  0.00    -0.014 A 
BRANCH  34  35
ATOM     35  C   UNL A   1      39.591  29.073  29.857  1.00  0.00     0.031 A 
ATOM     36  C   UNL A   1      40.356  29.721  30.983  1.00  0.00     0.074 A 
ATOM     37  C   UNL A   1      40.104  28.012  29.203  1.00  0.00     0.049 A 
ATOM     38  N   UNL A   1      41.514  29.388  31.493  1.00  0.00    -0.248 NA
ATOM     39  C   UNL A   1      39.756  30.916  31.598  1.00  0.00     0.031 C 
ATOM     40  C   UNL A   1      39.479  27.341  28.059  1.00  0.00     0.029 A 
ATOM     41  N   UNL A   1      41.264  27.306  29.403  1.00  0.00    -0.354 N 
ATOM     42  C   UNL A   1      41.786  30.336  32.473  1.00  0.00     0.074 A 
ATOM     43  C   UNL A   1      40.702  31.292  32.446  1.00  0.00     0.031 C 
ATOM     44  C   UNL A   1      40.244  26.302  27.685  1.00  0.00     0.029 A 
ATOM     45  C   UNL A   1      41.432  26.256  28.529  1.00  0.00     0.049 A 
ATOM     46  H   UNL A   1      41.915  27.531  30.106  1.00  0.00     0.167 HD
ATOM     47  C   UNL A   1      42.830  30.388  33.334  1.00  0.00     0.034 A 
ATOM     48  C   UNL A   1      42.435  25.361  28.419  1.00  0.00     0.034 A 
ATOM     49  C   UNL A   1      43.887  29.408  33.366  1.00  0.00     0.049 A 
ATOM     50  C   UNL A   1      43.578  25.436  29.404  1.00  0.00     0.074 A 
ATOM     51  C   UNL A   1      44.953  29.322  34.244  1.00  0.00     0.029 A 
ATOM     52  N   UNL A   1      44.020  28.349  32.477  1.00  0.00    -0.354 N 
ATOM     53  N   UNL A   1      43.773  26.292  30.382  1.00  0.00    -0.248 NA
ATOM     54  C   UNL A   1      44.620  24.409  29.286  1.00  0.00     0.031 C 
ATOM     55  C   UNL A   1      45.771  28.264  33.839  1.00  0.00     0.029 A 
ATOM     56  C   UNL A   1      45.168  27.628  32.765  1.00  0.00     0.049 A 
ATOM     57  H   UNL A   1      43.389  28.142  31.750  1.00  0.00     0.167 HD
ATOM     58  C   UNL A   1      44.944  25.882  31.015  1.00  0.00     0.074 A 
ATOM     59  C   UNL A   1      45.387  24.686  30.329  1.00  0.00     0.031 C 
ATOM     60  C   UNL A   1      45.600  26.442  32.064  1.00  0.00     0.034 A 
BRANCH  47  61
ATOM     61  C   UNL A   1      42.898  31.553  34.294  1.00  0.00     0.023 A 
ATOM     62  C   UNL A   1      42.337  31.494  35.582  1.00  0.00     0.031 A 
ATOM     63  C   UNL A   1      43.551  32.740  33.914  1.00  0.00     0.131 A 
ATOM     64  C   UNL A   1      42.394  32.617  36.422  1.00  0.00     0.055 A 
ATOM     65  C   UNL A   1      43.670  33.826  34.783  1.00  0.00     0.041 A 
ATOM     66  F   UNL A   1      44.082  32.865  32.688  1.00  0.00    -0.206 F 
ATOM     67  C   UNL A   1      43.082  33.772  36.043  1.00  0.00     0.022 A 
BRANCH  64  68
ATOM     68  S   UNL A   1      41.459  32.589  37.977  1.00  0.00     0.124 S 
ATOM     69  O   UNL A   1      41.555  33.984  38.403  1.00  0.00    -0.237 OA
ATOM     70  O   UNL A   1      40.140  32.143  37.545  1.00  0.00    -0.237 OA
ATOM     71  O   UNL A   1      42.199  31.640  38.806  1.00  0.00    -0.744 OA
ENDBRANCH  64  68
ENDBRANCH  47  61
BRANCH  48  72
ATOM     72  C   UNL A   1      42.428  24.328  27.340  1.00  0.00     0.023 A 
ATOM     73  C   UNL A   1      41.709  23.129  27.481  1.00  0.00     0.031 A 
ATOM     74  C   UNL A   1      43.211  24.490  26.182  1.00  0.00     0.131 A 
ATOM     75  C   UNL A   1      41.850  22.111  26.524  1.00  0.00     0.055 A 
ATOM     76  C   UNL A   1      43.290  23.502  25.199  1.00  0.00     0.041 A 
ATOM     77  F   UNL A   1      43.917  25.616  25.991  1.00  0.00    -0.206 F 
ATOM     78  C   UNL A   1      42.624  22.295  25.377  1.00  0.00     0.022 A 
BRANCH  75  79
ATOM     79  S   UNL A   1      41.112  20.488  26.868  1.00  0.00     0.124 S 
ATOM     80  O   UNL A   1      42.190  19.585  26.484  1.00  0.00    -0.237 OA
ATOM     81  O   UNL A   1      40.831  20.582  28.297  1.00  0.00    -0.237 OA
ATOM     82  O   UNL A   1      39.935  20.460  26.002  1.00  0.00    -0.744 OA
ENDBRANCH  75  79
ENDBRANCH  48  72
BRANCH  60  83
ATOM     83  C   UNL A   1      46.838  25.727  32.556  1.00  0.00     0.023 A 
ATOM     84  C   UNL A   1      46.789  24.810  33.620  1.00  0.00     0.031 A 
ATOM     85  C   UNL A   1      48.091  26.001  31.979  1.00  0.00     0.131 A 
ATOM     86  C   UNL A   1      47.978  24.271  34.134  1.00  0.00     0.055 A 
ATOM     87  C   UNL A   1      49.261  25.397  32.441  1.00  0.00     0.041 A 
ATOM     88  F   UNL A   1      48.202  26.870  30.962  1.00  0.00    -0.206 F 
ATOM     89  C   UNL A   1      49.211  24.543  33.539  1.00  0.00     0.022 A 
BRANCH  86  90
ATOM     90  S   UNL A   1      47.903  23.328  35.681  1.00  0.00     0.124 S 
ATOM     91  O   UNL A   1      48.176  24.360  36.677  1.00  0.00    -0.237 OA
ATOM     92  O   UNL A   1      46.542  22.805  35.662  1.00  0.00    -0.237 OA
ATOM     93  O   UNL A   1      48.955  22.327  35.522  1.00  0.00    -0.744 OA
ENDBRANCH  86  90
ENDBRANCH  60  83
ENDBRANCH  34  35
ENDBRANCH  26  29
ENDBRANCH  24  25
ENDBRANCH   1  24
TORSDOF 16
ENDMDL
MODEL 3
REMARK VINA RESULT:     -12.0      4.866     10.289
REMARK SMILES C[C@H]1CN(c2ccc(C(=O)NCCCCNC(=O)c3ccc(-c4c5nc(c(-c6cc(S(=O)(=O)[O-])ccc6F)c6ccc([nH]6)c(-c6cc(S(=O)(=O)[O-])ccc6F)c6nc(c(-c7cc(S(=O)(=O)[O-])ccc7F)c7ccc4[nH]7)C=C6)C=C5)cc3)cc2[N+](=O)[O-])C[C@@H]1C
REMARK SMILES IDX 14 1 13 2 12 3 11 4 9 5 10 6 8 8 5 9 6 10 83 11 7 12 82 13
REMARK SMILES IDX 4 14 1 15 2 16 3 17 88 18 87 19 89 20 84 21 85 22 86 23
REMARK SMILES IDX 15 24 16 25 17 26 18 28 19 29 20 30 81 31 21 32 80 33 22 34
REMARK SMILES IDX 23 35 24 36 74 37 25 38 79 39 73 40 75 41 26 42 78 43 72 44
REMARK SMILES IDX 71 45 27 47 59 48 39 49 58 50 40 51 43 52 57 53 76 54 41 55
REMARK SMILES IDX 42 56 56 58 77 59 44 60 28 61 29 62 37 63 30 64 36 65 38 66
REMARK SMILES IDX 35 67 31 68 32 69 33 70 34 71 60 72 61 73 69 74 62 75 68 76
REMARK SMILES IDX 70 77 67 78 63 79 64 80 65 81 66 82 45 83 46 84 54 85 47 86
REMARK SMILES IDX 53 87 55 88 52 89 48 90 49 91 50 92 51 93
REMARK H PARENT 11 7 16 27 75 46 43 57
REMARK Flexibility Score: inf
ROOT
ATOM      1  C   UNL A   1      35.168  21.724  25.644  1.00  0.00     0.023 C 
ENDROOT
BRANCH   1   2
ATOM      2  C   UNL A   1      34.927  20.367  24.981  1.00  0.00     0.023 C 
BRANCH   2   3
ATOM      3  C   UNL A   1      33.485  19.868  25.108  1.00  0.00     0.116 C 
BRANCH   3   4
ATOM      4  N   UNL A   1      32.827  19.905  23.816  1.00  0.00    -0.352 N 
ATOM      5  C   UNL A   1      32.264  20.929  23.103  1.00  0.00     0.251 C 
ATOM      6  O   UNL A   1      31.760  20.663  22.012  1.00  0.00    -0.269 OA
ATOM      7  H   UNL A   1      32.777  19.030  23.368  1.00  0.00     0.163 HD
BRANCH   5   8
ATOM      8  C   UNL A   1      32.276  22.348  23.559  1.00  0.00     0.046 A 
ATOM      9  C   UNL A   1      32.478  25.099  24.337  1.00  0.00     0.116 A 
ATOM     10  C   UNL A   1      33.214  24.576  23.262  1.00  0.00     0.034 A 
ATOM     11  C   UNL A   1      31.637  24.198  24.996  1.00  0.00     0.293 A 
ATOM     12  C   UNL A   1      33.133  23.228  22.889  1.00  0.00     0.016 A 
ATOM     13  C   UNL A   1      31.489  22.862  24.584  1.00  0.00     0.101 A 
BRANCH   9  14
ATOM     14  N   UNL A   1      32.598  26.433  24.615  1.00  0.00    -0.365 N 
ATOM     15  C   UNL A   1      33.714  29.204  23.428  1.00  0.00     0.010 C 
ATOM     16  C   UNL A   1      32.631  28.786  24.426  1.00  0.00     0.010 C 
ATOM     17  C   UNL A   1      31.889  27.522  23.952  1.00  0.00     0.120 C 
ATOM     18  C   UNL A   1      33.242  28.364  25.776  1.00  0.00     0.010 C 
ATOM     19  C   UNL A   1      33.626  26.900  25.539  1.00  0.00     0.120 C 
ATOM     20  C   UNL A   1      32.234  28.479  26.922  1.00  0.00     0.010 C 
ENDBRANCH   9  14
BRANCH  11  21
ATOM     21  N   UNL A   1      30.853  24.590  26.153  1.00  0.00     0.065 N 
ATOM     22  O   UNL A   1      31.202  24.111  27.243  1.00  0.00    -0.258 OA
ATOM     23  O   UNL A   1      29.866  25.315  25.976  1.00  0.00    -0.258 OA
ENDBRANCH  11  21
ENDBRANCH   5   8
ENDBRANCH   3   4
ENDBRANCH   2   3
ENDBRANCH   1   2
BRANCH   1  24
ATOM     24  C   UNL A   1      36.630  22.149  25.685  1.00  0.00     0.116 C 
BRANCH  24  25
ATOM     25  N   UNL A   1      37.542  21.024  25.805  1.00  0.00    -0.352 N 
ATOM     26  C   UNL A   1      38.885  21.039  26.092  1.00  0.00     0.251 C 
ATOM     27  H   UNL A   1      37.145  20.134  25.664  1.00  0.00     0.163 HD
ATOM     28  O   UNL A   1      39.537  20.007  26.007  1.00  0.00    -0.269 OA
BRANCH  26  29
ATOM     29  C   UNL A   1      39.533  22.315  26.461  1.00  0.00     0.039 A 
ATOM     30  C   UNL A   1      39.079  23.492  25.862  1.00  0.00     0.014 A 
ATOM     31  C   UNL A   1      40.574  22.356  27.392  1.00  0.00     0.014 A 
ATOM     32  C   UNL A   1      39.651  24.711  26.224  1.00  0.00     0.010 A 
ATOM     33  C   UNL A   1      41.080  23.579  27.817  1.00  0.00     0.010 A 
ATOM     34  C   UNL A   1      40.641  24.770  27.220  1.00  0.00    -0.014 A 
BRANCH  34  35
ATOM     35  C   UNL A   1      41.252  26.069  27.602  1.00  0.00     0.031 A 
ATOM     36  C   UNL A   1      42.638  26.418  27.123  1.00  0.00     0.074 A 
ATOM     37  C   UNL A   1      40.566  26.920  28.390  1.00  0.00     0.049 A 
ATOM     38  N   UNL A   1      43.336  27.503  27.336  1.00  0.00    -0.248 NA
ATOM     39  C   UNL A   1      43.344  25.403  26.324  1.00  0.00     0.031 C 
ATOM     40  C   UNL A   1      39.240  26.662  28.961  1.00  0.00     0.029 A 
ATOM     41  N   UNL A   1      40.880  28.175  28.847  1.00  0.00    -0.354 N 
ATOM     42  C   UNL A   1      44.562  27.297  26.713  1.00  0.00     0.074 A 
ATOM     43  C   UNL A   1      44.536  25.960  26.166  1.00  0.00     0.031 C 
ATOM     44  C   UNL A   1      38.843  27.738  29.659  1.00  0.00     0.029 A 
ATOM     45  C   UNL A   1      39.897  28.746  29.624  1.00  0.00     0.049 A 
ATOM     46  H   UNL A   1      41.730  28.626  28.637  1.00  0.00     0.167 HD
ATOM     47  C   UNL A   1      45.603  28.155  26.587  1.00  0.00     0.034 A 
ATOM     48  C   UNL A   1      39.856  29.944  30.242  1.00  0.00     0.034 A 
ATOM     49  C   UNL A   1      45.599  29.497  27.115  1.00  0.00     0.049 A 
ATOM     50  C   UNL A   1      41.024  30.884  30.069  1.00  0.00     0.074 A 
ATOM     51  C   UNL A   1      46.567  30.476  26.982  1.00  0.00     0.029 A 
ATOM     52  N   UNL A   1      44.582  30.048  27.884  1.00  0.00    -0.354 N 
ATOM     53  N   UNL A   1      42.142  30.702  29.402  1.00  0.00    -0.248 NA
ATOM     54  C   UNL A   1      40.914  32.199  30.711  1.00  0.00     0.031 C 
ATOM     55  C   UNL A   1      46.175  31.587  27.734  1.00  0.00     0.029 A 
ATOM     56  C   UNL A   1      44.917  31.339  28.261  1.00  0.00     0.049 A 
ATOM     57  H   UNL A   1      43.745  29.588  28.125  1.00  0.00     0.167 HD
ATOM     58  C   UNL A   1      42.850  31.896  29.518  1.00  0.00     0.074 A 
ATOM     59  C   UNL A   1      42.017  32.796  30.288  1.00  0.00     0.031 C 
ATOM     60  C   UNL A   1      44.079  32.221  29.038  1.00  0.00     0.034 A 
BRANCH  47  61
ATOM     61  C   UNL A   1      46.842  27.665  25.876  1.00  0.00     0.023 A 
ATOM     62  C   UNL A   1      47.096  27.964  24.525  1.00  0.00     0.031 A 
ATOM     63  C   UNL A   1      47.793  26.894  26.569  1.00  0.00     0.131 A 
ATOM     64  C   UNL A   1      48.244  27.452  23.899  1.00  0.00     0.055 A 
ATOM     65  C   UNL A   1      48.969  26.453  25.961  1.00  0.00     0.041 A 
ATOM     66  F   UNL A   1      47.592  26.554  27.852  1.00  0.00    -0.206 F 
ATOM     67  C   UNL A   1      49.196  26.724  24.616  1.00  0.00     0.022 A 
BRANCH  64  68
ATOM     68  S   UNL A   1      48.420  27.656  22.105  1.00  0.00     0.124 S 
ATOM     69  O   UNL A   1      47.123  28.221  21.744  1.00  0.00    -0.237 OA
ATOM     70  O   UNL A   1      49.561  28.558  22.000  1.00  0.00    -0.237 OA
ATOM     71  O   UNL A   1      48.654  26.294  21.626  1.00  0.00    -0.744 OA
ENDBRANCH  64  68
ENDBRANCH  47  61
BRANCH  48  72
ATOM     72  C   UNL A   1      38.689  30.329  31.092  1.00  0.00     0.023 A 
ATOM     73  C   UNL A   1      37.577  30.996  30.548  1.00  0.00     0.031 A 
ATOM     74  C   UNL A   1      38.705  30.109  32.481  1.00  0.00     0.131 A 
ATOM     75  C   UNL A   1      36.571  31.487  31.397  1.00  0.00     0.055 A 
ATOM     76  C   UNL A   1      37.667  30.537  33.310  1.00  0.00     0.041 A 
ATOM     77  F   UNL A   1      39.739  29.474  33.057  1.00  0.00    -0.206 F 
ATOM     78  C   UNL A   1      36.601  31.250  32.771  1.00  0.00     0.022 A 
BRANCH  75  79
ATOM     79  S   UNL A   1      35.288  32.559  30.690  1.00  0.00     0.124 S 
ATOM     80  O   UNL A   1      34.804  31.748  29.579  1.00  0.00    -0.237 OA
ATOM     81  O   UNL A   1      34.372  32.716  31.815  1.00  0.00    -0.237 OA
ATOM     82  O   UNL A   1      36.023  33.764  30.312  1.00  0.00    -0.744 OA
ENDBRANCH  75  79
ENDBRANCH  48  72
BRANCH  60  83
ATOM     83  C   UNL A   1      44.562  33.630  29.296  1.00  0.00     0.023 A 
ATOM     84  C   UNL A   1      44.054  34.728  28.582  1.00  0.00     0.031 A 
ATOM     85  C   UNL A   1      45.575  33.869  30.241  1.00  0.00     0.131 A 
ATOM     86  C   UNL A   1      44.623  35.998  28.755  1.00  0.00     0.055 A 
ATOM     87  C   UNL A   1      46.080  35.151  30.470  1.00  0.00     0.041 A 
ATOM     88  F   UNL A   1      46.101  32.860  30.953  1.00  0.00    -0.206 F 
ATOM     89  C   UNL A   1      45.619  36.221  29.709  1.00  0.00     0.022 A 
BRANCH  86  90
ATOM     90  S   UNL A   1      44.147  37.325  27.612  1.00  0.00     0.124 S 
ATOM     91  O   UNL A   1      43.486  38.270  28.506  1.00  0.00    -0.237 OA
ATOM     92  O   UNL A   1      45.435  37.749  27.074  1.00  0.00    -0.237 OA
ATOM     93  O   UNL A   1      43.266  36.654  26.658  1.00  0.00    -0.744 OA
ENDBRANCH  86  90
ENDBRANCH  60  83
ENDBRANCH  34  35
ENDBRANCH  26  29
ENDBRANCH  24  25
ENDBRANCH   1  24
TORSDOF 16
ENDMDL
