MODEL 1
REMARK VINA RESULT:     -10.3      0.000      0.000
REMARK SMILES CN(CC(C)(C)O)C(=O)N[C@H]1CC[C@H](C(=O)NCCCCNC(=O)c2ccc(-c3c4nc(c(-c5cc(S(=O)(=O)[O-])ccc5F)c5ccc([nH]5)c(-c5cc(S(=O)(=O)[O-])ccc5F)c5nc(c(-c6cc(S(=O)(=O)[O-])ccc6F)c6ccc3[nH]6)C=C5)C=C4)cc2)C1
REMARK SMILES IDX 18 1 17 2 15 3 16 4 14 6 11 7 12 8 88 9 13 10 10 11 8 12
REMARK SMILES IDX 9 13 2 15 1 16 3 17 4 18 5 19 6 20 7 21 19 23 20 24 21 25
REMARK SMILES IDX 22 26 23 27 24 29 25 30 26 31 87 32 27 33 86 34 28 35 29 36
REMARK SMILES IDX 30 37 80 38 31 39 85 40 79 41 81 42 32 43 84 44 78 45 77 46
REMARK SMILES IDX 33 48 65 49 45 50 64 51 46 52 49 53 63 54 82 55 47 56 48 57
REMARK SMILES IDX 62 59 83 60 50 61 34 62 35 63 43 64 36 65 42 66 44 67 41 68
REMARK SMILES IDX 37 69 38 70 39 71 40 72 66 73 67 74 75 75 68 76 74 77 76 78
REMARK SMILES IDX 73 79 69 80 70 81 71 82 72 83 51 84 52 85 60 86 53 87 59 88
REMARK SMILES IDX 61 89 58 90 54 91 55 92 56 93 57 94
REMARK H PARENT 17 5 10 14 7 22 22 28 81 47 49 58
REMARK Flexibility Score: inf
ROOT
ATOM      1  C   UNL A   1      40.785  21.997  26.607  1.00  0.00     0.116 C 
ENDROOT
BRANCH   1   2
ATOM      2  N   UNL A   1      39.940  23.055  27.136  1.00  0.00    -0.356 N 
ATOM      3  C   UNL A   1      38.787  23.610  26.672  1.00  0.00     0.223 C 
ATOM      4  O   UNL A   1      38.322  24.571  27.288  1.00  0.00    -0.275 OA
ATOM      5  H   UNL A   1      40.261  23.440  27.984  1.00  0.00     0.163 HD
BRANCH   3   6
ATOM      6  C   UNL A   1      38.017  23.002  25.510  1.00  0.00     0.080 C 
ATOM      7  C   UNL A   1      35.740  22.082  25.361  1.00  0.00     0.084 C 
ATOM      8  C   UNL A   1      36.738  20.939  25.140  1.00  0.00     0.026 C 
ATOM      9  C   UNL A   1      36.549  23.325  25.681  1.00  0.00     0.038 C 
ATOM     10  C   UNL A   1      38.145  21.501  25.317  1.00  0.00     0.015 C 
BRANCH   7  11
ATOM     11  N   UNL A   1      34.850  22.261  24.233  1.00  0.00    -0.335 N 
ATOM     12  C   UNL A   1      33.689  21.692  23.856  1.00  0.00     0.317 C 
ATOM     13  O   UNL A   1      33.098  22.273  22.939  1.00  0.00    -0.249 OA
ATOM     14  H   UNL A   1      35.161  22.951  23.603  1.00  0.00     0.165 HD
BRANCH  12  15
ATOM     15  N   UNL A   1      33.151  20.601  24.483  1.00  0.00    -0.325 N 
ATOM     16  C   UNL A   1      31.962  20.885  25.277  1.00  0.00     0.148 C 
BRANCH  15  17
ATOM     17  C   UNL A   1      33.603  19.200  24.515  1.00  0.00     0.155 C 
BRANCH  17  18
ATOM     18  C   UNL A   1      32.904  18.104  23.663  1.00  0.00     0.077 C 
ATOM     19  C   UNL A   1      32.276  18.518  22.332  1.00  0.00     0.043 C 
ATOM     20  C   UNL A   1      33.956  17.006  23.398  1.00  0.00     0.043 C 
BRANCH  18  21
ATOM     21  O   UNL A   1      31.865  17.520  24.464  1.00  0.00    -0.389 OA
ATOM     22  H   UNL A   1      31.123  17.263  23.894  1.00  0.00     0.211 HD
ENDBRANCH  18  21
ENDBRANCH  17  18
ENDBRANCH  15  17
ENDBRANCH  12  15
ENDBRANCH   7  11
ENDBRANCH   3   6
ENDBRANCH   1   2
BRANCH   1  23
ATOM     23  C   UNL A   1      41.323  21.115  27.729  1.00  0.00     0.023 C 
BRANCH  23  24
ATOM     24  C   UNL A   1      41.996  19.833  27.237  1.00  0.00     0.023 C 
BRANCH  24  25
ATOM     25  C   UNL A   1      41.976  19.644  25.725  1.00  0.00     0.116 C 
BRANCH  25  26
ATOM     26  N   UNL A   1      43.289  19.325  25.189  1.00  0.00    -0.352 N 
ATOM     27  C   UNL A   1      44.357  20.161  24.953  1.00  0.00     0.251 C 
ATOM     28  H   UNL A   1      43.434  18.377  24.962  1.00  0.00     0.163 HD
ATOM     29  O   UNL A   1      45.320  19.754  24.322  1.00  0.00    -0.269 OA
BRANCH  27  30
ATOM     30  C   UNL A   1      44.307  21.556  25.445  1.00  0.00     0.039 A 
ATOM     31  C   UNL A   1      44.772  21.838  26.731  1.00  0.00     0.014 A 
ATOM     32  C   UNL A   1      43.833  22.584  24.625  1.00  0.00     0.014 A 
ATOM     33  C   UNL A   1      44.831  23.164  27.167  1.00  0.00     0.010 A 
ATOM     34  C   UNL A   1      43.972  23.909  25.030  1.00  0.00     0.010 A 
ATOM     35  C   UNL A   1      44.473  24.215  26.305  1.00  0.00    -0.014 A 
BRANCH  35  36
ATOM     36  C   UNL A   1      44.617  25.636  26.717  1.00  0.00     0.031 A 
ATOM     37  C   UNL A   1      45.955  26.319  26.617  1.00  0.00     0.074 A 
ATOM     38  C   UNL A   1      43.560  26.292  27.240  1.00  0.00     0.049 A 
ATOM     39  N   UNL A   1      46.298  27.526  26.987  1.00  0.00    -0.248 NA
ATOM     40  C   UNL A   1      47.060  25.529  26.051  1.00  0.00     0.031 C 
ATOM     41  C   UNL A   1      42.220  25.727  27.421  1.00  0.00     0.029 A 
ATOM     42  N   UNL A   1      43.443  27.574  27.718  1.00  0.00    -0.354 N 
ATOM     43  C   UNL A   1      47.658  27.634  26.718  1.00  0.00     0.074 A 
ATOM     44  C   UNL A   1      48.087  26.350  26.205  1.00  0.00     0.031 C 
ATOM     45  C   UNL A   1      41.411  26.666  27.936  1.00  0.00     0.029 A 
ATOM     46  C   UNL A   1      42.180  27.883  28.175  1.00  0.00     0.049 A 
ATOM     47  H   UNL A   1      44.191  28.213  27.733  1.00  0.00     0.167 HD
ATOM     48  C   UNL A   1      48.470  28.711  26.864  1.00  0.00     0.034 A 
ATOM     49  C   UNL A   1      41.702  29.013  28.734  1.00  0.00     0.034 A 
ATOM     50  C   UNL A   1      48.021  29.989  27.359  1.00  0.00     0.049 A 
ATOM     51  C   UNL A   1      42.637  30.184  28.920  1.00  0.00     0.074 A 
ATOM     52  C   UNL A   1      48.742  31.164  27.480  1.00  0.00     0.029 A 
ATOM     53  N   UNL A   1      46.741  30.260  27.827  1.00  0.00    -0.354 N 
ATOM     54  N   UNL A   1      43.906  30.289  28.599  1.00  0.00    -0.248 NA
ATOM     55  C   UNL A   1      42.070  31.392  29.534  1.00  0.00     0.031 C 
ATOM     56  C   UNL A   1      47.927  32.118  28.097  1.00  0.00     0.029 A 
ATOM     57  C   UNL A   1      46.667  31.570  28.276  1.00  0.00     0.049 A 
ATOM     58  H   UNL A   1      45.997  29.616  27.837  1.00  0.00     0.167 HD
ATOM     59  C   UNL A   1      44.276  31.588  28.937  1.00  0.00     0.074 A 
ATOM     60  C   UNL A   1      43.093  32.231  29.471  1.00  0.00     0.031 C 
ATOM     61  C   UNL A   1      45.482  32.199  28.811  1.00  0.00     0.034 A 
BRANCH  48  62
ATOM     62  C   UNL A   1      49.930  28.542  26.518  1.00  0.00     0.023 A 
ATOM     63  C   UNL A   1      50.419  28.769  25.220  1.00  0.00     0.031 A 
ATOM     64  C   UNL A   1      50.850  28.142  27.504  1.00  0.00     0.131 A 
ATOM     65  C   UNL A   1      51.770  28.529  24.926  1.00  0.00     0.055 A 
ATOM     66  C   UNL A   1      52.209  27.988  27.226  1.00  0.00     0.041 A 
ATOM     67  F   UNL A   1      50.441  27.888  28.758  1.00  0.00    -0.206 F 
ATOM     68  C   UNL A   1      52.674  28.168  25.928  1.00  0.00     0.022 A 
BRANCH  65  69
ATOM     69  S   UNL A   1      52.300  28.563  23.192  1.00  0.00     0.124 S 
ATOM     70  O   UNL A   1      53.748  28.696  23.329  1.00  0.00    -0.237 OA
ATOM     71  O   UNL A   1      51.820  27.280  22.691  1.00  0.00    -0.237 OA
ATOM     72  O   UNL A   1      51.622  29.738  22.650  1.00  0.00    -0.744 OA
ENDBRANCH  65  69
ENDBRANCH  48  62
BRANCH  49  73
ATOM     73  C   UNL A   1      40.278  29.107  29.172  1.00  0.00     0.023 A 
ATOM     74  C   UNL A   1      39.933  28.997  30.528  1.00  0.00     0.031 A 
ATOM     75  C   UNL A   1      39.234  29.238  28.238  1.00  0.00     0.131 A 
ATOM     76  C   UNL A   1      38.582  28.957  30.909  1.00  0.00     0.055 A 
ATOM     77  C   UNL A   1      37.894  29.263  28.627  1.00  0.00     0.041 A 
ATOM     78  F   UNL A   1      39.505  29.347  26.927  1.00  0.00    -0.206 F 
ATOM     79  C   UNL A   1      37.560  29.105  29.968  1.00  0.00     0.022 A 
BRANCH  76  80
ATOM     80  S   UNL A   1      38.180  28.593  32.639  1.00  0.00     0.124 S 
ATOM     81  O   UNL A   1      38.209  27.136  32.649  1.00  0.00    -0.237 OA
ATOM     82  O   UNL A   1      39.264  29.263  33.349  1.00  0.00    -0.237 OA
ATOM     83  O   UNL A   1      36.859  29.194  32.814  1.00  0.00    -0.744 OA
ENDBRANCH  76  80
ENDBRANCH  49  73
BRANCH  61  84
ATOM     84  C   UNL A   1      45.564  33.654  29.208  1.00  0.00     0.023 A 
ATOM     85  C   UNL A   1      45.175  34.687  28.336  1.00  0.00     0.031 A 
ATOM     86  C   UNL A   1      46.051  34.012  30.478  1.00  0.00     0.131 A 
ATOM     87  C   UNL A   1      45.335  36.026  28.723  1.00  0.00     0.055 A 
ATOM     88  C   UNL A   1      46.143  35.344  30.883  1.00  0.00     0.041 A 
ATOM     89  F   UNL A   1      46.442  33.069  31.350  1.00  0.00    -0.206 F 
ATOM     90  C   UNL A   1      45.798  36.360  29.998  1.00  0.00     0.022 A 
BRANCH  87  91
ATOM     91  S   UNL A   1      45.027  37.329  27.500  1.00  0.00     0.124 S 
ATOM     92  O   UNL A   1      46.184  37.198  26.620  1.00  0.00    -0.237 OA
ATOM     93  O   UNL A   1      43.745  36.927  26.930  1.00  0.00    -0.237 OA
ATOM     94  O   UNL A   1      44.993  38.551  28.301  1.00  0.00    -0.744 OA
ENDBRANCH  87  91
ENDBRANCH  61  84
ENDBRANCH  35  36
ENDBRANCH  27  30
ENDBRANCH  25  26
ENDBRANCH  24  25
ENDBRANCH  23  24
ENDBRANCH   1  23
TORSDOF 19
ENDMDL
MODEL 2
REMARK VINA RESULT:     -10.3      3.560      5.129
REMARK SMILES CN(CC(C)(C)O)C(=O)N[C@H]1CC[C@H](C(=O)NCCCCNC(=O)c2ccc(-c3c4nc(c(-c5cc(S(=O)(=O)[O-])ccc5F)c5ccc([nH]5)c(-c5cc(S(=O)(=O)[O-])ccc5F)c5nc(c(-c6cc(S(=O)(=O)[O-])ccc6F)c6ccc3[nH]6)C=C5)C=C4)cc2)C1
REMARK SMILES IDX 18 1 17 2 15 3 16 4 14 6 11 7 12 8 88 9 13 10 10 11 8 12
REMARK SMILES IDX 9 13 2 15 1 16 3 17 4 18 5 19 6 20 7 21 19 23 20 24 21 25
REMARK SMILES IDX 22 26 23 27 24 29 25 30 26 31 87 32 27 33 86 34 28 35 29 36
REMARK SMILES IDX 30 37 80 38 31 39 85 40 79 41 81 42 32 43 84 44 78 45 77 46
REMARK SMILES IDX 33 48 65 49 45 50 64 51 46 52 49 53 63 54 82 55 47 56 48 57
REMARK SMILES IDX 62 59 83 60 50 61 34 62 35 63 43 64 36 65 42 66 44 67 41 68
REMARK SMILES IDX 37 69 38 70 39 71 40 72 66 73 67 74 75 75 68 76 74 77 76 78
REMARK SMILES IDX 73 79 69 80 70 81 71 82 72 83 51 84 52 85 60 86 53 87 59 88
REMARK SMILES IDX 61 89 58 90 54 91 55 92 56 93 57 94
REMARK H PARENT 17 5 10 14 7 22 22 28 81 47 49 58
REMARK Flexibility Score: inf
ROOT
ATOM      1  C   UNL A   1      34.303  20.974  25.148  1.00  0.00     0.116 C 
ENDROOT
BRANCH   1   2
ATOM      2  N   UNL A   1      33.883  21.536  26.421  1.00  0.00    -0.356 N 
ATOM      3  C   UNL A   1      32.968  22.496  26.729  1.00  0.00     0.223 C 
ATOM      4  O   UNL A   1      32.877  22.847  27.907  1.00  0.00    -0.275 OA
ATOM      5  H   UNL A   1      34.345  21.154  27.202  1.00  0.00     0.163 HD
BRANCH   3   6
ATOM      6  C   UNL A   1      31.997  23.038  25.692  1.00  0.00     0.080 C 
ATOM      7  C   UNL A   1      31.631  25.314  24.830  1.00  0.00     0.084 C 
ATOM      8  C   UNL A   1      30.377  24.881  25.599  1.00  0.00     0.026 C 
ATOM      9  C   UNL A   1      32.653  24.202  24.981  1.00  0.00     0.038 C 
ATOM     10  C   UNL A   1      30.644  23.505  26.201  1.00  0.00     0.015 C 
BRANCH   7  11
ATOM     11  N   UNL A   1      31.345  25.636  23.448  1.00  0.00    -0.335 N 
ATOM     12  C   UNL A   1      31.300  26.784  22.743  1.00  0.00     0.317 C 
ATOM     13  O   UNL A   1      31.244  26.640  21.517  1.00  0.00    -0.249 OA
ATOM     14  H   UNL A   1      31.138  24.843  22.903  1.00  0.00     0.165 HD
BRANCH  12  15
ATOM     15  N   UNL A   1      31.390  28.021  23.320  1.00  0.00    -0.325 N 
ATOM     16  C   UNL A   1      32.753  28.503  23.508  1.00  0.00     0.148 C 
BRANCH  15  17
ATOM     17  C   UNL A   1      30.336  28.922  23.816  1.00  0.00     0.155 C 
BRANCH  17  18
ATOM     18  C   UNL A   1      29.302  29.568  22.850  1.00  0.00     0.077 C 
ATOM     19  C   UNL A   1      27.913  28.938  22.757  1.00  0.00     0.043 C 
ATOM     20  C   UNL A   1      29.154  31.044  23.278  1.00  0.00     0.043 C 
BRANCH  18  21
ATOM     21  O   UNL A   1      29.868  29.557  21.531  1.00  0.00    -0.389 OA
ATOM     22  H   UNL A   1      30.643  28.973  21.516  1.00  0.00     0.211 HD
ENDBRANCH  18  21
ENDBRANCH  17  18
ENDBRANCH  15  17
ENDBRANCH  12  15
ENDBRANCH   7  11
ENDBRANCH   3   6
ENDBRANCH   1   2
BRANCH   1  23
ATOM     23  C   UNL A   1      35.118  21.984  24.347  1.00  0.00     0.023 C 
BRANCH  23  24
ATOM     24  C   UNL A   1      36.610  21.659  24.281  1.00  0.00     0.023 C 
BRANCH  24  25
ATOM     25  C   UNL A   1      37.415  22.111  25.493  1.00  0.00     0.116 C 
BRANCH  25  26
ATOM     26  N   UNL A   1      38.473  21.176  25.836  1.00  0.00    -0.352 N 
ATOM     27  C   UNL A   1      39.718  21.430  26.367  1.00  0.00     0.251 C 
ATOM     28  H   UNL A   1      38.272  20.228  25.664  1.00  0.00     0.163 HD
ATOM     29  O   UNL A   1      40.552  20.539  26.415  1.00  0.00    -0.269 OA
BRANCH  27  30
ATOM     30  C   UNL A   1      40.037  22.795  26.844  1.00  0.00     0.039 A 
ATOM     31  C   UNL A   1      40.891  22.947  27.938  1.00  0.00     0.014 A 
ATOM     32  C   UNL A   1      39.520  23.917  26.191  1.00  0.00     0.014 A 
ATOM     33  C   UNL A   1      41.285  24.229  28.330  1.00  0.00     0.010 A 
ATOM     34  C   UNL A   1      39.981  25.186  26.530  1.00  0.00     0.010 A 
ATOM     35  C   UNL A   1      40.870  25.357  27.603  1.00  0.00    -0.014 A 
BRANCH  35  36
ATOM     36  C   UNL A   1      41.353  26.720  27.947  1.00  0.00     0.031 A 
ATOM     37  C   UNL A   1      42.771  27.120  27.633  1.00  0.00     0.074 A 
ATOM     38  C   UNL A   1      40.538  27.575  28.598  1.00  0.00     0.049 A 
ATOM     39  N   UNL A   1      43.399  28.233  27.913  1.00  0.00    -0.248 NA
ATOM     40  C   UNL A   1      43.600  26.124  26.937  1.00  0.00     0.031 C 
ATOM     41  C   UNL A   1      39.154  27.292  28.989  1.00  0.00     0.029 A 
ATOM     42  N   UNL A   1      40.750  28.854  29.050  1.00  0.00    -0.354 N 
ATOM     43  C   UNL A   1      44.698  28.065  27.446  1.00  0.00     0.074 A 
ATOM     44  C   UNL A   1      44.781  26.720  26.915  1.00  0.00     0.031 C 
ATOM     45  C   UNL A   1      38.634  28.375  29.588  1.00  0.00     0.029 A 
ATOM     46  C   UNL A   1      39.657  29.412  29.676  1.00  0.00     0.049 A 
ATOM     47  H   UNL A   1      41.605  29.330  28.937  1.00  0.00     0.167 HD
ATOM     48  C   UNL A   1      45.719  28.956  27.441  1.00  0.00     0.034 A 
ATOM     49  C   UNL A   1      39.502  30.614  30.265  1.00  0.00     0.034 A 
ATOM     50  C   UNL A   1      45.613  30.299  27.957  1.00  0.00     0.049 A 
ATOM     51  C   UNL A   1      40.668  31.574  30.277  1.00  0.00     0.074 A 
ATOM     52  C   UNL A   1      46.563  31.305  27.937  1.00  0.00     0.029 A 
ATOM     53  N   UNL A   1      44.497  30.821  28.597  1.00  0.00    -0.354 N 
ATOM     54  N   UNL A   1      41.871  31.421  29.772  1.00  0.00    -0.248 NA
ATOM     55  C   UNL A   1      40.451  32.871  30.931  1.00  0.00     0.031 C 
ATOM     56  C   UNL A   1      46.055  32.403  28.637  1.00  0.00     0.029 A 
ATOM     57  C   UNL A   1      44.752  32.119  29.014  1.00  0.00     0.049 A 
ATOM     58  H   UNL A   1      43.649  30.341  28.735  1.00  0.00     0.167 HD
ATOM     59  C   UNL A   1      42.538  32.619  30.014  1.00  0.00     0.074 A 
ATOM     60  C   UNL A   1      41.599  33.487  30.695  1.00  0.00     0.031 C 
ATOM     61  C   UNL A   1      43.809  32.975  29.696  1.00  0.00     0.034 A 
BRANCH  48  62
ATOM     62  C   UNL A   1      47.049  28.496  26.891  1.00  0.00     0.023 A 
ATOM     63  C   UNL A   1      47.237  28.227  25.524  1.00  0.00     0.031 A 
ATOM     64  C   UNL A   1      48.149  28.321  27.751  1.00  0.00     0.131 A 
ATOM     65  C   UNL A   1      48.469  27.732  25.069  1.00  0.00     0.055 A 
ATOM     66  C   UNL A   1      49.396  27.910  27.279  1.00  0.00     0.041 A 
ATOM     67  F   UNL A   1      48.026  28.540  29.070  1.00  0.00    -0.206 F 
ATOM     68  C   UNL A   1      49.558  27.600  25.932  1.00  0.00     0.022 A 
BRANCH  65  69
ATOM     69  S   UNL A   1      48.585  27.135  23.361  1.00  0.00     0.124 S 
ATOM     70  O   UNL A   1      50.004  27.332  23.075  1.00  0.00    -0.237 OA
ATOM     71  O   UNL A   1      48.143  25.750  23.480  1.00  0.00    -0.237 OA
ATOM     72  O   UNL A   1      47.681  28.018  22.627  1.00  0.00    -0.744 OA
ENDBRANCH  65  69
ENDBRANCH  48  62
BRANCH  49  73
ATOM     73  C   UNL A   1      38.206  30.993  30.902  1.00  0.00     0.023 A 
ATOM     74  C   UNL A   1      37.196  31.625  30.158  1.00  0.00     0.031 A 
ATOM     75  C   UNL A   1      37.982  30.795  32.276  1.00  0.00     0.131 A 
ATOM     76  C   UNL A   1      36.038  32.091  30.800  1.00  0.00     0.055 A 
ATOM     77  C   UNL A   1      36.801  31.203  32.898  1.00  0.00     0.041 A 
ATOM     78  F   UNL A   1      38.913  30.197  33.037  1.00  0.00    -0.206 F 
ATOM     79  C   UNL A   1      35.827  31.870  32.163  1.00  0.00     0.022 A 
BRANCH  76  80
ATOM     80  S   UNL A   1      34.863  33.091  29.849  1.00  0.00     0.124 S 
ATOM     81  O   UNL A   1      35.752  34.031  29.176  1.00  0.00    -0.237 OA
ATOM     82  O   UNL A   1      34.228  32.088  29.001  1.00  0.00    -0.237 OA
ATOM     83  O   UNL A   1      34.001  33.672  30.876  1.00  0.00    -0.744 OA
ENDBRANCH  76  80
ENDBRANCH  49  73
BRANCH  61  84
ATOM     84  C   UNL A   1      44.237  34.383  30.033  1.00  0.00     0.023 A 
ATOM     85  C   UNL A   1      43.973  35.467  29.176  1.00  0.00     0.031 A 
ATOM     86  C   UNL A   1      44.932  34.642  31.228  1.00  0.00     0.131 A 
ATOM     87  C   UNL A   1      44.452  36.746  29.498  1.00  0.00     0.055 A 
ATOM     88  C   UNL A   1      45.345  35.928  31.577  1.00  0.00     0.041 A 
ATOM     89  F   UNL A   1      45.216  33.646  32.083  1.00  0.00    -0.206 F 
ATOM     90  C   UNL A   1      45.118  36.987  30.702  1.00  0.00     0.022 A 
BRANCH  87  91
ATOM     91  S   UNL A   1      44.283  38.074  28.275  1.00  0.00     0.124 S 
ATOM     92  O   UNL A   1      45.551  38.781  28.417  1.00  0.00    -0.237 OA
ATOM     93  O   UNL A   1      44.104  37.331  27.031  1.00  0.00    -0.237 OA
ATOM     94  O   UNL A   1      43.107  38.813  28.729  1.00  0.00    -0.744 OA
ENDBRANCH  87  91
ENDBRANCH  61  84
ENDBRANCH  35  36
ENDBRANCH  27  30
ENDBRANCH  25  26
ENDBRANCH  24  25
ENDBRANCH  23  24
ENDBRANCH   1  23
TORSDOF 19
ENDMDL
MODEL 3
REMARK VINA RESULT:     -10.2      6.118     11.752
REMARK SMILES CN(CC(C)(C)O)C(=O)N[C@H]1CC[C@H](C(=O)NCCCCNC(=O)c2ccc(-c3c4nc(c(-c5cc(S(=O)(=O)[O-])ccc5F)c5ccc([nH]5)c(-c5cc(S(=O)(=O)[O-])ccc5F)c5nc(c(-c6cc(S(=O)(=O)[O-])ccc6F)c6ccc3[nH]6)C=C5)C=C4)cc2)C1
REMARK SMILES IDX 18 1 17 2 15 3 16 4 14 6 11 7 12 8 88 9 13 10 10 11 8 12
REMARK SMILES IDX 9 13 2 15 1 16 3 17 4 18 5 19 6 20 7 21 19 23 20 24 21 25
REMARK SMILES IDX 22 26 23 27 24 29 25 30 26 31 87 32 27 33 86 34 28 35 29 36
REMARK SMILES IDX 30 37 80 38 31 39 85 40 79 41 81 42 32 43 84 44 78 45 77 46
REMARK SMILES IDX 33 48 65 49 45 50 64 51 46 52 49 53 63 54 82 55 47 56 48 57
REMARK SMILES IDX 62 59 83 60 50 61 34 62 35 63 43 64 36 65 42 66 44 67 41 68
REMARK SMILES IDX 37 69 38 70 39 71 40 72 66 73 67 74 75 75 68 76 74 77 76 78
REMARK SMILES IDX 73 79 69 80 70 81 71 82 72 83 51 84 52 85 60 86 53 87 59 88
REMARK SMILES IDX 61 89 58 90 54 91 55 92 56 93 57 94
REMARK H PARENT 17 5 10 14 7 22 22 28 81 47 49 58
REMARK Flexibility Score: inf
ROOT
ATOM      1  C   UNL A   1      33.936  30.642  27.811  1.00  0.00     0.116 C 
ENDROOT
BRANCH   1   2
ATOM      2  N   UNL A   1      34.056  30.114  26.462  1.00  0.00    -0.356 N 
ATOM      3  C   UNL A   1      33.734  28.902  25.932  1.00  0.00     0.223 C 
ATOM      4  O   UNL A   1      34.032  28.692  24.755  1.00  0.00    -0.275 OA
ATOM      5  H   UNL A   1      34.441  30.748  25.815  1.00  0.00     0.163 HD
BRANCH   3   6
ATOM      6  C   UNL A   1      32.925  27.878  26.712  1.00  0.00     0.080 C 
ATOM      7  C   UNL A   1      31.878  25.759  26.027  1.00  0.00     0.084 C 
ATOM      8  C   UNL A   1      30.767  26.745  26.407  1.00  0.00     0.026 C 
ATOM      9  C   UNL A   1      33.194  26.507  26.130  1.00  0.00     0.038 C 
ATOM     10  C   UNL A   1      31.420  28.081  26.749  1.00  0.00     0.015 C 
BRANCH   7  11
ATOM     11  N   UNL A   1      31.845  24.557  26.832  1.00  0.00    -0.335 N 
ATOM     12  C   UNL A   1      32.302  23.301  26.661  1.00  0.00     0.317 C 
ATOM     13  O   UNL A   1      32.288  22.599  27.678  1.00  0.00    -0.249 OA
ATOM     14  H   UNL A   1      31.389  24.684  27.695  1.00  0.00     0.165 HD
BRANCH  12  15
ATOM     15  N   UNL A   1      32.821  22.847  25.479  1.00  0.00    -0.325 N 
ATOM     16  C   UNL A   1      31.822  22.450  24.493  1.00  0.00     0.148 C 
BRANCH  15  17
ATOM     17  C   UNL A   1      34.220  22.660  25.060  1.00  0.00     0.155 C 
BRANCH  17  18
ATOM     18  C   UNL A   1      35.020  21.386  25.453  1.00  0.00     0.077 C 
ATOM     19  C   UNL A   1      34.484  20.030  24.994  1.00  0.00     0.043 C 
ATOM     20  C   UNL A   1      36.450  21.569  24.904  1.00  0.00     0.043 C 
BRANCH  18  21
ATOM     21  O   UNL A   1      35.110  21.349  26.886  1.00  0.00    -0.389 OA
ATOM     22  H   UNL A   1      35.938  20.916  27.146  1.00  0.00     0.211 HD
ENDBRANCH  18  21
ENDBRANCH  17  18
ENDBRANCH  15  17
ENDBRANCH  12  15
ENDBRANCH   7  11
ENDBRANCH   3   6
ENDBRANCH   1   2
BRANCH   1  23
ATOM     23  C   UNL A   1      34.366  32.105  27.866  1.00  0.00     0.023 C 
BRANCH  23  24
ATOM     24  C   UNL A   1      33.198  33.088  27.942  1.00  0.00     0.023 C 
BRANCH  24  25
ATOM     25  C   UNL A   1      33.604  34.555  28.015  1.00  0.00     0.116 C 
BRANCH  25  26
ATOM     26  N   UNL A   1      33.112  35.207  29.218  1.00  0.00    -0.352 N 
ATOM     27  C   UNL A   1      33.467  34.989  30.531  1.00  0.00     0.251 C 
ATOM     28  H   UNL A   1      32.429  35.901  29.073  1.00  0.00     0.163 HD
ATOM     29  O   UNL A   1      32.815  35.497  31.429  1.00  0.00    -0.269 OA
BRANCH  27  30
ATOM     30  C   UNL A   1      34.622  34.114  30.832  1.00  0.00     0.039 A 
ATOM     31  C   UNL A   1      35.890  34.483  30.378  1.00  0.00     0.014 A 
ATOM     32  C   UNL A   1      34.456  32.951  31.590  1.00  0.00     0.014 A 
ATOM     33  C   UNL A   1      37.002  33.724  30.747  1.00  0.00     0.010 A 
ATOM     34  C   UNL A   1      35.574  32.246  32.026  1.00  0.00     0.010 A 
ATOM     35  C   UNL A   1      36.860  32.624  31.611  1.00  0.00    -0.014 A 
BRANCH  35  36
ATOM     36  C   UNL A   1      38.043  31.860  32.090  1.00  0.00     0.031 A 
ATOM     37  C   UNL A   1      38.687  32.213  33.405  1.00  0.00     0.074 A 
ATOM     38  C   UNL A   1      38.574  30.893  31.314  1.00  0.00     0.049 A 
ATOM     39  N   UNL A   1      39.759  31.713  33.962  1.00  0.00    -0.248 NA
ATOM     40  C   UNL A   1      38.055  33.291  34.182  1.00  0.00     0.031 C 
ATOM     41  C   UNL A   1      38.062  30.483  30.004  1.00  0.00     0.029 A 
ATOM     42  N   UNL A   1      39.663  30.080  31.509  1.00  0.00    -0.354 N 
ATOM     43  C   UNL A   1      39.943  32.425  35.142  1.00  0.00     0.074 A 
ATOM     44  C   UNL A   1      38.901  33.430  35.191  1.00  0.00     0.031 C 
ATOM     45  C   UNL A   1      38.812  29.475  29.532  1.00  0.00     0.029 A 
ATOM     46  C   UNL A   1      39.892  29.200  30.475  1.00  0.00     0.049 A 
ATOM     47  H   UNL A   1      40.228  30.120  32.315  1.00  0.00     0.167 HD
ATOM     48  C   UNL A   1      40.880  32.245  36.105  1.00  0.00     0.034 A 
ATOM     49  C   UNL A   1      40.868  28.286  30.299  1.00  0.00     0.034 A 
ATOM     50  C   UNL A   1      41.899  31.226  36.049  1.00  0.00     0.049 A 
ATOM     51  C   UNL A   1      41.921  28.132  31.371  1.00  0.00     0.074 A 
ATOM     52  C   UNL A   1      42.852  30.911  37.003  1.00  0.00     0.029 A 
ATOM     53  N   UNL A   1      42.110  30.366  34.980  1.00  0.00    -0.354 N 
ATOM     54  N   UNL A   1      42.039  28.771  32.512  1.00  0.00    -0.248 NA
ATOM     55  C   UNL A   1      42.963  27.124  31.135  1.00  0.00     0.031 C 
ATOM     56  C   UNL A   1      43.689  29.921  36.477  1.00  0.00     0.029 A 
ATOM     57  C   UNL A   1      43.203  29.551  35.233  1.00  0.00     0.049 A 
ATOM     58  H   UNL A   1      41.563  30.338  34.162  1.00  0.00     0.167 HD
ATOM     59  C   UNL A   1      43.148  28.214  33.144  1.00  0.00     0.074 A 
ATOM     60  C   UNL A   1      43.650  27.178  32.266  1.00  0.00     0.031 C 
ATOM     61  C   UNL A   1      43.698  28.523  34.346  1.00  0.00     0.034 A 
BRANCH  48  62
ATOM     62  C   UNL A   1      40.866  33.190  37.284  1.00  0.00     0.023 A 
ATOM     63  C   UNL A   1      40.351  32.811  38.536  1.00  0.00     0.031 A 
ATOM     64  C   UNL A   1      41.374  34.495  37.151  1.00  0.00     0.131 A 
ATOM     65  C   UNL A   1      40.293  33.745  39.582  1.00  0.00     0.055 A 
ATOM     66  C   UNL A   1      41.390  35.392  38.220  1.00  0.00     0.041 A 
ATOM     67  F   UNL A   1      41.858  34.923  35.974  1.00  0.00    -0.206 F 
ATOM     68  C   UNL A   1      40.835  35.024  39.441  1.00  0.00     0.022 A 
BRANCH  65  69
ATOM     69  S   UNL A   1      39.373  33.308  41.083  1.00  0.00     0.124 S 
ATOM     70  O   UNL A   1      38.889  31.969  40.753  1.00  0.00    -0.237 OA
ATOM     71  O   UNL A   1      40.401  33.380  42.115  1.00  0.00    -0.237 OA
ATOM     72  O   UNL A   1      38.337  34.335  41.161  1.00  0.00    -0.744 OA
ENDBRANCH  65  69
ENDBRANCH  48  62
BRANCH  49  73
ATOM     73  C   UNL A   1      40.918  27.446  29.066  1.00  0.00     0.023 A 
ATOM     74  C   UNL A   1      41.850  27.713  28.050  1.00  0.00     0.031 A 
ATOM     75  C   UNL A   1      39.991  26.410  28.850  1.00  0.00     0.131 A 
ATOM     76  C   UNL A   1      41.798  26.998  26.844  1.00  0.00     0.055 A 
ATOM     77  C   UNL A   1      39.985  25.658  27.675  1.00  0.00     0.041 A 
ATOM     78  F   UNL A   1      39.076  26.111  29.787  1.00  0.00    -0.206 F 
ATOM     79  C   UNL A   1      40.881  25.961  26.655  1.00  0.00     0.022 A 
BRANCH  76  80
ATOM     80  S   UNL A   1      42.873  27.520  25.480  1.00  0.00     0.124 S 
ATOM     81  O   UNL A   1      42.174  28.701  24.988  1.00  0.00    -0.237 OA
ATOM     82  O   UNL A   1      44.138  27.762  26.167  1.00  0.00    -0.237 OA
ATOM     83  O   UNL A   1      42.865  26.368  24.580  1.00  0.00    -0.744 OA
ENDBRANCH  76  80
ENDBRANCH  49  73
BRANCH  61  84
ATOM     84  C   UNL A   1      44.873  27.691  34.804  1.00  0.00     0.023 A 
ATOM     85  C   UNL A   1      44.706  26.534  35.586  1.00  0.00     0.031 A 
ATOM     86  C   UNL A   1      46.182  28.071  34.459  1.00  0.00     0.131 A 
ATOM     87  C   UNL A   1      45.832  25.833  36.045  1.00  0.00     0.055 A 
ATOM     88  C   UNL A   1      47.294  27.331  34.860  1.00  0.00     0.041 A 
ATOM     89  F   UNL A   1      46.402  29.170  33.718  1.00  0.00    -0.206 F 
ATOM     90  C   UNL A   1      47.123  26.213  35.671  1.00  0.00     0.022 A 
BRANCH  87  91
ATOM     91  S   UNL A   1      45.591  24.477  37.225  1.00  0.00     0.124 S 
ATOM     92  O   UNL A   1      45.552  23.313  36.345  1.00  0.00    -0.237 OA
ATOM     93  O   UNL A   1      46.771  24.592  38.077  1.00  0.00    -0.237 OA
ATOM     94  O   UNL A   1      44.324  24.806  37.874  1.00  0.00    -0.744 OA
ENDBRANCH  87  91
ENDBRANCH  61  84
ENDBRANCH  35  36
ENDBRANCH  27  30
ENDBRANCH  25  26
ENDBRANCH  24  25
ENDBRANCH  23  24
ENDBRANCH   1  23
TORSDOF 19
ENDMDL
