MODEL 1
REMARK VINA RESULT:     -11.1      0.000      0.000
REMARK SMILES COc1cc(Br)c(OC)c(C(=O)NCCC(=O)NCCCCNC(=O)c2ccc(-c3c4nc(c(-c5cc(S(=O)(=O)[O-])ccc5F)c5ccc([nH]5)c(-c5cc(S(=O)(=O)[O-])ccc5F)c5nc(c(-c6cc(S(=O)(=O)[O-])ccc6F)c6ccc3[nH]6)C=C5)C=C4)cc2)c1
REMARK SMILES IDX 20 1 19 2 18 3 16 4 17 5 15 7 14 8 13 9 11 10 12 11 10 13
REMARK SMILES IDX 3 14 4 15 89 16 5 17 6 18 7 19 2 20 1 21 8 22 9 23 21 24
REMARK SMILES IDX 22 25 23 26 24 27 25 29 26 30 27 31 88 32 28 33 87 34 29 35
REMARK SMILES IDX 30 36 31 37 81 38 32 39 86 40 80 41 82 42 33 43 85 44 79 45
REMARK SMILES IDX 78 46 34 48 66 49 46 50 65 51 47 52 50 53 64 54 83 55 48 56
REMARK SMILES IDX 49 57 63 59 84 60 51 61 35 62 36 63 44 64 37 65 43 66 45 67
REMARK SMILES IDX 42 68 38 69 39 70 40 71 41 72 67 73 68 74 76 75 69 76 75 77
REMARK SMILES IDX 77 78 74 79 70 80 71 81 72 82 73 83 52 84 53 85 61 86 54 87
REMARK SMILES IDX 60 88 62 89 59 90 55 91 56 92 57 93 58 94
REMARK H PARENT 18 6 13 12 23 28 82 47 50 58
REMARK Flexibility Score: inf
ROOT
ATOM      1  C   UNL A   1      32.321  27.531  26.540  1.00  0.00     0.023 C 
ENDROOT
BRANCH   1   2
ATOM      2  C   UNL A   1      31.056  26.751  26.886  1.00  0.00     0.116 C 
BRANCH   2   3
ATOM      3  N   UNL A   1      31.276  25.321  26.784  1.00  0.00    -0.356 N 
ATOM      4  C   UNL A   1      31.064  24.502  25.718  1.00  0.00     0.221 C 
ATOM      5  O   UNL A   1      31.240  23.290  25.853  1.00  0.00    -0.275 OA
ATOM      6  H   UNL A   1      31.627  24.886  27.594  1.00  0.00     0.163 HD
BRANCH   4   7
ATOM      7  C   UNL A   1      30.604  25.077  24.395  1.00  0.00     0.121 C 
BRANCH   7   8
ATOM      8  C   UNL A   1      30.445  23.993  23.337  1.00  0.00     0.126 C 
BRANCH   8   9
ATOM      9  N   UNL A   1      31.569  23.874  22.408  1.00  0.00    -0.351 N 
ATOM     10  C   UNL A   1      32.811  23.288  22.390  1.00  0.00     0.255 C 
ATOM     11  O   UNL A   1      33.524  23.573  21.427  1.00  0.00    -0.269 OA
ATOM     12  H   UNL A   1      31.384  24.343  21.563  1.00  0.00     0.163 HD
BRANCH  10  13
ATOM     13  C   UNL A   1      33.296  22.284  23.380  1.00  0.00     0.086 A 
ATOM     14  C   UNL A   1      33.040  20.113  24.436  1.00  0.00     0.121 A 
ATOM     15  C   UNL A   1      34.327  20.190  24.946  1.00  0.00     0.066 A 
ATOM     16  C   UNL A   1      32.558  21.115  23.601  1.00  0.00     0.064 A 
ATOM     17  C   UNL A   1      35.098  21.334  24.724  1.00  0.00     0.064 A 
ATOM     18  Br  UNL A   1      36.807  21.338  25.561  1.00  0.00    -0.047 Br
ATOM     19  C   UNL A   1      34.586  22.401  23.961  1.00  0.00     0.146 A 
BRANCH  14  20
ATOM     20  O   UNL A   1      32.204  19.056  24.668  1.00  0.00    -0.497 OA
ATOM     21  C   UNL A   1      32.760  18.107  25.581  1.00  0.00     0.278 C 
ENDBRANCH  14  20
BRANCH  19  22
ATOM     22  O   UNL A   1      35.226  23.615  23.894  1.00  0.00    -0.495 OA
ATOM     23  C   UNL A   1      34.915  24.528  24.948  1.00  0.00     0.278 C 
ENDBRANCH  19  22
ENDBRANCH  10  13
ENDBRANCH   8   9
ENDBRANCH   7   8
ENDBRANCH   4   7
ENDBRANCH   2   3
ENDBRANCH   1   2
BRANCH   1  24
ATOM     24  C   UNL A   1      32.172  28.549  25.417  1.00  0.00     0.023 C 
BRANCH  24  25
ATOM     25  C   UNL A   1      33.164  29.699  25.450  1.00  0.00     0.116 C 
BRANCH  25  26
ATOM     26  N   UNL A   1      32.633  30.910  26.058  1.00  0.00    -0.352 N 
ATOM     27  C   UNL A   1      33.175  31.666  27.076  1.00  0.00     0.251 C 
ATOM     28  H   UNL A   1      31.776  31.231  25.696  1.00  0.00     0.163 HD
ATOM     29  O   UNL A   1      32.561  32.613  27.541  1.00  0.00    -0.269 OA
BRANCH  27  30
ATOM     30  C   UNL A   1      34.490  31.270  27.625  1.00  0.00     0.039 A 
ATOM     31  C   UNL A   1      35.479  32.244  27.775  1.00  0.00     0.014 A 
ATOM     32  C   UNL A   1      34.707  29.965  28.071  1.00  0.00     0.014 A 
ATOM     33  C   UNL A   1      36.658  31.926  28.452  1.00  0.00     0.010 A 
ATOM     34  C   UNL A   1      35.837  29.677  28.825  1.00  0.00     0.010 A 
ATOM     35  C   UNL A   1      36.825  30.654  29.022  1.00  0.00    -0.014 A 
BRANCH  35  36
ATOM     36  C   UNL A   1      38.033  30.311  29.818  1.00  0.00     0.031 A 
ATOM     37  C   UNL A   1      39.038  29.341  29.260  1.00  0.00     0.074 A 
ATOM     38  C   UNL A   1      38.179  30.803  31.064  1.00  0.00     0.049 A 
ATOM     39  N   UNL A   1      40.095  28.822  29.830  1.00  0.00    -0.248 NA
ATOM     40  C   UNL A   1      38.792  28.857  27.894  1.00  0.00     0.031 C 
ATOM     41  C   UNL A   1      37.240  31.708  31.734  1.00  0.00     0.029 A 
ATOM     42  N   UNL A   1      39.165  30.604  31.996  1.00  0.00    -0.354 N 
ATOM     43  C   UNL A   1      40.624  27.932  28.901  1.00  0.00     0.074 A 
ATOM     44  C   UNL A   1      39.729  27.932  27.764  1.00  0.00     0.031 C 
ATOM     45  C   UNL A   1      37.711  32.003  32.957  1.00  0.00     0.029 A 
ATOM     46  C   UNL A   1      38.959  31.279  33.176  1.00  0.00     0.049 A 
ATOM     47  H   UNL A   1      39.949  30.029  31.835  1.00  0.00     0.167 HD
ATOM     48  C   UNL A   1      41.767  27.205  28.977  1.00  0.00     0.034 A 
ATOM     49  C   UNL A   1      39.689  31.304  34.309  1.00  0.00     0.034 A 
ATOM     50  C   UNL A   1      42.660  27.243  30.109  1.00  0.00     0.049 A 
ATOM     51  C   UNL A   1      40.961  30.498  34.371  1.00  0.00     0.074 A 
ATOM     52  C   UNL A   1      43.875  26.601  30.272  1.00  0.00     0.029 A 
ATOM     53  N   UNL A   1      42.432  27.962  31.276  1.00  0.00    -0.354 N 
ATOM     54  N   UNL A   1      41.477  29.700  33.465  1.00  0.00    -0.248 NA
ATOM     55  C   UNL A   1      41.753  30.605  35.602  1.00  0.00     0.031 C 
ATOM     56  C   UNL A   1      44.354  26.885  31.556  1.00  0.00     0.029 A 
ATOM     57  C   UNL A   1      43.472  27.761  32.172  1.00  0.00     0.049 A 
ATOM     58  H   UNL A   1      41.647  28.532  31.443  1.00  0.00     0.167 HD
ATOM     59  C   UNL A   1      42.669  29.232  34.007  1.00  0.00     0.074 A 
ATOM     60  C   UNL A   1      42.800  29.848  35.311  1.00  0.00     0.031 C 
ATOM     61  C   UNL A   1      43.578  28.375  33.473  1.00  0.00     0.034 A 
BRANCH  48  62
ATOM     62  C   UNL A   1      42.089  26.303  27.810  1.00  0.00     0.023 A 
ATOM     63  C   UNL A   1      41.632  24.973  27.756  1.00  0.00     0.031 A 
ATOM     64  C   UNL A   1      42.911  26.756  26.762  1.00  0.00     0.131 A 
ATOM     65  C   UNL A   1      42.076  24.119  26.736  1.00  0.00     0.055 A 
ATOM     66  C   UNL A   1      43.275  25.925  25.700  1.00  0.00     0.041 A 
ATOM     67  F   UNL A   1      43.395  28.008  26.765  1.00  0.00    -0.206 F 
ATOM     68  C   UNL A   1      42.873  24.592  25.693  1.00  0.00     0.022 A 
BRANCH  65  69
ATOM     69  S   UNL A   1      41.733  22.343  26.887  1.00  0.00     0.124 S 
ATOM     70  O   UNL A   1      42.707  21.942  27.900  1.00  0.00    -0.237 OA
ATOM     71  O   UNL A   1      40.335  22.327  27.301  1.00  0.00    -0.237 OA
ATOM     72  O   UNL A   1      41.994  21.829  25.544  1.00  0.00    -0.744 OA
ENDBRANCH  65  69
ENDBRANCH  48  62
BRANCH  49  73
ATOM     73  C   UNL A   1      39.243  32.117  35.475  1.00  0.00     0.023 A 
ATOM     74  C   UNL A   1      38.546  31.529  36.542  1.00  0.00     0.031 A 
ATOM     75  C   UNL A   1      39.482  33.502  35.528  1.00  0.00     0.131 A 
ATOM     76  C   UNL A   1      38.077  32.327  37.598  1.00  0.00     0.055 A 
ATOM     77  C   UNL A   1      39.055  34.285  36.601  1.00  0.00     0.041 A 
ATOM     78  F   UNL A   1      40.152  34.112  34.537  1.00  0.00    -0.206 F 
ATOM     79  C   UNL A   1      38.337  33.699  37.640  1.00  0.00     0.022 A 
BRANCH  76  80
ATOM     80  S   UNL A   1      37.061  31.555  38.886  1.00  0.00     0.124 S 
ATOM     81  O   UNL A   1      36.891  30.204  38.363  1.00  0.00    -0.237 OA
ATOM     82  O   UNL A   1      37.915  31.685  40.063  1.00  0.00    -0.237 OA
ATOM     83  O   UNL A   1      35.852  32.375  38.904  1.00  0.00    -0.744 OA
ENDBRANCH  76  80
ENDBRANCH  49  73
BRANCH  61  84
ATOM     84  C   UNL A   1      44.814  28.095  34.292  1.00  0.00     0.023 A 
ATOM     85  C   UNL A   1      44.852  27.062  35.244  1.00  0.00     0.031 A 
ATOM     86  C   UNL A   1      45.967  28.882  34.119  1.00  0.00     0.131 A 
ATOM     87  C   UNL A   1      46.002  26.876  36.024  1.00  0.00     0.055 A 
ATOM     88  C   UNL A   1      47.128  28.654  34.857  1.00  0.00     0.041 A 
ATOM     89  F   UNL A   1      45.983  29.882  33.223  1.00  0.00    -0.206 F 
ATOM     90  C   UNL A   1      47.146  27.655  35.826  1.00  0.00     0.022 A 
BRANCH  87  91
ATOM     91  S   UNL A   1      45.958  25.653  37.363  1.00  0.00     0.124 S 
ATOM     92  O   UNL A   1      44.872  26.154  38.197  1.00  0.00    -0.237 OA
ATOM     93  O   UNL A   1      45.690  24.412  36.643  1.00  0.00    -0.237 OA
ATOM     94  O   UNL A   1      47.291  25.746  37.957  1.00  0.00    -0.744 OA
ENDBRANCH  87  91
ENDBRANCH  61  84
ENDBRANCH  35  36
ENDBRANCH  27  30
ENDBRANCH  25  26
ENDBRANCH  24  25
ENDBRANCH   1  24
TORSDOF 19
ENDMDL
MODEL 2
REMARK VINA RESULT:     -10.8      1.612      7.690
REMARK SMILES COc1cc(Br)c(OC)c(C(=O)NCCC(=O)NCCCCNC(=O)c2ccc(-c3c4nc(c(-c5cc(S(=O)(=O)[O-])ccc5F)c5ccc([nH]5)c(-c5cc(S(=O)(=O)[O-])ccc5F)c5nc(c(-c6cc(S(=O)(=O)[O-])ccc6F)c6ccc3[nH]6)C=C5)C=C4)cc2)c1
REMARK SMILES IDX 20 1 19 2 18 3 16 4 17 5 15 7 14 8 13 9 11 10 12 11 10 13
REMARK SMILES IDX 3 14 4 15 89 16 5 17 6 18 7 19 2 20 1 21 8 22 9 23 21 24
REMARK SMILES IDX 22 25 23 26 24 27 25 29 26 30 27 31 88 32 28 33 87 34 29 35
REMARK SMILES IDX 30 36 31 37 81 38 32 39 86 40 80 41 82 42 33 43 85 44 79 45
REMARK SMILES IDX 78 46 34 48 66 49 46 50 65 51 47 52 50 53 64 54 83 55 48 56
REMARK SMILES IDX 49 57 63 59 84 60 51 61 35 62 36 63 44 64 37 65 43 66 45 67
REMARK SMILES IDX 42 68 38 69 39 70 40 71 41 72 67 73 68 74 76 75 69 76 75 77
REMARK SMILES IDX 77 78 74 79 70 80 71 81 72 82 73 83 52 84 53 85 61 86 54 87
REMARK SMILES IDX 60 88 62 89 59 90 55 91 56 92 57 93 58 94
REMARK H PARENT 18 6 13 12 23 28 82 47 50 58
REMARK Flexibility Score: inf
ROOT
ATOM      1  C   UNL A   1      32.075  29.358  24.648  1.00  0.00     0.023 C 
ENDROOT
BRANCH   1   2
ATOM      2  C   UNL A   1      32.629  28.058  25.227  1.00  0.00     0.116 C 
BRANCH   2   3
ATOM      3  N   UNL A   1      31.576  27.257  25.821  1.00  0.00    -0.356 N 
ATOM      4  C   UNL A   1      30.709  26.406  25.209  1.00  0.00     0.221 C 
ATOM      5  O   UNL A   1      29.826  25.869  25.880  1.00  0.00    -0.275 OA
ATOM      6  H   UNL A   1      31.477  27.339  26.797  1.00  0.00     0.163 HD
BRANCH   4   7
ATOM      7  C   UNL A   1      30.822  26.138  23.723  1.00  0.00     0.121 C 
BRANCH   7   8
ATOM      8  C   UNL A   1      30.802  24.646  23.417  1.00  0.00     0.126 C 
BRANCH   8   9
ATOM      9  N   UNL A   1      31.718  24.227  22.357  1.00  0.00    -0.351 N 
ATOM     10  C   UNL A   1      32.831  23.431  22.235  1.00  0.00     0.255 C 
ATOM     11  O   UNL A   1      33.405  23.475  21.146  1.00  0.00    -0.269 OA
ATOM     12  H   UNL A   1      31.468  24.624  21.492  1.00  0.00     0.163 HD
BRANCH  10  13
ATOM     13  C   UNL A   1      33.313  22.474  23.271  1.00  0.00     0.086 A 
ATOM     14  C   UNL A   1      33.111  20.315  24.363  1.00  0.00     0.121 A 
ATOM     15  C   UNL A   1      34.365  20.467  24.936  1.00  0.00     0.066 A 
ATOM     16  C   UNL A   1      32.624  21.273  23.482  1.00  0.00     0.064 A 
ATOM     17  C   UNL A   1      35.089  21.644  24.726  1.00  0.00     0.064 A 
ATOM     18  Br  UNL A   1      36.751  21.751  25.648  1.00  0.00    -0.047 Br
ATOM     19  C   UNL A   1      34.565  22.668  23.913  1.00  0.00     0.146 A 
BRANCH  14  20
ATOM     20  O   UNL A   1      32.317  19.222  24.577  1.00  0.00    -0.497 OA
ATOM     21  C   UNL A   1      32.383  18.278  23.506  1.00  0.00     0.278 C 
ENDBRANCH  14  20
BRANCH  19  22
ATOM     22  O   UNL A   1      35.147  23.911  23.850  1.00  0.00    -0.495 OA
ATOM     23  C   UNL A   1      34.743  24.826  24.870  1.00  0.00     0.278 C 
ENDBRANCH  19  22
ENDBRANCH  10  13
ENDBRANCH   8   9
ENDBRANCH   7   8
ENDBRANCH   4   7
ENDBRANCH   2   3
ENDBRANCH   1   2
BRANCH   1  24
ATOM     24  C   UNL A   1      31.438  30.302  25.659  1.00  0.00     0.023 C 
BRANCH  24  25
ATOM     25  C   UNL A   1      32.347  30.744  26.793  1.00  0.00     0.116 C 
BRANCH  25  26
ATOM     26  N   UNL A   1      32.403  32.186  26.969  1.00  0.00    -0.352 N 
ATOM     27  C   UNL A   1      33.406  32.942  27.538  1.00  0.00     0.251 C 
ATOM     28  H   UNL A   1      31.623  32.689  26.639  1.00  0.00     0.163 HD
ATOM     29  O   UNL A   1      33.266  34.145  27.694  1.00  0.00    -0.269 OA
BRANCH  27  30
ATOM     30  C   UNL A   1      34.631  32.255  28.002  1.00  0.00     0.039 A 
ATOM     31  C   UNL A   1      35.823  32.977  28.076  1.00  0.00     0.014 A 
ATOM     32  C   UNL A   1      34.574  30.932  28.445  1.00  0.00     0.014 A 
ATOM     33  C   UNL A   1      36.941  32.394  28.675  1.00  0.00     0.010 A 
ATOM     34  C   UNL A   1      35.657  30.389  29.124  1.00  0.00     0.010 A 
ATOM     35  C   UNL A   1      36.852  31.114  29.245  1.00  0.00    -0.014 A 
BRANCH  35  36
ATOM     36  C   UNL A   1      38.001  30.501  29.963  1.00  0.00     0.031 A 
ATOM     37  C   UNL A   1      38.282  30.896  31.387  1.00  0.00     0.074 A 
ATOM     38  C   UNL A   1      38.831  29.664  29.311  1.00  0.00     0.049 A 
ATOM     39  N   UNL A   1      39.289  30.570  32.155  1.00  0.00    -0.248 NA
ATOM     40  C   UNL A   1      37.321  31.816  32.012  1.00  0.00     0.031 C 
ATOM     41  C   UNL A   1      38.694  29.252  27.911  1.00  0.00     0.029 A 
ATOM     42  N   UNL A   1      39.964  29.016  29.735  1.00  0.00    -0.354 N 
ATOM     43  C   UNL A   1      39.096  31.267  33.344  1.00  0.00     0.074 A 
ATOM     44  C   UNL A   1      37.916  32.084  33.163  1.00  0.00     0.031 C 
ATOM     45  C   UNL A   1      39.688  28.402  27.603  1.00  0.00     0.029 A 
ATOM     46  C   UNL A   1      40.556  28.242  28.765  1.00  0.00     0.049 A 
ATOM     47  H   UNL A   1      40.320  29.098  30.649  1.00  0.00     0.167 HD
ATOM     48  C   UNL A   1      39.820  31.207  34.489  1.00  0.00     0.034 A 
ATOM     49  C   UNL A   1      41.677  27.494  28.805  1.00  0.00     0.034 A 
ATOM     50  C   UNL A   1      40.976  30.363  34.657  1.00  0.00     0.049 A 
ATOM     51  C   UNL A   1      42.462  27.432  30.091  1.00  0.00     0.074 A 
ATOM     52  C   UNL A   1      41.749  30.171  35.789  1.00  0.00     0.029 A 
ATOM     53  N   UNL A   1      41.531  29.569  33.660  1.00  0.00    -0.354 N 
ATOM     54  N   UNL A   1      42.239  28.056  31.225  1.00  0.00    -0.248 NA
ATOM     55  C   UNL A   1      43.640  26.557  30.105  1.00  0.00     0.031 C 
ATOM     56  C   UNL A   1      42.801  29.308  35.462  1.00  0.00     0.029 A 
ATOM     57  C   UNL A   1      42.648  28.905  34.144  1.00  0.00     0.049 A 
ATOM     58  H   UNL A   1      41.181  29.489  32.743  1.00  0.00     0.167 HD
ATOM     59  C   UNL A   1      43.235  27.626  32.096  1.00  0.00     0.074 A 
ATOM     60  C   UNL A   1      44.049  26.681  31.359  1.00  0.00     0.031 C 
ATOM     61  C   UNL A   1      43.454  27.975  33.390  1.00  0.00     0.034 A 
BRANCH  48  62
ATOM     62  C   UNL A   1      39.380  32.095  35.629  1.00  0.00     0.023 A 
ATOM     63  C   UNL A   1      39.870  33.406  35.775  1.00  0.00     0.031 A 
ATOM     64  C   UNL A   1      38.504  31.610  36.617  1.00  0.00     0.131 A 
ATOM     65  C   UNL A   1      39.560  34.147  36.925  1.00  0.00     0.055 A 
ATOM     66  C   UNL A   1      38.128  32.387  37.714  1.00  0.00     0.041 A 
ATOM     67  F   UNL A   1      38.018  30.360  36.545  1.00  0.00    -0.206 F 
ATOM     68  C   UNL A   1      38.672  33.657  37.884  1.00  0.00     0.022 A 
BRANCH  65  69
ATOM     69  S   UNL A   1      40.470  35.688  37.229  1.00  0.00     0.124 S 
ATOM     70  O   UNL A   1      39.715  36.640  36.417  1.00  0.00    -0.237 OA
ATOM     71  O   UNL A   1      40.351  35.844  38.674  1.00  0.00    -0.237 OA
ATOM     72  O   UNL A   1      41.816  35.393  36.741  1.00  0.00    -0.744 OA
ENDBRANCH  65  69
ENDBRANCH  48  62
BRANCH  49  73
ATOM     73  C   UNL A   1      42.126  26.743  27.600  1.00  0.00     0.023 A 
ATOM     74  C   UNL A   1      41.873  25.368  27.468  1.00  0.00     0.031 A 
ATOM     75  C   UNL A   1      42.841  27.383  26.571  1.00  0.00     0.131 A 
ATOM     76  C   UNL A   1      42.365  24.668  26.355  1.00  0.00     0.055 A 
ATOM     77  C   UNL A   1      43.288  26.693  25.443  1.00  0.00     0.041 A 
ATOM     78  F   UNL A   1      43.101  28.698  26.644  1.00  0.00    -0.206 F 
ATOM     79  C   UNL A   1      43.061  25.324  25.336  1.00  0.00     0.022 A 
BRANCH  76  80
ATOM     80  S   UNL A   1      42.140  22.870  26.289  1.00  0.00     0.124 S 
ATOM     81  O   UNL A   1      40.700  22.742  26.480  1.00  0.00    -0.237 OA
ATOM     82  O   UNL A   1      42.643  22.551  24.956  1.00  0.00    -0.237 OA
ATOM     83  O   UNL A   1      42.963  22.383  27.395  1.00  0.00    -0.744 OA
ENDBRANCH  76  80
ENDBRANCH  49  73
BRANCH  61  84
ATOM     84  C   UNL A   1      44.598  27.291  34.096  1.00  0.00     0.023 A 
ATOM     85  C   UNL A   1      44.409  26.118  34.847  1.00  0.00     0.031 A 
ATOM     86  C   UNL A   1      45.895  27.829  34.020  1.00  0.00     0.131 A 
ATOM     87  C   UNL A   1      45.490  25.550  35.535  1.00  0.00     0.055 A 
ATOM     88  C   UNL A   1      46.978  27.227  34.660  1.00  0.00     0.041 A 
ATOM     89  F   UNL A   1      46.130  28.949  33.316  1.00  0.00    -0.206 F 
ATOM     90  C   UNL A   1      46.777  26.088  35.434  1.00  0.00     0.022 A 
BRANCH  87  91
ATOM     91  S   UNL A   1      45.180  24.142  36.636  1.00  0.00     0.124 S 
ATOM     92  O   UNL A   1      44.519  23.198  35.741  1.00  0.00    -0.237 OA
ATOM     93  O   UNL A   1      46.526  23.779  37.066  1.00  0.00    -0.237 OA
ATOM     94  O   UNL A   1      44.328  24.705  37.682  1.00  0.00    -0.744 OA
ENDBRANCH  87  91
ENDBRANCH  61  84
ENDBRANCH  35  36
ENDBRANCH  27  30
ENDBRANCH  25  26
ENDBRANCH  24  25
ENDBRANCH   1  24
TORSDOF 19
ENDMDL
MODEL 3
REMARK VINA RESULT:     -10.4      2.376      2.883
REMARK SMILES COc1cc(Br)c(OC)c(C(=O)NCCC(=O)NCCCCNC(=O)c2ccc(-c3c4nc(c(-c5cc(S(=O)(=O)[O-])ccc5F)c5ccc([nH]5)c(-c5cc(S(=O)(=O)[O-])ccc5F)c5nc(c(-c6cc(S(=O)(=O)[O-])ccc6F)c6ccc3[nH]6)C=C5)C=C4)cc2)c1
REMARK SMILES IDX 20 1 19 2 18 3 16 4 17 5 15 7 14 8 13 9 11 10 12 11 10 13
REMARK SMILES IDX 3 14 4 15 89 16 5 17 6 18 7 19 2 20 1 21 8 22 9 23 21 24
REMARK SMILES IDX 22 25 23 26 24 27 25 29 26 30 27 31 88 32 28 33 87 34 29 35
REMARK SMILES IDX 30 36 31 37 81 38 32 39 86 40 80 41 82 42 33 43 85 44 79 45
REMARK SMILES IDX 78 46 34 48 66 49 46 50 65 51 47 52 50 53 64 54 83 55 48 56
REMARK SMILES IDX 49 57 63 59 84 60 51 61 35 62 36 63 44 64 37 65 43 66 45 67
REMARK SMILES IDX 42 68 38 69 39 70 40 71 41 72 67 73 68 74 76 75 69 76 75 77
REMARK SMILES IDX 77 78 74 79 70 80 71 81 72 82 73 83 52 84 53 85 61 86 54 87
REMARK SMILES IDX 60 88 62 89 59 90 55 91 56 92 57 93 58 94
REMARK H PARENT 18 6 13 12 23 28 82 47 50 58
REMARK Flexibility Score: inf
ROOT
ATOM      1  C   UNL A   1      31.590  30.231  25.681  1.00  0.00     0.023 C 
ENDROOT
BRANCH   1   2
ATOM      2  C   UNL A   1      31.549  28.839  25.055  1.00  0.00     0.116 C 
BRANCH   2   3
ATOM      3  N   UNL A   1      31.508  27.807  26.073  1.00  0.00    -0.356 N 
ATOM      4  C   UNL A   1      31.398  26.460  25.912  1.00  0.00     0.221 C 
ATOM      5  O   UNL A   1      31.300  25.746  26.912  1.00  0.00    -0.275 OA
ATOM      6  H   UNL A   1      31.569  28.122  27.003  1.00  0.00     0.163 HD
BRANCH   4   7
ATOM      7  C   UNL A   1      31.380  25.855  24.524  1.00  0.00     0.121 C 
BRANCH   7   8
ATOM      8  C   UNL A   1      32.781  25.757  23.936  1.00  0.00     0.126 C 
BRANCH   8   9
ATOM      9  N   UNL A   1      32.877  24.959  22.714  1.00  0.00    -0.351 N 
ATOM     10  C   UNL A   1      33.313  23.707  22.353  1.00  0.00     0.255 C 
ATOM     11  O   UNL A   1      33.356  23.484  21.142  1.00  0.00    -0.269 OA
ATOM     12  H   UNL A   1      32.535  25.455  21.937  1.00  0.00     0.163 HD
BRANCH  10  13
ATOM     13  C   UNL A   1      33.634  22.606  23.306  1.00  0.00     0.086 A 
ATOM     14  C   UNL A   1      33.080  20.433  24.235  1.00  0.00     0.121 A 
ATOM     15  C   UNL A   1      34.343  20.331  24.797  1.00  0.00     0.066 A 
ATOM     16  C   UNL A   1      32.755  21.524  23.437  1.00  0.00     0.064 A 
ATOM     17  C   UNL A   1      35.252  21.385  24.665  1.00  0.00     0.064 A 
ATOM     18  Br  UNL A   1      36.911  21.145  25.566  1.00  0.00    -0.047 Br
ATOM     19  C   UNL A   1      34.902  22.541  23.941  1.00  0.00     0.146 A 
BRANCH  14  20
ATOM     20  O   UNL A   1      32.116  19.473  24.379  1.00  0.00    -0.497 OA
ATOM     21  C   UNL A   1      32.176  18.478  23.355  1.00  0.00     0.278 C 
ENDBRANCH  14  20
BRANCH  19  22
ATOM     22  O   UNL A   1      35.682  23.672  23.962  1.00  0.00    -0.495 OA
ATOM     23  C   UNL A   1      35.750  24.341  25.222  1.00  0.00     0.278 C 
ENDBRANCH  19  22
ENDBRANCH  10  13
ENDBRANCH   8   9
ENDBRANCH   7   8
ENDBRANCH   4   7
ENDBRANCH   2   3
ENDBRANCH   1   2
BRANCH   1  24
ATOM     24  C   UNL A   1      32.201  30.300  27.075  1.00  0.00     0.023 C 
BRANCH  24  25
ATOM     25  C   UNL A   1      33.330  31.303  27.237  1.00  0.00     0.116 C 
BRANCH  25  26
ATOM     26  N   UNL A   1      32.875  32.679  27.361  1.00  0.00    -0.352 N 
ATOM     27  C   UNL A   1      33.338  33.661  28.211  1.00  0.00     0.251 C 
ATOM     28  H   UNL A   1      32.140  32.944  26.761  1.00  0.00     0.163 HD
ATOM     29  O   UNL A   1      32.789  34.751  28.259  1.00  0.00    -0.269 OA
BRANCH  27  30
ATOM     30  C   UNL A   1      34.478  33.346  29.098  1.00  0.00     0.039 A 
ATOM     31  C   UNL A   1      34.238  32.652  30.285  1.00  0.00     0.014 A 
ATOM     32  C   UNL A   1      35.783  33.658  28.710  1.00  0.00     0.014 A 
ATOM     33  C   UNL A   1      35.318  32.195  31.042  1.00  0.00     0.010 A 
ATOM     34  C   UNL A   1      36.854  33.121  29.413  1.00  0.00     0.010 A 
ATOM     35  C   UNL A   1      36.633  32.386  30.587  1.00  0.00    -0.014 A 
BRANCH  35  36
ATOM     36  C   UNL A   1      37.800  31.839  31.329  1.00  0.00     0.031 A 
ATOM     37  C   UNL A   1      38.659  30.785  30.685  1.00  0.00     0.074 A 
ATOM     38  C   UNL A   1      38.030  32.225  32.599  1.00  0.00     0.049 A 
ATOM     39  N   UNL A   1      39.650  30.098  31.194  1.00  0.00    -0.248 NA
ATOM     40  C   UNL A   1      38.328  30.428  29.299  1.00  0.00     0.031 C 
ATOM     41  C   UNL A   1      37.230  33.198  33.348  1.00  0.00     0.029 A 
ATOM     42  N   UNL A   1      38.999  31.839  33.490  1.00  0.00    -0.354 N 
ATOM     43  C   UNL A   1      40.042  29.210  30.198  1.00  0.00     0.074 A 
ATOM     44  C   UNL A   1      39.134  29.400  29.087  1.00  0.00     0.031 C 
ATOM     45  C   UNL A   1      37.757  33.349  34.575  1.00  0.00     0.029 A 
ATOM     46  C   UNL A   1      38.903  32.457  34.715  1.00  0.00     0.049 A 
ATOM     47  H   UNL A   1      39.698  31.180  33.274  1.00  0.00     0.167 HD
ATOM     48  C   UNL A   1      41.080  28.338  30.199  1.00  0.00     0.034 A 
ATOM     49  C   UNL A   1      39.650  32.314  35.828  1.00  0.00     0.034 A 
ATOM     50  C   UNL A   1      41.991  28.186  31.307  1.00  0.00     0.049 A 
ATOM     51  C   UNL A   1      40.807  31.347  35.806  1.00  0.00     0.074 A 
ATOM     52  C   UNL A   1      43.114  27.383  31.398  1.00  0.00     0.029 A 
ATOM     53  N   UNL A   1      41.880  28.850  32.522  1.00  0.00    -0.354 N 
ATOM     54  N   UNL A   1      41.198  30.550  34.839  1.00  0.00    -0.248 NA
ATOM     55  C   UNL A   1      41.628  31.270  37.021  1.00  0.00     0.031 C 
ATOM     56  C   UNL A   1      43.648  27.519  32.684  1.00  0.00     0.029 A 
ATOM     57  C   UNL A   1      42.899  28.458  33.376  1.00  0.00     0.049 A 
ATOM     58  H   UNL A   1      41.178  29.505  32.745  1.00  0.00     0.167 HD
ATOM     59  C   UNL A   1      42.329  29.898  35.320  1.00  0.00     0.074 A 
ATOM     60  C   UNL A   1      42.562  30.405  36.657  1.00  0.00     0.031 C 
ATOM     61  C   UNL A   1      43.108  28.968  34.710  1.00  0.00     0.034 A 
BRANCH  48  62
ATOM     62  C   UNL A   1      41.261  27.480  28.969  1.00  0.00     0.023 A 
ATOM     63  C   UNL A   1      42.271  27.745  28.026  1.00  0.00     0.031 A 
ATOM     64  C   UNL A   1      40.379  26.417  28.703  1.00  0.00     0.131 A 
ATOM     65  C   UNL A   1      42.314  27.025  26.823  1.00  0.00     0.055 A 
ATOM     66  C   UNL A   1      40.486  25.644  27.545  1.00  0.00     0.041 A 
ATOM     67  F   UNL A   1      39.383  26.126  29.555  1.00  0.00    -0.206 F 
ATOM     68  C   UNL A   1      41.445  25.959  26.586  1.00  0.00     0.022 A 
BRANCH  65  69
ATOM     69  S   UNL A   1      43.412  27.614  25.503  1.00  0.00     0.124 S 
ATOM     70  O   UNL A   1      44.286  26.458  25.311  1.00  0.00    -0.237 OA
ATOM     71  O   UNL A   1      42.479  27.899  24.420  1.00  0.00    -0.237 OA
ATOM     72  O   UNL A   1      44.060  28.783  26.095  1.00  0.00    -0.744 OA
ENDBRANCH  65  69
ENDBRANCH  48  62
BRANCH  49  73
ATOM     73  C   UNL A   1      39.335  33.100  37.054  1.00  0.00     0.023 A 
ATOM     74  C   UNL A   1      39.994  34.308  37.327  1.00  0.00     0.031 A 
ATOM     75  C   UNL A   1      38.388  32.640  37.987  1.00  0.00     0.131 A 
ATOM     76  C   UNL A   1      39.729  34.997  38.522  1.00  0.00     0.055 A 
ATOM     77  C   UNL A   1      38.093  33.351  39.151  1.00  0.00     0.041 A 
ATOM     78  F   UNL A   1      37.722  31.495  37.768  1.00  0.00    -0.206 F 
ATOM     79  C   UNL A   1      38.774  34.532  39.430  1.00  0.00     0.022 A 
BRANCH  76  80
ATOM     80  S   UNL A   1      40.702  36.479  38.906  1.00  0.00     0.124 S 
ATOM     81  O   UNL A   1      40.965  36.302  40.329  1.00  0.00    -0.237 OA
ATOM     82  O   UNL A   1      41.850  36.326  38.017  1.00  0.00    -0.237 OA
ATOM     83  O   UNL A   1      39.798  37.577  38.569  1.00  0.00    -0.744 OA
ENDBRANCH  76  80
ENDBRANCH  49  73
BRANCH  61  84
ATOM     84  C   UNL A   1      44.311  28.477  35.477  1.00  0.00     0.023 A 
ATOM     85  C   UNL A   1      44.211  27.450  36.432  1.00  0.00     0.031 A 
ATOM     86  C   UNL A   1      45.573  29.055  35.253  1.00  0.00     0.131 A 
ATOM     87  C   UNL A   1      45.345  27.067  37.163  1.00  0.00     0.055 A 
ATOM     88  C   UNL A   1      46.708  28.630  35.943  1.00  0.00     0.041 A 
ATOM     89  F   UNL A   1      45.723  30.040  34.352  1.00  0.00    -0.206 F 
ATOM     90  C   UNL A   1      46.595  27.639  36.914  1.00  0.00     0.022 A 
BRANCH  87  91
ATOM     91  S   UNL A   1      45.148  25.865  38.508  1.00  0.00     0.124 S 
ATOM     92  O   UNL A   1      46.530  25.638  38.917  1.00  0.00    -0.237 OA
ATOM     93  O   UNL A   1      44.312  26.593  39.458  1.00  0.00    -0.237 OA
ATOM     94  O   UNL A   1      44.498  24.728  37.859  1.00  0.00    -0.744 OA
ENDBRANCH  87  91
ENDBRANCH  61  84
ENDBRANCH  35  36
ENDBRANCH  27  30
ENDBRANCH  25  26
ENDBRANCH  24  25
ENDBRANCH   1  24
TORSDOF 19
ENDMDL
