MODEL 1
REMARK VINA RESULT:     -13.5      0.000      0.000
REMARK SMILES Cc1ccc(CCC(=O)N2CCC3(CC2)[C@H](C(=O)NCCCCNC(=O)c2ccc(-c4c5nc(c(-c6cc(S(=O)(=O)[O-])ccc6F)c6ccc([nH]6)c(-c6cc(S(=O)(=O)[O-])ccc6F)c6nc(c(-c7cc(S(=O)(=O)[O-])ccc7F)c7ccc4[nH]7)C=C6)C=C5)cc2)CC(=O)N3C)cc1
REMARK SMILES IDX 21 1 20 2 19 3 17 4 18 5 16 7 8 8 9 9 10 10 11 11 15 12
REMARK SMILES IDX 12 13 14 14 13 15 93 16 90 17 91 18 94 19 92 20 7 21 6 22
REMARK SMILES IDX 5 23 1 24 2 25 3 26 96 27 4 28 95 29 22 30 23 31 24 32 25 33
REMARK SMILES IDX 26 35 27 36 28 37 89 38 29 39 88 40 30 41 31 42 32 43 82 44
REMARK SMILES IDX 33 45 87 46 81 47 83 48 34 49 86 50 80 51 79 52 35 54 67 55
REMARK SMILES IDX 47 56 66 57 48 58 51 59 65 60 84 61 49 62 50 63 64 65 85 66
REMARK SMILES IDX 52 67 36 68 37 69 45 70 38 71 44 72 46 73 43 74 39 75 40 76
REMARK SMILES IDX 41 77 42 78 68 79 69 80 77 81 70 82 76 83 78 84 75 85 71 86
REMARK SMILES IDX 72 87 73 88 74 89 53 90 54 91 62 92 55 93 61 94 63 95 60 96
REMARK SMILES IDX 56 97 57 98 58 99 59 100
REMARK H PARENT 19 6 24 34 83 53 51 64
REMARK Flexibility Score: inf
ROOT
ATOM      1  C   UNL A   1      32.087  30.591  26.683  1.00  0.00     0.023 C 
ENDROOT
BRANCH   1   2
ATOM      2  C   UNL A   1      31.869  29.930  25.308  1.00  0.00     0.116 C 
BRANCH   2   3
ATOM      3  N   UNL A   1      33.072  29.684  24.510  1.00  0.00    -0.356 N 
ATOM      4  C   UNL A   1      33.420  28.763  23.579  1.00  0.00     0.226 C 
ATOM      5  O   UNL A   1      34.521  28.927  23.032  1.00  0.00    -0.275 OA
ATOM      6  H   UNL A   1      33.788  30.335  24.689  1.00  0.00     0.163 HD
BRANCH   4   7
ATOM      7  C   UNL A   1      32.590  27.542  23.177  1.00  0.00     0.113 C 
ATOM      8  C   UNL A   1      34.330  23.328  25.813  1.00  0.00     0.222 C 
ATOM      9  O   UNL A   1      35.049  23.254  26.813  1.00  0.00    -0.275 OA
ATOM     10  N   UNL A   1      33.260  24.198  25.757  1.00  0.00    -0.343 N 
ATOM     11  C   UNL A   1      33.294  25.468  26.456  1.00  0.00     0.122 C 
ATOM     12  C   UNL A   1      32.107  24.072  24.906  1.00  0.00     0.122 C 
ATOM     13  C   UNL A   1      33.320  26.570  25.400  1.00  0.00     0.051 C 
ATOM     14  C   UNL A   1      32.167  25.081  23.760  1.00  0.00     0.051 C 
ATOM     15  C   UNL A   1      32.211  26.537  24.299  1.00  0.00     0.058 C 
ATOM     16  N   UNL A   1      30.818  26.940  24.556  1.00  0.00    -0.339 N 
ATOM     17  C   UNL A   1      31.304  27.935  22.471  1.00  0.00     0.116 C 
ATOM     18  C   UNL A   1      30.227  27.508  23.417  1.00  0.00     0.223 C 
ATOM     19  C   UNL A   1      29.928  26.398  25.565  1.00  0.00     0.147 C 
ATOM     20  O   UNL A   1      29.037  27.571  23.147  1.00  0.00    -0.275 OA
BRANCH   8  21
ATOM     21  C   UNL A   1      34.770  22.620  24.525  1.00  0.00     0.105 C 
BRANCH  21  22
ATOM     22  C   UNL A   1      35.808  21.485  24.578  1.00  0.00     0.045 C 
BRANCH  22  23
ATOM     23  C   UNL A   1      35.211  20.104  24.805  1.00  0.00    -0.047 A 
ATOM     24  C   UNL A   1      33.414  16.295  23.985  1.00  0.00     0.044 C 
ATOM     25  C   UNL A   1      34.025  17.578  24.471  1.00  0.00    -0.051 A 
ATOM     26  C   UNL A   1      33.230  18.701  24.722  1.00  0.00     0.004 A 
ATOM     27  C   UNL A   1      35.416  17.699  24.558  1.00  0.00     0.004 A 
ATOM     28  C   UNL A   1      33.820  19.951  24.927  1.00  0.00     0.004 A 
ATOM     29  C   UNL A   1      36.007  18.952  24.734  1.00  0.00     0.004 A 
ENDBRANCH  22  23
ENDBRANCH  21  22
ENDBRANCH   8  21
ENDBRANCH   4   7
ENDBRANCH   2   3
ENDBRANCH   1   2
BRANCH   1  30
ATOM     30  C   UNL A   1      33.198  30.017  27.564  1.00  0.00     0.023 C 
BRANCH  30  31
ATOM     31  C   UNL A   1      34.518  30.708  27.302  1.00  0.00     0.116 C 
BRANCH  31  32
ATOM     32  N   UNL A   1      35.059  31.458  28.433  1.00  0.00    -0.352 N 
ATOM     33  C   UNL A   1      36.017  31.059  29.347  1.00  0.00     0.251 C 
ATOM     34  H   UNL A   1      34.694  32.363  28.561  1.00  0.00     0.163 HD
ATOM     35  O   UNL A   1      36.298  31.739  30.330  1.00  0.00    -0.269 OA
BRANCH  33  36
ATOM     36  C   UNL A   1      36.791  29.835  29.050  1.00  0.00     0.039 A 
ATOM     37  C   UNL A   1      37.165  29.033  30.134  1.00  0.00     0.014 A 
ATOM     38  C   UNL A   1      37.406  29.692  27.808  1.00  0.00     0.014 A 
ATOM     39  C   UNL A   1      38.327  28.276  30.044  1.00  0.00     0.010 A 
ATOM     40  C   UNL A   1      38.623  29.043  27.760  1.00  0.00     0.010 A 
ATOM     41  C   UNL A   1      39.112  28.388  28.896  1.00  0.00    -0.014 A 
BRANCH  41  42
ATOM     42  C   UNL A   1      40.495  27.933  28.839  1.00  0.00     0.031 A 
ATOM     43  C   UNL A   1      40.792  26.567  28.367  1.00  0.00     0.074 A 
ATOM     44  C   UNL A   1      41.502  28.744  29.231  1.00  0.00     0.049 A 
ATOM     45  N   UNL A   1      41.785  25.855  28.778  1.00  0.00    -0.248 NA
ATOM     46  C   UNL A   1      39.937  25.871  27.415  1.00  0.00     0.031 C 
ATOM     47  C   UNL A   1      42.936  28.514  29.077  1.00  0.00     0.029 A 
ATOM     48  N   UNL A   1      41.418  29.850  30.069  1.00  0.00    -0.354 N 
ATOM     49  C   UNL A   1      41.854  24.734  27.983  1.00  0.00     0.074 A 
ATOM     50  C   UNL A   1      40.648  24.763  27.190  1.00  0.00     0.031 C 
ATOM     51  C   UNL A   1      43.595  29.278  29.964  1.00  0.00     0.029 A 
ATOM     52  C   UNL A   1      42.604  29.918  30.813  1.00  0.00     0.049 A 
ATOM     53  H   UNL A   1      40.660  30.476  30.130  1.00  0.00     0.167 HD
ATOM     54  C   UNL A   1      42.983  23.973  27.982  1.00  0.00     0.034 A 
ATOM     55  C   UNL A   1      42.578  29.850  32.176  1.00  0.00     0.034 A 
ATOM     56  C   UNL A   1      43.982  24.499  28.912  1.00  0.00     0.049 A 
ATOM     57  C   UNL A   1      43.302  28.646  32.735  1.00  0.00     0.074 A 
ATOM     58  C   UNL A   1      45.090  25.309  28.727  1.00  0.00     0.029 A 
ATOM     59  N   UNL A   1      43.744  24.463  30.280  1.00  0.00    -0.354 N 
ATOM     60  N   UNL A   1      43.657  27.606  32.030  1.00  0.00    -0.248 NA
ATOM     61  C   UNL A   1      43.650  28.511  34.145  1.00  0.00     0.031 C 
ATOM     62  C   UNL A   1      45.474  25.822  29.992  1.00  0.00     0.029 A 
ATOM     63  C   UNL A   1      44.627  25.290  30.950  1.00  0.00     0.049 A 
ATOM     64  H   UNL A   1      43.044  23.924  30.714  1.00  0.00     0.167 HD
ATOM     65  C   UNL A   1      44.205  26.658  32.857  1.00  0.00     0.074 A 
ATOM     66  C   UNL A   1      44.218  27.293  34.164  1.00  0.00     0.031 C 
ATOM     67  C   UNL A   1      44.571  25.423  32.400  1.00  0.00     0.034 A 
BRANCH  54  68
ATOM     68  C   UNL A   1      43.303  22.957  26.908  1.00  0.00     0.023 A 
ATOM     69  C   UNL A   1      42.741  21.666  26.993  1.00  0.00     0.031 A 
ATOM     70  C   UNL A   1      44.172  23.165  25.820  1.00  0.00     0.131 A 
ATOM     71  C   UNL A   1      43.135  20.634  26.121  1.00  0.00     0.055 A 
ATOM     72  C   UNL A   1      44.617  22.124  24.993  1.00  0.00     0.041 A 
ATOM     73  F   UNL A   1      44.586  24.392  25.476  1.00  0.00    -0.206 F 
ATOM     74  C   UNL A   1      44.111  20.844  25.153  1.00  0.00     0.022 A 
BRANCH  71  75
ATOM     75  S   UNL A   1      42.341  19.011  26.266  1.00  0.00     0.124 S 
ATOM     76  O   UNL A   1      42.433  18.745  27.698  1.00  0.00    -0.237 OA
ATOM     77  O   UNL A   1      41.005  19.273  25.742  1.00  0.00    -0.237 OA
ATOM     78  O   UNL A   1      43.173  18.151  25.425  1.00  0.00    -0.744 OA
ENDBRANCH  71  75
ENDBRANCH  54  68
BRANCH  55  79
ATOM     79  C   UNL A   1      41.363  30.463  32.783  1.00  0.00     0.023 A 
ATOM     80  C   UNL A   1      41.275  31.869  32.790  1.00  0.00     0.031 A 
ATOM     81  C   UNL A   1      40.182  29.734  32.980  1.00  0.00     0.131 A 
ATOM     82  C   UNL A   1      40.022  32.500  32.842  1.00  0.00     0.055 A 
ATOM     83  C   UNL A   1      38.939  30.373  33.077  1.00  0.00     0.041 A 
ATOM     84  F   UNL A   1      40.196  28.394  32.949  1.00  0.00    -0.206 F 
ATOM     85  C   UNL A   1      38.848  31.760  32.962  1.00  0.00     0.022 A 
BRANCH  82  86
ATOM     86  S   UNL A   1      39.942  34.264  32.445  1.00  0.00     0.124 S 
ATOM     87  O   UNL A   1      40.636  34.341  31.167  1.00  0.00    -0.237 OA
ATOM     88  O   UNL A   1      38.500  34.487  32.407  1.00  0.00    -0.237 OA
ATOM     89  O   UNL A   1      40.614  34.914  33.567  1.00  0.00    -0.744 OA
ENDBRANCH  82  86
ENDBRANCH  55  79
BRANCH  67  90
ATOM     90  C   UNL A   1      44.979  24.246  33.263  1.00  0.00     0.023 A 
ATOM     91  C   UNL A   1      46.269  24.077  33.786  1.00  0.00     0.031 A 
ATOM     92  C   UNL A   1      44.028  23.271  33.662  1.00  0.00     0.131 A 
ATOM     93  C   UNL A   1      46.599  22.957  34.572  1.00  0.00     0.055 A 
ATOM     94  C   UNL A   1      44.335  22.209  34.517  1.00  0.00     0.041 A 
ATOM     95  F   UNL A   1      42.755  23.314  33.243  1.00  0.00    -0.206 F 
ATOM     96  C   UNL A   1      45.634  22.035  34.964  1.00  0.00     0.022 A 
BRANCH  93  97
ATOM     97  S   UNL A   1      48.339  22.696  35.005  1.00  0.00     0.124 S 
ATOM     98  O   UNL A   1      48.981  23.843  34.368  1.00  0.00    -0.237 OA
ATOM     99  O   UNL A   1      48.306  22.719  36.464  1.00  0.00    -0.237 OA
ATOM    100  O   UNL A   1      48.653  21.399  34.411  1.00  0.00    -0.744 OA
ENDBRANCH  93  97
ENDBRANCH  67  90
ENDBRANCH  41  42
ENDBRANCH  33  36
ENDBRANCH  31  32
ENDBRANCH  30  31
ENDBRANCH   1  30
TORSDOF 17
ENDMDL
MODEL 2
REMARK VINA RESULT:     -13.4      2.598      3.648
REMARK SMILES Cc1ccc(CCC(=O)N2CCC3(CC2)[C@H](C(=O)NCCCCNC(=O)c2ccc(-c4c5nc(c(-c6cc(S(=O)(=O)[O-])ccc6F)c6ccc([nH]6)c(-c6cc(S(=O)(=O)[O-])ccc6F)c6nc(c(-c7cc(S(=O)(=O)[O-])ccc7F)c7ccc4[nH]7)C=C6)C=C5)cc2)CC(=O)N3C)cc1
REMARK SMILES IDX 21 1 20 2 19 3 17 4 18 5 16 7 8 8 9 9 10 10 11 11 15 12
REMARK SMILES IDX 12 13 14 14 13 15 93 16 90 17 91 18 94 19 92 20 7 21 6 22
REMARK SMILES IDX 5 23 1 24 2 25 3 26 96 27 4 28 95 29 22 30 23 31 24 32 25 33
REMARK SMILES IDX 26 35 27 36 28 37 89 38 29 39 88 40 30 41 31 42 32 43 82 44
REMARK SMILES IDX 33 45 87 46 81 47 83 48 34 49 86 50 80 51 79 52 35 54 67 55
REMARK SMILES IDX 47 56 66 57 48 58 51 59 65 60 84 61 49 62 50 63 64 65 85 66
REMARK SMILES IDX 52 67 36 68 37 69 45 70 38 71 44 72 46 73 43 74 39 75 40 76
REMARK SMILES IDX 41 77 42 78 68 79 69 80 77 81 70 82 76 83 78 84 75 85 71 86
REMARK SMILES IDX 72 87 73 88 74 89 53 90 54 91 62 92 55 93 61 94 63 95 60 96
REMARK SMILES IDX 56 97 57 98 58 99 59 100
REMARK H PARENT 19 6 24 34 83 53 51 64
REMARK Flexibility Score: inf
ROOT
ATOM      1  C   UNL A   1      35.577  29.354  27.388  1.00  0.00     0.023 C 
ENDROOT
BRANCH   1   2
ATOM      2  C   UNL A   1      34.482  28.746  26.489  1.00  0.00     0.116 C 
BRANCH   2   3
ATOM      3  N   UNL A   1      33.309  29.586  26.239  1.00  0.00    -0.356 N 
ATOM      4  C   UNL A   1      32.272  29.532  25.367  1.00  0.00     0.226 C 
ATOM      5  O   UNL A   1      31.389  30.391  25.513  1.00  0.00    -0.275 OA
ATOM      6  H   UNL A   1      33.262  30.364  26.840  1.00  0.00     0.163 HD
BRANCH   4   7
ATOM      7  C   UNL A   1      32.123  28.531  24.219  1.00  0.00     0.113 C 
ATOM      8  C   UNL A   1      31.946  23.652  26.193  1.00  0.00     0.222 C 
ATOM      9  O   UNL A   1      31.743  23.266  27.347  1.00  0.00    -0.275 OA
ATOM     10  N   UNL A   1      31.142  24.606  25.599  1.00  0.00    -0.343 N 
ATOM     11  C   UNL A   1      30.522  25.653  26.387  1.00  0.00     0.122 C 
ATOM     12  C   UNL A   1      30.962  24.802  24.186  1.00  0.00     0.122 C 
ATOM     13  C   UNL A   1      31.163  26.975  25.973  1.00  0.00     0.051 C 
ATOM     14  C   UNL A   1      31.701  26.053  23.715  1.00  0.00     0.051 C 
ATOM     15  C   UNL A   1      31.179  27.319  24.447  1.00  0.00     0.058 C 
ATOM     16  N   UNL A   1      29.983  27.774  23.718  1.00  0.00    -0.339 N 
ATOM     17  C   UNL A   1      31.686  29.206  22.930  1.00  0.00     0.116 C 
ATOM     18  C   UNL A   1      30.316  28.659  22.681  1.00  0.00     0.223 C 
ATOM     19  C   UNL A   1      28.711  27.083  23.618  1.00  0.00     0.147 C 
ATOM     20  O   UNL A   1      29.675  28.897  21.669  1.00  0.00    -0.275 OA
BRANCH   8  21
ATOM     21  C   UNL A   1      33.248  23.248  25.491  1.00  0.00     0.105 C 
BRANCH  21  22
ATOM     22  C   UNL A   1      33.209  22.403  24.205  1.00  0.00     0.045 C 
BRANCH  22  23
ATOM     23  C   UNL A   1      33.354  20.907  24.438  1.00  0.00    -0.047 A 
ATOM     24  C   UNL A   1      34.157  16.759  23.685  1.00  0.00     0.044 C 
ATOM     25  C   UNL A   1      33.815  18.150  24.136  1.00  0.00    -0.051 A 
ATOM     26  C   UNL A   1      32.535  18.676  23.934  1.00  0.00     0.004 A 
ATOM     27  C   UNL A   1      34.815  18.981  24.653  1.00  0.00     0.004 A 
ATOM     28  C   UNL A   1      32.295  20.041  24.122  1.00  0.00     0.004 A 
ATOM     29  C   UNL A   1      34.584  20.350  24.813  1.00  0.00     0.004 A 
ENDBRANCH  22  23
ENDBRANCH  21  22
ENDBRANCH   8  21
ENDBRANCH   4   7
ENDBRANCH   2   3
ENDBRANCH   1   2
BRANCH   1  30
ATOM     30  C   UNL A   1      35.434  30.832  27.757  1.00  0.00     0.023 C 
BRANCH  30  31
ATOM     31  C   UNL A   1      35.099  31.002  29.223  1.00  0.00     0.116 C 
BRANCH  31  32
ATOM     32  N   UNL A   1      34.342  32.208  29.548  1.00  0.00    -0.352 N 
ATOM     33  C   UNL A   1      34.740  33.289  30.314  1.00  0.00     0.251 C 
ATOM     34  H   UNL A   1      33.432  32.258  29.175  1.00  0.00     0.163 HD
ATOM     35  O   UNL A   1      33.963  34.190  30.615  1.00  0.00    -0.269 OA
BRANCH  33  36
ATOM     36  C   UNL A   1      36.172  33.399  30.667  1.00  0.00     0.039 A 
ATOM     37  C   UNL A   1      37.036  33.909  29.692  1.00  0.00     0.014 A 
ATOM     38  C   UNL A   1      36.665  32.705  31.769  1.00  0.00     0.014 A 
ATOM     39  C   UNL A   1      38.363  33.498  29.686  1.00  0.00     0.010 A 
ATOM     40  C   UNL A   1      37.947  32.197  31.693  1.00  0.00     0.010 A 
ATOM     41  C   UNL A   1      38.773  32.545  30.619  1.00  0.00    -0.014 A 
BRANCH  41  42
ATOM     42  C   UNL A   1      40.014  31.791  30.484  1.00  0.00     0.031 A 
ATOM     43  C   UNL A   1      40.000  30.488  29.792  1.00  0.00     0.074 A 
ATOM     44  C   UNL A   1      41.167  32.267  31.000  1.00  0.00     0.049 A 
ATOM     45  N   UNL A   1      40.784  29.506  30.076  1.00  0.00    -0.248 NA
ATOM     46  C   UNL A   1      39.041  30.176  28.741  1.00  0.00     0.031 C 
ATOM     47  C   UNL A   1      42.513  31.734  30.805  1.00  0.00     0.029 A 
ATOM     48  N   UNL A   1      41.314  33.212  32.010  1.00  0.00    -0.354 N 
ATOM     49  C   UNL A   1      40.618  28.543  29.106  1.00  0.00     0.074 A 
ATOM     50  C   UNL A   1      39.481  28.984  28.333  1.00  0.00     0.031 C 
ATOM     51  C   UNL A   1      43.299  32.167  31.805  1.00  0.00     0.029 A 
ATOM     52  C   UNL A   1      42.456  32.878  32.751  1.00  0.00     0.049 A 
ATOM     53  H   UNL A   1      40.721  33.980  32.176  1.00  0.00     0.167 HD
ATOM     54  C   UNL A   1      41.538  27.547  28.976  1.00  0.00     0.034 A 
ATOM     55  C   UNL A   1      42.366  32.599  34.084  1.00  0.00     0.034 A 
ATOM     56  C   UNL A   1      42.598  27.666  29.976  1.00  0.00     0.049 A 
ATOM     57  C   UNL A   1      42.769  31.183  34.434  1.00  0.00     0.074 A 
ATOM     58  C   UNL A   1      43.870  28.211  29.923  1.00  0.00     0.029 A 
ATOM     59  N   UNL A   1      42.310  27.467  31.321  1.00  0.00    -0.354 N 
ATOM     60  N   UNL A   1      42.897  30.217  33.566  1.00  0.00    -0.248 NA
ATOM     61  C   UNL A   1      43.025  30.744  35.801  1.00  0.00     0.031 C 
ATOM     62  C   UNL A   1      44.318  28.407  31.254  1.00  0.00     0.029 A 
ATOM     63  C   UNL A   1      43.337  27.943  32.115  1.00  0.00     0.049 A 
ATOM     64  H   UNL A   1      41.488  27.045  31.662  1.00  0.00     0.167 HD
ATOM     65  C   UNL A   1      43.178  29.046  34.223  1.00  0.00     0.074 A 
ATOM     66  C   UNL A   1      43.292  29.440  35.617  1.00  0.00     0.031 C 
ATOM     67  C   UNL A   1      43.262  27.849  33.566  1.00  0.00     0.034 A 
BRANCH  54  68
ATOM     68  C   UNL A   1      41.650  26.672  27.747  1.00  0.00     0.023 A 
ATOM     69  C   UNL A   1      41.348  25.298  27.851  1.00  0.00     0.031 A 
ATOM     70  C   UNL A   1      42.086  27.098  26.478  1.00  0.00     0.131 A 
ATOM     71  C   UNL A   1      41.597  24.408  26.791  1.00  0.00     0.055 A 
ATOM     72  C   UNL A   1      42.398  26.206  25.443  1.00  0.00     0.041 A 
ATOM     73  F   UNL A   1      42.177  28.397  26.166  1.00  0.00    -0.206 F 
ATOM     74  C   UNL A   1      42.171  24.848  25.602  1.00  0.00     0.022 A 
BRANCH  71  75
ATOM     75  S   UNL A   1      41.148  22.662  26.984  1.00  0.00     0.124 S 
ATOM     76  O   UNL A   1      41.836  22.037  25.860  1.00  0.00    -0.237 OA
ATOM     77  O   UNL A   1      41.668  22.356  28.312  1.00  0.00    -0.237 OA
ATOM     78  O   UNL A   1      39.689  22.675  26.884  1.00  0.00    -0.744 OA
ENDBRANCH  71  75
ENDBRANCH  54  68
BRANCH  55  79
ATOM     79  C   UNL A   1      41.306  33.375  34.789  1.00  0.00     0.023 A 
ATOM     80  C   UNL A   1      40.171  32.671  35.235  1.00  0.00     0.031 A 
ATOM     81  C   UNL A   1      41.556  34.634  35.349  1.00  0.00     0.131 A 
ATOM     82  C   UNL A   1      39.412  33.161  36.310  1.00  0.00     0.055 A 
ATOM     83  C   UNL A   1      40.768  35.138  36.392  1.00  0.00     0.041 A 
ATOM     84  F   UNL A   1      42.640  35.337  34.991  1.00  0.00    -0.206 F 
ATOM     85  C   UNL A   1      39.717  34.380  36.909  1.00  0.00     0.022 A 
BRANCH  82  86
ATOM     86  S   UNL A   1      38.227  32.039  37.094  1.00  0.00     0.124 S 
ATOM     87  O   UNL A   1      38.548  30.753  36.488  1.00  0.00    -0.237 OA
ATOM     88  O   UNL A   1      38.575  32.190  38.503  1.00  0.00    -0.237 OA
ATOM     89  O   UNL A   1      36.923  32.593  36.741  1.00  0.00    -0.744 OA
ENDBRANCH  82  86
ENDBRANCH  55  79
BRANCH  67  90
ATOM     90  C   UNL A   1      43.353  26.486  34.222  1.00  0.00     0.023 A 
ATOM     91  C   UNL A   1      44.533  25.730  34.280  1.00  0.00     0.031 A 
ATOM     92  C   UNL A   1      42.238  25.927  34.898  1.00  0.00     0.131 A 
ATOM     93  C   UNL A   1      44.559  24.462  34.889  1.00  0.00     0.055 A 
ATOM     94  C   UNL A   1      42.291  24.709  35.581  1.00  0.00     0.041 A 
ATOM     95  F   UNL A   1      41.049  26.546  34.930  1.00  0.00    -0.206 F 
ATOM     96  C   UNL A   1      43.453  23.957  35.565  1.00  0.00     0.022 A 
BRANCH  93  97
ATOM     97  S   UNL A   1      46.056  23.456  34.711  1.00  0.00     0.124 S 
ATOM     98  O   UNL A   1      45.540  22.268  34.038  1.00  0.00    -0.237 OA
ATOM     99  O   UNL A   1      46.918  24.316  33.906  1.00  0.00    -0.237 OA
ATOM    100  O   UNL A   1      46.499  23.247  36.088  1.00  0.00    -0.744 OA
ENDBRANCH  93  97
ENDBRANCH  67  90
ENDBRANCH  41  42
ENDBRANCH  33  36
ENDBRANCH  31  32
ENDBRANCH  30  31
ENDBRANCH   1  30
TORSDOF 17
ENDMDL
MODEL 3
REMARK VINA RESULT:     -13.4      2.146      2.704
REMARK SMILES Cc1ccc(CCC(=O)N2CCC3(CC2)[C@H](C(=O)NCCCCNC(=O)c2ccc(-c4c5nc(c(-c6cc(S(=O)(=O)[O-])ccc6F)c6ccc([nH]6)c(-c6cc(S(=O)(=O)[O-])ccc6F)c6nc(c(-c7cc(S(=O)(=O)[O-])ccc7F)c7ccc4[nH]7)C=C6)C=C5)cc2)CC(=O)N3C)cc1
REMARK SMILES IDX 21 1 20 2 19 3 17 4 18 5 16 7 8 8 9 9 10 10 11 11 15 12
REMARK SMILES IDX 12 13 14 14 13 15 93 16 90 17 91 18 94 19 92 20 7 21 6 22
REMARK SMILES IDX 5 23 1 24 2 25 3 26 96 27 4 28 95 29 22 30 23 31 24 32 25 33
REMARK SMILES IDX 26 35 27 36 28 37 89 38 29 39 88 40 30 41 31 42 32 43 82 44
REMARK SMILES IDX 33 45 87 46 81 47 83 48 34 49 86 50 80 51 79 52 35 54 67 55
REMARK SMILES IDX 47 56 66 57 48 58 51 59 65 60 84 61 49 62 50 63 64 65 85 66
REMARK SMILES IDX 52 67 36 68 37 69 45 70 38 71 44 72 46 73 43 74 39 75 40 76
REMARK SMILES IDX 41 77 42 78 68 79 69 80 77 81 70 82 76 83 78 84 75 85 71 86
REMARK SMILES IDX 72 87 73 88 74 89 53 90 54 91 62 92 55 93 61 94 63 95 60 96
REMARK SMILES IDX 56 97 57 98 58 99 59 100
REMARK H PARENT 19 6 24 34 83 53 51 64
REMARK Flexibility Score: inf
ROOT
ATOM      1  C   UNL A   1      31.857  30.663  26.631  1.00  0.00     0.023 C 
ENDROOT
BRANCH   1   2
ATOM      2  C   UNL A   1      31.942  29.899  25.295  1.00  0.00     0.116 C 
BRANCH   2   3
ATOM      3  N   UNL A   1      33.213  29.230  25.012  1.00  0.00    -0.356 N 
ATOM      4  C   UNL A   1      33.626  28.331  24.084  1.00  0.00     0.226 C 
ATOM      5  O   UNL A   1      34.835  28.053  24.092  1.00  0.00    -0.275 OA
ATOM      6  H   UNL A   1      33.930  29.493  25.634  1.00  0.00     0.163 HD
BRANCH   4   7
ATOM      7  C   UNL A   1      32.730  27.625  23.066  1.00  0.00     0.113 C 
ATOM      8  C   UNL A   1      31.697  22.748  24.765  1.00  0.00     0.222 C 
ATOM      9  O   UNL A   1      31.830  22.250  25.886  1.00  0.00    -0.275 OA
ATOM     10  N   UNL A   1      31.096  23.979  24.589  1.00  0.00    -0.343 N 
ATOM     11  C   UNL A   1      31.208  25.014  25.599  1.00  0.00     0.122 C 
ATOM     12  C   UNL A   1      30.471  24.453  23.384  1.00  0.00     0.122 C 
ATOM     13  C   UNL A   1      32.045  26.143  25.004  1.00  0.00     0.051 C 
ATOM     14  C   UNL A   1      31.348  25.496  22.694  1.00  0.00     0.051 C 
ATOM     15  C   UNL A   1      31.597  26.718  23.620  1.00  0.00     0.058 C 
ATOM     16  N   UNL A   1      30.439  27.616  23.465  1.00  0.00    -0.339 N 
ATOM     17  C   UNL A   1      32.089  28.603  22.096  1.00  0.00     0.116 C 
ATOM     18  C   UNL A   1      30.630  28.526  22.415  1.00  0.00     0.223 C 
ATOM     19  C   UNL A   1      29.073  27.351  23.875  1.00  0.00     0.147 C 
ATOM     20  O   UNL A   1      29.773  29.107  21.766  1.00  0.00    -0.275 OA
BRANCH   8  21
ATOM     21  C   UNL A   1      32.422  22.107  23.575  1.00  0.00     0.105 C 
BRANCH  21  22
ATOM     22  C   UNL A   1      33.774  22.664  23.096  1.00  0.00     0.045 C 
BRANCH  22  23
ATOM     23  C   UNL A   1      34.879  22.602  24.141  1.00  0.00    -0.047 A 
ATOM     24  C   UNL A   1      38.757  22.046  25.891  1.00  0.00     0.044 C 
ATOM     25  C   UNL A   1      37.333  22.274  25.471  1.00  0.00    -0.051 A 
ATOM     26  C   UNL A   1      36.431  21.208  25.385  1.00  0.00     0.004 A 
ATOM     27  C   UNL A   1      36.928  23.541  25.039  1.00  0.00     0.004 A 
ATOM     28  C   UNL A   1      35.193  21.380  24.758  1.00  0.00     0.004 A 
ATOM     29  C   UNL A   1      35.704  23.707  24.386  1.00  0.00     0.004 A 
ENDBRANCH  22  23
ENDBRANCH  21  22
ENDBRANCH   8  21
ENDBRANCH   4   7
ENDBRANCH   2   3
ENDBRANCH   1   2
BRANCH   1  30
ATOM     30  C   UNL A   1      32.994  30.447  27.631  1.00  0.00     0.023 C 
BRANCH  30  31
ATOM     31  C   UNL A   1      34.037  31.537  27.520  1.00  0.00     0.116 C 
BRANCH  31  32
ATOM     32  N   UNL A   1      34.513  32.069  28.795  1.00  0.00    -0.352 N 
ATOM     33  C   UNL A   1      35.416  31.504  29.677  1.00  0.00     0.251 C 
ATOM     34  H   UNL A   1      34.143  32.943  29.060  1.00  0.00     0.163 HD
ATOM     35  O   UNL A   1      35.642  31.997  30.778  1.00  0.00    -0.269 OA
BRANCH  33  36
ATOM     36  C   UNL A   1      36.205  30.342  29.212  1.00  0.00     0.039 A 
ATOM     37  C   UNL A   1      36.703  29.474  30.189  1.00  0.00     0.014 A 
ATOM     38  C   UNL A   1      36.709  30.325  27.914  1.00  0.00     0.014 A 
ATOM     39  C   UNL A   1      37.879  28.778  29.935  1.00  0.00     0.010 A 
ATOM     40  C   UNL A   1      37.940  29.736  27.706  1.00  0.00     0.010 A 
ATOM     41  C   UNL A   1      38.552  29.015  28.736  1.00  0.00    -0.014 A 
BRANCH  41  42
ATOM     42  C   UNL A   1      39.940  28.626  28.522  1.00  0.00     0.031 A 
ATOM     43  C   UNL A   1      40.264  27.215  28.237  1.00  0.00     0.074 A 
ATOM     44  C   UNL A   1      40.931  29.542  28.599  1.00  0.00     0.049 A 
ATOM     45  N   UNL A   1      41.361  26.636  28.585  1.00  0.00    -0.248 NA
ATOM     46  C   UNL A   1      39.326  26.322  27.570  1.00  0.00     0.031 C 
ATOM     47  C   UNL A   1      42.336  29.360  28.244  1.00  0.00     0.029 A 
ATOM     48  N   UNL A   1      40.895  30.772  29.247  1.00  0.00    -0.354 N 
ATOM     49  C   UNL A   1      41.391  25.398  27.983  1.00  0.00     0.074 A 
ATOM     50  C   UNL A   1      40.076  25.228  27.412  1.00  0.00     0.031 C 
ATOM     51  C   UNL A   1      43.065  30.299  28.871  1.00  0.00     0.029 A 
ATOM     52  C   UNL A   1      42.175  31.027  29.758  1.00  0.00     0.049 A 
ATOM     53  H   UNL A   1      40.110  31.359  29.332  1.00  0.00     0.167 HD
ATOM     54  C   UNL A   1      42.562  24.705  27.917  1.00  0.00     0.034 A 
ATOM     55  C   UNL A   1      42.370  31.197  31.098  1.00  0.00     0.034 A 
ATOM     56  C   UNL A   1      43.651  25.434  28.565  1.00  0.00     0.049 A 
ATOM     57  C   UNL A   1      43.265  30.145  31.716  1.00  0.00     0.074 A 
ATOM     58  C   UNL A   1      44.649  26.253  28.065  1.00  0.00     0.029 A 
ATOM     59  N   UNL A   1      43.636  25.626  29.941  1.00  0.00    -0.354 N 
ATOM     60  N   UNL A   1      43.583  29.018  31.142  1.00  0.00    -0.248 NA
ATOM     61  C   UNL A   1      43.841  30.276  33.050  1.00  0.00     0.031 C 
ATOM     62  C   UNL A   1      45.188  26.997  29.145  1.00  0.00     0.029 A 
ATOM     63  C   UNL A   1      44.547  26.600  30.307  1.00  0.00     0.049 A 
ATOM     64  H   UNL A   1      43.057  25.136  30.570  1.00  0.00     0.167 HD
ATOM     65  C   UNL A   1      44.327  28.257  32.008  1.00  0.00     0.074 A 
ATOM     66  C   UNL A   1      44.497  29.109  33.172  1.00  0.00     0.031 C 
ATOM     67  C   UNL A   1      44.711  26.980  31.704  1.00  0.00     0.034 A 
BRANCH  54  68
ATOM     68  C   UNL A   1      42.785  23.535  26.985  1.00  0.00     0.023 A 
ATOM     69  C   UNL A   1      42.192  22.291  27.288  1.00  0.00     0.031 A 
ATOM     70  C   UNL A   1      43.591  23.552  25.831  1.00  0.00     0.131 A 
ATOM     71  C   UNL A   1      42.502  21.131  26.555  1.00  0.00     0.055 A 
ATOM     72  C   UNL A   1      43.955  22.387  25.141  1.00  0.00     0.041 A 
ATOM     73  F   UNL A   1      44.019  24.700  25.290  1.00  0.00    -0.206 F 
ATOM     74  C   UNL A   1      43.423  21.163  25.512  1.00  0.00     0.022 A 
BRANCH  71  75
ATOM     75  S   UNL A   1      41.671  19.576  26.978  1.00  0.00     0.124 S 
ATOM     76  O   UNL A   1      42.778  18.750  27.446  1.00  0.00    -0.237 OA
ATOM     77  O   UNL A   1      40.712  20.005  27.990  1.00  0.00    -0.237 OA
ATOM     78  O   UNL A   1      41.079  19.152  25.710  1.00  0.00    -0.744 OA
ENDBRANCH  71  75
ENDBRANCH  54  68
BRANCH  55  79
ATOM     79  C   UNL A   1      41.222  31.845  31.794  1.00  0.00     0.023 A 
ATOM     80  C   UNL A   1      40.384  31.024  32.573  1.00  0.00     0.031 A 
ATOM     81  C   UNL A   1      41.173  33.227  32.017  1.00  0.00     0.131 A 
ATOM     82  C   UNL A   1      39.644  31.572  33.634  1.00  0.00     0.055 A 
ATOM     83  C   UNL A   1      40.397  33.773  33.049  1.00  0.00     0.041 A 
ATOM     84  F   UNL A   1      41.972  34.057  31.332  1.00  0.00    -0.206 F 
ATOM     85  C   UNL A   1      39.664  32.940  33.893  1.00  0.00     0.022 A 
BRANCH  82  86
ATOM     86  S   UNL A   1      38.913  30.433  34.837  1.00  0.00     0.124 S 
ATOM     87  O   UNL A   1      37.950  29.689  34.035  1.00  0.00    -0.237 OA
ATOM     88  O   UNL A   1      40.087  29.691  35.283  1.00  0.00    -0.237 OA
ATOM     89  O   UNL A   1      38.340  31.309  35.855  1.00  0.00    -0.744 OA
ENDBRANCH  82  86
ENDBRANCH  55  79
BRANCH  67  90
ATOM     90  C   UNL A   1      45.340  25.994  32.667  1.00  0.00     0.023 A 
ATOM     91  C   UNL A   1      44.600  25.108  33.464  1.00  0.00     0.031 A 
ATOM     92  C   UNL A   1      46.749  25.857  32.753  1.00  0.00     0.131 A 
ATOM     93  C   UNL A   1      45.234  24.221  34.353  1.00  0.00     0.055 A 
ATOM     94  C   UNL A   1      47.377  24.912  33.569  1.00  0.00     0.041 A 
ATOM     95  F   UNL A   1      47.579  26.633  32.040  1.00  0.00    -0.206 F 
ATOM     96  C   UNL A   1      46.619  24.096  34.392  1.00  0.00     0.022 A 
BRANCH  93  97
ATOM     97  S   UNL A   1      44.201  23.285  35.512  1.00  0.00     0.124 S 
ATOM     98  O   UNL A   1      44.864  21.984  35.520  1.00  0.00    -0.237 OA
ATOM     99  O   UNL A   1      44.323  24.065  36.740  1.00  0.00    -0.237 OA
ATOM    100  O   UNL A   1      42.879  23.305  34.891  1.00  0.00    -0.744 OA
ENDBRANCH  93  97
ENDBRANCH  67  90
ENDBRANCH  41  42
ENDBRANCH  33  36
ENDBRANCH  31  32
ENDBRANCH  30  31
ENDBRANCH   1  30
TORSDOF 17
ENDMDL
