MODEL 1
REMARK VINA RESULT:     -11.9      0.000      0.000
REMARK SMILES CCNC(=O)c1ccc(N[C@@H]2COC[C@@]2(C)C(=O)NCCCCNC(=O)c2ccc(-c3c4nc(c(-c5cc(S(=O)(=O)[O-])ccc5F)c5ccc([nH]5)c(-c5cc(S(=O)(=O)[O-])ccc5F)c5nc(c(-c6cc(S(=O)(=O)[O-])ccc6F)c6ccc3[nH]6)C=C5)C=C4)cc2)nn1
REMARK SMILES IDX 21 1 20 2 19 3 17 4 18 5 15 7 11 8 12 9 13 10 14 11 16 12
REMARK SMILES IDX 10 13 9 15 6 16 7 17 91 18 8 19 90 20 4 21 3 22 5 24 2 25
REMARK SMILES IDX 1 26 22 27 23 28 24 29 25 30 26 32 27 33 28 34 89 35 29 36
REMARK SMILES IDX 88 37 30 38 31 39 32 40 82 41 33 42 87 43 81 44 83 45 34 46
REMARK SMILES IDX 86 47 80 48 79 49 35 51 67 52 47 53 66 54 48 55 51 56 65 57
REMARK SMILES IDX 84 58 49 59 50 60 64 62 85 63 52 64 36 65 37 66 45 67 38 68
REMARK SMILES IDX 44 69 46 70 43 71 39 72 40 73 41 74 42 75 68 76 69 77 77 78
REMARK SMILES IDX 70 79 76 80 78 81 75 82 71 83 72 84 73 85 74 86 53 87 54 88
REMARK SMILES IDX 62 89 55 90 61 91 63 92 60 93 56 94 57 95 58 96 59 97
REMARK H PARENT 19 6 10 14 3 23 24 31 83 50 51 61
REMARK Flexibility Score: inf
ROOT
ATOM      1  C   UNL A   1      32.067  27.981  27.424  1.00  0.00     0.023 C 
ENDROOT
BRANCH   1   2
ATOM      2  C   UNL A   1      31.844  26.822  26.461  1.00  0.00     0.116 C 
BRANCH   2   3
ATOM      3  N   UNL A   1      32.826  26.725  25.410  1.00  0.00    -0.355 N 
ATOM      4  C   UNL A   1      32.686  26.803  24.056  1.00  0.00     0.230 C 
ATOM      5  O   UNL A   1      33.742  26.793  23.414  1.00  0.00    -0.274 OA
ATOM      6  H   UNL A   1      33.750  26.580  25.719  1.00  0.00     0.163 HD
BRANCH   4   7
ATOM      7  C   UNL A   1      31.318  26.876  23.347  1.00  0.00     0.092 C 
ATOM      8  C   UNL A   1      30.177  26.122  24.057  1.00  0.00     0.124 C 
ATOM      9  C   UNL A   1      28.922  26.934  23.740  1.00  0.00     0.186 C 
ATOM     10  O   UNL A   1      29.341  28.271  23.445  1.00  0.00    -0.378 OA
ATOM     11  C   UNL A   1      30.773  28.315  23.547  1.00  0.00     0.179 C 
ATOM     12  C   UNL A   1      31.477  26.675  21.834  1.00  0.00     0.026 C 
BRANCH   8  13
ATOM     13  N   UNL A   1      30.020  24.677  23.883  1.00  0.00    -0.362 N 
ATOM     14  H   UNL A   1      29.192  24.369  23.447  1.00  0.00     0.162 HD
BRANCH  13  15
ATOM     15  C   UNL A   1      30.919  23.699  24.267  1.00  0.00     0.149 A 
ATOM     16  C   UNL A   1      32.331  21.436  24.898  1.00  0.00     0.150 A 
ATOM     17  C   UNL A   1      32.284  21.830  23.575  1.00  0.00     0.040 A 
ATOM     18  N   UNL A   1      31.729  22.144  25.873  1.00  0.00    -0.143 NA
ATOM     19  C   UNL A   1      31.592  22.999  23.266  1.00  0.00     0.051 A 
ATOM     20  N   UNL A   1      31.019  23.280  25.542  1.00  0.00    -0.132 NA
BRANCH  16  21
ATOM     21  C   UNL A   1      32.962  20.156  25.295  1.00  0.00     0.271 C 
ATOM     22  N   UNL A   1      34.301  20.117  25.612  1.00  0.00    -0.351 N 
ATOM     23  H   UNL A   1      34.695  19.217  25.683  1.00  0.00     0.163 HD
ATOM     24  O   UNL A   1      32.303  19.119  25.315  1.00  0.00    -0.267 OA
BRANCH  22  25
ATOM     25  C   UNL A   1      35.210  21.221  25.857  1.00  0.00     0.113 C 
ATOM     26  C   UNL A   1      36.056  21.511  24.632  1.00  0.00     0.027 C 
ENDBRANCH  22  25
ENDBRANCH  16  21
ENDBRANCH  13  15
ENDBRANCH   8  13
ENDBRANCH   4   7
ENDBRANCH   2   3
ENDBRANCH   1   2
BRANCH   1  27
ATOM     27  C   UNL A   1      31.700  29.357  26.879  1.00  0.00     0.023 C 
BRANCH  27  28
ATOM     28  C   UNL A   1      32.870  30.232  26.436  1.00  0.00     0.116 C 
BRANCH  28  29
ATOM     29  N   UNL A   1      32.787  31.614  26.889  1.00  0.00    -0.352 N 
ATOM     30  C   UNL A   1      33.709  32.327  27.622  1.00  0.00     0.251 C 
ATOM     31  H   UNL A   1      31.968  32.100  26.640  1.00  0.00     0.163 HD
ATOM     32  O   UNL A   1      33.461  33.479  27.968  1.00  0.00    -0.269 OA
BRANCH  30  33
ATOM     33  C   UNL A   1      34.970  31.668  28.027  1.00  0.00     0.039 A 
ATOM     34  C   UNL A   1      36.133  32.435  28.130  1.00  0.00     0.014 A 
ATOM     35  C   UNL A   1      34.979  30.317  28.386  1.00  0.00     0.014 A 
ATOM     36  C   UNL A   1      37.285  31.869  28.682  1.00  0.00     0.010 A 
ATOM     37  C   UNL A   1      36.105  29.778  28.998  1.00  0.00     0.010 A 
ATOM     38  C   UNL A   1      37.266  30.550  29.167  1.00  0.00    -0.014 A 
BRANCH  38  39
ATOM     39  C   UNL A   1      38.437  29.961  29.868  1.00  0.00     0.031 A 
ATOM     40  C   UNL A   1      38.788  30.420  31.257  1.00  0.00     0.074 A 
ATOM     41  C   UNL A   1      39.238  29.093  29.217  1.00  0.00     0.049 A 
ATOM     42  N   UNL A   1      39.830  30.121  31.989  1.00  0.00    -0.248 NA
ATOM     43  C   UNL A   1      37.860  31.370  31.887  1.00  0.00     0.031 C 
ATOM     44  C   UNL A   1      39.038  28.619  27.846  1.00  0.00     0.029 A 
ATOM     45  N   UNL A   1      40.397  28.472  29.615  1.00  0.00    -0.354 N 
ATOM     46  C   UNL A   1      39.700  30.870  33.154  1.00  0.00     0.074 A 
ATOM     47  C   UNL A   1      38.503  31.671  33.005  1.00  0.00     0.031 C 
ATOM     48  C   UNL A   1      40.031  27.774  27.522  1.00  0.00     0.029 A 
ATOM     49  C   UNL A   1      40.959  27.675  28.644  1.00  0.00     0.049 A 
ATOM     50  H   UNL A   1      40.788  28.585  30.511  1.00  0.00     0.167 HD
ATOM     51  C   UNL A   1      40.496  30.874  34.252  1.00  0.00     0.034 A 
ATOM     52  C   UNL A   1      42.100  26.958  28.650  1.00  0.00     0.034 A 
ATOM     53  C   UNL A   1      41.666  30.044  34.399  1.00  0.00     0.049 A 
ATOM     54  C   UNL A   1      42.954  26.957  29.892  1.00  0.00     0.074 A 
ATOM     55  C   UNL A   1      42.491  29.904  35.502  1.00  0.00     0.029 A 
ATOM     56  N   UNL A   1      42.181  29.216  33.411  1.00  0.00    -0.354 N 
ATOM     57  N   UNL A   1      42.779  27.618  31.014  1.00  0.00    -0.248 NA
ATOM     58  C   UNL A   1      44.151  26.106  29.875  1.00  0.00     0.031 C 
ATOM     59  C   UNL A   1      43.534  29.034  35.162  1.00  0.00     0.029 A 
ATOM     60  C   UNL A   1      43.326  28.582  33.869  1.00  0.00     0.049 A 
ATOM     61  H   UNL A   1      41.790  29.096  32.515  1.00  0.00     0.167 HD
ATOM     62  C   UNL A   1      43.829  27.237  31.845  1.00  0.00     0.074 A 
ATOM     63  C   UNL A   1      44.624  26.281  31.100  1.00  0.00     0.031 C 
ATOM     64  C   UNL A   1      44.110  27.636  33.111  1.00  0.00     0.034 A 
BRANCH  51  65
ATOM     65  C   UNL A   1      40.134  31.824  35.368  1.00  0.00     0.023 A 
ATOM     66  C   UNL A   1      39.239  31.460  36.389  1.00  0.00     0.031 A 
ATOM     67  C   UNL A   1      40.667  33.125  35.393  1.00  0.00     0.131 A 
ATOM     68  C   UNL A   1      38.843  32.408  37.344  1.00  0.00     0.055 A 
ATOM     69  C   UNL A   1      40.332  34.038  36.395  1.00  0.00     0.041 A 
ATOM     70  F   UNL A   1      41.513  33.536  34.434  1.00  0.00    -0.206 F 
ATOM     71  C   UNL A   1      39.403  33.687  37.369  1.00  0.00     0.022 A 
BRANCH  68  72
ATOM     72  S   UNL A   1      37.483  31.986  38.466  1.00  0.00     0.124 S 
ATOM     73  O   UNL A   1      36.488  32.998  38.117  1.00  0.00    -0.237 OA
ATOM     74  O   UNL A   1      37.166  30.617  38.080  1.00  0.00    -0.237 OA
ATOM     75  O   UNL A   1      38.075  32.138  39.795  1.00  0.00    -0.744 OA
ENDBRANCH  68  72
ENDBRANCH  51  65
BRANCH  52  76
ATOM     76  C   UNL A   1      42.518  26.186  27.446  1.00  0.00     0.023 A 
ATOM     77  C   UNL A   1      42.133  24.847  27.278  1.00  0.00     0.031 A 
ATOM     78  C   UNL A   1      43.345  26.764  26.467  1.00  0.00     0.131 A 
ATOM     79  C   UNL A   1      42.616  24.112  26.183  1.00  0.00     0.055 A 
ATOM     80  C   UNL A   1      43.785  26.042  25.355  1.00  0.00     0.041 A 
ATOM     81  F   UNL A   1      43.734  28.044  26.576  1.00  0.00    -0.206 F 
ATOM     82  C   UNL A   1      43.431  24.703  25.216  1.00  0.00     0.022 A 
BRANCH  79  83
ATOM     83  S   UNL A   1      42.230  22.342  26.088  1.00  0.00     0.124 S 
ATOM     84  O   UNL A   1      40.774  22.360  25.996  1.00  0.00    -0.237 OA
ATOM     85  O   UNL A   1      42.944  21.943  24.880  1.00  0.00    -0.237 OA
ATOM     86  O   UNL A   1      42.772  21.808  27.336  1.00  0.00    -0.744 OA
ENDBRANCH  79  83
ENDBRANCH  52  76
BRANCH  64  87
ATOM     87  C   UNL A   1      45.300  26.999  33.780  1.00  0.00     0.023 A 
ATOM     88  C   UNL A   1      45.177  25.829  34.549  1.00  0.00     0.031 A 
ATOM     89  C   UNL A   1      46.574  27.581  33.656  1.00  0.00     0.131 A 
ATOM     90  C   UNL A   1      46.299  25.305  35.206  1.00  0.00     0.055 A 
ATOM     91  C   UNL A   1      47.697  27.026  34.270  1.00  0.00     0.041 A 
ATOM     92  F   UNL A   1      46.746  28.700  32.933  1.00  0.00    -0.206 F 
ATOM     93  C   UNL A   1      47.561  25.888  35.060  1.00  0.00     0.022 A 
BRANCH  90  94
ATOM     94  S   UNL A   1      46.076  23.892  36.322  1.00  0.00     0.124 S 
ATOM     95  O   UNL A   1      45.222  23.012  35.531  1.00  0.00    -0.237 OA
ATOM     96  O   UNL A   1      47.448  23.436  36.524  1.00  0.00    -0.237 OA
ATOM     97  O   UNL A   1      45.441  24.481  37.499  1.00  0.00    -0.744 OA
ENDBRANCH  90  94
ENDBRANCH  64  87
ENDBRANCH  38  39
ENDBRANCH  30  33
ENDBRANCH  28  29
ENDBRANCH  27  28
ENDBRANCH   1  27
TORSDOF 18
ENDMDL
MODEL 2
REMARK VINA RESULT:     -11.8      4.806     10.333
REMARK SMILES CCNC(=O)c1ccc(N[C@@H]2COC[C@@]2(C)C(=O)NCCCCNC(=O)c2ccc(-c3c4nc(c(-c5cc(S(=O)(=O)[O-])ccc5F)c5ccc([nH]5)c(-c5cc(S(=O)(=O)[O-])ccc5F)c5nc(c(-c6cc(S(=O)(=O)[O-])ccc6F)c6ccc3[nH]6)C=C5)C=C4)cc2)nn1
REMARK SMILES IDX 21 1 20 2 19 3 17 4 18 5 15 7 11 8 12 9 13 10 14 11 16 12
REMARK SMILES IDX 10 13 9 15 6 16 7 17 91 18 8 19 90 20 4 21 3 22 5 24 2 25
REMARK SMILES IDX 1 26 22 27 23 28 24 29 25 30 26 32 27 33 28 34 89 35 29 36
REMARK SMILES IDX 88 37 30 38 31 39 32 40 82 41 33 42 87 43 81 44 83 45 34 46
REMARK SMILES IDX 86 47 80 48 79 49 35 51 67 52 47 53 66 54 48 55 51 56 65 57
REMARK SMILES IDX 84 58 49 59 50 60 64 62 85 63 52 64 36 65 37 66 45 67 38 68
REMARK SMILES IDX 44 69 46 70 43 71 39 72 40 73 41 74 42 75 68 76 69 77 77 78
REMARK SMILES IDX 70 79 76 80 78 81 75 82 71 83 72 84 73 85 74 86 53 87 54 88
REMARK SMILES IDX 62 89 55 90 61 91 63 92 60 93 56 94 57 95 58 96 59 97
REMARK H PARENT 19 6 10 14 3 23 24 31 83 50 51 61
REMARK Flexibility Score: inf
ROOT
ATOM      1  C   UNL A   1      36.648  23.071  23.405  1.00  0.00     0.023 C 
ENDROOT
BRANCH   1   2
ATOM      2  C   UNL A   1      35.188  23.491  23.300  1.00  0.00     0.116 C 
BRANCH   2   3
ATOM      3  N   UNL A   1      34.626  23.997  24.529  1.00  0.00    -0.355 N 
ATOM      4  C   UNL A   1      33.558  23.567  25.258  1.00  0.00     0.230 C 
ATOM      5  O   UNL A   1      33.387  24.145  26.337  1.00  0.00    -0.274 OA
ATOM      6  H   UNL A   1      35.090  24.781  24.903  1.00  0.00     0.163 HD
BRANCH   4   7
ATOM      7  C   UNL A   1      32.600  22.455  24.784  1.00  0.00     0.092 C 
ATOM      8  C   UNL A   1      32.229  22.510  23.290  1.00  0.00     0.124 C 
ATOM      9  C   UNL A   1      32.035  21.049  22.886  1.00  0.00     0.186 C 
ATOM     10  O   UNL A   1      32.788  20.248  23.804  1.00  0.00    -0.378 OA
ATOM     11  C   UNL A   1      33.411  21.132  24.749  1.00  0.00     0.179 C 
ATOM     12  C   UNL A   1      31.466  22.245  25.797  1.00  0.00     0.026 C 
BRANCH   8  13
ATOM     13  N   UNL A   1      31.174  23.410  22.818  1.00  0.00    -0.362 N 
ATOM     14  H   UNL A   1      30.416  22.996  22.344  1.00  0.00     0.162 HD
BRANCH  13  15
ATOM     15  C   UNL A   1      31.133  24.783  22.975  1.00  0.00     0.149 A 
ATOM     16  C   UNL A   1      30.684  27.487  22.933  1.00  0.00     0.150 A 
ATOM     17  C   UNL A   1      29.840  26.694  23.686  1.00  0.00     0.040 A 
ATOM     18  N   UNL A   1      31.724  26.969  22.250  1.00  0.00    -0.143 NA
ATOM     19  C   UNL A   1      30.094  25.326  23.729  1.00  0.00     0.051 A 
ATOM     20  N   UNL A   1      31.937  25.606  22.277  1.00  0.00    -0.132 NA
BRANCH  16  21
ATOM     21  C   UNL A   1      30.425  28.934  22.758  1.00  0.00     0.271 C 
ATOM     22  N   UNL A   1      30.705  29.814  23.780  1.00  0.00    -0.351 N 
ATOM     23  H   UNL A   1      30.340  30.721  23.672  1.00  0.00     0.163 HD
ATOM     24  O   UNL A   1      29.932  29.355  21.714  1.00  0.00    -0.267 OA
BRANCH  22  25
ATOM     25  C   UNL A   1      31.467  29.584  24.993  1.00  0.00     0.113 C 
ATOM     26  C   UNL A   1      32.937  29.380  24.682  1.00  0.00     0.027 C 
ENDBRANCH  22  25
ENDBRANCH  16  21
ENDBRANCH  13  15
ENDBRANCH   8  13
ENDBRANCH   4   7
ENDBRANCH   2   3
ENDBRANCH   1   2
BRANCH   1  27
ATOM     27  C   UNL A   1      36.886  21.699  24.027  1.00  0.00     0.023 C 
BRANCH  27  28
ATOM     28  C   UNL A   1      37.372  21.699  25.474  1.00  0.00     0.116 C 
BRANCH  28  29
ATOM     29  N   UNL A   1      38.433  20.738  25.748  1.00  0.00    -0.352 N 
ATOM     30  C   UNL A   1      39.648  20.961  26.355  1.00  0.00     0.251 C 
ATOM     31  H   UNL A   1      38.259  19.813  25.462  1.00  0.00     0.163 HD
ATOM     32  O   UNL A   1      40.457  20.044  26.465  1.00  0.00    -0.269 OA
BRANCH  30  33
ATOM     33  C   UNL A   1      39.979  22.325  26.821  1.00  0.00     0.039 A 
ATOM     34  C   UNL A   1      40.958  22.487  27.804  1.00  0.00     0.014 A 
ATOM     35  C   UNL A   1      39.386  23.441  26.223  1.00  0.00     0.014 A 
ATOM     36  C   UNL A   1      41.408  23.771  28.124  1.00  0.00     0.010 A 
ATOM     37  C   UNL A   1      39.885  24.711  26.493  1.00  0.00     0.010 A 
ATOM     38  C   UNL A   1      40.911  24.889  27.434  1.00  0.00    -0.014 A 
BRANCH  38  39
ATOM     39  C   UNL A   1      41.457  26.253  27.666  1.00  0.00     0.031 A 
ATOM     40  C   UNL A   1      42.823  26.612  27.147  1.00  0.00     0.074 A 
ATOM     41  C   UNL A   1      40.769  27.128  28.427  1.00  0.00     0.049 A 
ATOM     42  N   UNL A   1      43.524  27.698  27.344  1.00  0.00    -0.248 NA
ATOM     43  C   UNL A   1      43.502  25.595  26.331  1.00  0.00     0.031 C 
ATOM     44  C   UNL A   1      39.462  26.875  29.038  1.00  0.00     0.029 A 
ATOM     45  N   UNL A   1      41.083  28.401  28.836  1.00  0.00    -0.354 N 
ATOM     46  C   UNL A   1      44.740  27.484  26.702  1.00  0.00     0.074 A 
ATOM     47  C   UNL A   1      44.693  26.145  26.154  1.00  0.00     0.031 C 
ATOM     48  C   UNL A   1      39.083  27.961  29.733  1.00  0.00     0.029 A 
ATOM     49  C   UNL A   1      40.132  28.971  29.650  1.00  0.00     0.049 A 
ATOM     50  H   UNL A   1      41.912  28.862  28.570  1.00  0.00     0.167 HD
ATOM     51  C   UNL A   1      45.789  28.334  26.568  1.00  0.00     0.034 A 
ATOM     52  C   UNL A   1      40.114  30.167  30.273  1.00  0.00     0.034 A 
ATOM     53  C   UNL A   1      45.805  29.677  27.090  1.00  0.00     0.049 A 
ATOM     54  C   UNL A   1      41.279  31.104  30.086  1.00  0.00     0.074 A 
ATOM     55  C   UNL A   1      46.777  30.651  26.936  1.00  0.00     0.029 A 
ATOM     56  N   UNL A   1      44.805  30.238  27.874  1.00  0.00    -0.354 N 
ATOM     57  N   UNL A   1      42.392  30.913  29.416  1.00  0.00    -0.248 NA
ATOM     58  C   UNL A   1      41.180  32.422  30.729  1.00  0.00     0.031 C 
ATOM     59  C   UNL A   1      46.390  31.779  27.670  1.00  0.00     0.029 A 
ATOM     60  C   UNL A   1      45.148  31.532  28.231  1.00  0.00     0.049 A 
ATOM     61  H   UNL A   1      43.973  29.782  28.137  1.00  0.00     0.167 HD
ATOM     62  C   UNL A   1      43.112  32.099  29.533  1.00  0.00     0.074 A 
ATOM     63  C   UNL A   1      42.302  33.001  30.327  1.00  0.00     0.031 C 
ATOM     64  C   UNL A   1      44.330  32.417  29.028  1.00  0.00     0.034 A 
BRANCH  51  65
ATOM     65  C   UNL A   1      47.010  27.820  25.845  1.00  0.00     0.023 A 
ATOM     66  C   UNL A   1      47.235  28.094  24.485  1.00  0.00     0.031 A 
ATOM     67  C   UNL A   1      47.947  27.016  26.518  1.00  0.00     0.131 A 
ATOM     68  C   UNL A   1      48.323  27.506  23.823  1.00  0.00     0.055 A 
ATOM     69  C   UNL A   1      49.073  26.501  25.873  1.00  0.00     0.041 A 
ATOM     70  F   UNL A   1      47.776  26.705  27.814  1.00  0.00    -0.206 F 
ATOM     71  C   UNL A   1      49.258  26.732  24.513  1.00  0.00     0.022 A 
BRANCH  68  72
ATOM     72  S   UNL A   1      48.418  27.655  22.019  1.00  0.00     0.124 S 
ATOM     73  O   UNL A   1      48.626  26.264  21.619  1.00  0.00    -0.237 OA
ATOM     74  O   UNL A   1      47.122  28.230  21.679  1.00  0.00    -0.237 OA
ATOM     75  O   UNL A   1      49.566  28.535  21.807  1.00  0.00    -0.744 OA
ENDBRANCH  68  72
ENDBRANCH  51  65
BRANCH  52  76
ATOM     76  C   UNL A   1      38.964  30.553  31.140  1.00  0.00     0.023 A 
ATOM     77  C   UNL A   1      37.960  31.410  30.668  1.00  0.00     0.031 A 
ATOM     78  C   UNL A   1      38.880  30.104  32.470  1.00  0.00     0.131 A 
ATOM     79  C   UNL A   1      36.938  31.835  31.533  1.00  0.00     0.055 A 
ATOM     80  C   UNL A   1      37.835  30.491  33.313  1.00  0.00     0.041 A 
ATOM     81  F   UNL A   1      39.810  29.274  32.968  1.00  0.00    -0.206 F 
ATOM     82  C   UNL A   1      36.864  31.373  32.848  1.00  0.00     0.022 A 
BRANCH  79  83
ATOM     83  S   UNL A   1      35.752  33.069  30.933  1.00  0.00     0.124 S 
ATOM     84  O   UNL A   1      36.212  33.287  29.567  1.00  0.00    -0.237 OA
ATOM     85  O   UNL A   1      34.483  32.362  31.078  1.00  0.00    -0.237 OA
ATOM     86  O   UNL A   1      35.943  34.196  31.845  1.00  0.00    -0.744 OA
ENDBRANCH  79  83
ENDBRANCH  52  76
BRANCH  64  87
ATOM     87  C   UNL A   1      44.832  33.815  29.281  1.00  0.00     0.023 A 
ATOM     88  C   UNL A   1      44.574  34.866  28.383  1.00  0.00     0.031 A 
ATOM     89  C   UNL A   1      45.590  34.095  30.430  1.00  0.00     0.131 A 
ATOM     90  C   UNL A   1      45.112  36.138  28.626  1.00  0.00     0.055 A 
ATOM     91  C   UNL A   1      46.080  35.374  30.693  1.00  0.00     0.041 A 
ATOM     92  F   UNL A   1      45.867  33.126  31.319  1.00  0.00    -0.206 F 
ATOM     93  C   UNL A   1      45.852  36.402  29.782  1.00  0.00     0.022 A 
BRANCH  90  94
ATOM     94  S   UNL A   1      44.900  37.429  27.370  1.00  0.00     0.124 S 
ATOM     95  O   UNL A   1      45.973  37.118  26.431  1.00  0.00    -0.237 OA
ATOM     96  O   UNL A   1      43.544  37.179  26.892  1.00  0.00    -0.237 OA
ATOM     97  O   UNL A   1      45.072  38.670  28.120  1.00  0.00    -0.744 OA
ENDBRANCH  90  94
ENDBRANCH  64  87
ENDBRANCH  38  39
ENDBRANCH  30  33
ENDBRANCH  28  29
ENDBRANCH  27  28
ENDBRANCH   1  27
TORSDOF 18
ENDMDL
MODEL 3
REMARK VINA RESULT:     -11.7      4.870      7.881
REMARK SMILES CCNC(=O)c1ccc(N[C@@H]2COC[C@@]2(C)C(=O)NCCCCNC(=O)c2ccc(-c3c4nc(c(-c5cc(S(=O)(=O)[O-])ccc5F)c5ccc([nH]5)c(-c5cc(S(=O)(=O)[O-])ccc5F)c5nc(c(-c6cc(S(=O)(=O)[O-])ccc6F)c6ccc3[nH]6)C=C5)C=C4)cc2)nn1
REMARK SMILES IDX 21 1 20 2 19 3 17 4 18 5 15 7 11 8 12 9 13 10 14 11 16 12
REMARK SMILES IDX 10 13 9 15 6 16 7 17 91 18 8 19 90 20 4 21 3 22 5 24 2 25
REMARK SMILES IDX 1 26 22 27 23 28 24 29 25 30 26 32 27 33 28 34 89 35 29 36
REMARK SMILES IDX 88 37 30 38 31 39 32 40 82 41 33 42 87 43 81 44 83 45 34 46
REMARK SMILES IDX 86 47 80 48 79 49 35 51 67 52 47 53 66 54 48 55 51 56 65 57
REMARK SMILES IDX 84 58 49 59 50 60 64 62 85 63 52 64 36 65 37 66 45 67 38 68
REMARK SMILES IDX 44 69 46 70 43 71 39 72 40 73 41 74 42 75 68 76 69 77 77 78
REMARK SMILES IDX 70 79 76 80 78 81 75 82 71 83 72 84 73 85 74 86 53 87 54 88
REMARK SMILES IDX 62 89 55 90 61 91 63 92 60 93 56 94 57 95 58 96 59 97
REMARK H PARENT 19 6 10 14 3 23 24 31 83 50 51 61
REMARK Flexibility Score: inf
ROOT
ATOM      1  C   UNL A   1      36.309  22.973  23.537  1.00  0.00     0.023 C 
ENDROOT
BRANCH   1   2
ATOM      2  C   UNL A   1      34.878  23.456  23.340  1.00  0.00     0.116 C 
BRANCH   2   3
ATOM      3  N   UNL A   1      34.554  24.663  24.060  1.00  0.00    -0.355 N 
ATOM      4  C   UNL A   1      33.695  24.873  25.097  1.00  0.00     0.230 C 
ATOM      5  O   UNL A   1      33.716  26.011  25.579  1.00  0.00    -0.274 OA
ATOM      6  H   UNL A   1      35.032  25.468  23.753  1.00  0.00     0.163 HD
BRANCH   4   7
ATOM      7  C   UNL A   1      32.736  23.792  25.636  1.00  0.00     0.092 C 
ATOM      8  C   UNL A   1      32.053  22.932  24.556  1.00  0.00     0.124 C 
ATOM      9  C   UNL A   1      31.878  21.561  25.208  1.00  0.00     0.186 C 
ATOM     10  O   UNL A   1      32.862  21.451  26.243  1.00  0.00    -0.378 OA
ATOM     11  C   UNL A   1      33.610  22.677  26.270  1.00  0.00     0.179 C 
ATOM     12  C   UNL A   1      31.860  24.355  26.764  1.00  0.00     0.026 C 
BRANCH   8  13
ATOM     13  N   UNL A   1      30.863  23.422  23.858  1.00  0.00    -0.362 N 
ATOM     14  H   UNL A   1      30.143  22.770  23.695  1.00  0.00     0.162 HD
BRANCH  13  15
ATOM     15  C   UNL A   1      30.647  24.711  23.405  1.00  0.00     0.149 A 
ATOM     16  C   UNL A   1      30.630  27.380  22.785  1.00  0.00     0.150 A 
ATOM     17  C   UNL A   1      31.485  26.551  22.085  1.00  0.00     0.040 A 
ATOM     18  N   UNL A   1      29.798  26.907  23.733  1.00  0.00    -0.143 NA
ATOM     19  C   UNL A   1      31.465  25.191  22.383  1.00  0.00     0.051 A 
ATOM     20  N   UNL A   1      29.818  25.561  24.037  1.00  0.00    -0.132 NA
BRANCH  16  21
ATOM     21  C   UNL A   1      30.660  28.849  22.596  1.00  0.00     0.271 C 
ATOM     22  N   UNL A   1      31.369  29.642  23.470  1.00  0.00    -0.351 N 
ATOM     23  H   UNL A   1      31.197  30.609  23.401  1.00  0.00     0.163 HD
ATOM     24  O   UNL A   1      30.031  29.370  21.678  1.00  0.00    -0.267 OA
BRANCH  22  25
ATOM     25  C   UNL A   1      32.335  29.247  24.477  1.00  0.00     0.113 C 
ATOM     26  C   UNL A   1      31.707  29.234  25.858  1.00  0.00     0.027 C 
ENDBRANCH  22  25
ENDBRANCH  16  21
ENDBRANCH  13  15
ENDBRANCH   8  13
ENDBRANCH   4   7
ENDBRANCH   2   3
ENDBRANCH   1   2
BRANCH   1  27
ATOM     27  C   UNL A   1      36.446  21.579  24.140  1.00  0.00     0.023 C 
BRANCH  27  28
ATOM     28  C   UNL A   1      37.148  21.504  25.494  1.00  0.00     0.116 C 
BRANCH  28  29
ATOM     29  N   UNL A   1      38.184  20.483  25.574  1.00  0.00    -0.352 N 
ATOM     30  C   UNL A   1      39.455  20.598  26.090  1.00  0.00     0.251 C 
ATOM     31  H   UNL A   1      37.945  19.599  25.213  1.00  0.00     0.163 HD
ATOM     32  O   UNL A   1      40.229  19.646  26.035  1.00  0.00    -0.269 OA
BRANCH  30  33
ATOM     33  C   UNL A   1      39.885  21.893  26.659  1.00  0.00     0.039 A 
ATOM     34  C   UNL A   1      40.853  21.904  27.666  1.00  0.00     0.014 A 
ATOM     35  C   UNL A   1      39.396  23.094  26.135  1.00  0.00     0.014 A 
ATOM     36  C   UNL A   1      41.398  23.120  28.086  1.00  0.00     0.010 A 
ATOM     37  C   UNL A   1      39.991  24.296  26.505  1.00  0.00     0.010 A 
ATOM     38  C   UNL A   1      41.007  24.322  27.472  1.00  0.00    -0.014 A 
BRANCH  38  39
ATOM     39  C   UNL A   1      41.657  25.616  27.811  1.00  0.00     0.031 A 
ATOM     40  C   UNL A   1      40.884  26.673  28.551  1.00  0.00     0.074 A 
ATOM     41  C   UNL A   1      42.903  25.875  27.365  1.00  0.00     0.049 A 
ATOM     42  N   UNL A   1      41.225  27.903  28.835  1.00  0.00    -0.248 NA
ATOM     43  C   UNL A   1      39.531  26.305  28.995  1.00  0.00     0.031 C 
ATOM     44  C   UNL A   1      43.732  24.954  26.584  1.00  0.00     0.029 A 
ATOM     45  N   UNL A   1      43.683  26.999  27.485  1.00  0.00    -0.354 N 
ATOM     46  C   UNL A   1      40.120  28.467  29.464  1.00  0.00     0.074 A 
ATOM     47  C   UNL A   1      39.084  27.455  29.474  1.00  0.00     0.031 C 
ATOM     48  C   UNL A   1      44.906  25.546  26.305  1.00  0.00     0.029 A 
ATOM     49  C   UNL A   1      44.901  26.898  26.852  1.00  0.00     0.049 A 
ATOM     50  H   UNL A   1      43.397  27.802  27.978  1.00  0.00     0.167 HD
ATOM     51  C   UNL A   1      39.990  29.706  29.999  1.00  0.00     0.034 A 
ATOM     52  C   UNL A   1      45.894  27.799  26.715  1.00  0.00     0.034 A 
ATOM     53  C   UNL A   1      41.043  30.690  30.012  1.00  0.00     0.049 A 
ATOM     54  C   UNL A   1      45.737  29.160  27.342  1.00  0.00     0.074 A 
ATOM     55  C   UNL A   1      41.049  31.941  30.605  1.00  0.00     0.029 A 
ATOM     56  N   UNL A   1      42.281  30.537  29.400  1.00  0.00    -0.354 N 
ATOM     57  N   UNL A   1      44.710  29.653  27.996  1.00  0.00    -0.248 NA
ATOM     58  C   UNL A   1      46.876  30.081  27.224  1.00  0.00     0.031 C 
ATOM     59  C   UNL A   1      42.265  32.565  30.305  1.00  0.00     0.029 A 
ATOM     60  C   UNL A   1      43.045  31.679  29.579  1.00  0.00     0.049 A 
ATOM     61  H   UNL A   1      42.572  29.734  28.910  1.00  0.00     0.167 HD
ATOM     62  C   UNL A   1      45.093  30.932  28.392  1.00  0.00     0.074 A 
ATOM     63  C   UNL A   1      46.447  31.128  27.914  1.00  0.00     0.031 C 
ATOM     64  C   UNL A   1      44.392  31.860  29.091  1.00  0.00     0.034 A 
BRANCH  51  65
ATOM     65  C   UNL A   1      38.650  30.068  30.593  1.00  0.00     0.023 A 
ATOM     66  C   UNL A   1      37.675  30.760  29.853  1.00  0.00     0.031 A 
ATOM     67  C   UNL A   1      38.354  29.743  31.929  1.00  0.00     0.131 A 
ATOM     68  C   UNL A   1      36.488  31.174  30.474  1.00  0.00     0.055 A 
ATOM     69  C   UNL A   1      37.136  30.087  32.517  1.00  0.00     0.041 A 
ATOM     70  F   UNL A   1      39.253  29.100  32.691  1.00  0.00    -0.206 F 
ATOM     71  C   UNL A   1      36.200  30.821  31.794  1.00  0.00     0.022 A 
BRANCH  68  72
ATOM     72  S   UNL A   1      35.389  32.300  29.573  1.00  0.00     0.124 S 
ATOM     73  O   UNL A   1      36.309  33.373  29.199  1.00  0.00    -0.237 OA
ATOM     74  O   UNL A   1      34.905  31.464  28.480  1.00  0.00    -0.237 OA
ATOM     75  O   UNL A   1      34.384  32.669  30.568  1.00  0.00    -0.744 OA
ENDBRANCH  68  72
ENDBRANCH  51  65
BRANCH  52  76
ATOM     76  C   UNL A   1      47.126  27.458  25.947  1.00  0.00     0.023 A 
ATOM     77  C   UNL A   1      47.242  27.784  24.587  1.00  0.00     0.031 A 
ATOM     78  C   UNL A   1      48.185  26.760  26.552  1.00  0.00     0.131 A 
ATOM     79  C   UNL A   1      48.370  27.369  23.861  1.00  0.00     0.055 A 
ATOM     80  C   UNL A   1      49.327  26.390  25.838  1.00  0.00     0.041 A 
ATOM     81  F   UNL A   1      48.128  26.432  27.853  1.00  0.00    -0.206 F 
ATOM     82  C   UNL A   1      49.418  26.683  24.480  1.00  0.00     0.022 A 
BRANCH  79  83
ATOM     83  S   UNL A   1      48.409  27.667  22.073  1.00  0.00     0.124 S 
ATOM     84  O   UNL A   1      48.570  26.316  21.549  1.00  0.00    -0.237 OA
ATOM     85  O   UNL A   1      47.111  28.294  21.844  1.00  0.00    -0.237 OA
ATOM     86  O   UNL A   1      49.563  28.547  21.900  1.00  0.00    -0.744 OA
ENDBRANCH  79  83
ENDBRANCH  52  76
BRANCH  64  87
ATOM     87  C   UNL A   1      45.102  33.148  29.418  1.00  0.00     0.023 A 
ATOM     88  C   UNL A   1      44.947  34.299  28.627  1.00  0.00     0.031 A 
ATOM     89  C   UNL A   1      45.956  33.219  30.532  1.00  0.00     0.131 A 
ATOM     90  C   UNL A   1      45.675  35.458  28.931  1.00  0.00     0.055 A 
ATOM     91  C   UNL A   1      46.638  34.390  30.861  1.00  0.00     0.041 A 
ATOM     92  F   UNL A   1      46.140  32.146  31.321  1.00  0.00    -0.206 F 
ATOM     93  C   UNL A   1      46.509  35.515  30.052  1.00  0.00     0.022 A 
BRANCH  90  94
ATOM     94  S   UNL A   1      45.580  36.871  27.798  1.00  0.00     0.124 S 
ATOM     95  O   UNL A   1      46.853  36.779  27.090  1.00  0.00    -0.237 OA
ATOM     96  O   UNL A   1      44.390  36.561  27.013  1.00  0.00    -0.237 OA
ATOM     97  O   UNL A   1      45.448  38.020  28.691  1.00  0.00    -0.744 OA
ENDBRANCH  90  94
ENDBRANCH  64  87
ENDBRANCH  38  39
ENDBRANCH  30  33
ENDBRANCH  28  29
ENDBRANCH  27  28
ENDBRANCH   1  27
TORSDOF 18
ENDMDL
