MODEL 1
REMARK VINA RESULT:     -12.0      0.000      0.000
REMARK SMILES O=C(NCCCCNC(=O)[C@@H]1[C@H](C(=O)NCc2ccncc2)[C@H]2C=C[C@@H]1O2)c1ccc(-c2c3nc(c(-c4cc(S(=O)(=O)[O-])ccc4F)c4ccc([nH]4)c(-c4cc(S(=O)(=O)[O-])ccc4F)c4nc(c(-c5cc(S(=O)(=O)[O-])ccc5F)c5ccc2[nH]5)C=C4)C=C3)cc1
REMARK SMILES IDX 5 1 4 2 3 3 1 4 2 5 28 7 29 8 90 9 30 10 89 11 31 12 32 13
REMARK SMILES IDX 33 14 83 15 34 16 88 17 82 18 84 19 35 20 87 21 81 22 80 23
REMARK SMILES IDX 36 25 68 26 48 27 67 28 49 29 52 30 66 31 85 32 50 33 51 34
REMARK SMILES IDX 65 36 86 37 53 38 37 39 38 40 46 41 39 42 45 43 47 44 44 45
REMARK SMILES IDX 40 46 41 47 42 48 43 49 69 50 70 51 78 52 71 53 77 54 79 55
REMARK SMILES IDX 76 56 72 57 73 58 74 59 75 60 54 61 55 62 63 63 56 64 62 65
REMARK SMILES IDX 64 66 61 67 57 68 58 69 59 70 60 71 6 72 7 73 8 74 9 75
REMARK SMILES IDX 10 77 11 78 12 79 26 80 23 81 25 82 27 83 24 84 13 85 14 86
REMARK SMILES IDX 15 87 16 89 17 90 18 91 22 92 19 93 21 94 20 95
REMARK H PARENT 3 6 84 24 52 35 8 76 15 88
REMARK Flexibility Score: inf
ROOT
ATOM      1  C   UNL A   1      31.718  30.687  26.856  1.00  0.00     0.023 C 
ENDROOT
BRANCH   1   2
ATOM      2  C   UNL A   1      32.985  31.522  27.014  1.00  0.00     0.116 C 
BRANCH   2   3
ATOM      3  N   UNL A   1      32.719  32.915  27.335  1.00  0.00    -0.352 N 
ATOM      4  O   UNL A   1      32.867  34.879  28.415  1.00  0.00    -0.269 OA
ATOM      5  C   UNL A   1      33.339  33.754  28.227  1.00  0.00     0.251 C 
ATOM      6  H   UNL A   1      31.976  33.321  26.833  1.00  0.00     0.163 HD
BRANCH   5   7
ATOM      7  C   UNL A   1      34.537  33.325  28.983  1.00  0.00     0.039 A 
ATOM      8  C   UNL A   1      35.811  33.814  28.679  1.00  0.00     0.014 A 
ATOM      9  C   UNL A   1      34.371  32.435  30.048  1.00  0.00     0.014 A 
ATOM     10  C   UNL A   1      36.928  33.317  29.352  1.00  0.00     0.010 A 
ATOM     11  C   UNL A   1      35.484  31.986  30.764  1.00  0.00     0.010 A 
ATOM     12  C   UNL A   1      36.776  32.398  30.401  1.00  0.00    -0.014 A 
BRANCH  12  13
ATOM     13  C   UNL A   1      37.963  31.875  31.127  1.00  0.00     0.031 A 
ATOM     14  C   UNL A   1      38.808  30.790  30.521  1.00  0.00     0.074 A 
ATOM     15  C   UNL A   1      38.262  32.359  32.347  1.00  0.00     0.049 A 
ATOM     16  N   UNL A   1      39.821  30.141  31.037  1.00  0.00    -0.248 NA
ATOM     17  C   UNL A   1      38.454  30.368  29.159  1.00  0.00     0.031 C 
ATOM     18  C   UNL A   1      37.518  33.412  33.041  1.00  0.00     0.029 A 
ATOM     19  N   UNL A   1      39.258  32.019  33.227  1.00  0.00    -0.354 N 
ATOM     20  C   UNL A   1      40.218  29.222  30.071  1.00  0.00     0.074 A 
ATOM     21  C   UNL A   1      39.307  29.376  28.954  1.00  0.00     0.031 C 
ATOM     22  C   UNL A   1      38.083  33.633  34.237  1.00  0.00     0.029 A 
ATOM     23  C   UNL A   1      39.192  32.701  34.419  1.00  0.00     0.049 A 
ATOM     24  H   UNL A   1      39.954  31.353  33.024  1.00  0.00     0.167 HD
ATOM     25  C   UNL A   1      41.249  28.339  30.110  1.00  0.00     0.034 A 
ATOM     26  C   UNL A   1      39.915  32.568  35.548  1.00  0.00     0.034 A 
ATOM     27  C   UNL A   1      42.145  28.198  31.234  1.00  0.00     0.049 A 
ATOM     28  C   UNL A   1      41.021  31.550  35.594  1.00  0.00     0.074 A 
ATOM     29  C   UNL A   1      43.241  27.364  31.367  1.00  0.00     0.029 A 
ATOM     30  N   UNL A   1      42.038  28.899  32.429  1.00  0.00    -0.354 N 
ATOM     31  N   UNL A   1      41.395  30.697  34.669  1.00  0.00    -0.248 NA
ATOM     32  C   UNL A   1      41.806  31.479  36.833  1.00  0.00     0.031 C 
ATOM     33  C   UNL A   1      43.757  27.513  32.660  1.00  0.00     0.029 A 
ATOM     34  C   UNL A   1      43.027  28.493  33.313  1.00  0.00     0.049 A 
ATOM     35  H   UNL A   1      41.357  29.585  32.621  1.00  0.00     0.167 HD
ATOM     36  C   UNL A   1      42.475  30.004  35.205  1.00  0.00     0.074 A 
ATOM     37  C   UNL A   1      42.692  30.539  36.535  1.00  0.00     0.031 C 
ATOM     38  C   UNL A   1      43.225  29.024  34.642  1.00  0.00     0.034 A 
BRANCH  25  39
ATOM     39  C   UNL A   1      41.422  27.429  28.916  1.00  0.00     0.023 A 
ATOM     40  C   UNL A   1      42.414  27.658  27.947  1.00  0.00     0.031 A 
ATOM     41  C   UNL A   1      40.549  26.344  28.716  1.00  0.00     0.131 A 
ATOM     42  C   UNL A   1      42.454  26.874  26.782  1.00  0.00     0.055 A 
ATOM     43  C   UNL A   1      40.646  25.515  27.597  1.00  0.00     0.041 A 
ATOM     44  F   UNL A   1      39.570  26.084  29.597  1.00  0.00    -0.206 F 
ATOM     45  C   UNL A   1      41.590  25.790  26.611  1.00  0.00     0.022 A 
BRANCH  42  46
ATOM     46  S   UNL A   1      43.531  27.401  25.420  1.00  0.00     0.124 S 
ATOM     47  O   UNL A   1      44.319  28.456  26.053  1.00  0.00    -0.237 OA
ATOM     48  O   UNL A   1      44.250  26.174  25.096  1.00  0.00    -0.237 OA
ATOM     49  O   UNL A   1      42.592  27.864  24.400  1.00  0.00    -0.744 OA
ENDBRANCH  42  46
ENDBRANCH  25  39
BRANCH  26  50
ATOM     50  C   UNL A   1      39.575  33.395  36.737  1.00  0.00     0.023 A 
ATOM     51  C   UNL A   1      38.831  32.871  37.803  1.00  0.00     0.031 A 
ATOM     52  C   UNL A   1      40.017  34.729  36.826  1.00  0.00     0.131 A 
ATOM     53  C   UNL A   1      38.533  33.683  38.908  1.00  0.00     0.055 A 
ATOM     54  C   UNL A   1      39.752  35.518  37.945  1.00  0.00     0.041 A 
ATOM     55  F   UNL A   1      40.742  35.271  35.834  1.00  0.00    -0.206 F 
ATOM     56  C   UNL A   1      39.001  34.997  38.993  1.00  0.00     0.022 A 
BRANCH  53  57
ATOM     57  S   UNL A   1      37.495  33.004  40.232  1.00  0.00     0.124 S 
ATOM     58  O   UNL A   1      37.510  34.088  41.207  1.00  0.00    -0.237 OA
ATOM     59  O   UNL A   1      36.230  32.779  39.541  1.00  0.00    -0.237 OA
ATOM     60  O   UNL A   1      38.206  31.792  40.633  1.00  0.00    -0.744 OA
ENDBRANCH  53  57
ENDBRANCH  26  50
BRANCH  38  61
ATOM     61  C   UNL A   1      44.389  28.504  35.447  1.00  0.00     0.023 A 
ATOM     62  C   UNL A   1      44.234  27.489  36.406  1.00  0.00     0.031 A 
ATOM     63  C   UNL A   1      45.675  29.034  35.239  1.00  0.00     0.131 A 
ATOM     64  C   UNL A   1      45.345  27.058  37.149  1.00  0.00     0.055 A 
ATOM     65  C   UNL A   1      46.784  28.571  35.948  1.00  0.00     0.041 A 
ATOM     66  F   UNL A   1      45.874  30.007  34.336  1.00  0.00    -0.206 F 
ATOM     67  C   UNL A   1      46.621  27.582  36.915  1.00  0.00     0.022 A 
BRANCH  64  68
ATOM     68  S   UNL A   1      45.099  25.836  38.467  1.00  0.00     0.124 S 
ATOM     69  O   UNL A   1      44.495  24.725  37.738  1.00  0.00    -0.237 OA
ATOM     70  O   UNL A   1      46.458  25.618  38.951  1.00  0.00    -0.237 OA
ATOM     71  O   UNL A   1      44.210  26.517  39.406  1.00  0.00    -0.744 OA
ENDBRANCH  64  68
ENDBRANCH  38  61
ENDBRANCH  12  13
ENDBRANCH   5   7
ENDBRANCH   2   3
ENDBRANCH   1   2
BRANCH   1  72
ATOM     72  C   UNL A   1      31.898  29.294  26.258  1.00  0.00     0.023 C 
BRANCH  72  73
ATOM     73  C   UNL A   1      31.969  28.131  27.241  1.00  0.00     0.116 C 
BRANCH  73  74
ATOM     74  N   UNL A   1      31.083  27.019  26.939  1.00  0.00    -0.356 N 
ATOM     75  C   UNL A   1      31.429  25.791  26.446  1.00  0.00     0.227 C 
ATOM     76  H   UNL A   1      30.124  27.167  27.108  1.00  0.00     0.163 HD
ATOM     77  O   UNL A   1      30.719  24.821  26.703  1.00  0.00    -0.275 OA
BRANCH  75  78
ATOM     78  C   UNL A   1      32.710  25.655  25.667  1.00  0.00     0.127 C 
ATOM     79  C   UNL A   1      32.577  25.454  24.139  1.00  0.00     0.127 C 
ATOM     80  C   UNL A   1      33.527  24.408  26.064  1.00  0.00     0.155 C 
ATOM     81  C   UNL A   1      33.361  24.158  23.908  1.00  0.00     0.155 C 
ATOM     82  C   UNL A   1      34.924  24.553  25.519  1.00  0.00     0.004 C 
ATOM     83  O   UNL A   1      33.048  23.422  25.115  1.00  0.00    -0.365 OA
ATOM     84  C   UNL A   1      34.820  24.402  24.189  1.00  0.00     0.004 C 
BRANCH  79  85
ATOM     85  C   UNL A   1      31.224  25.482  23.447  1.00  0.00     0.227 C 
ATOM     86  O   UNL A   1      30.633  24.401  23.307  1.00  0.00    -0.275 OA
ATOM     87  N   UNL A   1      30.558  26.560  22.988  1.00  0.00    -0.352 N 
ATOM     88  H   UNL A   1      29.705  26.322  22.558  1.00  0.00     0.163 HD
BRANCH  87  89
ATOM     89  C   UNL A   1      30.806  27.990  22.979  1.00  0.00     0.151 C 
BRANCH  89  90
ATOM     90  C   UNL A   1      29.557  28.822  23.122  1.00  0.00    -0.026 A 
ATOM     91  C   UNL A   1      28.308  28.203  22.983  1.00  0.00     0.025 A 
ATOM     92  C   UNL A   1      29.579  30.201  23.352  1.00  0.00     0.025 A 
ATOM     93  C   UNL A   1      27.158  28.960  23.143  1.00  0.00     0.111 A 
ATOM     94  C   UNL A   1      28.373  30.877  23.481  1.00  0.00     0.111 A 
ATOM     95  N   UNL A   1      27.164  30.285  23.387  1.00  0.00    -0.265 NA
ENDBRANCH  89  90
ENDBRANCH  87  89
ENDBRANCH  79  85
ENDBRANCH  75  78
ENDBRANCH  73  74
ENDBRANCH  72  73
ENDBRANCH   1  72
TORSDOF 17
ENDMDL
MODEL 2
REMARK VINA RESULT:     -11.9      3.551      8.935
REMARK SMILES O=C(NCCCCNC(=O)[C@@H]1[C@H](C(=O)NCc2ccncc2)[C@H]2C=C[C@@H]1O2)c1ccc(-c2c3nc(c(-c4cc(S(=O)(=O)[O-])ccc4F)c4ccc([nH]4)c(-c4cc(S(=O)(=O)[O-])ccc4F)c4nc(c(-c5cc(S(=O)(=O)[O-])ccc5F)c5ccc2[nH]5)C=C4)C=C3)cc1
REMARK SMILES IDX 5 1 4 2 3 3 1 4 2 5 28 7 29 8 90 9 30 10 89 11 31 12 32 13
REMARK SMILES IDX 33 14 83 15 34 16 88 17 82 18 84 19 35 20 87 21 81 22 80 23
REMARK SMILES IDX 36 25 68 26 48 27 67 28 49 29 52 30 66 31 85 32 50 33 51 34
REMARK SMILES IDX 65 36 86 37 53 38 37 39 38 40 46 41 39 42 45 43 47 44 44 45
REMARK SMILES IDX 40 46 41 47 42 48 43 49 69 50 70 51 78 52 71 53 77 54 79 55
REMARK SMILES IDX 76 56 72 57 73 58 74 59 75 60 54 61 55 62 63 63 56 64 62 65
REMARK SMILES IDX 64 66 61 67 57 68 58 69 59 70 60 71 6 72 7 73 8 74 9 75
REMARK SMILES IDX 10 77 11 78 12 79 26 80 23 81 25 82 27 83 24 84 13 85 14 86
REMARK SMILES IDX 15 87 16 89 17 90 18 91 22 92 19 93 21 94 20 95
REMARK H PARENT 3 6 84 24 52 35 8 76 15 88
REMARK Flexibility Score: inf
ROOT
ATOM      1  C   UNL A   1      32.205  28.285  27.244  1.00  0.00     0.023 C 
ENDROOT
BRANCH   1   2
ATOM      2  C   UNL A   1      33.407  28.951  26.582  1.00  0.00     0.116 C 
BRANCH   2   3
ATOM      3  N   UNL A   1      33.487  30.380  26.838  1.00  0.00    -0.352 N 
ATOM      4  O   UNL A   1      34.221  32.311  27.721  1.00  0.00    -0.269 OA
ATOM      5  C   UNL A   1      34.418  31.105  27.537  1.00  0.00     0.251 C 
ATOM      6  H   UNL A   1      32.755  30.911  26.448  1.00  0.00     0.163 HD
BRANCH   5   7
ATOM      7  C   UNL A   1      35.631  30.467  28.096  1.00  0.00     0.039 A 
ATOM      8  C   UNL A   1      35.619  29.827  29.339  1.00  0.00     0.014 A 
ATOM      9  C   UNL A   1      36.803  30.480  27.334  1.00  0.00     0.014 A 
ATOM     10  C   UNL A   1      36.803  29.318  29.874  1.00  0.00     0.010 A 
ATOM     11  C   UNL A   1      37.975  29.914  27.842  1.00  0.00     0.010 A 
ATOM     12  C   UNL A   1      37.993  29.357  29.131  1.00  0.00    -0.014 A 
BRANCH  12  13
ATOM     13  C   UNL A   1      39.254  28.805  29.693  1.00  0.00     0.031 A 
ATOM     14  C   UNL A   1      39.917  29.470  30.867  1.00  0.00     0.074 A 
ATOM     15  C   UNL A   1      39.816  27.722  29.127  1.00  0.00     0.049 A 
ATOM     16  N   UNL A   1      41.064  29.196  31.437  1.00  0.00    -0.248 NA
ATOM     17  C   UNL A   1      39.202  30.604  31.468  1.00  0.00     0.031 C 
ATOM     18  C   UNL A   1      39.267  26.989  27.984  1.00  0.00     0.029 A 
ATOM     19  N   UNL A   1      40.979  27.057  29.422  1.00  0.00    -0.354 N 
ATOM     20  C   UNL A   1      41.218  30.132  32.454  1.00  0.00     0.074 A 
ATOM     21  C   UNL A   1      40.061  31.004  32.393  1.00  0.00     0.031 C 
ATOM     22  C   UNL A   1      40.092  25.977  27.676  1.00  0.00     0.029 A 
ATOM     23  C   UNL A   1      41.253  26.022  28.560  1.00  0.00     0.049 A 
ATOM     24  H   UNL A   1      41.561  27.297  30.180  1.00  0.00     0.167 HD
ATOM     25  C   UNL A   1      42.225  30.249  33.356  1.00  0.00     0.034 A 
ATOM     26  C   UNL A   1      42.332  25.223  28.463  1.00  0.00     0.034 A 
ATOM     27  C   UNL A   1      43.373  29.373  33.399  1.00  0.00     0.049 A 
ATOM     28  C   UNL A   1      43.464  25.397  29.438  1.00  0.00     0.074 A 
ATOM     29  C   UNL A   1      44.432  29.377  34.290  1.00  0.00     0.029 A 
ATOM     30  N   UNL A   1      43.620  28.342  32.500  1.00  0.00    -0.354 N 
ATOM     31  N   UNL A   1      43.591  26.277  30.403  1.00  0.00    -0.248 NA
ATOM     32  C   UNL A   1      44.595  24.469  29.314  1.00  0.00     0.031 C 
ATOM     33  C   UNL A   1      45.347  28.395  33.894  1.00  0.00     0.029 A 
ATOM     34  C   UNL A   1      44.828  27.728  32.796  1.00  0.00     0.049 A 
ATOM     35  H   UNL A   1      43.024  28.086  31.759  1.00  0.00     0.167 HD
ATOM     36  C   UNL A   1      44.805  25.993  31.019  1.00  0.00     0.074 A 
ATOM     37  C   UNL A   1      45.372  24.859  30.315  1.00  0.00     0.031 C 
ATOM     38  C   UNL A   1      45.390  26.607  32.078  1.00  0.00     0.034 A 
BRANCH  25  39
ATOM     39  C   UNL A   1      42.145  31.399  34.335  1.00  0.00     0.023 A 
ATOM     40  C   UNL A   1      41.240  31.394  35.411  1.00  0.00     0.031 A 
ATOM     41  C   UNL A   1      42.949  32.540  34.159  1.00  0.00     0.131 A 
ATOM     42  C   UNL A   1      41.097  32.537  36.213  1.00  0.00     0.055 A 
ATOM     43  C   UNL A   1      42.862  33.642  35.011  1.00  0.00     0.041 A 
ATOM     44  F   UNL A   1      43.818  32.612  33.139  1.00  0.00    -0.206 F 
ATOM     45  C   UNL A   1      41.918  33.654  36.034  1.00  0.00     0.022 A 
BRANCH  42  46
ATOM     46  S   UNL A   1      39.707  32.610  37.378  1.00  0.00     0.124 S 
ATOM     47  O   UNL A   1      40.394  32.557  38.667  1.00  0.00    -0.237 OA
ATOM     48  O   UNL A   1      39.080  33.882  37.039  1.00  0.00    -0.237 OA
ATOM     49  O   UNL A   1      38.924  31.420  37.051  1.00  0.00    -0.744 OA
ENDBRANCH  42  46
ENDBRANCH  25  39
BRANCH  26  50
ATOM     50  C   UNL A   1      42.404  24.217  27.368  1.00  0.00     0.023 A 
ATOM     51  C   UNL A   1      41.652  23.035  27.413  1.00  0.00     0.031 A 
ATOM     52  C   UNL A   1      43.220  24.445  26.244  1.00  0.00     0.131 A 
ATOM     53  C   UNL A   1      41.745  22.112  26.359  1.00  0.00     0.055 A 
ATOM     54  C   UNL A   1      43.278  23.543  25.182  1.00  0.00     0.041 A 
ATOM     55  F   UNL A   1      43.950  25.568  26.152  1.00  0.00    -0.206 F 
ATOM     56  C   UNL A   1      42.540  22.365  25.238  1.00  0.00     0.022 A 
BRANCH  53  57
ATOM     57  S   UNL A   1      40.828  20.552  26.485  1.00  0.00     0.124 S 
ATOM     58  O   UNL A   1      39.502  20.948  26.023  1.00  0.00    -0.237 OA
ATOM     59  O   UNL A   1      41.585  19.681  25.593  1.00  0.00    -0.237 OA
ATOM     60  O   UNL A   1      40.922  20.217  27.904  1.00  0.00    -0.744 OA
ENDBRANCH  53  57
ENDBRANCH  26  50
BRANCH  38  61
ATOM     61  C   UNL A   1      46.690  26.027  32.574  1.00  0.00     0.023 A 
ATOM     62  C   UNL A   1      46.728  24.949  33.474  1.00  0.00     0.031 A 
ATOM     63  C   UNL A   1      47.911  26.563  32.126  1.00  0.00     0.131 A 
ATOM     64  C   UNL A   1      47.965  24.463  33.927  1.00  0.00     0.055 A 
ATOM     65  C   UNL A   1      49.137  26.047  32.544  1.00  0.00     0.041 A 
ATOM     66  F   UNL A   1      47.928  27.596  31.267  1.00  0.00    -0.206 F 
ATOM     67  C   UNL A   1      49.169  24.995  33.456  1.00  0.00     0.022 A 
BRANCH  64  68
ATOM     68  S   UNL A   1      47.986  23.154  35.183  1.00  0.00     0.124 S 
ATOM     69  O   UNL A   1      49.212  22.437  34.851  1.00  0.00    -0.237 OA
ATOM     70  O   UNL A   1      48.007  23.915  36.428  1.00  0.00    -0.237 OA
ATOM     71  O   UNL A   1      46.749  22.417  34.932  1.00  0.00    -0.744 OA
ENDBRANCH  64  68
ENDBRANCH  38  61
ENDBRANCH  12  13
ENDBRANCH   5   7
ENDBRANCH   2   3
ENDBRANCH   1   2
BRANCH   1  72
ATOM     72  C   UNL A   1      31.556  27.141  26.469  1.00  0.00     0.023 C 
BRANCH  72  73
ATOM     73  C   UNL A   1      32.496  26.112  25.851  1.00  0.00     0.116 C 
BRANCH  73  74
ATOM     74  N   UNL A   1      32.327  24.754  26.343  1.00  0.00    -0.356 N 
ATOM     75  C   UNL A   1      33.291  23.796  26.485  1.00  0.00     0.227 C 
ATOM     76  H   UNL A   1      31.413  24.497  26.603  1.00  0.00     0.163 HD
ATOM     77  O   UNL A   1      33.147  22.922  27.337  1.00  0.00    -0.275 OA
BRANCH  75  78
ATOM     78  C   UNL A   1      34.536  23.887  25.642  1.00  0.00     0.127 C 
ATOM     79  C   UNL A   1      34.429  23.376  24.186  1.00  0.00     0.127 C 
ATOM     80  C   UNL A   1      35.693  23.019  26.180  1.00  0.00     0.155 C 
ATOM     81  C   UNL A   1      35.552  22.336  24.118  1.00  0.00     0.155 C 
ATOM     82  C   UNL A   1      36.971  23.450  25.510  1.00  0.00     0.004 C 
ATOM     83  O   UNL A   1      35.500  21.779  25.453  1.00  0.00    -0.365 OA
ATOM     84  C   UNL A   1      36.882  23.032  24.238  1.00  0.00     0.004 C 
BRANCH  79  85
ATOM     85  C   UNL A   1      33.110  22.890  23.607  1.00  0.00     0.227 C 
ATOM     86  O   UNL A   1      32.595  23.575  22.712  1.00  0.00    -0.275 OA
ATOM     87  N   UNL A   1      32.435  21.768  23.928  1.00  0.00    -0.352 N 
ATOM     88  H   UNL A   1      31.592  21.679  23.428  1.00  0.00     0.163 HD
BRANCH  87  89
ATOM     89  C   UNL A   1      32.662  20.662  24.839  1.00  0.00     0.151 C 
BRANCH  89  90
ATOM     90  C   UNL A   1      33.021  19.372  24.146  1.00  0.00    -0.026 A 
ATOM     91  C   UNL A   1      34.140  18.652  24.585  1.00  0.00     0.025 A 
ATOM     92  C   UNL A   1      32.309  18.867  23.053  1.00  0.00     0.025 A 
ATOM     93  C   UNL A   1      34.454  17.451  23.969  1.00  0.00     0.111 A 
ATOM     94  C   UNL A   1      32.712  17.662  22.491  1.00  0.00     0.111 A 
ATOM     95  N   UNL A   1      33.764  16.941  22.929  1.00  0.00    -0.265 NA
ENDBRANCH  89  90
ENDBRANCH  87  89
ENDBRANCH  79  85
ENDBRANCH  75  78
ENDBRANCH  73  74
ENDBRANCH  72  73
ENDBRANCH   1  72
TORSDOF 17
ENDMDL
MODEL 3
REMARK VINA RESULT:     -11.9      5.883     11.776
REMARK SMILES O=C(NCCCCNC(=O)[C@@H]1[C@H](C(=O)NCc2ccncc2)[C@H]2C=C[C@@H]1O2)c1ccc(-c2c3nc(c(-c4cc(S(=O)(=O)[O-])ccc4F)c4ccc([nH]4)c(-c4cc(S(=O)(=O)[O-])ccc4F)c4nc(c(-c5cc(S(=O)(=O)[O-])ccc5F)c5ccc2[nH]5)C=C4)C=C3)cc1
REMARK SMILES IDX 5 1 4 2 3 3 1 4 2 5 28 7 29 8 90 9 30 10 89 11 31 12 32 13
REMARK SMILES IDX 33 14 83 15 34 16 88 17 82 18 84 19 35 20 87 21 81 22 80 23
REMARK SMILES IDX 36 25 68 26 48 27 67 28 49 29 52 30 66 31 85 32 50 33 51 34
REMARK SMILES IDX 65 36 86 37 53 38 37 39 38 40 46 41 39 42 45 43 47 44 44 45
REMARK SMILES IDX 40 46 41 47 42 48 43 49 69 50 70 51 78 52 71 53 77 54 79 55
REMARK SMILES IDX 76 56 72 57 73 58 74 59 75 60 54 61 55 62 63 63 56 64 62 65
REMARK SMILES IDX 64 66 61 67 57 68 58 69 59 70 60 71 6 72 7 73 8 74 9 75
REMARK SMILES IDX 10 77 11 78 12 79 26 80 23 81 25 82 27 83 24 84 13 85 14 86
REMARK SMILES IDX 15 87 16 89 17 90 18 91 22 92 19 93 21 94 20 95
REMARK H PARENT 3 6 84 24 52 35 8 76 15 88
REMARK Flexibility Score: inf
ROOT
ATOM      1  C   UNL A   1      37.855  20.085  24.911  1.00  0.00     0.023 C 
ENDROOT
BRANCH   1   2
ATOM      2  C   UNL A   1      39.019  20.456  25.825  1.00  0.00     0.116 C 
BRANCH   2   3
ATOM      3  N   UNL A   1      40.061  19.444  25.869  1.00  0.00    -0.352 N 
ATOM      4  O   UNL A   1      42.130  18.572  25.965  1.00  0.00    -0.269 OA
ATOM      5  C   UNL A   1      41.410  19.569  26.084  1.00  0.00     0.251 C 
ATOM      6  H   UNL A   1      39.749  18.522  25.720  1.00  0.00     0.163 HD
BRANCH   5   7
ATOM      7  C   UNL A   1      42.019  20.874  26.424  1.00  0.00     0.039 A 
ATOM      8  C   UNL A   1      42.323  21.222  27.744  1.00  0.00     0.014 A 
ATOM      9  C   UNL A   1      42.325  21.760  25.386  1.00  0.00     0.014 A 
ATOM     10  C   UNL A   1      42.809  22.497  28.036  1.00  0.00     0.010 A 
ATOM     11  C   UNL A   1      42.872  23.013  25.673  1.00  0.00     0.010 A 
ATOM     12  C   UNL A   1      43.088  23.405  27.004  1.00  0.00    -0.014 A 
BRANCH  12  13
ATOM     13  C   UNL A   1      43.617  24.760  27.311  1.00  0.00     0.031 A 
ATOM     14  C   UNL A   1      42.703  25.833  27.834  1.00  0.00     0.074 A 
ATOM     15  C   UNL A   1      44.917  25.032  27.090  1.00  0.00     0.049 A 
ATOM     16  N   UNL A   1      42.955  27.095  28.070  1.00  0.00    -0.248 NA
ATOM     17  C   UNL A   1      41.317  25.433  28.112  1.00  0.00     0.031 C 
ATOM     18  C   UNL A   1      45.903  24.075  26.585  1.00  0.00     0.029 A 
ATOM     19  N   UNL A   1      45.629  26.194  27.246  1.00  0.00    -0.354 N 
ATOM     20  C   UNL A   1      41.756  27.648  28.510  1.00  0.00     0.074 A 
ATOM     21  C   UNL A   1      40.771  26.586  28.469  1.00  0.00     0.031 C 
ATOM     22  C   UNL A   1      47.091  24.688  26.473  1.00  0.00     0.029 A 
ATOM     23  C   UNL A   1      46.939  26.092  26.843  1.00  0.00     0.049 A 
ATOM     24  H   UNL A   1      45.239  27.021  27.612  1.00  0.00     0.167 HD
ATOM     25  C   UNL A   1      41.504  28.919  28.915  1.00  0.00     0.034 A 
ATOM     26  C   UNL A   1      47.903  27.028  26.744  1.00  0.00     0.034 A 
ATOM     27  C   UNL A   1      42.499  29.966  28.946  1.00  0.00     0.049 A 
ATOM     28  C   UNL A   1      47.595  28.443  27.149  1.00  0.00     0.074 A 
ATOM     29  C   UNL A   1      42.364  31.276  29.372  1.00  0.00     0.029 A 
ATOM     30  N   UNL A   1      43.814  29.825  28.519  1.00  0.00    -0.354 N 
ATOM     31  N   UNL A   1      46.462  28.949  27.576  1.00  0.00    -0.248 NA
ATOM     32  C   UNL A   1      48.695  29.412  27.065  1.00  0.00     0.031 C 
ATOM     33  C   UNL A   1      43.573  31.942  29.143  1.00  0.00     0.029 A 
ATOM     34  C   UNL A   1      44.489  31.031  28.640  1.00  0.00     0.049 A 
ATOM     35  H   UNL A   1      44.210  28.990  28.178  1.00  0.00     0.167 HD
ATOM     36  C   UNL A   1      46.718  30.291  27.835  1.00  0.00     0.074 A 
ATOM     37  C   UNL A   1      48.115  30.516  27.515  1.00  0.00     0.031 C 
ATOM     38  C   UNL A   1      45.878  31.246  28.305  1.00  0.00     0.034 A 
BRANCH  25  39
ATOM     39  C   UNL A   1      40.082  29.248  29.309  1.00  0.00     0.023 A 
ATOM     40  C   UNL A   1      39.685  29.325  30.655  1.00  0.00     0.031 A 
ATOM     41  C   UNL A   1      39.097  29.436  28.323  1.00  0.00     0.131 A 
ATOM     42  C   UNL A   1      38.329  29.494  30.979  1.00  0.00     0.055 A 
ATOM     43  C   UNL A   1      37.764  29.688  28.650  1.00  0.00     0.041 A 
ATOM     44  F   UNL A   1      39.411  29.357  27.020  1.00  0.00    -0.206 F 
ATOM     45  C   UNL A   1      37.368  29.698  29.985  1.00  0.00     0.022 A 
BRANCH  42  46
ATOM     46  S   UNL A   1      37.816  29.267  32.705  1.00  0.00     0.124 S 
ATOM     47  O   UNL A   1      37.763  27.810  32.812  1.00  0.00    -0.237 OA
ATOM     48  O   UNL A   1      38.890  29.922  33.441  1.00  0.00    -0.237 OA
ATOM     49  O   UNL A   1      36.517  29.934  32.767  1.00  0.00    -0.744 OA
ENDBRANCH  42  46
ENDBRANCH  25  39
BRANCH  26  50
ATOM     50  C   UNL A   1      49.234  26.653  26.195  1.00  0.00     0.023 A 
ATOM     51  C   UNL A   1      49.691  27.170  24.975  1.00  0.00     0.031 A 
ATOM     52  C   UNL A   1      50.078  25.781  26.907  1.00  0.00     0.131 A 
ATOM     53  C   UNL A   1      50.955  26.794  24.491  1.00  0.00     0.055 A 
ATOM     54  C   UNL A   1      51.348  25.442  26.441  1.00  0.00     0.041 A 
ATOM     55  F   UNL A   1      49.687  25.270  28.085  1.00  0.00    -0.206 F 
ATOM     56  C   UNL A   1      51.791  25.947  25.222  1.00  0.00     0.022 A 
BRANCH  53  57
ATOM     57  S   UNL A   1      51.483  27.410  22.869  1.00  0.00     0.124 S 
ATOM     58  O   UNL A   1      50.643  26.630  21.967  1.00  0.00    -0.237 OA
ATOM     59  O   UNL A   1      51.173  28.832  22.967  1.00  0.00    -0.237 OA
ATOM     60  O   UNL A   1      52.908  27.089  22.831  1.00  0.00    -0.744 OA
ENDBRANCH  53  57
ENDBRANCH  26  50
BRANCH  38  61
ATOM     61  C   UNL A   1      46.464  32.613  28.555  1.00  0.00     0.023 A 
ATOM     62  C   UNL A   1      46.584  33.568  27.531  1.00  0.00     0.031 A 
ATOM     63  C   UNL A   1      46.901  32.961  29.845  1.00  0.00     0.131 A 
ATOM     64  C   UNL A   1      47.162  34.817  27.810  1.00  0.00     0.055 A 
ATOM     65  C   UNL A   1      47.432  34.220  30.126  1.00  0.00     0.041 A 
ATOM     66  F   UNL A   1      46.809  32.082  30.857  1.00  0.00    -0.206 F 
ATOM     67  C   UNL A   1      47.573  35.154  29.103  1.00  0.00     0.022 A 
BRANCH  64  68
ATOM     68  S   UNL A   1      47.420  35.986  26.446  1.00  0.00     0.124 S 
ATOM     69  O   UNL A   1      46.106  36.610  26.330  1.00  0.00    -0.237 OA
ATOM     70  O   UNL A   1      48.488  36.837  26.961  1.00  0.00    -0.237 OA
ATOM     71  O   UNL A   1      47.801  35.129  25.326  1.00  0.00    -0.744 OA
ENDBRANCH  64  68
ENDBRANCH  38  61
ENDBRANCH  12  13
ENDBRANCH   5   7
ENDBRANCH   2   3
ENDBRANCH   1   2
BRANCH   1  72
ATOM     72  C   UNL A   1      36.518  20.756  25.215  1.00  0.00     0.023 C 
BRANCH  72  73
ATOM     73  C   UNL A   1      36.429  22.256  24.955  1.00  0.00     0.116 C 
BRANCH  73  74
ATOM     74  N   UNL A   1      35.741  22.625  23.729  1.00  0.00    -0.356 N 
ATOM     75  C   UNL A   1      34.755  23.561  23.579  1.00  0.00     0.227 C 
ATOM     76  H   UNL A   1      36.017  22.147  22.914  1.00  0.00     0.163 HD
ATOM     77  O   UNL A   1      34.622  24.122  22.494  1.00  0.00    -0.275 OA
BRANCH  75  78
ATOM     78  C   UNL A   1      33.913  23.927  24.773  1.00  0.00     0.127 C 
ATOM     79  C   UNL A   1      32.616  23.113  24.985  1.00  0.00     0.127 C 
ATOM     80  C   UNL A   1      33.357  25.364  24.700  1.00  0.00     0.155 C 
ATOM     81  C   UNL A   1      31.544  24.207  25.033  1.00  0.00     0.155 C 
ATOM     82  C   UNL A   1      32.857  25.758  26.065  1.00  0.00     0.004 C 
ATOM     83  O   UNL A   1      32.067  25.154  24.072  1.00  0.00    -0.365 OA
ATOM     84  C   UNL A   1      31.741  25.041  26.272  1.00  0.00     0.004 C 
BRANCH  79  85
ATOM     85  C   UNL A   1      32.254  21.942  24.085  1.00  0.00     0.227 C 
ATOM     86  O   UNL A   1      31.732  22.205  22.992  1.00  0.00    -0.275 OA
ATOM     87  N   UNL A   1      32.466  20.631  24.317  1.00  0.00    -0.352 N 
ATOM     88  H   UNL A   1      32.125  20.060  23.591  1.00  0.00     0.163 HD
BRANCH  87  89
ATOM     89  C   UNL A   1      33.078  19.867  25.388  1.00  0.00     0.151 C 
BRANCH  89  90
ATOM     90  C   UNL A   1      33.242  18.402  25.068  1.00  0.00    -0.026 A 
ATOM     91  C   UNL A   1      34.134  18.022  24.057  1.00  0.00     0.025 A 
ATOM     92  C   UNL A   1      32.516  17.394  25.711  1.00  0.00     0.025 A 
ATOM     93  C   UNL A   1      34.308  16.675  23.782  1.00  0.00     0.111 A 
ATOM     94  C   UNL A   1      32.748  16.072  25.354  1.00  0.00     0.111 A 
ATOM     95  N   UNL A   1      33.632  15.691  24.408  1.00  0.00    -0.265 NA
ENDBRANCH  89  90
ENDBRANCH  87  89
ENDBRANCH  79  85
ENDBRANCH  75  78
ENDBRANCH  73  74
ENDBRANCH  72  73
ENDBRANCH   1  72
TORSDOF 17
ENDMDL
