MODEL 1
REMARK VINA RESULT:     -11.5      0.000      0.000
REMARK SMILES O=C(NCCCCNC(=O)[C@H]1CC[C@@H](CNc2ccccc2C(F)(F)F)O1)c1ccc(-c2c3nc(c(-c4cc(S(=O)(=O)[O-])ccc4F)c4ccc([nH]4)c(-c4cc(S(=O)(=O)[O-])ccc4F)c4nc(c(-c5cc(S(=O)(=O)[O-])ccc5F)c5ccc2[nH]5)C=C4)C=C3)cc1
REMARK SMILES IDX 6 1 5 2 4 3 3 4 1 5 2 6 28 8 29 9 90 10 30 11 89 12 31 13
REMARK SMILES IDX 32 14 33 15 83 16 34 17 88 18 82 19 84 20 35 21 87 22 81 23
REMARK SMILES IDX 80 24 36 26 68 27 48 28 67 29 49 30 52 31 66 32 85 33 50 34
REMARK SMILES IDX 51 35 65 37 86 38 53 39 37 40 38 41 46 42 39 43 45 44 47 45
REMARK SMILES IDX 44 46 40 47 41 48 42 49 43 50 69 51 70 52 78 53 71 54 77 55
REMARK SMILES IDX 79 56 76 57 72 58 73 59 74 60 75 61 54 62 55 63 63 64 56 65
REMARK SMILES IDX 62 66 64 67 61 68 57 69 58 70 59 71 60 72 7 73 8 74 9 75
REMARK SMILES IDX 10 77 11 78 12 79 27 80 13 81 14 82 15 83 16 84 17 86 18 87
REMARK SMILES IDX 22 88 19 89 21 90 20 91 23 92 24 93 25 94 26 95
REMARK H PARENT 3 7 84 25 52 36 8 76 16 85
REMARK Flexibility Score: inf
ROOT
ATOM      1  C   UNL A   1      36.945  20.995  24.693  1.00  0.00     0.023 C 
ENDROOT
BRANCH   1   2
ATOM      2  C   UNL A   1      38.112  20.003  24.727  1.00  0.00     0.023 C 
BRANCH   2   3
ATOM      3  C   UNL A   1      39.062  20.150  25.913  1.00  0.00     0.116 C 
BRANCH   3   4
ATOM      4  N   UNL A   1      40.167  19.203  25.867  1.00  0.00    -0.352 N 
ATOM      5  O   UNL A   1      42.314  18.533  25.786  1.00  0.00    -0.269 OA
ATOM      6  C   UNL A   1      41.512  19.439  25.999  1.00  0.00     0.251 C 
ATOM      7  H   UNL A   1      39.913  18.263  25.722  1.00  0.00     0.163 HD
BRANCH   6   8
ATOM      8  C   UNL A   1      41.990  20.784  26.376  1.00  0.00     0.039 A 
ATOM      9  C   UNL A   1      42.267  21.097  27.710  1.00  0.00     0.014 A 
ATOM     10  C   UNL A   1      42.168  21.741  25.375  1.00  0.00     0.014 A 
ATOM     11  C   UNL A   1      42.619  22.399  28.057  1.00  0.00     0.010 A 
ATOM     12  C   UNL A   1      42.582  23.029  25.717  1.00  0.00     0.010 A 
ATOM     13  C   UNL A   1      42.789  23.374  27.063  1.00  0.00    -0.014 A 
BRANCH  13  14
ATOM     14  C   UNL A   1      43.219  24.748  27.424  1.00  0.00     0.031 A 
ATOM     15  C   UNL A   1      42.261  25.701  28.080  1.00  0.00     0.074 A 
ATOM     16  C   UNL A   1      44.468  25.147  27.118  1.00  0.00     0.049 A 
ATOM     17  N   UNL A   1      42.416  26.969  28.360  1.00  0.00    -0.248 NA
ATOM     18  C   UNL A   1      40.951  25.154  28.455  1.00  0.00     0.031 C 
ATOM     19  C   UNL A   1      45.486  24.306  26.483  1.00  0.00     0.029 A 
ATOM     20  N   UNL A   1      45.088  26.359  27.276  1.00  0.00    -0.354 N 
ATOM     21  C   UNL A   1      41.214  27.382  28.926  1.00  0.00     0.074 A 
ATOM     22  C   UNL A   1      40.332  26.232  28.913  1.00  0.00     0.031 C 
ATOM     23  C   UNL A   1      46.600  25.028  26.302  1.00  0.00     0.029 A 
ATOM     24  C   UNL A   1      46.355  26.397  26.743  1.00  0.00     0.049 A 
ATOM     25  H   UNL A   1      44.668  27.126  27.727  1.00  0.00     0.167 HD
ATOM     26  C   UNL A   1      40.884  28.606  29.413  1.00  0.00     0.034 A 
ATOM     27  C   UNL A   1      47.208  27.426  26.580  1.00  0.00     0.034 A 
ATOM     28  C   UNL A   1      41.781  29.739  29.403  1.00  0.00     0.049 A 
ATOM     29  C   UNL A   1      46.805  28.791  27.065  1.00  0.00     0.074 A 
ATOM     30  C   UNL A   1      41.571  31.011  29.905  1.00  0.00     0.029 A 
ATOM     31  N   UNL A   1      43.054  29.742  28.843  1.00  0.00    -0.354 N 
ATOM     32  N   UNL A   1      45.675  29.167  27.618  1.00  0.00    -0.248 NA
ATOM     33  C   UNL A   1      47.789  29.869  26.910  1.00  0.00     0.031 C 
ATOM     34  C   UNL A   1      42.679  31.801  29.581  1.00  0.00     0.029 A 
ATOM     35  C   UNL A   1      43.623  31.003  28.953  1.00  0.00     0.049 A 
ATOM     36  H   UNL A   1      43.489  28.962  28.429  1.00  0.00     0.167 HD
ATOM     37  C   UNL A   1      45.823  30.519  27.904  1.00  0.00     0.074 A 
ATOM     38  C   UNL A   1      47.151  30.895  27.459  1.00  0.00     0.031 C 
ATOM     39  C   UNL A   1      44.944  31.369  28.494  1.00  0.00     0.034 A 
BRANCH  26  40
ATOM     40  C   UNL A   1      39.477  28.787  29.937  1.00  0.00     0.023 A 
ATOM     41  C   UNL A   1      38.459  29.357  29.150  1.00  0.00     0.031 A 
ATOM     42  C   UNL A   1      39.159  28.435  31.261  1.00  0.00     0.131 A 
ATOM     43  C   UNL A   1      37.212  29.651  29.721  1.00  0.00     0.055 A 
ATOM     44  C   UNL A   1      37.886  28.645  31.796  1.00  0.00     0.041 A 
ATOM     45  F   UNL A   1      40.090  27.904  32.070  1.00  0.00    -0.206 F 
ATOM     46  C   UNL A   1      36.910  29.277  31.032  1.00  0.00     0.022 A 
BRANCH  43  47
ATOM     47  S   UNL A   1      36.061  30.699  28.787  1.00  0.00     0.124 S 
ATOM     48  O   UNL A   1      35.348  31.386  29.863  1.00  0.00    -0.237 OA
ATOM     49  O   UNL A   1      36.961  31.522  27.990  1.00  0.00    -0.237 OA
ATOM     50  O   UNL A   1      35.258  29.738  28.035  1.00  0.00    -0.744 OA
ENDBRANCH  43  47
ENDBRANCH  26  40
BRANCH  27  51
ATOM     51  C   UNL A   1      48.500  27.198  25.877  1.00  0.00     0.023 A 
ATOM     52  C   UNL A   1      48.607  27.329  24.486  1.00  0.00     0.031 A 
ATOM     53  C   UNL A   1      49.662  26.879  26.605  1.00  0.00     0.131 A 
ATOM     54  C   UNL A   1      49.848  27.125  23.861  1.00  0.00     0.055 A 
ATOM     55  C   UNL A   1      50.900  26.721  25.985  1.00  0.00     0.041 A 
ATOM     56  F   UNL A   1      49.611  26.754  27.941  1.00  0.00    -0.206 F 
ATOM     57  C   UNL A   1      50.997  26.839  24.602  1.00  0.00     0.022 A 
BRANCH  54  58
ATOM     58  S   UNL A   1      49.934  27.207  22.052  1.00  0.00     0.124 S 
ATOM     59  O   UNL A   1      49.713  28.627  21.808  1.00  0.00    -0.237 OA
ATOM     60  O   UNL A   1      51.282  26.713  21.790  1.00  0.00    -0.237 OA
ATOM     61  O   UNL A   1      48.855  26.322  21.619  1.00  0.00    -0.744 OA
ENDBRANCH  54  58
ENDBRANCH  27  51
BRANCH  39  62
ATOM     62  C   UNL A   1      45.412  32.779  28.751  1.00  0.00     0.023 A 
ATOM     63  C   UNL A   1      45.230  33.810  27.813  1.00  0.00     0.031 A 
ATOM     64  C   UNL A   1      46.027  33.097  29.977  1.00  0.00     0.131 A 
ATOM     65  C   UNL A   1      45.686  35.105  28.106  1.00  0.00     0.055 A 
ATOM     66  C   UNL A   1      46.431  34.396  30.281  1.00  0.00     0.041 A 
ATOM     67  F   UNL A   1      46.228  32.148  30.905  1.00  0.00    -0.206 F 
ATOM     68  C   UNL A   1      46.268  35.408  29.340  1.00  0.00     0.022 A 
BRANCH  65  69
ATOM     69  S   UNL A   1      45.556  36.390  26.830  1.00  0.00     0.124 S 
ATOM     70  O   UNL A   1      46.485  37.400  27.325  1.00  0.00    -0.237 OA
ATOM     71  O   UNL A   1      45.968  35.679  25.625  1.00  0.00    -0.237 OA
ATOM     72  O   UNL A   1      44.145  36.772  26.872  1.00  0.00    -0.744 OA
ENDBRANCH  65  69
ENDBRANCH  39  62
ENDBRANCH  13  14
ENDBRANCH   6   8
ENDBRANCH   3   4
ENDBRANCH   2   3
ENDBRANCH   1   2
BRANCH   1  73
ATOM     73  C   UNL A   1      35.655  20.483  25.328  1.00  0.00     0.116 C 
BRANCH  73  74
ATOM     74  N   UNL A   1      34.488  20.876  24.567  1.00  0.00    -0.354 N 
ATOM     75  C   UNL A   1      33.386  21.586  24.941  1.00  0.00     0.249 C 
ATOM     76  H   UNL A   1      34.489  20.583  23.627  1.00  0.00     0.163 HD
ATOM     77  O   UNL A   1      32.517  21.779  24.087  1.00  0.00    -0.272 OA
BRANCH  75  78
ATOM     78  C   UNL A   1      33.261  22.147  26.372  1.00  0.00     0.207 C 
ATOM     79  C   UNL A   1      34.157  23.365  26.540  1.00  0.00     0.045 C 
ATOM     80  O   UNL A   1      31.923  22.586  26.635  1.00  0.00    -0.363 OA
ATOM     81  C   UNL A   1      33.241  24.500  26.143  1.00  0.00     0.037 C 
ATOM     82  C   UNL A   1      31.896  24.030  26.674  1.00  0.00     0.138 C 
BRANCH  82  83
ATOM     83  C   UNL A   1      30.609  24.543  25.993  1.00  0.00     0.145 C 
BRANCH  83  84
ATOM     84  N   UNL A   1      30.295  25.947  26.249  1.00  0.00    -0.382 N 
ATOM     85  H   UNL A   1      29.857  26.193  27.095  1.00  0.00     0.160 HD
BRANCH  84  86
ATOM     86  C   UNL A   1      30.597  26.947  25.331  1.00  0.00     0.046 A 
ATOM     87  C   UNL A   1      30.122  26.765  24.017  1.00  0.00     0.026 A 
ATOM     88  C   UNL A   1      31.282  28.140  25.625  1.00  0.00     0.079 A 
ATOM     89  C   UNL A   1      30.302  27.727  23.021  1.00  0.00     0.002 A 
ATOM     90  C   UNL A   1      31.446  29.112  24.607  1.00  0.00     0.015 A 
ATOM     91  C   UNL A   1      30.964  28.906  23.317  1.00  0.00     0.001 A 
BRANCH  88  92
ATOM     92  C   UNL A   1      31.890  28.465  26.967  1.00  0.00     0.418 C 
ATOM     93  F   UNL A   1      31.030  28.210  28.002  1.00  0.00    -0.166 F 
ATOM     94  F   UNL A   1      32.999  27.716  27.239  1.00  0.00    -0.166 F 
ATOM     95  F   UNL A   1      32.265  29.762  27.151  1.00  0.00    -0.166 F 
ENDBRANCH  88  92
ENDBRANCH  84  86
ENDBRANCH  83  84
ENDBRANCH  82  83
ENDBRANCH  75  78
ENDBRANCH  73  74
ENDBRANCH   1  73
TORSDOF 18
ENDMDL
MODEL 2
REMARK VINA RESULT:     -11.4      6.295     11.564
REMARK SMILES O=C(NCCCCNC(=O)[C@H]1CC[C@@H](CNc2ccccc2C(F)(F)F)O1)c1ccc(-c2c3nc(c(-c4cc(S(=O)(=O)[O-])ccc4F)c4ccc([nH]4)c(-c4cc(S(=O)(=O)[O-])ccc4F)c4nc(c(-c5cc(S(=O)(=O)[O-])ccc5F)c5ccc2[nH]5)C=C4)C=C3)cc1
REMARK SMILES IDX 6 1 5 2 4 3 3 4 1 5 2 6 28 8 29 9 90 10 30 11 89 12 31 13
REMARK SMILES IDX 32 14 33 15 83 16 34 17 88 18 82 19 84 20 35 21 87 22 81 23
REMARK SMILES IDX 80 24 36 26 68 27 48 28 67 29 49 30 52 31 66 32 85 33 50 34
REMARK SMILES IDX 51 35 65 37 86 38 53 39 37 40 38 41 46 42 39 43 45 44 47 45
REMARK SMILES IDX 44 46 40 47 41 48 42 49 43 50 69 51 70 52 78 53 71 54 77 55
REMARK SMILES IDX 79 56 76 57 72 58 73 59 74 60 75 61 54 62 55 63 63 64 56 65
REMARK SMILES IDX 62 66 64 67 61 68 57 69 58 70 59 71 60 72 7 73 8 74 9 75
REMARK SMILES IDX 10 77 11 78 12 79 27 80 13 81 14 82 15 83 16 84 17 86 18 87
REMARK SMILES IDX 22 88 19 89 21 90 20 91 23 92 24 93 25 94 26 95
REMARK H PARENT 3 7 84 25 52 36 8 76 16 85
REMARK Flexibility Score: inf
ROOT
ATOM      1  C   UNL A   1      31.552  30.666  26.447  1.00  0.00     0.023 C 
ENDROOT
BRANCH   1   2
ATOM      2  C   UNL A   1      31.520  32.187  26.630  1.00  0.00     0.023 C 
BRANCH   2   3
ATOM      3  C   UNL A   1      32.781  32.801  27.233  1.00  0.00     0.116 C 
BRANCH   3   4
ATOM      4  N   UNL A   1      32.554  34.135  27.768  1.00  0.00    -0.352 N 
ATOM      5  O   UNL A   1      32.757  35.844  29.220  1.00  0.00    -0.269 OA
ATOM      6  C   UNL A   1      33.182  34.766  28.812  1.00  0.00     0.251 C 
ATOM      7  H   UNL A   1      31.851  34.658  27.319  1.00  0.00     0.163 HD
BRANCH   6   8
ATOM      8  C   UNL A   1      34.354  34.136  29.453  1.00  0.00     0.039 A 
ATOM      9  C   UNL A   1      34.196  33.258  30.529  1.00  0.00     0.014 A 
ATOM     10  C   UNL A   1      35.629  34.428  28.962  1.00  0.00     0.014 A 
ATOM     11  C   UNL A   1      35.318  32.756  31.184  1.00  0.00     0.010 A 
ATOM     12  C   UNL A   1      36.751  33.873  29.580  1.00  0.00     0.010 A 
ATOM     13  C   UNL A   1      36.605  33.051  30.709  1.00  0.00    -0.014 A 
BRANCH  13  14
ATOM     14  C   UNL A   1      37.801  32.471  31.371  1.00  0.00     0.031 A 
ATOM     15  C   UNL A   1      38.547  31.332  30.736  1.00  0.00     0.074 A 
ATOM     16  C   UNL A   1      38.184  32.948  32.569  1.00  0.00     0.049 A 
ATOM     17  N   UNL A   1      39.535  30.621  31.214  1.00  0.00    -0.248 NA
ATOM     18  C   UNL A   1      38.111  30.935  29.391  1.00  0.00     0.031 C 
ATOM     19  C   UNL A   1      37.536  34.054  33.279  1.00  0.00     0.029 A 
ATOM     20  N   UNL A   1      39.191  32.556  33.412  1.00  0.00    -0.354 N 
ATOM     21  C   UNL A   1      39.829  29.674  30.239  1.00  0.00     0.074 A 
ATOM     22  C   UNL A   1      38.886  29.885  29.159  1.00  0.00     0.031 C 
ATOM     23  C   UNL A   1      38.158  34.247  34.450  1.00  0.00     0.029 A 
ATOM     24  C   UNL A   1      39.202  33.240  34.605  1.00  0.00     0.049 A 
ATOM     25  H   UNL A   1      39.844  31.854  33.185  1.00  0.00     0.167 HD
ATOM     26  C   UNL A   1      40.798  28.723  30.247  1.00  0.00     0.034 A 
ATOM     27  C   UNL A   1      39.933  33.050  35.719  1.00  0.00     0.034 A 
ATOM     28  C   UNL A   1      41.719  28.529  31.344  1.00  0.00     0.049 A 
ATOM     29  C   UNL A   1      40.959  31.950  35.739  1.00  0.00     0.074 A 
ATOM     30  C   UNL A   1      42.764  27.628  31.444  1.00  0.00     0.029 A 
ATOM     31  N   UNL A   1      41.690  29.233  32.542  1.00  0.00    -0.354 N 
ATOM     32  N   UNL A   1      41.244  31.074  34.804  1.00  0.00    -0.248 NA
ATOM     33  C   UNL A   1      41.765  31.814  36.959  1.00  0.00     0.031 C 
ATOM     34  C   UNL A   1      43.315  27.733  32.726  1.00  0.00     0.029 A 
ATOM     35  C   UNL A   1      42.673  28.761  33.400  1.00  0.00     0.049 A 
ATOM     36  H   UNL A   1      41.064  29.964  32.751  1.00  0.00     0.167 HD
ATOM     37  C   UNL A   1      42.282  30.301  35.311  1.00  0.00     0.074 A 
ATOM     38  C   UNL A   1      42.572  30.812  36.636  1.00  0.00     0.031 C 
ATOM     39  C   UNL A   1      42.945  29.271  34.725  1.00  0.00     0.034 A 
BRANCH  26  40
ATOM     40  C   UNL A   1      40.863  27.790  29.058  1.00  0.00     0.023 A 
ATOM     41  C   UNL A   1      41.822  27.948  28.042  1.00  0.00     0.031 A 
ATOM     42  C   UNL A   1      39.917  26.759  28.909  1.00  0.00     0.131 A 
ATOM     43  C   UNL A   1      41.752  27.162  26.882  1.00  0.00     0.055 A 
ATOM     44  C   UNL A   1      39.911  25.918  27.795  1.00  0.00     0.041 A 
ATOM     45  F   UNL A   1      38.964  26.566  29.835  1.00  0.00    -0.206 F 
ATOM     46  C   UNL A   1      40.818  26.131  26.762  1.00  0.00     0.022 A 
BRANCH  43  47
ATOM     47  S   UNL A   1      42.774  27.632  25.458  1.00  0.00     0.124 S 
ATOM     48  O   UNL A   1      44.058  27.917  26.097  1.00  0.00    -0.237 OA
ATOM     49  O   UNL A   1      42.725  26.437  24.627  1.00  0.00    -0.237 OA
ATOM     50  O   UNL A   1      42.087  28.802  24.915  1.00  0.00    -0.744 OA
ENDBRANCH  43  47
ENDBRANCH  26  40
BRANCH  27  51
ATOM     51  C   UNL A   1      39.670  33.892  36.917  1.00  0.00     0.023 A 
ATOM     52  C   UNL A   1      39.139  33.344  38.093  1.00  0.00     0.031 A 
ATOM     53  C   UNL A   1      39.985  35.264  36.908  1.00  0.00     0.131 A 
ATOM     54  C   UNL A   1      38.923  34.168  39.209  1.00  0.00     0.055 A 
ATOM     55  C   UNL A   1      39.810  36.068  38.033  1.00  0.00     0.041 A 
ATOM     56  F   UNL A   1      40.506  35.832  35.808  1.00  0.00    -0.206 F 
ATOM     57  C   UNL A   1      39.270  35.522  39.192  1.00  0.00     0.022 A 
BRANCH  54  58
ATOM     58  S   UNL A   1      38.147  33.451  40.682  1.00  0.00     0.124 S 
ATOM     59  O   UNL A   1      38.584  34.370  41.726  1.00  0.00    -0.237 OA
ATOM     60  O   UNL A   1      36.730  33.502  40.334  1.00  0.00    -0.237 OA
ATOM     61  O   UNL A   1      38.720  32.109  40.750  1.00  0.00    -0.744 OA
ENDBRANCH  54  58
ENDBRANCH  27  51
BRANCH  39  62
ATOM     62  C   UNL A   1      44.094  28.664  35.490  1.00  0.00     0.023 A 
ATOM     63  C   UNL A   1      43.910  27.616  36.408  1.00  0.00     0.031 A 
ATOM     64  C   UNL A   1      45.402  29.131  35.268  1.00  0.00     0.131 A 
ATOM     65  C   UNL A   1      45.016  27.088  37.092  1.00  0.00     0.055 A 
ATOM     66  C   UNL A   1      46.503  28.568  35.914  1.00  0.00     0.041 A 
ATOM     67  F   UNL A   1      45.632  30.133  34.405  1.00  0.00    -0.206 F 
ATOM     68  C   UNL A   1      46.313  27.545  36.837  1.00  0.00     0.022 A 
BRANCH  65  69
ATOM     69  S   UNL A   1      44.740  25.824  38.365  1.00  0.00     0.124 S 
ATOM     70  O   UNL A   1      46.093  25.330  38.599  1.00  0.00    -0.237 OA
ATOM     71  O   UNL A   1      44.146  26.597  39.451  1.00  0.00    -0.237 OA
ATOM     72  O   UNL A   1      43.837  24.875  37.715  1.00  0.00    -0.744 OA
ENDBRANCH  65  69
ENDBRANCH  39  62
ENDBRANCH  13  14
ENDBRANCH   6   8
ENDBRANCH   3   4
ENDBRANCH   2   3
ENDBRANCH   1   2
BRANCH   1  73
ATOM     73  C   UNL A   1      32.920  30.095  26.087  1.00  0.00     0.116 C 
BRANCH  73  74
ATOM     74  N   UNL A   1      32.989  29.701  24.696  1.00  0.00    -0.354 N 
ATOM     75  C   UNL A   1      32.937  28.465  24.123  1.00  0.00     0.249 C 
ATOM     76  H   UNL A   1      33.091  30.446  24.059  1.00  0.00     0.163 HD
ATOM     77  O   UNL A   1      33.028  28.403  22.894  1.00  0.00    -0.272 OA
BRANCH  75  78
ATOM     78  C   UNL A   1      32.739  27.205  24.990  1.00  0.00     0.207 C 
ATOM     79  C   UNL A   1      31.257  26.963  25.238  1.00  0.00     0.045 C 
ATOM     80  O   UNL A   1      33.235  26.039  24.321  1.00  0.00    -0.363 OA
ATOM     81  C   UNL A   1      30.873  26.078  24.074  1.00  0.00     0.037 C 
ATOM     82  C   UNL A   1      32.120  25.228  23.890  1.00  0.00     0.138 C 
BRANCH  82  83
ATOM     83  C   UNL A   1      32.417  24.638  22.494  1.00  0.00     0.145 C 
BRANCH  83  84
ATOM     84  N   UNL A   1      33.561  23.730  22.441  1.00  0.00    -0.382 N 
ATOM     85  H   UNL A   1      34.291  23.917  21.808  1.00  0.00     0.160 HD
BRANCH  84  86
ATOM     86  C   UNL A   1      33.648  22.609  23.259  1.00  0.00     0.046 A 
ATOM     87  C   UNL A   1      32.541  21.736  23.257  1.00  0.00     0.026 A 
ATOM     88  C   UNL A   1      34.766  22.253  24.034  1.00  0.00     0.079 A 
ATOM     89  C   UNL A   1      32.533  20.544  23.983  1.00  0.00     0.002 A 
ATOM     90  C   UNL A   1      34.748  21.033  24.755  1.00  0.00     0.015 A 
ATOM     91  C   UNL A   1      33.641  20.189  24.733  1.00  0.00     0.001 A 
BRANCH  88  92
ATOM     92  C   UNL A   1      36.007  23.099  24.177  1.00  0.00     0.418 C 
ATOM     93  F   UNL A   1      36.939  22.519  24.997  1.00  0.00    -0.166 F 
ATOM     94  F   UNL A   1      36.653  23.292  22.991  1.00  0.00    -0.166 F 
ATOM     95  F   UNL A   1      35.822  24.342  24.705  1.00  0.00    -0.166 F 
ENDBRANCH  88  92
ENDBRANCH  84  86
ENDBRANCH  83  84
ENDBRANCH  82  83
ENDBRANCH  75  78
ENDBRANCH  73  74
ENDBRANCH   1  73
TORSDOF 18
ENDMDL
MODEL 3
REMARK VINA RESULT:     -11.3      5.930     10.477
REMARK SMILES O=C(NCCCCNC(=O)[C@H]1CC[C@@H](CNc2ccccc2C(F)(F)F)O1)c1ccc(-c2c3nc(c(-c4cc(S(=O)(=O)[O-])ccc4F)c4ccc([nH]4)c(-c4cc(S(=O)(=O)[O-])ccc4F)c4nc(c(-c5cc(S(=O)(=O)[O-])ccc5F)c5ccc2[nH]5)C=C4)C=C3)cc1
REMARK SMILES IDX 6 1 5 2 4 3 3 4 1 5 2 6 28 8 29 9 90 10 30 11 89 12 31 13
REMARK SMILES IDX 32 14 33 15 83 16 34 17 88 18 82 19 84 20 35 21 87 22 81 23
REMARK SMILES IDX 80 24 36 26 68 27 48 28 67 29 49 30 52 31 66 32 85 33 50 34
REMARK SMILES IDX 51 35 65 37 86 38 53 39 37 40 38 41 46 42 39 43 45 44 47 45
REMARK SMILES IDX 44 46 40 47 41 48 42 49 43 50 69 51 70 52 78 53 71 54 77 55
REMARK SMILES IDX 79 56 76 57 72 58 73 59 74 60 75 61 54 62 55 63 63 64 56 65
REMARK SMILES IDX 62 66 64 67 61 68 57 69 58 70 59 71 60 72 7 73 8 74 9 75
REMARK SMILES IDX 10 77 11 78 12 79 27 80 13 81 14 82 15 83 16 84 17 86 18 87
REMARK SMILES IDX 22 88 19 89 21 90 20 91 23 92 24 93 25 94 26 95
REMARK H PARENT 3 7 84 25 52 36 8 76 16 85
REMARK Flexibility Score: inf
ROOT
ATOM      1  C   UNL A   1      33.426  34.805  29.047  1.00  0.00     0.023 C 
ENDROOT
BRANCH   1   2
ATOM      2  C   UNL A   1      34.692  34.796  28.184  1.00  0.00     0.023 C 
BRANCH   2   3
ATOM      3  C   UNL A   1      35.382  33.442  28.047  1.00  0.00     0.116 C 
BRANCH   3   4
ATOM      4  N   UNL A   1      34.451  32.366  27.742  1.00  0.00    -0.352 N 
ATOM      5  O   UNL A   1      33.790  30.248  27.358  1.00  0.00    -0.269 OA
ATOM      6  C   UNL A   1      34.651  31.010  27.794  1.00  0.00     0.251 C 
ATOM      7  H   UNL A   1      33.553  32.651  27.458  1.00  0.00     0.163 HD
BRANCH   6   8
ATOM      8  C   UNL A   1      35.906  30.472  28.356  1.00  0.00     0.039 A 
ATOM      9  C   UNL A   1      37.086  30.480  27.608  1.00  0.00     0.014 A 
ATOM     10  C   UNL A   1      35.898  29.958  29.654  1.00  0.00     0.014 A 
ATOM     11  C   UNL A   1      38.234  29.877  28.117  1.00  0.00     0.010 A 
ATOM     12  C   UNL A   1      37.066  29.410  30.188  1.00  0.00     0.010 A 
ATOM     13  C   UNL A   1      38.236  29.345  29.415  1.00  0.00    -0.014 A 
BRANCH  13  14
ATOM     14  C   UNL A   1      39.474  28.752  29.981  1.00  0.00     0.031 A 
ATOM     15  C   UNL A   1      40.124  29.356  31.193  1.00  0.00     0.074 A 
ATOM     16  C   UNL A   1      40.033  27.691  29.369  1.00  0.00     0.049 A 
ATOM     17  N   UNL A   1      41.264  29.053  31.758  1.00  0.00    -0.248 NA
ATOM     18  C   UNL A   1      39.399  30.455  31.844  1.00  0.00     0.031 C 
ATOM     19  C   UNL A   1      39.487  27.021  28.187  1.00  0.00     0.029 A 
ATOM     20  N   UNL A   1      41.188  27.006  29.639  1.00  0.00    -0.354 N 
ATOM     21  C   UNL A   1      41.408  29.939  32.821  1.00  0.00     0.074 A 
ATOM     22  C   UNL A   1      40.251  30.811  32.794  1.00  0.00     0.031 C 
ATOM     23  C   UNL A   1      40.309  26.024  27.831  1.00  0.00     0.029 A 
ATOM     24  C   UNL A   1      41.470  26.027  28.714  1.00  0.00     0.049 A 
ATOM     25  H   UNL A   1      41.760  27.194  30.418  1.00  0.00     0.167 HD
ATOM     26  C   UNL A   1      42.412  30.011  33.733  1.00  0.00     0.034 A 
ATOM     27  C   UNL A   1      42.560  25.252  28.561  1.00  0.00     0.034 A 
ATOM     28  C   UNL A   1      43.560  29.133  33.729  1.00  0.00     0.049 A 
ATOM     29  C   UNL A   1      43.694  25.387  29.540  1.00  0.00     0.074 A 
ATOM     30  C   UNL A   1      44.614  29.086  34.625  1.00  0.00     0.029 A 
ATOM     31  N   UNL A   1      43.817  28.162  32.767  1.00  0.00    -0.354 N 
ATOM     32  N   UNL A   1      43.811  26.212  30.554  1.00  0.00    -0.248 NA
ATOM     33  C   UNL A   1      44.839  24.486  29.360  1.00  0.00     0.031 C 
ATOM     34  C   UNL A   1      45.542  28.146  34.165  1.00  0.00     0.029 A 
ATOM     35  C   UNL A   1      45.029  27.539  33.028  1.00  0.00     0.049 A 
ATOM     36  H   UNL A   1      43.224  27.946  32.013  1.00  0.00     0.167 HD
ATOM     37  C   UNL A   1      45.030  25.910  31.151  1.00  0.00     0.074 A 
ATOM     38  C   UNL A   1      45.612  24.829  30.381  1.00  0.00     0.031 C 
ATOM     39  C   UNL A   1      45.606  26.469  32.246  1.00  0.00     0.034 A 
BRANCH  26  40
ATOM     40  C   UNL A   1      42.332  31.113  34.766  1.00  0.00     0.023 A 
ATOM     41  C   UNL A   1      41.288  31.174  35.707  1.00  0.00     0.031 A 
ATOM     42  C   UNL A   1      43.282  32.150  34.776  1.00  0.00     0.131 A 
ATOM     43  C   UNL A   1      41.163  32.292  36.545  1.00  0.00     0.055 A 
ATOM     44  C   UNL A   1      43.204  33.214  35.676  1.00  0.00     0.041 A 
ATOM     45  F   UNL A   1      44.292  32.160  33.891  1.00  0.00    -0.206 F 
ATOM     46  C   UNL A   1      42.127  33.301  36.553  1.00  0.00     0.022 A 
BRANCH  43  47
ATOM     47  S   UNL A   1      39.623  32.498  37.483  1.00  0.00     0.124 S 
ATOM     48  O   UNL A   1      38.799  31.421  36.939  1.00  0.00    -0.237 OA
ATOM     49  O   UNL A   1      40.069  32.329  38.860  1.00  0.00    -0.237 OA
ATOM     50  O   UNL A   1      39.184  33.846  37.128  1.00  0.00    -0.744 OA
ENDBRANCH  43  47
ENDBRANCH  26  40
BRANCH  27  51
ATOM     51  C   UNL A   1      42.639  24.327  27.399  1.00  0.00     0.023 A 
ATOM     52  C   UNL A   1      42.067  23.048  27.443  1.00  0.00     0.031 A 
ATOM     53  C   UNL A   1      43.265  24.732  26.205  1.00  0.00     0.131 A 
ATOM     54  C   UNL A   1      42.145  22.211  26.318  1.00  0.00     0.055 A 
ATOM     55  C   UNL A   1      43.301  23.915  25.076  1.00  0.00     0.041 A 
ATOM     56  F   UNL A   1      43.818  25.953  26.110  1.00  0.00    -0.206 F 
ATOM     57  C   UNL A   1      42.743  22.642  25.131  1.00  0.00     0.022 A 
BRANCH  54  58
ATOM     58  S   UNL A   1      41.480  20.529  26.439  1.00  0.00     0.124 S 
ATOM     59  O   UNL A   1      42.262  19.827  25.427  1.00  0.00    -0.237 OA
ATOM     60  O   UNL A   1      41.771  20.186  27.827  1.00  0.00    -0.237 OA
ATOM     61  O   UNL A   1      40.063  20.700  26.126  1.00  0.00    -0.744 OA
ENDBRANCH  54  58
ENDBRANCH  27  51
BRANCH  39  62
ATOM     62  C   UNL A   1      46.912  25.878  32.717  1.00  0.00     0.023 A 
ATOM     63  C   UNL A   1      46.962  24.809  33.627  1.00  0.00     0.031 A 
ATOM     64  C   UNL A   1      48.126  26.383  32.216  1.00  0.00     0.131 A 
ATOM     65  C   UNL A   1      48.205  24.297  34.032  1.00  0.00     0.055 A 
ATOM     66  C   UNL A   1      49.355  25.836  32.583  1.00  0.00     0.041 A 
ATOM     67  F   UNL A   1      48.133  27.406  31.347  1.00  0.00    -0.206 F 
ATOM     68  C   UNL A   1      49.401  24.792  33.501  1.00  0.00     0.022 A 
BRANCH  65  69
ATOM     69  S   UNL A   1      48.251  23.004  35.304  1.00  0.00     0.124 S 
ATOM     70  O   UNL A   1      48.494  21.806  34.507  1.00  0.00    -0.237 OA
ATOM     71  O   UNL A   1      49.352  23.439  36.155  1.00  0.00    -0.237 OA
ATOM     72  O   UNL A   1      46.926  23.081  35.918  1.00  0.00    -0.744 OA
ENDBRANCH  65  69
ENDBRANCH  39  62
ENDBRANCH  13  14
ENDBRANCH   6   8
ENDBRANCH   3   4
ENDBRANCH   2   3
ENDBRANCH   1   2
BRANCH   1  73
ATOM     73  C   UNL A   1      33.676  34.946  30.545  1.00  0.00     0.116 C 
BRANCH  73  74
ATOM     74  N   UNL A   1      34.156  33.712  31.130  1.00  0.00    -0.354 N 
ATOM     75  C   UNL A   1      34.886  33.493  32.259  1.00  0.00     0.249 C 
ATOM     76  H   UNL A   1      33.916  32.897  30.630  1.00  0.00     0.163 HD
ATOM     77  O   UNL A   1      35.175  32.326  32.534  1.00  0.00    -0.272 OA
BRANCH  75  78
ATOM     78  C   UNL A   1      35.301  34.669  33.167  1.00  0.00     0.207 C 
ATOM     79  C   UNL A   1      35.141  34.287  34.631  1.00  0.00     0.045 C 
ATOM     80  O   UNL A   1      36.683  34.999  32.980  1.00  0.00    -0.363 OA
ATOM     81  C   UNL A   1      36.497  33.707  34.965  1.00  0.00     0.037 C 
ATOM     82  C   UNL A   1      37.433  34.578  34.141  1.00  0.00     0.138 C 
BRANCH  82  83
ATOM     83  C   UNL A   1      38.791  33.994  33.698  1.00  0.00     0.145 C 
BRANCH  83  84
ATOM     84  N   UNL A   1      39.500  34.784  32.692  1.00  0.00    -0.382 N 
ATOM     85  H   UNL A   1      39.346  35.754  32.651  1.00  0.00     0.160 HD
BRANCH  84  86
ATOM     86  C   UNL A   1      40.386  34.202  31.792  1.00  0.00     0.046 A 
ATOM     87  C   UNL A   1      41.735  34.122  32.192  1.00  0.00     0.026 A 
ATOM     88  C   UNL A   1      40.033  33.642  30.551  1.00  0.00     0.079 A 
ATOM     89  C   UNL A   1      42.709  33.502  31.406  1.00  0.00     0.002 A 
ATOM     90  C   UNL A   1      41.029  33.004  29.772  1.00  0.00     0.015 A 
ATOM     91  C   UNL A   1      42.354  32.938  30.193  1.00  0.00     0.001 A 
BRANCH  88  92
ATOM     92  C   UNL A   1      38.644  33.685  29.962  1.00  0.00     0.418 C 
ATOM     93  F   UNL A   1      37.738  32.988  30.716  1.00  0.00    -0.166 F 
ATOM     94  F   UNL A   1      38.142  34.952  29.889  1.00  0.00    -0.166 F 
ATOM     95  F   UNL A   1      38.514  33.163  28.709  1.00  0.00    -0.166 F 
ENDBRANCH  88  92
ENDBRANCH  84  86
ENDBRANCH  83  84
ENDBRANCH  82  83
ENDBRANCH  75  78
ENDBRANCH  73  74
ENDBRANCH   1  73
TORSDOF 18
ENDMDL
