MODEL 1
REMARK VINA RESULT:     -11.0      0.000      0.000
REMARK SMILES Cc1nnc(SCC[C@H]2CCC[C@]2([NH2+]C(C)C)C(=O)NCCCCNC(=O)c2ccc(-c3c4nc(c(-c5cc(S(=O)(=O)[O-])ccc5F)c5ccc([nH]5)c(-c5cc(S(=O)(=O)[O-])ccc5F)c5nc(c(-c6cc(S(=O)(=O)[O-])ccc6F)c6ccc3[nH]6)C=C5)C=C4)cc2)o1
REMARK SMILES IDX 22 1 21 2 20 3 18 4 19 5 13 7 9 8 10 9 11 10 12 11 8 12 7 13
REMARK SMILES IDX 6 14 5 15 1 16 2 17 3 18 91 19 4 20 14 21 15 24 16 25 17 26
REMARK SMILES IDX 23 27 24 28 25 29 26 30 27 32 28 33 29 34 90 35 30 36 89 37
REMARK SMILES IDX 31 38 32 39 33 40 83 41 34 42 88 43 82 44 84 45 35 46 87 47
REMARK SMILES IDX 81 48 80 49 36 51 68 52 48 53 67 54 49 55 52 56 66 57 85 58
REMARK SMILES IDX 50 59 51 60 65 62 86 63 53 64 37 65 38 66 46 67 39 68 45 69
REMARK SMILES IDX 47 70 44 71 40 72 41 73 42 74 43 75 69 76 70 77 78 78 71 79
REMARK SMILES IDX 77 80 79 81 76 82 72 83 73 84 74 85 75 86 54 87 55 88 63 89
REMARK SMILES IDX 56 90 62 91 64 92 61 93 57 94 58 95 59 96 60 97
REMARK H PARENT 20 6 14 22 14 23 25 31 84 50 52 61
REMARK Flexibility Score: inf
ROOT
ATOM      1  C   UNL A   1      37.025  20.910  24.703  1.00  0.00     0.023 C 
ENDROOT
BRANCH   1   2
ATOM      2  C   UNL A   1      36.828  21.929  25.826  1.00  0.00     0.116 C 
BRANCH   2   3
ATOM      3  N   UNL A   1      35.683  21.556  26.607  1.00  0.00    -0.351 N 
ATOM      4  C   UNL A   1      34.388  21.910  26.479  1.00  0.00     0.281 C 
ATOM      5  O   UNL A   1      33.694  21.666  27.475  1.00  0.00    -0.268 OA
ATOM      6  H   UNL A   1      35.873  20.946  27.355  1.00  0.00     0.163 HD
BRANCH   4   7
ATOM      7  C   UNL A   1      33.766  22.482  25.140  1.00  0.00     0.178 C 
ATOM      8  C   UNL A   1      34.475  23.703  24.473  1.00  0.00     0.061 C 
ATOM      9  C   UNL A   1      34.341  24.779  25.543  1.00  0.00     0.011 C 
ATOM     10  C   UNL A   1      32.953  24.558  26.110  1.00  0.00     0.008 C 
ATOM     11  C   UNL A   1      32.481  23.174  25.616  1.00  0.00     0.079 C 
BRANCH   8  12
ATOM     12  C   UNL A   1      33.959  24.219  23.069  1.00  0.00     0.022 C 
BRANCH  12  13
ATOM     13  C   UNL A   1      33.754  25.712  22.673  1.00  0.00     0.080 C 
BRANCH  13  14
ATOM     14  S   UNL A   1      32.478  26.107  21.416  1.00  0.00    -0.065 SA
BRANCH  14  15
ATOM     15  C   UNL A   1      31.108  26.675  22.336  1.00  0.00     0.276 A 
ATOM     16  C   UNL A   1      29.085  29.444  23.131  1.00  0.00     0.113 C 
ATOM     17  C   UNL A   1      29.697  28.099  23.078  1.00  0.00     0.214 A 
ATOM     18  N   UNL A   1      29.813  27.177  24.009  1.00  0.00    -0.112 NA
ATOM     19  O   UNL A   1      30.407  27.793  21.948  1.00  0.00    -0.416 OA
ATOM     20  N   UNL A   1      30.716  26.239  23.517  1.00  0.00    -0.101 NA
ENDBRANCH  14  15
ENDBRANCH  13  14
ENDBRANCH  12  13
ENDBRANCH   8  12
BRANCH   7  21
ATOM     21  N   UNL A   1      33.688  21.387  24.154  1.00  0.00    -0.331 N 
ATOM     22  H   UNL A   1      34.230  20.606  24.523  1.00  0.00     0.347 HD
ATOM     23  H   UNL A   1      34.039  21.797  23.288  1.00  0.00     0.347 HD
BRANCH  21  24
ATOM     24  C   UNL A   1      32.363  20.872  23.804  1.00  0.00     0.176 C 
ATOM     25  C   UNL A   1      32.030  21.114  22.333  1.00  0.00     0.075 C 
ATOM     26  C   UNL A   1      32.390  19.363  24.080  1.00  0.00     0.075 C 
ENDBRANCH  21  24
ENDBRANCH   7  21
ENDBRANCH   4   7
ENDBRANCH   2   3
ENDBRANCH   1   2
BRANCH   1  27
ATOM     27  C   UNL A   1      38.153  19.899  24.962  1.00  0.00     0.023 C 
BRANCH  27  28
ATOM     28  C   UNL A   1      39.300  20.430  25.813  1.00  0.00     0.116 C 
BRANCH  28  29
ATOM     29  N   UNL A   1      40.321  19.422  26.044  1.00  0.00    -0.352 N 
ATOM     30  C   UNL A   1      41.647  19.598  26.357  1.00  0.00     0.251 C 
ATOM     31  H   UNL A   1      40.022  18.486  25.964  1.00  0.00     0.163 HD
ATOM     32  O   UNL A   1      42.411  18.651  26.357  1.00  0.00    -0.269 OA
BRANCH  30  33
ATOM     33  C   UNL A   1      42.119  20.966  26.655  1.00  0.00     0.039 A 
ATOM     34  C   UNL A   1      42.266  21.868  25.602  1.00  0.00     0.014 A 
ATOM     35  C   UNL A   1      42.352  21.359  27.975  1.00  0.00     0.014 A 
ATOM     36  C   UNL A   1      42.595  23.194  25.882  1.00  0.00     0.010 A 
ATOM     37  C   UNL A   1      42.602  22.696  28.256  1.00  0.00     0.010 A 
ATOM     38  C   UNL A   1      42.728  23.626  27.213  1.00  0.00    -0.014 A 
BRANCH  38  39
ATOM     39  C   UNL A   1      43.015  25.047  27.531  1.00  0.00     0.031 A 
ATOM     40  C   UNL A   1      44.403  25.591  27.335  1.00  0.00     0.074 A 
ATOM     41  C   UNL A   1      42.041  25.826  28.043  1.00  0.00     0.049 A 
ATOM     42  N   UNL A   1      44.875  26.777  27.619  1.00  0.00    -0.248 NA
ATOM     43  C   UNL A   1      45.398  24.666  26.771  1.00  0.00     0.031 C 
ATOM     44  C   UNL A   1      40.665  25.396  28.305  1.00  0.00     0.029 A 
ATOM     45  N   UNL A   1      42.057  27.140  28.436  1.00  0.00    -0.354 N 
ATOM     46  C   UNL A   1      46.221  26.739  27.275  1.00  0.00     0.074 A 
ATOM     47  C   UNL A   1      46.505  25.391  26.832  1.00  0.00     0.031 C 
ATOM     48  C   UNL A   1      39.964  26.436  28.785  1.00  0.00     0.029 A 
ATOM     49  C   UNL A   1      40.848  27.590  28.915  1.00  0.00     0.049 A 
ATOM     50  H   UNL A   1      42.859  27.708  28.380  1.00  0.00     0.167 HD
ATOM     51  C   UNL A   1      47.130  27.744  27.297  1.00  0.00     0.034 A 
ATOM     52  C   UNL A   1      40.498  28.792  29.414  1.00  0.00     0.034 A 
ATOM     53  C   UNL A   1      46.827  29.084  27.739  1.00  0.00     0.049 A 
ATOM     54  C   UNL A   1      41.541  29.881  29.479  1.00  0.00     0.074 A 
ATOM     55  C   UNL A   1      47.659  30.189  27.772  1.00  0.00     0.029 A 
ATOM     56  N   UNL A   1      45.597  29.499  28.233  1.00  0.00    -0.354 N 
ATOM     57  N   UNL A   1      42.801  29.842  29.109  1.00  0.00    -0.248 NA
ATOM     58  C   UNL A   1      41.113  31.177  30.021  1.00  0.00     0.031 C 
ATOM     59  C   UNL A   1      46.955  31.250  28.353  1.00  0.00     0.029 A 
ATOM     60  C   UNL A   1      45.657  30.834  28.602  1.00  0.00     0.049 A 
ATOM     61  H   UNL A   1      44.798  28.928  28.310  1.00  0.00     0.167 HD
ATOM     62  C   UNL A   1      43.303  31.121  29.339  1.00  0.00     0.074 A 
ATOM     63  C   UNL A   1      42.207  31.907  29.864  1.00  0.00     0.031 C 
ATOM     64  C   UNL A   1      44.554  31.604  29.129  1.00  0.00     0.034 A 
BRANCH  51  65
ATOM     65  C   UNL A   1      48.536  27.420  26.851  1.00  0.00     0.023 A 
ATOM     66  C   UNL A   1      48.993  27.745  25.561  1.00  0.00     0.031 A 
ATOM     67  C   UNL A   1      49.423  26.751  27.712  1.00  0.00     0.131 A 
ATOM     68  C   UNL A   1      50.267  27.334  25.143  1.00  0.00     0.055 A 
ATOM     69  C   UNL A   1      50.722  26.422  27.319  1.00  0.00     0.041 A 
ATOM     70  F   UNL A   1      49.039  26.391  28.946  1.00  0.00    -0.206 F 
ATOM     71  C   UNL A   1      51.145  26.699  26.023  1.00  0.00     0.022 A 
BRANCH  68  72
ATOM     72  S   UNL A   1      50.699  27.505  23.390  1.00  0.00     0.124 S 
ATOM     73  O   UNL A   1      51.931  26.722  23.313  1.00  0.00    -0.237 OA
ATOM     74  O   UNL A   1      49.536  26.933  22.722  1.00  0.00    -0.237 OA
ATOM     75  O   UNL A   1      50.874  28.945  23.219  1.00  0.00    -0.744 OA
ENDBRANCH  68  72
ENDBRANCH  51  65
BRANCH  52  76
ATOM     76  C   UNL A   1      39.109  29.040  29.900  1.00  0.00     0.023 A 
ATOM     77  C   UNL A   1      38.146  29.629  29.063  1.00  0.00     0.031 A 
ATOM     78  C   UNL A   1      38.739  28.748  31.225  1.00  0.00     0.131 A 
ATOM     79  C   UNL A   1      36.882  29.960  29.576  1.00  0.00     0.055 A 
ATOM     80  C   UNL A   1      37.458  29.023  31.711  1.00  0.00     0.041 A 
ATOM     81  F   UNL A   1      39.617  28.183  32.068  1.00  0.00    -0.206 F 
ATOM     82  C   UNL A   1      36.527  29.648  30.889  1.00  0.00     0.022 A 
BRANCH  79  83
ATOM     83  S   UNL A   1      35.744  30.906  28.527  1.00  0.00     0.124 S 
ATOM     84  O   UNL A   1      35.095  29.846  27.762  1.00  0.00    -0.237 OA
ATOM     85  O   UNL A   1      34.914  31.584  29.517  1.00  0.00    -0.237 OA
ATOM     86  O   UNL A   1      36.633  31.776  27.760  1.00  0.00    -0.744 OA
ENDBRANCH  79  83
ENDBRANCH  52  76
BRANCH  64  87
ATOM     87  C   UNL A   1      44.785  33.068  29.419  1.00  0.00     0.023 A 
ATOM     88  C   UNL A   1      44.578  34.060  28.444  1.00  0.00     0.031 A 
ATOM     89  C   UNL A   1      45.224  33.473  30.692  1.00  0.00     0.131 A 
ATOM     90  C   UNL A   1      44.865  35.400  28.741  1.00  0.00     0.055 A 
ATOM     91  C   UNL A   1      45.443  34.815  31.001  1.00  0.00     0.041 A 
ATOM     92  F   UNL A   1      45.441  32.568  31.660  1.00  0.00    -0.206 F 
ATOM     93  C   UNL A   1      45.277  35.786  30.020  1.00  0.00     0.022 A 
BRANCH  90  94
ATOM     94  S   UNL A   1      44.783  36.625  27.407  1.00  0.00     0.124 S 
ATOM     95  O   UNL A   1      45.619  36.010  26.380  1.00  0.00    -0.237 OA
ATOM     96  O   UNL A   1      43.354  36.677  27.116  1.00  0.00    -0.237 OA
ATOM     97  O   UNL A   1      45.337  37.834  28.015  1.00  0.00    -0.744 OA
ENDBRANCH  90  94
ENDBRANCH  64  87
ENDBRANCH  38  39
ENDBRANCH  30  33
ENDBRANCH  28  29
ENDBRANCH  27  28
ENDBRANCH   1  27
TORSDOF 20
ENDMDL
MODEL 2
REMARK VINA RESULT:     -10.7      1.750      7.642
REMARK SMILES Cc1nnc(SCC[C@H]2CCC[C@]2([NH2+]C(C)C)C(=O)NCCCCNC(=O)c2ccc(-c3c4nc(c(-c5cc(S(=O)(=O)[O-])ccc5F)c5ccc([nH]5)c(-c5cc(S(=O)(=O)[O-])ccc5F)c5nc(c(-c6cc(S(=O)(=O)[O-])ccc6F)c6ccc3[nH]6)C=C5)C=C4)cc2)o1
REMARK SMILES IDX 22 1 21 2 20 3 18 4 19 5 13 7 9 8 10 9 11 10 12 11 8 12 7 13
REMARK SMILES IDX 6 14 5 15 1 16 2 17 3 18 91 19 4 20 14 21 15 24 16 25 17 26
REMARK SMILES IDX 23 27 24 28 25 29 26 30 27 32 28 33 29 34 90 35 30 36 89 37
REMARK SMILES IDX 31 38 32 39 33 40 83 41 34 42 88 43 82 44 84 45 35 46 87 47
REMARK SMILES IDX 81 48 80 49 36 51 68 52 48 53 67 54 49 55 52 56 66 57 85 58
REMARK SMILES IDX 50 59 51 60 65 62 86 63 53 64 37 65 38 66 46 67 39 68 45 69
REMARK SMILES IDX 47 70 44 71 40 72 41 73 42 74 43 75 69 76 70 77 78 78 71 79
REMARK SMILES IDX 77 80 79 81 76 82 72 83 73 84 74 85 75 86 54 87 55 88 63 89
REMARK SMILES IDX 56 90 62 91 64 92 61 93 57 94 58 95 59 96 60 97
REMARK H PARENT 20 6 14 22 14 23 25 31 84 50 52 61
REMARK Flexibility Score: inf
ROOT
ATOM      1  C   UNL A   1      37.424  21.003  24.577  1.00  0.00     0.023 C 
ENDROOT
BRANCH   1   2
ATOM      2  C   UNL A   1      37.131  22.108  25.594  1.00  0.00     0.116 C 
BRANCH   2   3
ATOM      3  N   UNL A   1      36.084  21.674  26.474  1.00  0.00    -0.351 N 
ATOM      4  C   UNL A   1      34.760  21.924  26.446  1.00  0.00     0.281 C 
ATOM      5  O   UNL A   1      34.169  21.659  27.501  1.00  0.00    -0.268 OA
ATOM      6  H   UNL A   1      36.381  21.103  27.220  1.00  0.00     0.163 HD
BRANCH   4   7
ATOM      7  C   UNL A   1      33.990  22.405  25.148  1.00  0.00     0.178 C 
ATOM      8  C   UNL A   1      34.475  23.721  24.461  1.00  0.00     0.061 C 
ATOM      9  C   UNL A   1      34.243  24.760  25.550  1.00  0.00     0.011 C 
ATOM     10  C   UNL A   1      32.934  24.334  26.187  1.00  0.00     0.008 C 
ATOM     11  C   UNL A   1      32.645  22.898  25.700  1.00  0.00     0.079 C 
BRANCH   8  12
ATOM     12  C   UNL A   1      33.814  24.163  23.093  1.00  0.00     0.022 C 
BRANCH  12  13
ATOM     13  C   UNL A   1      33.649  25.632  22.600  1.00  0.00     0.080 C 
BRANCH  13  14
ATOM     14  S   UNL A   1      32.172  26.047  21.596  1.00  0.00    -0.065 SA
BRANCH  14  15
ATOM     15  C   UNL A   1      31.304  27.225  22.547  1.00  0.00     0.276 A 
ATOM     16  C   UNL A   1      31.534  29.648  25.091  1.00  0.00     0.113 C 
ATOM     17  C   UNL A   1      31.039  28.725  24.046  1.00  0.00     0.214 A 
ATOM     18  N   UNL A   1      29.878  28.117  23.925  1.00  0.00    -0.112 NA
ATOM     19  O   UNL A   1      31.958  28.285  23.133  1.00  0.00    -0.416 OA
ATOM     20  N   UNL A   1      30.046  27.154  22.934  1.00  0.00    -0.101 NA
ENDBRANCH  14  15
ENDBRANCH  13  14
ENDBRANCH  12  13
ENDBRANCH   8  12
BRANCH   7  21
ATOM     21  N   UNL A   1      34.021  21.316  24.153  1.00  0.00    -0.331 N 
ATOM     22  H   UNL A   1      34.976  20.959  24.123  1.00  0.00     0.347 HD
ATOM     23  H   UNL A   1      33.683  21.747  23.292  1.00  0.00     0.347 HD
BRANCH  21  24
ATOM     24  C   UNL A   1      33.133  20.170  24.363  1.00  0.00     0.176 C 
ATOM     25  C   UNL A   1      32.213  19.939  23.166  1.00  0.00     0.075 C 
ATOM     26  C   UNL A   1      34.035  18.944  24.559  1.00  0.00     0.075 C 
ENDBRANCH  21  24
ENDBRANCH   7  21
ENDBRANCH   4   7
ENDBRANCH   2   3
ENDBRANCH   1   2
BRANCH   1  27
ATOM     27  C   UNL A   1      38.264  19.844  25.133  1.00  0.00     0.023 C 
BRANCH  27  28
ATOM     28  C   UNL A   1      39.333  20.257  26.137  1.00  0.00     0.116 C 
BRANCH  28  29
ATOM     29  N   UNL A   1      40.500  19.394  26.080  1.00  0.00    -0.352 N 
ATOM     30  C   UNL A   1      41.828  19.740  26.135  1.00  0.00     0.251 C 
ATOM     31  H   UNL A   1      40.314  18.431  25.988  1.00  0.00     0.163 HD
ATOM     32  O   UNL A   1      42.691  18.910  25.908  1.00  0.00    -0.269 OA
BRANCH  30  33
ATOM     33  C   UNL A   1      42.174  21.143  26.439  1.00  0.00     0.039 A 
ATOM     34  C   UNL A   1      42.489  21.486  27.753  1.00  0.00     0.014 A 
ATOM     35  C   UNL A   1      42.242  22.089  25.413  1.00  0.00     0.014 A 
ATOM     36  C   UNL A   1      42.933  22.779  28.031  1.00  0.00     0.010 A 
ATOM     37  C   UNL A   1      42.758  23.351  25.681  1.00  0.00     0.010 A 
ATOM     38  C   UNL A   1      43.106  23.709  26.992  1.00  0.00    -0.014 A 
BRANCH  38  39
ATOM     39  C   UNL A   1      43.638  25.068  27.262  1.00  0.00     0.031 A 
ATOM     40  C   UNL A   1      42.737  26.119  27.848  1.00  0.00     0.074 A 
ATOM     41  C   UNL A   1      44.910  25.365  26.932  1.00  0.00     0.049 A 
ATOM     42  N   UNL A   1      42.985  27.380  28.091  1.00  0.00    -0.248 NA
ATOM     43  C   UNL A   1      41.365  25.701  28.176  1.00  0.00     0.031 C 
ATOM     44  C   UNL A   1      45.867  24.433  26.329  1.00  0.00     0.029 A 
ATOM     45  N   UNL A   1      45.620  26.533  27.054  1.00  0.00    -0.354 N 
ATOM     46  C   UNL A   1      41.801  27.907  28.595  1.00  0.00     0.074 A 
ATOM     47  C   UNL A   1      40.816  26.847  28.550  1.00  0.00     0.031 C 
ATOM     48  C   UNL A   1      47.044  25.057  26.164  1.00  0.00     0.029 A 
ATOM     49  C   UNL A   1      46.916  26.444  26.598  1.00  0.00     0.049 A 
ATOM     50  H   UNL A   1      45.238  27.357  27.432  1.00  0.00     0.167 HD
ATOM     51  C   UNL A   1      41.565  29.152  29.077  1.00  0.00     0.034 A 
ATOM     52  C   UNL A   1      47.884  27.379  26.528  1.00  0.00     0.034 A 
ATOM     53  C   UNL A   1      42.561  30.194  29.116  1.00  0.00     0.049 A 
ATOM     54  C   UNL A   1      47.581  28.773  27.022  1.00  0.00     0.074 A 
ATOM     55  C   UNL A   1      42.444  31.479  29.614  1.00  0.00     0.029 A 
ATOM     56  N   UNL A   1      43.857  30.074  28.630  1.00  0.00    -0.354 N 
ATOM     57  N   UNL A   1      46.468  29.245  27.535  1.00  0.00    -0.248 NA
ATOM     58  C   UNL A   1      48.667  29.757  26.934  1.00  0.00     0.031 C 
ATOM     59  C   UNL A   1      43.642  32.158  29.364  1.00  0.00     0.029 A 
ATOM     60  C   UNL A   1      44.539  31.271  28.790  1.00  0.00     0.049 A 
ATOM     61  H   UNL A   1      44.237  29.257  28.232  1.00  0.00     0.167 HD
ATOM     62  C   UNL A   1      46.736  30.571  27.867  1.00  0.00     0.074 A 
ATOM     63  C   UNL A   1      48.117  30.816  27.508  1.00  0.00     0.031 C 
ATOM     64  C   UNL A   1      45.917  31.501  28.422  1.00  0.00     0.034 A 
BRANCH  51  65
ATOM     65  C   UNL A   1      40.171  29.450  29.577  1.00  0.00     0.023 A 
ATOM     66  C   UNL A   1      39.884  29.526  30.952  1.00  0.00     0.031 A 
ATOM     67  C   UNL A   1      39.111  29.631  28.674  1.00  0.00     0.131 A 
ATOM     68  C   UNL A   1      38.561  29.698  31.384  1.00  0.00     0.055 A 
ATOM     69  C   UNL A   1      37.809  29.890  29.109  1.00  0.00     0.041 A 
ATOM     70  F   UNL A   1      39.316  29.545  27.351  1.00  0.00    -0.206 F 
ATOM     71  C   UNL A   1      37.525  29.908  30.472  1.00  0.00     0.022 A 
BRANCH  68  72
ATOM     72  S   UNL A   1      38.192  29.489  33.147  1.00  0.00     0.124 S 
ATOM     73  O   UNL A   1      39.503  29.128  33.681  1.00  0.00    -0.237 OA
ATOM     74  O   UNL A   1      37.690  30.807  33.523  1.00  0.00    -0.237 OA
ATOM     75  O   UNL A   1      37.202  28.415  33.166  1.00  0.00    -0.744 OA
ENDBRANCH  68  72
ENDBRANCH  51  65
BRANCH  52  76
ATOM     76  C   UNL A   1      49.225  27.047  25.965  1.00  0.00     0.023 A 
ATOM     77  C   UNL A   1      49.592  27.471  24.677  1.00  0.00     0.031 A 
ATOM     78  C   UNL A   1      50.138  26.253  26.681  1.00  0.00     0.131 A 
ATOM     79  C   UNL A   1      50.810  27.050  24.122  1.00  0.00     0.055 A 
ATOM     80  C   UNL A   1      51.377  25.889  26.147  1.00  0.00     0.041 A 
ATOM     81  F   UNL A   1      49.842  25.821  27.917  1.00  0.00    -0.206 F 
ATOM     82  C   UNL A   1      51.712  26.275  24.853  1.00  0.00     0.022 A 
BRANCH  79  83
ATOM     83  S   UNL A   1      51.151  27.443  22.384  1.00  0.00     0.124 S 
ATOM     84  O   UNL A   1      51.026  28.897  22.379  1.00  0.00    -0.237 OA
ATOM     85  O   UNL A   1      52.501  26.915  22.214  1.00  0.00    -0.237 OA
ATOM     86  O   UNL A   1      50.105  26.722  21.661  1.00  0.00    -0.744 OA
ENDBRANCH  79  83
ENDBRANCH  52  76
BRANCH  64  87
ATOM     87  C   UNL A   1      46.517  32.852  28.726  1.00  0.00     0.023 A 
ATOM     88  C   UNL A   1      46.675  33.836  27.734  1.00  0.00     0.031 A 
ATOM     89  C   UNL A   1      46.942  33.157  30.032  1.00  0.00     0.131 A 
ATOM     90  C   UNL A   1      47.294  35.053  28.050  1.00  0.00     0.055 A 
ATOM     91  C   UNL A   1      47.496  34.395  30.355  1.00  0.00     0.041 A 
ATOM     92  F   UNL A   1      46.818  32.254  31.019  1.00  0.00    -0.206 F 
ATOM     93  C   UNL A   1      47.687  35.347  29.360  1.00  0.00     0.022 A 
BRANCH  90  94
ATOM     94  S   UNL A   1      47.666  36.217  26.710  1.00  0.00     0.124 S 
ATOM     95  O   UNL A   1      48.168  35.326  25.668  1.00  0.00    -0.237 OA
ATOM     96  O   UNL A   1      46.365  36.826  26.454  1.00  0.00    -0.237 OA
ATOM     97  O   UNL A   1      48.664  37.109  27.296  1.00  0.00    -0.744 OA
ENDBRANCH  90  94
ENDBRANCH  64  87
ENDBRANCH  38  39
ENDBRANCH  30  33
ENDBRANCH  28  29
ENDBRANCH  27  28
ENDBRANCH   1  27
TORSDOF 20
ENDMDL
MODEL 3
REMARK VINA RESULT:     -10.6      4.855      9.855
REMARK SMILES Cc1nnc(SCC[C@H]2CCC[C@]2([NH2+]C(C)C)C(=O)NCCCCNC(=O)c2ccc(-c3c4nc(c(-c5cc(S(=O)(=O)[O-])ccc5F)c5ccc([nH]5)c(-c5cc(S(=O)(=O)[O-])ccc5F)c5nc(c(-c6cc(S(=O)(=O)[O-])ccc6F)c6ccc3[nH]6)C=C5)C=C4)cc2)o1
REMARK SMILES IDX 22 1 21 2 20 3 18 4 19 5 13 7 9 8 10 9 11 10 12 11 8 12 7 13
REMARK SMILES IDX 6 14 5 15 1 16 2 17 3 18 91 19 4 20 14 21 15 24 16 25 17 26
REMARK SMILES IDX 23 27 24 28 25 29 26 30 27 32 28 33 29 34 90 35 30 36 89 37
REMARK SMILES IDX 31 38 32 39 33 40 83 41 34 42 88 43 82 44 84 45 35 46 87 47
REMARK SMILES IDX 81 48 80 49 36 51 68 52 48 53 67 54 49 55 52 56 66 57 85 58
REMARK SMILES IDX 50 59 51 60 65 62 86 63 53 64 37 65 38 66 46 67 39 68 45 69
REMARK SMILES IDX 47 70 44 71 40 72 41 73 42 74 43 75 69 76 70 77 78 78 71 79
REMARK SMILES IDX 77 80 79 81 76 82 72 83 73 84 74 85 75 86 54 87 55 88 63 89
REMARK SMILES IDX 56 90 62 91 64 92 61 93 57 94 58 95 59 96 60 97
REMARK H PARENT 20 6 14 22 14 23 25 31 84 50 52 61
REMARK Flexibility Score: inf
ROOT
ATOM      1  C   UNL A   1      32.630  28.036  26.350  1.00  0.00     0.023 C 
ENDROOT
BRANCH   1   2
ATOM      2  C   UNL A   1      33.686  27.008  25.941  1.00  0.00     0.116 C 
BRANCH   2   3
ATOM      3  N   UNL A   1      33.614  26.795  24.524  1.00  0.00    -0.351 N 
ATOM      4  C   UNL A   1      33.527  25.650  23.817  1.00  0.00     0.281 C 
ATOM      5  O   UNL A   1      33.782  25.776  22.612  1.00  0.00    -0.268 OA
ATOM      6  H   UNL A   1      33.633  27.616  23.981  1.00  0.00     0.163 HD
BRANCH   4   7
ATOM      7  C   UNL A   1      33.029  24.279  24.434  1.00  0.00     0.178 C 
ATOM      8  C   UNL A   1      32.308  23.273  23.481  1.00  0.00     0.061 C 
ATOM      9  C   UNL A   1      31.079  24.061  23.048  1.00  0.00     0.011 C 
ATOM     10  C   UNL A   1      30.656  24.797  24.305  1.00  0.00     0.008 C 
ATOM     11  C   UNL A   1      31.832  24.698  25.300  1.00  0.00     0.079 C 
BRANCH   8  12
ATOM     12  C   UNL A   1      31.912  21.843  24.031  1.00  0.00     0.022 C 
BRANCH  12  13
ATOM     13  C   UNL A   1      32.585  20.498  23.623  1.00  0.00     0.080 C 
BRANCH  13  14
ATOM     14  S   UNL A   1      33.688  19.680  24.839  1.00  0.00    -0.065 SA
BRANCH  14  15
ATOM     15  C   UNL A   1      33.587  17.980  24.457  1.00  0.00     0.276 A 
ATOM     16  C   UNL A   1      32.558  14.805  25.574  1.00  0.00     0.113 C 
ATOM     17  C   UNL A   1      33.132  15.918  24.789  1.00  0.00     0.214 A 
ATOM     18  N   UNL A   1      34.154  15.940  23.961  1.00  0.00    -0.112 NA
ATOM     19  O   UNL A   1      32.653  17.171  25.062  1.00  0.00    -0.416 OA
ATOM     20  N   UNL A   1      34.437  17.284  23.728  1.00  0.00    -0.101 NA
ENDBRANCH  14  15
ENDBRANCH  13  14
ENDBRANCH  12  13
ENDBRANCH   8  12
BRANCH   7  21
ATOM     21  N   UNL A   1      34.181  23.597  25.054  1.00  0.00    -0.331 N 
ATOM     22  H   UNL A   1      34.033  22.594  24.948  1.00  0.00     0.347 HD
ATOM     23  H   UNL A   1      34.197  23.943  26.014  1.00  0.00     0.347 HD
BRANCH  21  24
ATOM     24  C   UNL A   1      35.517  23.898  24.534  1.00  0.00     0.176 C 
ATOM     25  C   UNL A   1      36.568  23.903  25.642  1.00  0.00     0.075 C 
ATOM     26  C   UNL A   1      35.851  22.799  23.516  1.00  0.00     0.075 C 
ENDBRANCH  21  24
ENDBRANCH   7  21
ENDBRANCH   4   7
ENDBRANCH   2   3
ENDBRANCH   1   2
BRANCH   1  27
ATOM     27  C   UNL A   1      33.104  29.033  27.419  1.00  0.00     0.023 C 
BRANCH  27  28
ATOM     28  C   UNL A   1      33.936  30.192  26.884  1.00  0.00     0.116 C 
BRANCH  28  29
ATOM     29  N   UNL A   1      33.798  31.386  27.700  1.00  0.00    -0.352 N 
ATOM     30  C   UNL A   1      34.585  31.809  28.743  1.00  0.00     0.251 C 
ATOM     31  H   UNL A   1      33.038  31.970  27.475  1.00  0.00     0.163 HD
ATOM     32  O   UNL A   1      34.240  32.751  29.433  1.00  0.00    -0.269 OA
BRANCH  30  33
ATOM     33  C   UNL A   1      35.833  31.070  29.023  1.00  0.00     0.039 A 
ATOM     34  C   UNL A   1      37.031  31.555  28.500  1.00  0.00     0.014 A 
ATOM     35  C   UNL A   1      35.814  29.943  29.849  1.00  0.00     0.014 A 
ATOM     36  C   UNL A   1      38.229  30.936  28.855  1.00  0.00     0.010 A 
ATOM     37  C   UNL A   1      37.014  29.378  30.262  1.00  0.00     0.010 A 
ATOM     38  C   UNL A   1      38.233  29.868  29.767  1.00  0.00    -0.014 A 
BRANCH  38  39
ATOM     39  C   UNL A   1      39.504  29.240  30.206  1.00  0.00     0.031 A 
ATOM     40  C   UNL A   1      40.224  29.775  31.412  1.00  0.00     0.074 A 
ATOM     41  C   UNL A   1      40.031  28.227  29.489  1.00  0.00     0.049 A 
ATOM     42  N   UNL A   1      41.377  29.417  31.916  1.00  0.00    -0.248 NA
ATOM     43  C   UNL A   1      39.571  30.880  32.131  1.00  0.00     0.031 C 
ATOM     44  C   UNL A   1      39.436  27.647  28.282  1.00  0.00     0.029 A 
ATOM     45  N   UNL A   1      41.185  27.507  29.667  1.00  0.00    -0.354 N 
ATOM     46  C   UNL A   1      41.590  30.255  33.004  1.00  0.00     0.074 A 
ATOM     47  C   UNL A   1      40.484  31.187  33.041  1.00  0.00     0.031 C 
ATOM     48  C   UNL A   1      40.213  26.641  27.849  1.00  0.00     0.029 A 
ATOM     49  C   UNL A   1      41.386  26.537  28.711  1.00  0.00     0.049 A 
ATOM     50  H   UNL A   1      41.811  27.669  30.409  1.00  0.00     0.167 HD
ATOM     51  C   UNL A   1      42.601  30.230  33.907  1.00  0.00     0.034 A 
ATOM     52  C   UNL A   1      42.406  25.673  28.544  1.00  0.00     0.034 A 
ATOM     53  C   UNL A   1      43.694  29.291  33.855  1.00  0.00     0.049 A 
ATOM     54  C   UNL A   1      43.547  25.699  29.532  1.00  0.00     0.074 A 
ATOM     55  C   UNL A   1      44.752  29.151  34.734  1.00  0.00     0.029 A 
ATOM     56  N   UNL A   1      43.874  28.334  32.863  1.00  0.00    -0.354 N 
ATOM     57  N   UNL A   1      43.714  26.471  30.581  1.00  0.00    -0.248 NA
ATOM     58  C   UNL A   1      44.632  24.735  29.316  1.00  0.00     0.031 C 
ATOM     59  C   UNL A   1      45.609  28.162  34.237  1.00  0.00     0.029 A 
ATOM     60  C   UNL A   1      45.041  27.622  33.094  1.00  0.00     0.049 A 
ATOM     61  H   UNL A   1      43.261  28.182  32.108  1.00  0.00     0.167 HD
ATOM     62  C   UNL A   1      44.905  26.055  31.172  1.00  0.00     0.074 A 
ATOM     63  C   UNL A   1      45.403  24.958  30.370  1.00  0.00     0.031 C 
ATOM     64  C   UNL A   1      45.528  26.532  32.280  1.00  0.00     0.034 A 
BRANCH  51  65
ATOM     65  C   UNL A   1      42.574  31.264  35.007  1.00  0.00     0.023 A 
ATOM     66  C   UNL A   1      43.110  32.551  34.820  1.00  0.00     0.031 A 
ATOM     67  C   UNL A   1      42.035  30.955  36.267  1.00  0.00     0.131 A 
ATOM     68  C   UNL A   1      43.166  33.451  35.894  1.00  0.00     0.055 A 
ATOM     69  C   UNL A   1      42.015  31.886  37.308  1.00  0.00     0.041 A 
ATOM     70  F   UNL A   1      41.531  29.736  36.516  1.00  0.00    -0.206 F 
ATOM     71  C   UNL A   1      42.597  33.137  37.130  1.00  0.00     0.022 A 
BRANCH  68  72
ATOM     72  S   UNL A   1      44.130  34.975  35.697  1.00  0.00     0.124 S 
ATOM     73  O   UNL A   1      45.499  34.461  35.707  1.00  0.00    -0.237 OA
ATOM     74  O   UNL A   1      43.650  35.488  34.419  1.00  0.00    -0.237 OA
ATOM     75  O   UNL A   1      43.762  35.767  36.868  1.00  0.00    -0.744 OA
ENDBRANCH  68  72
ENDBRANCH  51  65
BRANCH  52  76
ATOM     76  C   UNL A   1      42.413  24.713  27.401  1.00  0.00     0.023 A 
ATOM     77  C   UNL A   1      41.611  23.560  27.423  1.00  0.00     0.031 A 
ATOM     78  C   UNL A   1      43.262  24.903  26.297  1.00  0.00     0.131 A 
ATOM     79  C   UNL A   1      41.719  22.613  26.392  1.00  0.00     0.055 A 
ATOM     80  C   UNL A   1      43.320  23.988  25.243  1.00  0.00     0.041 A 
ATOM     81  F   UNL A   1      44.050  25.988  26.222  1.00  0.00    -0.206 F 
ATOM     82  C   UNL A   1      42.556  22.826  25.296  1.00  0.00     0.022 A 
BRANCH  79  83
ATOM     83  S   UNL A   1      40.826  21.043  26.562  1.00  0.00     0.124 S 
ATOM     84  O   UNL A   1      39.530  21.376  25.979  1.00  0.00    -0.237 OA
ATOM     85  O   UNL A   1      41.663  20.134  25.788  1.00  0.00    -0.237 OA
ATOM     86  O   UNL A   1      40.821  20.810  28.005  1.00  0.00    -0.744 OA
ENDBRANCH  79  83
ENDBRANCH  52  76
BRANCH  64  87
ATOM     87  C   UNL A   1      46.790  25.828  32.717  1.00  0.00     0.023 A 
ATOM     88  C   UNL A   1      46.768  24.762  33.633  1.00  0.00     0.031 A 
ATOM     89  C   UNL A   1      48.037  26.239  32.210  1.00  0.00     0.131 A 
ATOM     90  C   UNL A   1      47.971  24.180  34.056  1.00  0.00     0.055 A 
ATOM     91  C   UNL A   1      49.224  25.611  32.584  1.00  0.00     0.041 A 
ATOM     92  F   UNL A   1      48.117  27.254  31.335  1.00  0.00    -0.206 F 
ATOM     93  C   UNL A   1      49.198  24.585  33.522  1.00  0.00     0.022 A 
BRANCH  90  94
ATOM     94  S   UNL A   1      47.924  22.948  35.386  1.00  0.00     0.124 S 
ATOM     95  O   UNL A   1      49.265  22.376  35.315  1.00  0.00    -0.237 OA
ATOM     96  O   UNL A   1      47.641  23.765  36.561  1.00  0.00    -0.237 OA
ATOM     97  O   UNL A   1      46.845  22.048  34.982  1.00  0.00    -0.744 OA
ENDBRANCH  90  94
ENDBRANCH  64  87
ENDBRANCH  38  39
ENDBRANCH  30  33
ENDBRANCH  28  29
ENDBRANCH  27  28
ENDBRANCH   1  27
TORSDOF 20
ENDMDL
