MODEL 1
REMARK VINA RESULT:     -12.3      0.000      0.000
REMARK SMILES O=C(NCCCCNC(=O)c1cc(O)ccc1NC(=O)c1ccc(Br)nc1)c1ccc(-c2c3nc(c(-c4cc(S(=O)(=O)[O-])ccc4F)c4ccc([nH]4)c(-c4cc(S(=O)(=O)[O-])ccc4F)c4nc(c(-c5cc(S(=O)(=O)[O-])ccc5F)c5ccc2[nH]5)C=C4)C=C3)cc1
REMARK SMILES IDX 5 1 4 2 3 3 1 4 2 5 28 7 29 8 90 9 30 10 89 11 31 12 32 13
REMARK SMILES IDX 33 14 83 15 34 16 88 17 82 18 84 19 35 20 87 21 81 22 80 23
REMARK SMILES IDX 36 25 68 26 48 27 67 28 49 29 52 30 66 31 85 32 50 33 51 34
REMARK SMILES IDX 65 36 86 37 53 38 37 39 38 40 46 41 39 42 45 43 47 44 44 45
REMARK SMILES IDX 40 46 41 47 42 48 43 49 69 50 70 51 78 52 71 53 77 54 79 55
REMARK SMILES IDX 76 56 72 57 73 58 74 59 75 60 54 61 55 62 63 63 56 64 62 65
REMARK SMILES IDX 64 66 61 67 57 68 58 69 59 70 60 71 6 72 7 73 8 74 9 75
REMARK SMILES IDX 10 77 11 78 12 79 17 80 13 81 16 82 15 83 18 84 19 85 20 87
REMARK SMILES IDX 21 88 22 89 27 90 23 91 26 92 24 93 25 94 14 95
REMARK H PARENT 3 6 84 24 52 35 8 76 18 86 14 96
REMARK Flexibility Score: inf
ROOT
ATOM      1  C   UNL A   1      35.593  21.708  25.515  1.00  0.00     0.023 C 
ENDROOT
BRANCH   1   2
ATOM      2  C   UNL A   1      37.012  22.249  25.392  1.00  0.00     0.116 C 
BRANCH   2   3
ATOM      3  N   UNL A   1      38.043  21.235  25.564  1.00  0.00    -0.352 N 
ATOM      4  O   UNL A   1      40.075  20.409  26.093  1.00  0.00    -0.269 OA
ATOM      5  C   UNL A   1      39.301  21.361  26.111  1.00  0.00     0.251 C 
ATOM      6  H   UNL A   1      37.809  20.334  25.245  1.00  0.00     0.163 HD
BRANCH   5   7
ATOM      7  C   UNL A   1      39.725  22.659  26.685  1.00  0.00     0.039 A 
ATOM      8  C   UNL A   1      39.247  23.859  26.158  1.00  0.00     0.014 A 
ATOM      9  C   UNL A   1      40.645  22.672  27.737  1.00  0.00     0.014 A 
ATOM     10  C   UNL A   1      39.820  25.061  26.556  1.00  0.00     0.010 A 
ATOM     11  C   UNL A   1      41.151  23.891  28.202  1.00  0.00     0.010 A 
ATOM     12  C   UNL A   1      40.781  25.094  27.581  1.00  0.00    -0.014 A 
BRANCH  12  13
ATOM     13  C   UNL A   1      41.366  26.401  27.982  1.00  0.00     0.031 A 
ATOM     14  C   UNL A   1      42.763  26.787  27.572  1.00  0.00     0.074 A 
ATOM     15  C   UNL A   1      40.601  27.269  28.673  1.00  0.00     0.049 A 
ATOM     16  N   UNL A   1      43.405  27.908  27.785  1.00  0.00    -0.248 NA
ATOM     17  C   UNL A   1      43.545  25.780  26.841  1.00  0.00     0.031 C 
ATOM     18  C   UNL A   1      39.236  27.002  29.133  1.00  0.00     0.029 A 
ATOM     19  N   UNL A   1      40.844  28.554  29.084  1.00  0.00    -0.354 N 
ATOM     20  C   UNL A   1      44.674  27.736  27.238  1.00  0.00     0.074 A 
ATOM     21  C   UNL A   1      44.717  26.387  26.711  1.00  0.00     0.031 C 
ATOM     22  C   UNL A   1      38.740  28.109  29.704  1.00  0.00     0.029 A 
ATOM     23  C   UNL A   1      39.770  29.142  29.710  1.00  0.00     0.049 A 
ATOM     24  H   UNL A   1      41.704  29.011  28.945  1.00  0.00     0.167 HD
ATOM     25  C   UNL A   1      45.701  28.621  27.175  1.00  0.00     0.034 A 
ATOM     26  C   UNL A   1      39.628  30.373  30.237  1.00  0.00     0.034 A 
ATOM     27  C   UNL A   1      45.635  29.970  27.689  1.00  0.00     0.049 A 
ATOM     28  C   UNL A   1      40.785  31.331  30.163  1.00  0.00     0.074 A 
ATOM     29  C   UNL A   1      46.598  30.963  27.634  1.00  0.00     0.029 A 
ATOM     30  N   UNL A   1      44.547  30.515  28.359  1.00  0.00    -0.354 N 
ATOM     31  N   UNL A   1      41.968  31.156  29.623  1.00  0.00    -0.248 NA
ATOM     32  C   UNL A   1      40.583  32.652  30.769  1.00  0.00     0.031 C 
ATOM     33  C   UNL A   1      46.118  32.083  28.323  1.00  0.00     0.029 A 
ATOM     34  C   UNL A   1      44.827  31.816  28.749  1.00  0.00     0.049 A 
ATOM     35  H   UNL A   1      43.699  30.045  28.531  1.00  0.00     0.167 HD
ATOM     36  C   UNL A   1      42.648  32.355  29.811  1.00  0.00     0.074 A 
ATOM     37  C   UNL A   1      41.733  33.249  30.494  1.00  0.00     0.031 C 
ATOM     38  C   UNL A   1      43.914  32.688  29.451  1.00  0.00     0.034 A 
BRANCH  25  39
ATOM     39  C   UNL A   1      46.999  28.139  26.570  1.00  0.00     0.023 A 
ATOM     40  C   UNL A   1      47.240  28.184  25.185  1.00  0.00     0.031 A 
ATOM     41  C   UNL A   1      48.004  27.599  27.393  1.00  0.00     0.131 A 
ATOM     42  C   UNL A   1      48.419  27.635  24.659  1.00  0.00     0.055 A 
ATOM     43  C   UNL A   1      49.210  27.123  26.871  1.00  0.00     0.041 A 
ATOM     44  F   UNL A   1      47.826  27.511  28.720  1.00  0.00    -0.206 F 
ATOM     45  C   UNL A   1      49.417  27.125  25.495  1.00  0.00     0.022 A 
BRANCH  42  46
ATOM     46  S   UNL A   1      48.569  27.461  22.860  1.00  0.00     0.124 S 
ATOM     47  O   UNL A   1      49.862  28.092  22.607  1.00  0.00    -0.237 OA
ATOM     48  O   UNL A   1      48.516  26.016  22.679  1.00  0.00    -0.237 OA
ATOM     49  O   UNL A   1      47.415  28.198  22.347  1.00  0.00    -0.744 OA
ENDBRANCH  42  46
ENDBRANCH  25  39
BRANCH  26  50
ATOM     50  C   UNL A   1      38.350  30.762  30.893  1.00  0.00     0.023 A 
ATOM     51  C   UNL A   1      37.370  31.486  30.196  1.00  0.00     0.031 A 
ATOM     52  C   UNL A   1      38.097  30.427  32.235  1.00  0.00     0.131 A 
ATOM     53  C   UNL A   1      36.196  31.882  30.854  1.00  0.00     0.055 A 
ATOM     54  C   UNL A   1      36.906  30.781  32.871  1.00  0.00     0.041 A 
ATOM     55  F   UNL A   1      38.998  29.728  32.942  1.00  0.00    -0.206 F 
ATOM     56  C   UNL A   1      35.951  31.522  32.182  1.00  0.00     0.022 A 
BRANCH  53  57
ATOM     57  S   UNL A   1      35.012  32.928  29.964  1.00  0.00     0.124 S 
ATOM     58  O   UNL A   1      35.894  33.898  29.325  1.00  0.00    -0.237 OA
ATOM     59  O   UNL A   1      34.366  31.966  29.077  1.00  0.00    -0.237 OA
ATOM     60  O   UNL A   1      34.162  33.461  31.027  1.00  0.00    -0.744 OA
ENDBRANCH  53  57
ENDBRANCH  26  50
BRANCH  38  61
ATOM     61  C   UNL A   1      44.356  34.094  29.769  1.00  0.00     0.023 A 
ATOM     62  C   UNL A   1      44.141  35.155  28.871  1.00  0.00     0.031 A 
ATOM     63  C   UNL A   1      45.040  34.367  30.966  1.00  0.00     0.131 A 
ATOM     64  C   UNL A   1      44.662  36.425  29.154  1.00  0.00     0.055 A 
ATOM     65  C   UNL A   1      45.507  35.647  31.269  1.00  0.00     0.041 A 
ATOM     66  F   UNL A   1      45.275  33.390  31.858  1.00  0.00    -0.206 F 
ATOM     67  C   UNL A   1      45.332  36.682  30.353  1.00  0.00     0.022 A 
BRANCH  64  68
ATOM     68  S   UNL A   1      44.545  37.717  27.885  1.00  0.00     0.124 S 
ATOM     69  O   UNL A   1      45.509  37.255  26.891  1.00  0.00    -0.237 OA
ATOM     70  O   UNL A   1      43.141  37.643  27.494  1.00  0.00    -0.237 OA
ATOM     71  O   UNL A   1      44.927  38.935  28.598  1.00  0.00    -0.744 OA
ENDBRANCH  64  68
ENDBRANCH  38  61
ENDBRANCH  12  13
ENDBRANCH   5   7
ENDBRANCH   2   3
ENDBRANCH   1   2
BRANCH   1  72
ATOM     72  C   UNL A   1      34.924  21.910  26.871  1.00  0.00     0.023 C 
BRANCH  72  73
ATOM     73  C   UNL A   1      33.505  21.367  26.988  1.00  0.00     0.116 C 
BRANCH  73  74
ATOM     74  N   UNL A   1      32.531  22.373  27.393  1.00  0.00    -0.352 N 
ATOM     75  C   UNL A   1      32.000  23.407  26.657  1.00  0.00     0.253 C 
ATOM     76  H   UNL A   1      32.208  22.304  28.321  1.00  0.00     0.163 HD
ATOM     77  O   UNL A   1      31.279  24.255  27.174  1.00  0.00    -0.269 OA
BRANCH  75  78
ATOM     78  C   UNL A   1      32.363  23.530  25.231  1.00  0.00     0.067 A 
ATOM     79  C   UNL A   1      31.774  22.634  24.324  1.00  0.00     0.062 A 
ATOM     80  C   UNL A   1      33.320  24.475  24.817  1.00  0.00     0.054 A 
ATOM     81  C   UNL A   1      32.257  22.574  23.027  1.00  0.00     0.116 A 
ATOM     82  C   UNL A   1      33.848  24.317  23.531  1.00  0.00     0.031 A 
ATOM     83  C   UNL A   1      33.316  23.379  22.639  1.00  0.00     0.048 A 
BRANCH  80  84
ATOM     84  N   UNL A   1      33.711  25.511  25.703  1.00  0.00    -0.321 N 
ATOM     85  C   UNL A   1      33.559  26.880  25.659  1.00  0.00     0.257 C 
ATOM     86  H   UNL A   1      34.183  25.189  26.505  1.00  0.00     0.170 HD
ATOM     87  O   UNL A   1      34.118  27.610  26.474  1.00  0.00    -0.269 OA
BRANCH  85  88
ATOM     88  C   UNL A   1      32.683  27.517  24.671  1.00  0.00     0.058 A 
ATOM     89  C   UNL A   1      33.185  28.169  23.543  1.00  0.00     0.018 A 
ATOM     90  C   UNL A   1      31.314  27.511  24.887  1.00  0.00     0.126 A 
ATOM     91  C   UNL A   1      32.301  28.872  22.726  1.00  0.00     0.037 A 
ATOM     92  N   UNL A   1      30.436  28.189  24.108  1.00  0.00    -0.249 NA
ATOM     93  C   UNL A   1      30.950  28.868  23.056  1.00  0.00     0.106 A 
ATOM     94  Br  UNL A   1      29.753  29.904  22.013  1.00  0.00    -0.029 Br
ENDBRANCH  85  88
ENDBRANCH  80  84
BRANCH  81  95
ATOM     95  O   UNL A   1      31.754  21.698  22.115  1.00  0.00    -0.508 OA
ATOM     96  H   UNL A   1      32.207  20.898  21.935  1.00  0.00     0.293 HD
ENDBRANCH  81  95
ENDBRANCH  75  78
ENDBRANCH  73  74
ENDBRANCH  72  73
ENDBRANCH   1  72
TORSDOF 17
ENDMDL
MODEL 2
REMARK VINA RESULT:     -12.3      0.995      7.519
REMARK SMILES O=C(NCCCCNC(=O)c1cc(O)ccc1NC(=O)c1ccc(Br)nc1)c1ccc(-c2c3nc(c(-c4cc(S(=O)(=O)[O-])ccc4F)c4ccc([nH]4)c(-c4cc(S(=O)(=O)[O-])ccc4F)c4nc(c(-c5cc(S(=O)(=O)[O-])ccc5F)c5ccc2[nH]5)C=C4)C=C3)cc1
REMARK SMILES IDX 5 1 4 2 3 3 1 4 2 5 28 7 29 8 90 9 30 10 89 11 31 12 32 13
REMARK SMILES IDX 33 14 83 15 34 16 88 17 82 18 84 19 35 20 87 21 81 22 80 23
REMARK SMILES IDX 36 25 68 26 48 27 67 28 49 29 52 30 66 31 85 32 50 33 51 34
REMARK SMILES IDX 65 36 86 37 53 38 37 39 38 40 46 41 39 42 45 43 47 44 44 45
REMARK SMILES IDX 40 46 41 47 42 48 43 49 69 50 70 51 78 52 71 53 77 54 79 55
REMARK SMILES IDX 76 56 72 57 73 58 74 59 75 60 54 61 55 62 63 63 56 64 62 65
REMARK SMILES IDX 64 66 61 67 57 68 58 69 59 70 60 71 6 72 7 73 8 74 9 75
REMARK SMILES IDX 10 77 11 78 12 79 17 80 13 81 16 82 15 83 18 84 19 85 20 87
REMARK SMILES IDX 21 88 22 89 27 90 23 91 26 92 24 93 25 94 14 95
REMARK H PARENT 3 6 84 24 52 35 8 76 18 86 14 96
REMARK Flexibility Score: inf
ROOT
ATOM      1  C   UNL A   1      35.405  21.137  25.281  1.00  0.00     0.023 C 
ENDROOT
BRANCH   1   2
ATOM      2  C   UNL A   1      36.851  21.553  25.042  1.00  0.00     0.116 C 
BRANCH   2   3
ATOM      3  N   UNL A   1      37.819  20.504  25.330  1.00  0.00    -0.352 N 
ATOM      4  O   UNL A   1      39.790  19.617  25.980  1.00  0.00    -0.269 OA
ATOM      5  C   UNL A   1      39.072  20.609  25.894  1.00  0.00     0.251 C 
ATOM      6  H   UNL A   1      37.540  19.591  25.087  1.00  0.00     0.163 HD
BRANCH   5   7
ATOM      7  C   UNL A   1      39.558  21.928  26.357  1.00  0.00     0.039 A 
ATOM      8  C   UNL A   1      38.935  23.103  25.937  1.00  0.00     0.014 A 
ATOM      9  C   UNL A   1      40.679  21.987  27.191  1.00  0.00     0.014 A 
ATOM     10  C   UNL A   1      39.534  24.330  26.199  1.00  0.00     0.010 A 
ATOM     11  C   UNL A   1      41.226  23.229  27.531  1.00  0.00     0.010 A 
ATOM     12  C   UNL A   1      40.688  24.410  26.997  1.00  0.00    -0.014 A 
BRANCH  12  13
ATOM     13  C   UNL A   1      41.296  25.743  27.258  1.00  0.00     0.031 A 
ATOM     14  C   UNL A   1      40.598  26.760  28.121  1.00  0.00     0.074 A 
ATOM     15  C   UNL A   1      42.518  26.007  26.756  1.00  0.00     0.049 A 
ATOM     16  N   UNL A   1      41.011  27.944  28.499  1.00  0.00    -0.248 NA
ATOM     17  C   UNL A   1      39.258  26.410  28.613  1.00  0.00     0.031 C 
ATOM     18  C   UNL A   1      43.287  25.102  25.900  1.00  0.00     0.029 A 
ATOM     19  N   UNL A   1      43.341  27.092  26.914  1.00  0.00    -0.354 N 
ATOM     20  C   UNL A   1      39.976  28.492  29.251  1.00  0.00     0.074 A 
ATOM     21  C   UNL A   1      38.903  27.519  29.248  1.00  0.00     0.031 C 
ATOM     22  C   UNL A   1      44.492  25.640  25.661  1.00  0.00     0.029 A 
ATOM     23  C   UNL A   1      44.559  26.953  26.291  1.00  0.00     0.049 A 
ATOM     24  H   UNL A   1      43.084  27.894  27.423  1.00  0.00     0.167 HD
ATOM     25  C   UNL A   1      39.928  29.689  29.889  1.00  0.00     0.034 A 
ATOM     26  C   UNL A   1      45.612  27.790  26.227  1.00  0.00     0.034 A 
ATOM     27  C   UNL A   1      41.016  30.641  29.898  1.00  0.00     0.049 A 
ATOM     28  C   UNL A   1      45.530  29.114  26.934  1.00  0.00     0.074 A 
ATOM     29  C   UNL A   1      41.092  31.859  30.552  1.00  0.00     0.029 A 
ATOM     30  N   UNL A   1      42.216  30.486  29.217  1.00  0.00    -0.354 N 
ATOM     31  N   UNL A   1      44.550  29.605  27.657  1.00  0.00    -0.248 NA
ATOM     32  C   UNL A   1      46.697  29.995  26.816  1.00  0.00     0.031 C 
ATOM     33  C   UNL A   1      42.307  32.466  30.216  1.00  0.00     0.029 A 
ATOM     34  C   UNL A   1      43.023  31.598  29.408  1.00  0.00     0.049 A 
ATOM     35  H   UNL A   1      42.459  29.700  28.676  1.00  0.00     0.167 HD
ATOM     36  C   UNL A   1      44.992  30.849  28.095  1.00  0.00     0.074 A 
ATOM     37  C   UNL A   1      46.334  31.020  27.572  1.00  0.00     0.031 C 
ATOM     38  C   UNL A   1      44.349  31.766  28.860  1.00  0.00     0.034 A 
BRANCH  25  39
ATOM     39  C   UNL A   1      38.639  30.055  30.589  1.00  0.00     0.023 A 
ATOM     40  C   UNL A   1      37.618  30.774  29.943  1.00  0.00     0.031 A 
ATOM     41  C   UNL A   1      38.441  29.699  31.935  1.00  0.00     0.131 A 
ATOM     42  C   UNL A   1      36.481  31.176  30.661  1.00  0.00     0.055 A 
ATOM     43  C   UNL A   1      37.273  30.036  32.624  1.00  0.00     0.041 A 
ATOM     44  F   UNL A   1      39.387  29.028  32.611  1.00  0.00    -0.206 F 
ATOM     45  C   UNL A   1      36.291  30.793  31.992  1.00  0.00     0.022 A 
BRANCH  42  46
ATOM     46  S   UNL A   1      35.323  32.332  29.878  1.00  0.00     0.124 S 
ATOM     47  O   UNL A   1      34.388  32.600  30.967  1.00  0.00    -0.237 OA
ATOM     48  O   UNL A   1      36.194  33.437  29.496  1.00  0.00    -0.237 OA
ATOM     49  O   UNL A   1      34.768  31.561  28.766  1.00  0.00    -0.744 OA
ENDBRANCH  42  46
ENDBRANCH  25  39
BRANCH  26  50
ATOM     50  C   UNL A   1      46.824  27.407  25.453  1.00  0.00     0.023 A 
ATOM     51  C   UNL A   1      46.985  27.804  24.117  1.00  0.00     0.031 A 
ATOM     52  C   UNL A   1      47.835  26.624  26.037  1.00  0.00     0.131 A 
ATOM     53  C   UNL A   1      48.115  27.388  23.396  1.00  0.00     0.055 A 
ATOM     54  C   UNL A   1      48.980  26.252  25.332  1.00  0.00     0.041 A 
ATOM     55  F   UNL A   1      47.732  26.225  27.315  1.00  0.00    -0.206 F 
ATOM     56  C   UNL A   1      49.120  26.627  23.999  1.00  0.00     0.022 A 
BRANCH  53  57
ATOM     57  S   UNL A   1      48.227  27.808  21.636  1.00  0.00     0.124 S 
ATOM     58  O   UNL A   1      46.902  28.361  21.378  1.00  0.00    -0.237 OA
ATOM     59  O   UNL A   1      49.332  28.760  21.623  1.00  0.00    -0.237 OA
ATOM     60  O   UNL A   1      48.505  26.524  20.997  1.00  0.00    -0.744 OA
ENDBRANCH  53  57
ENDBRANCH  26  50
BRANCH  38  61
ATOM     61  C   UNL A   1      45.116  33.020  29.196  1.00  0.00     0.023 A 
ATOM     62  C   UNL A   1      45.029  34.173  28.394  1.00  0.00     0.031 A 
ATOM     63  C   UNL A   1      45.978  33.048  30.305  1.00  0.00     0.131 A 
ATOM     64  C   UNL A   1      45.839  35.282  28.676  1.00  0.00     0.055 A 
ATOM     65  C   UNL A   1      46.740  34.175  30.615  1.00  0.00     0.041 A 
ATOM     66  F   UNL A   1      46.102  31.973  31.102  1.00  0.00    -0.206 F 
ATOM     67  C   UNL A   1      46.685  35.296  29.789  1.00  0.00     0.022 A 
BRANCH  64  68
ATOM     68  S   UNL A   1      45.853  36.670  27.508  1.00  0.00     0.124 S 
ATOM     69  O   UNL A   1      44.449  37.069  27.492  1.00  0.00    -0.237 OA
ATOM     70  O   UNL A   1      46.775  37.605  28.146  1.00  0.00    -0.237 OA
ATOM     71  O   UNL A   1      46.340  36.069  26.267  1.00  0.00    -0.744 OA
ENDBRANCH  64  68
ENDBRANCH  38  61
ENDBRANCH  12  13
ENDBRANCH   5   7
ENDBRANCH   2   3
ENDBRANCH   1   2
BRANCH   1  72
ATOM     72  C   UNL A   1      34.806  21.569  26.615  1.00  0.00     0.023 C 
BRANCH  72  73
ATOM     73  C   UNL A   1      33.360  21.147  26.851  1.00  0.00     0.116 C 
BRANCH  73  74
ATOM     74  N   UNL A   1      32.502  22.239  27.294  1.00  0.00    -0.352 N 
ATOM     75  C   UNL A   1      32.081  23.345  26.592  1.00  0.00     0.253 C 
ATOM     76  H   UNL A   1      32.180  22.177  28.222  1.00  0.00     0.163 HD
ATOM     77  O   UNL A   1      31.458  24.249  27.140  1.00  0.00    -0.269 OA
BRANCH  75  78
ATOM     78  C   UNL A   1      32.447  23.470  25.168  1.00  0.00     0.067 A 
ATOM     79  C   UNL A   1      31.855  22.580  24.256  1.00  0.00     0.062 A 
ATOM     80  C   UNL A   1      33.409  24.412  24.757  1.00  0.00     0.054 A 
ATOM     81  C   UNL A   1      32.340  22.521  22.961  1.00  0.00     0.116 A 
ATOM     82  C   UNL A   1      33.938  24.255  23.472  1.00  0.00     0.031 A 
ATOM     83  C   UNL A   1      33.403  23.323  22.576  1.00  0.00     0.048 A 
BRANCH  80  84
ATOM     84  N   UNL A   1      33.803  25.444  25.647  1.00  0.00    -0.321 N 
ATOM     85  C   UNL A   1      33.628  26.810  25.624  1.00  0.00     0.257 C 
ATOM     86  H   UNL A   1      34.298  25.120  26.434  1.00  0.00     0.170 HD
ATOM     87  O   UNL A   1      34.194  27.540  26.435  1.00  0.00    -0.269 OA
BRANCH  85  88
ATOM     88  C   UNL A   1      32.720  27.445  24.664  1.00  0.00     0.058 A 
ATOM     89  C   UNL A   1      33.183  28.072  23.505  1.00  0.00     0.018 A 
ATOM     90  C   UNL A   1      31.361  27.463  24.936  1.00  0.00     0.126 A 
ATOM     91  C   UNL A   1      32.275  28.775  22.715  1.00  0.00     0.037 A 
ATOM     92  N   UNL A   1      30.461  28.141  24.185  1.00  0.00    -0.249 NA
ATOM     93  C   UNL A   1      30.940  28.796  23.101  1.00  0.00     0.106 A 
ATOM     94  Br  UNL A   1      29.713  29.833  22.093  1.00  0.00    -0.029 Br
ENDBRANCH  85  88
ENDBRANCH  80  84
BRANCH  81  95
ATOM     95  O   UNL A   1      31.834  21.650  22.045  1.00  0.00    -0.508 OA
ATOM     96  H   UNL A   1      30.923  21.677  21.827  1.00  0.00     0.293 HD
ENDBRANCH  81  95
ENDBRANCH  75  78
ENDBRANCH  73  74
ENDBRANCH  72  73
ENDBRANCH   1  72
TORSDOF 17
ENDMDL
MODEL 3
REMARK VINA RESULT:     -12.2      1.454      1.743
REMARK SMILES O=C(NCCCCNC(=O)c1cc(O)ccc1NC(=O)c1ccc(Br)nc1)c1ccc(-c2c3nc(c(-c4cc(S(=O)(=O)[O-])ccc4F)c4ccc([nH]4)c(-c4cc(S(=O)(=O)[O-])ccc4F)c4nc(c(-c5cc(S(=O)(=O)[O-])ccc5F)c5ccc2[nH]5)C=C4)C=C3)cc1
REMARK SMILES IDX 5 1 4 2 3 3 1 4 2 5 28 7 29 8 90 9 30 10 89 11 31 12 32 13
REMARK SMILES IDX 33 14 83 15 34 16 88 17 82 18 84 19 35 20 87 21 81 22 80 23
REMARK SMILES IDX 36 25 68 26 48 27 67 28 49 29 52 30 66 31 85 32 50 33 51 34
REMARK SMILES IDX 65 36 86 37 53 38 37 39 38 40 46 41 39 42 45 43 47 44 44 45
REMARK SMILES IDX 40 46 41 47 42 48 43 49 69 50 70 51 78 52 71 53 77 54 79 55
REMARK SMILES IDX 76 56 72 57 73 58 74 59 75 60 54 61 55 62 63 63 56 64 62 65
REMARK SMILES IDX 64 66 61 67 57 68 58 69 59 70 60 71 6 72 7 73 8 74 9 75
REMARK SMILES IDX 10 77 11 78 12 79 17 80 13 81 16 82 15 83 18 84 19 85 20 87
REMARK SMILES IDX 21 88 22 89 27 90 23 91 26 92 24 93 25 94 14 95
REMARK H PARENT 3 6 84 24 52 35 8 76 18 86 14 96
REMARK Flexibility Score: inf
ROOT
ATOM      1  C   UNL A   1      35.582  21.460  25.133  1.00  0.00     0.023 C 
ENDROOT
BRANCH   1   2
ATOM      2  C   UNL A   1      37.056  21.782  24.927  1.00  0.00     0.116 C 
BRANCH   2   3
ATOM      3  N   UNL A   1      37.950  20.685  25.271  1.00  0.00    -0.352 N 
ATOM      4  O   UNL A   1      39.814  19.698  26.074  1.00  0.00    -0.269 OA
ATOM      5  C   UNL A   1      39.147  20.721  25.952  1.00  0.00     0.251 C 
ATOM      6  H   UNL A   1      37.659  19.792  24.975  1.00  0.00     0.163 HD
BRANCH   5   7
ATOM      7  C   UNL A   1      39.639  22.005  26.501  1.00  0.00     0.039 A 
ATOM      8  C   UNL A   1      39.160  23.219  26.008  1.00  0.00     0.014 A 
ATOM      9  C   UNL A   1      40.624  21.990  27.493  1.00  0.00     0.014 A 
ATOM     10  C   UNL A   1      39.788  24.404  26.373  1.00  0.00     0.010 A 
ATOM     11  C   UNL A   1      41.190  23.194  27.928  1.00  0.00     0.010 A 
ATOM     12  C   UNL A   1      40.812  24.408  27.334  1.00  0.00    -0.014 A 
BRANCH  12  13
ATOM     13  C   UNL A   1      41.455  25.698  27.701  1.00  0.00     0.031 A 
ATOM     14  C   UNL A   1      42.838  26.044  27.216  1.00  0.00     0.074 A 
ATOM     15  C   UNL A   1      40.754  26.588  28.431  1.00  0.00     0.049 A 
ATOM     16  N   UNL A   1      43.523  27.147  27.392  1.00  0.00    -0.248 NA
ATOM     17  C   UNL A   1      43.551  25.015  26.446  1.00  0.00     0.031 C 
ATOM     18  C   UNL A   1      39.408  26.361  28.964  1.00  0.00     0.029 A 
ATOM     19  N   UNL A   1      41.055  27.866  28.826  1.00  0.00    -0.354 N 
ATOM     20  C   UNL A   1      44.754  26.939  26.778  1.00  0.00     0.074 A 
ATOM     21  C   UNL A   1      44.731  25.589  26.251  1.00  0.00     0.031 C 
ATOM     22  C   UNL A   1      38.976  27.481  29.559  1.00  0.00     0.029 A 
ATOM     23  C   UNL A   1      40.033  28.485  29.508  1.00  0.00     0.049 A 
ATOM     24  H   UNL A   1      41.919  28.298  28.640  1.00  0.00     0.167 HD
ATOM     25  C   UNL A   1      45.801  27.794  26.658  1.00  0.00     0.034 A 
ATOM     26  C   UNL A   1      39.955  29.719  30.040  1.00  0.00     0.034 A 
ATOM     27  C   UNL A   1      45.802  29.144  27.172  1.00  0.00     0.049 A 
ATOM     28  C   UNL A   1      41.133  30.644  29.901  1.00  0.00     0.074 A 
ATOM     29  C   UNL A   1      46.788  30.110  27.064  1.00  0.00     0.029 A 
ATOM     30  N   UNL A   1      44.767  29.720  27.898  1.00  0.00    -0.354 N 
ATOM     31  N   UNL A   1      42.280  30.435  29.299  1.00  0.00    -0.248 NA
ATOM     32  C   UNL A   1      41.002  31.970  30.515  1.00  0.00     0.031 C 
ATOM     33  C   UNL A   1      46.378  31.243  27.775  1.00  0.00     0.029 A 
ATOM     34  C   UNL A   1      45.105  31.013  28.271  1.00  0.00     0.049 A 
ATOM     35  H   UNL A   1      43.917  29.275  28.118  1.00  0.00     0.167 HD
ATOM     36  C   UNL A   1      43.003  31.614  29.448  1.00  0.00     0.074 A 
ATOM     37  C   UNL A   1      42.152  32.534  30.177  1.00  0.00     0.031 C 
ATOM     38  C   UNL A   1      44.256  31.911  29.020  1.00  0.00     0.034 A 
BRANCH  25  39
ATOM     39  C   UNL A   1      47.051  27.274  25.984  1.00  0.00     0.023 A 
ATOM     40  C   UNL A   1      48.036  26.560  26.689  1.00  0.00     0.031 A 
ATOM     41  C   UNL A   1      47.272  27.522  24.618  1.00  0.00     0.131 A 
ATOM     42  C   UNL A   1      49.225  26.183  26.045  1.00  0.00     0.055 A 
ATOM     43  C   UNL A   1      48.423  27.078  23.963  1.00  0.00     0.041 A 
ATOM     44  F   UNL A   1      46.377  28.215  23.896  1.00  0.00    -0.206 F 
ATOM     45  C   UNL A   1      49.416  26.418  24.680  1.00  0.00     0.022 A 
BRANCH  42  46
ATOM     46  S   UNL A   1      50.581  25.515  27.048  1.00  0.00     0.124 S 
ATOM     47  O   UNL A   1      51.610  25.283  26.038  1.00  0.00    -0.237 OA
ATOM     48  O   UNL A   1      50.840  26.599  27.987  1.00  0.00    -0.237 OA
ATOM     49  O   UNL A   1      50.010  24.303  27.633  1.00  0.00    -0.744 OA
ENDBRANCH  42  46
ENDBRANCH  25  39
BRANCH  26  50
ATOM     50  C   UNL A   1      38.726  30.145  30.763  1.00  0.00     0.023 A 
ATOM     51  C   UNL A   1      37.711  30.858  30.107  1.00  0.00     0.031 A 
ATOM     52  C   UNL A   1      38.556  29.856  32.128  1.00  0.00     0.131 A 
ATOM     53  C   UNL A   1      36.585  31.288  30.825  1.00  0.00     0.055 A 
ATOM     54  C   UNL A   1      37.413  30.245  32.827  1.00  0.00     0.041 A 
ATOM     55  F   UNL A   1      39.495  29.170  32.799  1.00  0.00    -0.206 F 
ATOM     56  C   UNL A   1      36.423  30.975  32.177  1.00  0.00     0.022 A 
BRANCH  53  57
ATOM     57  S   UNL A   1      35.356  32.319  29.978  1.00  0.00     0.124 S 
ATOM     58  O   UNL A   1      36.152  33.483  29.604  1.00  0.00    -0.237 OA
ATOM     59  O   UNL A   1      34.936  31.451  28.884  1.00  0.00    -0.237 OA
ATOM     60  O   UNL A   1      34.345  32.557  31.006  1.00  0.00    -0.744 OA
ENDBRANCH  53  57
ENDBRANCH  26  50
BRANCH  38  61
ATOM     61  C   UNL A   1      44.755  33.304  29.311  1.00  0.00     0.023 A 
ATOM     62  C   UNL A   1      44.560  34.360  28.403  1.00  0.00     0.031 A 
ATOM     63  C   UNL A   1      45.472  33.566  30.491  1.00  0.00     0.131 A 
ATOM     64  C   UNL A   1      45.132  35.615  28.660  1.00  0.00     0.055 A 
ATOM     65  C   UNL A   1      45.990  34.833  30.768  1.00  0.00     0.041 A 
ATOM     66  F   UNL A   1      45.689  32.593  31.390  1.00  0.00    -0.206 F 
ATOM     67  C   UNL A   1      45.834  35.862  29.842  1.00  0.00     0.022 A 
BRANCH  64  68
ATOM     68  S   UNL A   1      45.036  36.894  27.376  1.00  0.00     0.124 S 
ATOM     69  O   UNL A   1      43.652  36.774  26.929  1.00  0.00    -0.237 OA
ATOM     70  O   UNL A   1      45.364  38.106  28.120  1.00  0.00    -0.237 OA
ATOM     71  O   UNL A   1      46.040  36.476  26.399  1.00  0.00    -0.744 OA
ENDBRANCH  64  68
ENDBRANCH  38  61
ENDBRANCH  12  13
ENDBRANCH   5   7
ENDBRANCH   2   3
ENDBRANCH   1   2
BRANCH   1  72
ATOM     72  C   UNL A   1      35.025  21.772  26.518  1.00  0.00     0.023 C 
BRANCH  72  73
ATOM     73  C   UNL A   1      33.633  21.219  26.805  1.00  0.00     0.116 C 
BRANCH  73  74
ATOM     74  N   UNL A   1      32.710  22.217  27.331  1.00  0.00    -0.352 N 
ATOM     75  C   UNL A   1      32.156  23.302  26.694  1.00  0.00     0.253 C 
ATOM     76  H   UNL A   1      32.447  22.098  28.273  1.00  0.00     0.163 HD
ATOM     77  O   UNL A   1      31.489  24.131  27.306  1.00  0.00    -0.269 OA
BRANCH  75  78
ATOM     78  C   UNL A   1      32.428  23.504  25.257  1.00  0.00     0.067 A 
ATOM     79  C   UNL A   1      31.786  22.655  24.341  1.00  0.00     0.062 A 
ATOM     80  C   UNL A   1      33.355  24.475  24.835  1.00  0.00     0.054 A 
ATOM     81  C   UNL A   1      32.186  22.667  23.016  1.00  0.00     0.116 A 
ATOM     82  C   UNL A   1      33.801  24.390  23.512  1.00  0.00     0.031 A 
ATOM     83  C   UNL A   1      33.216  23.499  22.605  1.00  0.00     0.048 A 
BRANCH  80  84
ATOM     84  N   UNL A   1      33.798  25.465  25.749  1.00  0.00    -0.321 N 
ATOM     85  C   UNL A   1      33.495  26.801  25.894  1.00  0.00     0.257 C 
ATOM     86  H   UNL A   1      34.448  25.132  26.408  1.00  0.00     0.170 HD
ATOM     87  O   UNL A   1      34.120  27.517  26.672  1.00  0.00    -0.269 OA
BRANCH  85  88
ATOM     88  C   UNL A   1      32.380  27.413  25.163  1.00  0.00     0.058 A 
ATOM     89  C   UNL A   1      31.091  26.877  25.190  1.00  0.00     0.018 A 
ATOM     90  C   UNL A   1      32.623  28.534  24.386  1.00  0.00     0.126 A 
ATOM     91  C   UNL A   1      30.118  27.430  24.359  1.00  0.00     0.037 A 
ATOM     92  N   UNL A   1      31.694  29.087  23.569  1.00  0.00    -0.249 NA
ATOM     93  C   UNL A   1      30.469  28.513  23.561  1.00  0.00     0.106 A 
ATOM     94  Br  UNL A   1      29.185  29.210  22.351  1.00  0.00    -0.029 Br
ENDBRANCH  85  88
ENDBRANCH  80  84
BRANCH  81  95
ATOM     95  O   UNL A   1      31.628  21.838  22.091  1.00  0.00    -0.508 OA
ATOM     96  H   UNL A   1      32.110  21.602  21.323  1.00  0.00     0.293 HD
ENDBRANCH  81  95
ENDBRANCH  75  78
ENDBRANCH  73  74
ENDBRANCH  72  73
ENDBRANCH   1  72
TORSDOF 17
ENDMDL
