MODEL 1
REMARK VINA RESULT:     -11.0      0.000      0.000
REMARK SMILES CN(C)C(=O)CSc1ccc(C(=O)NCCCCNC(=O)c2ccc(-c3c4nc(c(-c5cc(S(=O)(=O)[O-])ccc5F)c5ccc([nH]5)c(-c5cc(S(=O)(=O)[O-])ccc5F)c5nc(c(-c6cc(S(=O)(=O)[O-])ccc6F)c6ccc3[nH]6)C=C5)C=C4)cc2)cc1
REMARK SMILES IDX 16 1 15 2 14 3 12 4 13 5 11 7 8 8 9 9 86 10 10 11 85 12 7 13
REMARK SMILES IDX 6 14 4 15 1 16 2 17 3 18 5 19 17 20 18 21 19 22 20 23 21 25
REMARK SMILES IDX 22 26 23 27 84 28 24 29 83 30 25 31 26 32 27 33 77 34 28 35
REMARK SMILES IDX 82 36 76 37 78 38 29 39 81 40 75 41 74 42 30 44 62 45 42 46
REMARK SMILES IDX 61 47 43 48 46 49 60 50 79 51 44 52 45 53 59 55 80 56 47 57
REMARK SMILES IDX 31 58 32 59 40 60 33 61 39 62 41 63 38 64 34 65 35 66 36 67
REMARK SMILES IDX 37 68 63 69 64 70 72 71 65 72 71 73 73 74 70 75 66 76 67 77
REMARK SMILES IDX 68 78 69 79 48 80 49 81 57 82 50 83 56 84 58 85 55 86 51 87
REMARK SMILES IDX 52 88 53 89 54 90
REMARK H PARENT 14 6 19 24 78 43 46 54
REMARK Flexibility Score: inf
ROOT
ATOM      1  C   UNL A   1      31.191  29.181  23.768  1.00  0.00     0.023 C 
ENDROOT
BRANCH   1   2
ATOM      2  C   UNL A   1      30.788  28.059  22.807  1.00  0.00     0.116 C 
BRANCH   2   3
ATOM      3  N   UNL A   1      31.927  27.617  22.026  1.00  0.00    -0.352 N 
ATOM      4  C   UNL A   1      32.787  26.560  22.184  1.00  0.00     0.251 C 
ATOM      5  O   UNL A   1      33.653  26.387  21.326  1.00  0.00    -0.269 OA
ATOM      6  H   UNL A   1      32.118  28.177  21.239  1.00  0.00     0.163 HD
BRANCH   4   7
ATOM      7  C   UNL A   1      32.693  25.589  23.311  1.00  0.00     0.039 A 
ATOM      8  C   UNL A   1      32.616  23.849  25.549  1.00  0.00     0.008 A 
ATOM      9  C   UNL A   1      33.384  25.019  25.577  1.00  0.00     0.016 A 
ATOM     10  C   UNL A   1      31.894  23.562  24.392  1.00  0.00     0.016 A 
ATOM     11  C   UNL A   1      33.426  25.876  24.470  1.00  0.00     0.015 A 
ATOM     12  C   UNL A   1      31.898  24.444  23.306  1.00  0.00     0.015 A 
BRANCH   8  13
ATOM     13  S   UNL A   1      32.635  22.813  27.002  1.00  0.00    -0.116 SA
BRANCH  13  14
ATOM     14  C   UNL A   1      34.409  22.483  27.299  1.00  0.00     0.175 C 
BRANCH  14  15
ATOM     15  C   UNL A   1      35.126  21.828  26.126  1.00  0.00     0.232 C 
ATOM     16  C   UNL A   1      36.983  21.674  24.577  1.00  0.00     0.146 C 
ATOM     17  N   UNL A   1      36.250  22.428  25.580  1.00  0.00    -0.348 N 
ATOM     18  C   UNL A   1      36.811  23.701  26.000  1.00  0.00     0.146 C 
ATOM     19  O   UNL A   1      34.670  20.781  25.651  1.00  0.00    -0.274 OA
ENDBRANCH  14  15
ENDBRANCH  13  14
ENDBRANCH   8  13
ENDBRANCH   4   7
ENDBRANCH   2   3
ENDBRANCH   1   2
BRANCH   1  20
ATOM     20  C   UNL A   1      31.546  28.705  25.178  1.00  0.00     0.023 C 
BRANCH  20  21
ATOM     21  C   UNL A   1      32.669  29.485  25.852  1.00  0.00     0.116 C 
BRANCH  21  22
ATOM     22  N   UNL A   1      32.286  30.841  26.215  1.00  0.00    -0.352 N 
ATOM     23  C   UNL A   1      32.938  31.716  27.055  1.00  0.00     0.251 C 
ATOM     24  H   UNL A   1      31.455  31.175  25.808  1.00  0.00     0.163 HD
ATOM     25  O   UNL A   1      32.423  32.787  27.343  1.00  0.00    -0.269 OA
BRANCH  23  26
ATOM     26  C   UNL A   1      34.238  31.319  27.637  1.00  0.00     0.039 A 
ATOM     27  C   UNL A   1      35.216  32.298  27.823  1.00  0.00     0.014 A 
ATOM     28  C   UNL A   1      34.470  30.000  28.035  1.00  0.00     0.014 A 
ATOM     29  C   UNL A   1      36.405  31.967  28.475  1.00  0.00     0.010 A 
ATOM     30  C   UNL A   1      35.627  29.688  28.744  1.00  0.00     0.010 A 
ATOM     31  C   UNL A   1      36.604  30.668  28.973  1.00  0.00    -0.014 A 
BRANCH  31  32
ATOM     32  C   UNL A   1      37.827  30.317  29.739  1.00  0.00     0.031 A 
ATOM     33  C   UNL A   1      38.831  29.363  29.154  1.00  0.00     0.074 A 
ATOM     34  C   UNL A   1      37.994  30.803  30.985  1.00  0.00     0.049 A 
ATOM     35  N   UNL A   1      39.915  28.869  29.693  1.00  0.00    -0.248 NA
ATOM     36  C   UNL A   1      38.560  28.877  27.793  1.00  0.00     0.031 C 
ATOM     37  C   UNL A   1      37.066  31.701  31.674  1.00  0.00     0.029 A 
ATOM     38  N   UNL A   1      38.998  30.601  31.900  1.00  0.00    -0.354 N 
ATOM     39  C   UNL A   1      40.449  28.003  28.745  1.00  0.00     0.074 A 
ATOM     40  C   UNL A   1      39.534  27.997  27.622  1.00  0.00     0.031 C 
ATOM     41  C   UNL A   1      37.554  31.989  32.892  1.00  0.00     0.029 A 
ATOM     42  C   UNL A   1      38.806  31.266  33.089  1.00  0.00     0.049 A 
ATOM     43  H   UNL A   1      39.782  30.033  31.721  1.00  0.00     0.167 HD
ATOM     44  C   UNL A   1      41.605  27.295  28.798  1.00  0.00     0.034 A 
ATOM     45  C   UNL A   1      39.548  31.281  34.213  1.00  0.00     0.034 A 
ATOM     46  C   UNL A   1      42.512  27.327  29.919  1.00  0.00     0.049 A 
ATOM     47  C   UNL A   1      40.823  30.476  34.253  1.00  0.00     0.074 A 
ATOM     48  C   UNL A   1      43.738  26.699  30.053  1.00  0.00     0.029 A 
ATOM     49  N   UNL A   1      42.290  28.019  31.103  1.00  0.00    -0.354 N 
ATOM     50  N   UNL A   1      41.342  29.703  33.326  1.00  0.00    -0.248 NA
ATOM     51  C   UNL A   1      41.617  30.556  35.485  1.00  0.00     0.031 C 
ATOM     52  C   UNL A   1      44.227  26.960  31.339  1.00  0.00     0.029 A 
ATOM     53  C   UNL A   1      43.341  27.809  31.983  1.00  0.00     0.049 A 
ATOM     54  H   UNL A   1      41.500  28.576  31.290  1.00  0.00     0.167 HD
ATOM     55  C   UNL A   1      42.539  29.231  33.854  1.00  0.00     0.074 A 
ATOM     56  C   UNL A   1      42.670  29.815  35.173  1.00  0.00     0.031 C 
ATOM     57  C   UNL A   1      43.452  28.393  33.298  1.00  0.00     0.034 A 
BRANCH  44  58
ATOM     58  C   UNL A   1      41.932  26.412  27.617  1.00  0.00     0.023 A 
ATOM     59  C   UNL A   1      41.512  25.071  27.559  1.00  0.00     0.031 A 
ATOM     60  C   UNL A   1      42.700  26.907  26.549  1.00  0.00     0.131 A 
ATOM     61  C   UNL A   1      41.927  24.252  26.498  1.00  0.00     0.055 A 
ATOM     62  C   UNL A   1      43.041  26.108  25.454  1.00  0.00     0.041 A 
ATOM     63  F   UNL A   1      43.148  28.172  26.557  1.00  0.00    -0.206 F 
ATOM     64  C   UNL A   1      42.668  24.768  25.433  1.00  0.00     0.022 A 
BRANCH  61  65
ATOM     65  S   UNL A   1      41.608  22.470  26.605  1.00  0.00     0.124 S 
ATOM     66  O   UNL A   1      40.148  22.434  26.652  1.00  0.00    -0.237 OA
ATOM     67  O   UNL A   1      42.220  21.965  25.382  1.00  0.00    -0.237 OA
ATOM     68  O   UNL A   1      42.274  22.076  27.845  1.00  0.00    -0.744 OA
ENDBRANCH  61  65
ENDBRANCH  44  58
BRANCH  45  69
ATOM     69  C   UNL A   1      39.114  32.074  35.397  1.00  0.00     0.023 A 
ATOM     70  C   UNL A   1      39.579  33.384  35.598  1.00  0.00     0.031 A 
ATOM     71  C   UNL A   1      38.262  31.521  36.369  1.00  0.00     0.131 A 
ATOM     72  C   UNL A   1      39.230  34.079  36.767  1.00  0.00     0.055 A 
ATOM     73  C   UNL A   1      37.876  32.235  37.505  1.00  0.00     0.041 A 
ATOM     74  F   UNL A   1      37.783  30.275  36.222  1.00  0.00    -0.206 F 
ATOM     75  C   UNL A   1      38.372  33.518  37.715  1.00  0.00     0.022 A 
BRANCH  72  76
ATOM     76  S   UNL A   1      39.985  35.700  37.070  1.00  0.00     0.124 S 
ATOM     77  O   UNL A   1      39.299  36.126  38.285  1.00  0.00    -0.237 OA
ATOM     78  O   UNL A   1      41.395  35.353  37.217  1.00  0.00    -0.237 OA
ATOM     79  O   UNL A   1      39.654  36.459  35.866  1.00  0.00    -0.744 OA
ENDBRANCH  72  76
ENDBRANCH  45  69
BRANCH  57  80
ATOM     80  C   UNL A   1      44.694  28.104  34.105  1.00  0.00     0.023 A 
ATOM     81  C   UNL A   1      44.771  27.005  34.978  1.00  0.00     0.031 A 
ATOM     82  C   UNL A   1      45.812  28.952  34.005  1.00  0.00     0.131 A 
ATOM     83  C   UNL A   1      45.922  26.813  35.758  1.00  0.00     0.055 A 
ATOM     84  C   UNL A   1      46.975  28.722  34.740  1.00  0.00     0.041 A 
ATOM     85  F   UNL A   1      45.791  30.016  33.187  1.00  0.00    -0.206 F 
ATOM     86  C   UNL A   1      47.030  27.656  35.633  1.00  0.00     0.022 A 
BRANCH  83  87
ATOM     87  S   UNL A   1      45.918  25.496  37.005  1.00  0.00     0.124 S 
ATOM     88  O   UNL A   1      46.812  26.039  38.023  1.00  0.00    -0.237 OA
ATOM     89  O   UNL A   1      44.508  25.417  37.371  1.00  0.00    -0.237 OA
ATOM     90  O   UNL A   1      46.436  24.337  36.281  1.00  0.00    -0.744 OA
ENDBRANCH  83  87
ENDBRANCH  57  80
ENDBRANCH  31  32
ENDBRANCH  23  26
ENDBRANCH  21  22
ENDBRANCH  20  21
ENDBRANCH   1  20
TORSDOF 17
ENDMDL
MODEL 2
REMARK VINA RESULT:     -10.9      2.685      3.510
REMARK SMILES CN(C)C(=O)CSc1ccc(C(=O)NCCCCNC(=O)c2ccc(-c3c4nc(c(-c5cc(S(=O)(=O)[O-])ccc5F)c5ccc([nH]5)c(-c5cc(S(=O)(=O)[O-])ccc5F)c5nc(c(-c6cc(S(=O)(=O)[O-])ccc6F)c6ccc3[nH]6)C=C5)C=C4)cc2)cc1
REMARK SMILES IDX 16 1 15 2 14 3 12 4 13 5 11 7 8 8 9 9 86 10 10 11 85 12 7 13
REMARK SMILES IDX 6 14 4 15 1 16 2 17 3 18 5 19 17 20 18 21 19 22 20 23 21 25
REMARK SMILES IDX 22 26 23 27 84 28 24 29 83 30 25 31 26 32 27 33 77 34 28 35
REMARK SMILES IDX 82 36 76 37 78 38 29 39 81 40 75 41 74 42 30 44 62 45 42 46
REMARK SMILES IDX 61 47 43 48 46 49 60 50 79 51 44 52 45 53 59 55 80 56 47 57
REMARK SMILES IDX 31 58 32 59 40 60 33 61 39 62 41 63 38 64 34 65 35 66 36 67
REMARK SMILES IDX 37 68 63 69 64 70 72 71 65 72 71 73 73 74 70 75 66 76 67 77
REMARK SMILES IDX 68 78 69 79 48 80 49 81 57 82 50 83 56 84 58 85 55 86 51 87
REMARK SMILES IDX 52 88 53 89 54 90
REMARK H PARENT 14 6 19 24 78 43 46 54
REMARK Flexibility Score: inf
ROOT
ATOM      1  C   UNL A   1      32.089  30.123  26.701  1.00  0.00     0.023 C 
ENDROOT
BRANCH   1   2
ATOM      2  C   UNL A   1      32.528  29.634  25.318  1.00  0.00     0.116 C 
BRANCH   2   3
ATOM      3  N   UNL A   1      31.409  29.635  24.395  1.00  0.00    -0.352 N 
ATOM      4  C   UNL A   1      30.574  28.631  23.972  1.00  0.00     0.251 C 
ATOM      5  O   UNL A   1      29.657  28.928  23.205  1.00  0.00    -0.269 OA
ATOM      6  H   UNL A   1      31.212  30.515  24.000  1.00  0.00     0.163 HD
BRANCH   4   7
ATOM      7  C   UNL A   1      30.695  27.218  24.429  1.00  0.00     0.039 A 
ATOM      8  C   UNL A   1      30.915  24.480  25.133  1.00  0.00     0.008 A 
ATOM      9  C   UNL A   1      30.731  24.864  23.800  1.00  0.00     0.016 A 
ATOM     10  C   UNL A   1      30.984  25.477  26.104  1.00  0.00     0.016 A 
ATOM     11  C   UNL A   1      30.618  26.216  23.453  1.00  0.00     0.015 A 
ATOM     12  C   UNL A   1      30.921  26.829  25.749  1.00  0.00     0.015 A 
BRANCH   8  13
ATOM     13  S   UNL A   1      31.036  22.734  25.480  1.00  0.00    -0.116 SA
BRANCH  13  14
ATOM     14  C   UNL A   1      32.582  22.213  24.654  1.00  0.00     0.175 C 
BRANCH  14  15
ATOM     15  C   UNL A   1      32.398  21.095  23.636  1.00  0.00     0.232 C 
ATOM     16  C   UNL A   1      32.247  18.749  23.049  1.00  0.00     0.146 C 
ATOM     17  N   UNL A   1      32.599  19.776  24.014  1.00  0.00    -0.348 N 
ATOM     18  C   UNL A   1      33.031  19.335  25.329  1.00  0.00     0.146 C 
ATOM     19  O   UNL A   1      32.106  21.385  22.470  1.00  0.00    -0.274 OA
ENDBRANCH  14  15
ENDBRANCH  13  14
ENDBRANCH   8  13
ENDBRANCH   4   7
ENDBRANCH   2   3
ENDBRANCH   1   2
BRANCH   1  20
ATOM     20  C   UNL A   1      31.813  31.626  26.779  1.00  0.00     0.023 C 
BRANCH  20  21
ATOM     21  C   UNL A   1      32.945  32.452  27.380  1.00  0.00     0.116 C 
BRANCH  21  22
ATOM     22  N   UNL A   1      32.574  33.837  27.629  1.00  0.00    -0.352 N 
ATOM     23  C   UNL A   1      33.116  34.715  28.539  1.00  0.00     0.251 C 
ATOM     24  H   UNL A   1      31.841  34.190  27.075  1.00  0.00     0.163 HD
ATOM     25  O   UNL A   1      32.615  35.819  28.700  1.00  0.00    -0.269 OA
BRANCH  23  26
ATOM     26  C   UNL A   1      34.277  34.286  29.347  1.00  0.00     0.039 A 
ATOM     27  C   UNL A   1      34.049  33.538  30.505  1.00  0.00     0.014 A 
ATOM     28  C   UNL A   1      35.581  34.582  28.941  1.00  0.00     0.014 A 
ATOM     29  C   UNL A   1      35.133  33.026  31.219  1.00  0.00     0.010 A 
ATOM     30  C   UNL A   1      36.659  34.015  29.616  1.00  0.00     0.010 A 
ATOM     31  C   UNL A   1      36.446  33.229  30.759  1.00  0.00    -0.014 A 
BRANCH  31  32
ATOM     32  C   UNL A   1      37.608  32.626  31.459  1.00  0.00     0.031 A 
ATOM     33  C   UNL A   1      38.349  31.478  30.832  1.00  0.00     0.074 A 
ATOM     34  C   UNL A   1      37.949  33.068  32.686  1.00  0.00     0.049 A 
ATOM     35  N   UNL A   1      39.333  30.765  31.316  1.00  0.00    -0.248 NA
ATOM     36  C   UNL A   1      37.900  31.057  29.497  1.00  0.00     0.031 C 
ATOM     37  C   UNL A   1      37.276  34.147  33.413  1.00  0.00     0.029 A 
ATOM     38  N   UNL A   1      38.939  32.659  33.544  1.00  0.00    -0.354 N 
ATOM     39  C   UNL A   1      39.612  29.802  30.352  1.00  0.00     0.074 A 
ATOM     40  C   UNL A   1      38.652  29.989  29.283  1.00  0.00     0.031 C 
ATOM     41  C   UNL A   1      37.886  34.327  34.596  1.00  0.00     0.029 A 
ATOM     42  C   UNL A   1      38.963  33.353  34.732  1.00  0.00     0.049 A 
ATOM     43  H   UNL A   1      39.572  31.936  33.330  1.00  0.00     0.167 HD
ATOM     44  C   UNL A   1      40.591  28.863  30.349  1.00  0.00     0.034 A 
ATOM     45  C   UNL A   1      39.757  33.212  35.812  1.00  0.00     0.034 A 
ATOM     46  C   UNL A   1      41.549  28.703  31.416  1.00  0.00     0.049 A 
ATOM     47  C   UNL A   1      40.831  32.152  35.791  1.00  0.00     0.074 A 
ATOM     48  C   UNL A   1      42.619  27.828  31.489  1.00  0.00     0.029 A 
ATOM     49  N   UNL A   1      41.550  29.430  32.600  1.00  0.00    -0.354 N 
ATOM     50  N   UNL A   1      41.117  31.284  34.848  1.00  0.00    -0.248 NA
ATOM     51  C   UNL A   1      41.695  32.064  36.974  1.00  0.00     0.031 C 
ATOM     52  C   UNL A   1      43.227  27.982  32.741  1.00  0.00     0.029 A 
ATOM     53  C   UNL A   1      42.583  29.003  33.421  1.00  0.00     0.049 A 
ATOM     54  H   UNL A   1      40.910  30.144  32.824  1.00  0.00     0.167 HD
ATOM     55  C   UNL A   1      42.215  30.568  35.314  1.00  0.00     0.074 A 
ATOM     56  C   UNL A   1      42.546  31.114  36.614  1.00  0.00     0.031 C 
ATOM     57  C   UNL A   1      42.894  29.553  34.719  1.00  0.00     0.034 A 
BRANCH  44  58
ATOM     58  C   UNL A   1      40.652  27.927  29.165  1.00  0.00     0.023 A 
ATOM     59  C   UNL A   1      41.591  28.101  28.133  1.00  0.00     0.031 A 
ATOM     60  C   UNL A   1      39.738  26.864  29.051  1.00  0.00     0.131 A 
ATOM     61  C   UNL A   1      41.546  27.277  26.998  1.00  0.00     0.055 A 
ATOM     62  C   UNL A   1      39.752  25.996  27.956  1.00  0.00     0.041 A 
ATOM     63  F   UNL A   1      38.805  26.660  29.993  1.00  0.00    -0.206 F 
ATOM     64  C   UNL A   1      40.649  26.211  26.914  1.00  0.00     0.022 A 
BRANCH  61  65
ATOM     65  S   UNL A   1      42.578  27.712  25.572  1.00  0.00     0.124 S 
ATOM     66  O   UNL A   1      41.869  28.871  25.036  1.00  0.00    -0.237 OA
ATOM     67  O   UNL A   1      43.871  27.984  26.190  1.00  0.00    -0.237 OA
ATOM     68  O   UNL A   1      42.527  26.516  24.734  1.00  0.00    -0.744 OA
ENDBRANCH  61  65
ENDBRANCH  44  58
BRANCH  45  69
ATOM     69  C   UNL A   1      39.573  34.082  37.007  1.00  0.00     0.023 A 
ATOM     70  C   UNL A   1      38.981  33.583  38.178  1.00  0.00     0.031 A 
ATOM     71  C   UNL A   1      39.945  35.438  36.982  1.00  0.00     0.131 A 
ATOM     72  C   UNL A   1      38.734  34.444  39.259  1.00  0.00     0.055 A 
ATOM     73  C   UNL A   1      39.743  36.279  38.079  1.00  0.00     0.041 A 
ATOM     74  F   UNL A   1      40.521  35.964  35.889  1.00  0.00    -0.206 F 
ATOM     75  C   UNL A   1      39.122  35.785  39.221  1.00  0.00     0.022 A 
BRANCH  72  76
ATOM     76  S   UNL A   1      37.817  33.803  40.687  1.00  0.00     0.124 S 
ATOM     77  O   UNL A   1      37.629  35.008  41.487  1.00  0.00    -0.237 OA
ATOM     78  O   UNL A   1      36.619  33.258  40.056  1.00  0.00    -0.237 OA
ATOM     79  O   UNL A   1      38.726  32.810  41.256  1.00  0.00    -0.744 OA
ENDBRANCH  72  76
ENDBRANCH  45  69
BRANCH  57  80
ATOM     80  C   UNL A   1      44.091  29.007  35.458  1.00  0.00     0.023 A 
ATOM     81  C   UNL A   1      43.972  27.959  36.387  1.00  0.00     0.031 A 
ATOM     82  C   UNL A   1      45.366  29.555  35.234  1.00  0.00     0.131 A 
ATOM     83  C   UNL A   1      45.102  27.527  37.099  1.00  0.00     0.055 A 
ATOM     84  C   UNL A   1      46.495  29.083  35.904  1.00  0.00     0.041 A 
ATOM     85  F   UNL A   1      45.534  30.558  34.359  1.00  0.00    -0.206 F 
ATOM     86  C   UNL A   1      46.365  28.073  36.852  1.00  0.00     0.022 A 
BRANCH  83  87
ATOM     87  S   UNL A   1      44.884  26.303  38.420  1.00  0.00     0.124 S 
ATOM     88  O   UNL A   1      45.381  25.084  37.790  1.00  0.00    -0.237 OA
ATOM     89  O   UNL A   1      45.711  26.849  39.491  1.00  0.00    -0.237 OA
ATOM     90  O   UNL A   1      43.445  26.327  38.675  1.00  0.00    -0.744 OA
ENDBRANCH  83  87
ENDBRANCH  57  80
ENDBRANCH  31  32
ENDBRANCH  23  26
ENDBRANCH  21  22
ENDBRANCH  20  21
ENDBRANCH   1  20
TORSDOF 17
ENDMDL
MODEL 3
REMARK VINA RESULT:     -10.9      2.457      3.190
REMARK SMILES CN(C)C(=O)CSc1ccc(C(=O)NCCCCNC(=O)c2ccc(-c3c4nc(c(-c5cc(S(=O)(=O)[O-])ccc5F)c5ccc([nH]5)c(-c5cc(S(=O)(=O)[O-])ccc5F)c5nc(c(-c6cc(S(=O)(=O)[O-])ccc6F)c6ccc3[nH]6)C=C5)C=C4)cc2)cc1
REMARK SMILES IDX 16 1 15 2 14 3 12 4 13 5 11 7 8 8 9 9 86 10 10 11 85 12 7 13
REMARK SMILES IDX 6 14 4 15 1 16 2 17 3 18 5 19 17 20 18 21 19 22 20 23 21 25
REMARK SMILES IDX 22 26 23 27 84 28 24 29 83 30 25 31 26 32 27 33 77 34 28 35
REMARK SMILES IDX 82 36 76 37 78 38 29 39 81 40 75 41 74 42 30 44 62 45 42 46
REMARK SMILES IDX 61 47 43 48 46 49 60 50 79 51 44 52 45 53 59 55 80 56 47 57
REMARK SMILES IDX 31 58 32 59 40 60 33 61 39 62 41 63 38 64 34 65 35 66 36 67
REMARK SMILES IDX 37 68 63 69 64 70 72 71 65 72 71 73 73 74 70 75 66 76 67 77
REMARK SMILES IDX 68 78 69 79 48 80 49 81 57 82 50 83 56 84 58 85 55 86 51 87
REMARK SMILES IDX 52 88 53 89 54 90
REMARK H PARENT 14 6 19 24 78 43 46 54
REMARK Flexibility Score: inf
ROOT
ATOM      1  C   UNL A   1      32.518  30.094  25.922  1.00  0.00     0.023 C 
ENDROOT
BRANCH   1   2
ATOM      2  C   UNL A   1      31.406  29.170  25.419  1.00  0.00     0.116 C 
BRANCH   2   3
ATOM      3  N   UNL A   1      30.988  29.551  24.083  1.00  0.00    -0.352 N 
ATOM      4  C   UNL A   1      30.980  28.861  22.897  1.00  0.00     0.251 C 
ATOM      5  O   UNL A   1      30.513  29.422  21.906  1.00  0.00    -0.269 OA
ATOM      6  H   UNL A   1      30.647  30.472  24.015  1.00  0.00     0.163 HD
BRANCH   4   7
ATOM      7  C   UNL A   1      31.461  27.457  22.764  1.00  0.00     0.039 A 
ATOM      8  C   UNL A   1      32.534  24.848  22.467  1.00  0.00     0.008 A 
ATOM      9  C   UNL A   1      33.310  25.979  22.185  1.00  0.00     0.016 A 
ATOM     10  C   UNL A   1      31.221  25.039  22.893  1.00  0.00     0.016 A 
ATOM     11  C   UNL A   1      32.779  27.267  22.328  1.00  0.00     0.015 A 
ATOM     12  C   UNL A   1      30.708  26.327  23.082  1.00  0.00     0.015 A 
BRANCH   8  13
ATOM     13  S   UNL A   1      33.293  23.249  22.244  1.00  0.00    -0.116 SA
BRANCH  13  14
ATOM     14  C   UNL A   1      33.534  22.620  23.944  1.00  0.00     0.175 C 
BRANCH  14  15
ATOM     15  C   UNL A   1      34.965  22.728  24.451  1.00  0.00     0.232 C 
ATOM     16  C   UNL A   1      36.669  23.772  25.822  1.00  0.00     0.146 C 
ATOM     17  N   UNL A   1      35.342  23.810  25.233  1.00  0.00    -0.348 N 
ATOM     18  C   UNL A   1      34.483  24.925  25.595  1.00  0.00     0.146 C 
ATOM     19  O   UNL A   1      35.786  21.863  24.126  1.00  0.00    -0.274 OA
ENDBRANCH  14  15
ENDBRANCH  13  14
ENDBRANCH   8  13
ENDBRANCH   4   7
ENDBRANCH   2   3
ENDBRANCH   1   2
BRANCH   1  20
ATOM     20  C   UNL A   1      32.017  31.354  26.632  1.00  0.00     0.023 C 
BRANCH  20  21
ATOM     21  C   UNL A   1      33.111  32.218  27.249  1.00  0.00     0.116 C 
BRANCH  21  22
ATOM     22  N   UNL A   1      32.664  33.563  27.575  1.00  0.00    -0.352 N 
ATOM     23  C   UNL A   1      33.141  34.408  28.550  1.00  0.00     0.251 C 
ATOM     24  H   UNL A   1      31.925  33.913  27.027  1.00  0.00     0.163 HD
ATOM     25  O   UNL A   1      32.580  35.473  28.769  1.00  0.00    -0.269 OA
BRANCH  23  26
ATOM     26  C   UNL A   1      34.307  33.988  29.358  1.00  0.00     0.039 A 
ATOM     27  C   UNL A   1      34.092  33.170  30.470  1.00  0.00     0.014 A 
ATOM     28  C   UNL A   1      35.602  34.361  28.993  1.00  0.00     0.014 A 
ATOM     29  C   UNL A   1      35.186  32.669  31.177  1.00  0.00     0.010 A 
ATOM     30  C   UNL A   1      36.693  33.807  29.657  1.00  0.00     0.010 A 
ATOM     31  C   UNL A   1      36.496  32.953  30.754  1.00  0.00    -0.014 A 
BRANCH  31  32
ATOM     32  C   UNL A   1      37.672  32.366  31.443  1.00  0.00     0.031 A 
ATOM     33  C   UNL A   1      38.430  31.235  30.804  1.00  0.00     0.074 A 
ATOM     34  C   UNL A   1      38.011  32.804  32.672  1.00  0.00     0.049 A 
ATOM     35  N   UNL A   1      39.428  30.536  31.278  1.00  0.00    -0.248 NA
ATOM     36  C   UNL A   1      37.982  30.817  29.468  1.00  0.00     0.031 C 
ATOM     37  C   UNL A   1      37.323  33.865  33.411  1.00  0.00     0.029 A 
ATOM     38  N   UNL A   1      39.012  32.406  33.523  1.00  0.00    -0.354 N 
ATOM     39  C   UNL A   1      39.719  29.585  30.305  1.00  0.00     0.074 A 
ATOM     40  C   UNL A   1      38.751  29.763  29.243  1.00  0.00     0.031 C 
ATOM     41  C   UNL A   1      37.936  34.047  34.592  1.00  0.00     0.029 A 
ATOM     42  C   UNL A   1      39.031  33.091  34.716  1.00  0.00     0.049 A 
ATOM     43  H   UNL A   1      39.657  31.696  33.299  1.00  0.00     0.167 HD
ATOM     44  C   UNL A   1      40.715  28.664  30.290  1.00  0.00     0.034 A 
ATOM     45  C   UNL A   1      39.832  32.956  35.790  1.00  0.00     0.034 A 
ATOM     46  C   UNL A   1      41.681  28.513  31.351  1.00  0.00     0.049 A 
ATOM     47  C   UNL A   1      40.924  31.915  35.756  1.00  0.00     0.074 A 
ATOM     48  C   UNL A   1      42.766  27.656  31.413  1.00  0.00     0.029 A 
ATOM     49  N   UNL A   1      41.675  29.230  32.541  1.00  0.00    -0.354 N 
ATOM     50  N   UNL A   1      41.220  31.059  34.805  1.00  0.00    -0.248 NA
ATOM     51  C   UNL A   1      41.796  31.833  36.935  1.00  0.00     0.031 C 
ATOM     52  C   UNL A   1      43.378  27.811  32.663  1.00  0.00     0.029 A 
ATOM     53  C   UNL A   1      42.719  28.815  33.354  1.00  0.00     0.049 A 
ATOM     54  H   UNL A   1      41.023  29.931  32.773  1.00  0.00     0.167 HD
ATOM     55  C   UNL A   1      42.333  30.359  35.260  1.00  0.00     0.074 A 
ATOM     56  C   UNL A   1      42.661  30.901  36.563  1.00  0.00     0.031 C 
ATOM     57  C   UNL A   1      43.027  29.361  34.654  1.00  0.00     0.034 A 
BRANCH  44  58
ATOM     58  C   UNL A   1      40.786  27.738  29.099  1.00  0.00     0.023 A 
ATOM     59  C   UNL A   1      41.717  27.936  28.064  1.00  0.00     0.031 A 
ATOM     60  C   UNL A   1      39.890  26.660  28.981  1.00  0.00     0.131 A 
ATOM     61  C   UNL A   1      41.680  27.120  26.923  1.00  0.00     0.055 A 
ATOM     62  C   UNL A   1      39.914  25.801  27.880  1.00  0.00     0.041 A 
ATOM     63  F   UNL A   1      38.966  26.433  29.926  1.00  0.00    -0.206 F 
ATOM     64  C   UNL A   1      40.802  26.039  26.835  1.00  0.00     0.022 A 
BRANCH  61  65
ATOM     65  S   UNL A   1      42.698  27.584  25.496  1.00  0.00     0.124 S 
ATOM     66  O   UNL A   1      42.582  26.397  24.652  1.00  0.00    -0.237 OA
ATOM     67  O   UNL A   1      42.029  28.783  25.006  1.00  0.00    -0.237 OA
ATOM     68  O   UNL A   1      44.022  27.801  26.075  1.00  0.00    -0.744 OA
ENDBRANCH  61  65
ENDBRANCH  44  58
BRANCH  45  69
ATOM     69  C   UNL A   1      39.639  33.814  36.993  1.00  0.00     0.023 A 
ATOM     70  C   UNL A   1      38.990  33.319  38.135  1.00  0.00     0.031 A 
ATOM     71  C   UNL A   1      40.059  35.156  37.002  1.00  0.00     0.131 A 
ATOM     72  C   UNL A   1      38.737  34.172  39.221  1.00  0.00     0.055 A 
ATOM     73  C   UNL A   1      39.851  35.986  38.106  1.00  0.00     0.041 A 
ATOM     74  F   UNL A   1      40.690  35.677  35.938  1.00  0.00    -0.206 F 
ATOM     75  C   UNL A   1      39.174  35.498  39.219  1.00  0.00     0.022 A 
BRANCH  72  76
ATOM     76  S   UNL A   1      37.751  33.542  40.607  1.00  0.00     0.124 S 
ATOM     77  O   UNL A   1      38.636  32.527  41.167  1.00  0.00    -0.237 OA
ATOM     78  O   UNL A   1      37.561  34.744  41.413  1.00  0.00    -0.237 OA
ATOM     79  O   UNL A   1      36.544  33.031  39.960  1.00  0.00    -0.744 OA
ENDBRANCH  72  76
ENDBRANCH  45  69
BRANCH  57  80
ATOM     80  C   UNL A   1      44.237  28.830  35.383  1.00  0.00     0.023 A 
ATOM     81  C   UNL A   1      44.128  27.840  36.375  1.00  0.00     0.031 A 
ATOM     82  C   UNL A   1      45.515  29.335  35.086  1.00  0.00     0.131 A 
ATOM     83  C   UNL A   1      45.273  27.424  37.073  1.00  0.00     0.055 A 
ATOM     84  C   UNL A   1      46.656  28.876  35.743  1.00  0.00     0.041 A 
ATOM     85  F   UNL A   1      45.674  30.283  34.149  1.00  0.00    -0.206 F 
ATOM     86  C   UNL A   1      46.538  27.925  36.752  1.00  0.00     0.022 A 
BRANCH  83  87
ATOM     87  S   UNL A   1      45.075  26.282  38.468  1.00  0.00     0.124 S 
ATOM     88  O   UNL A   1      45.965  26.865  39.467  1.00  0.00    -0.237 OA
ATOM     89  O   UNL A   1      43.647  26.380  38.751  1.00  0.00    -0.237 OA
ATOM     90  O   UNL A   1      45.511  24.997  37.924  1.00  0.00    -0.744 OA
ENDBRANCH  83  87
ENDBRANCH  57  80
ENDBRANCH  31  32
ENDBRANCH  23  26
ENDBRANCH  21  22
ENDBRANCH  20  21
ENDBRANCH   1  20
TORSDOF 17
ENDMDL
