MODEL 1
REMARK VINA RESULT:     -13.0      0.000      0.000
REMARK SMILES O=C(NCCCCNC(=O)c1ccc(-c2c3nc(c(-c4cc(S(=O)(=O)[O-])ccc4F)c4ccc([nH]4)c(-c4cc(S(=O)(=O)[O-])ccc4F)c4nc(c(-c5cc(S(=O)(=O)[O-])ccc5F)c5ccc2[nH]5)C=C4)C=C3)cc1)c1ccc(/C=C/c2ccc3cccc(O)c3n2)cc1
REMARK SMILES IDX 5 1 4 2 3 3 1 4 2 5 74 7 75 8 92 9 76 10 91 11 77 12 78 13
REMARK SMILES IDX 79 14 80 15 81 16 90 17 82 18 89 19 83 20 87 21 84 22 86 23
REMARK SMILES IDX 85 24 88 25 6 27 7 28 8 29 9 30 10 32 11 33 12 34 73 35
REMARK SMILES IDX 13 36 72 37 14 38 15 39 16 40 66 41 17 42 71 43 65 44 67 45
REMARK SMILES IDX 18 46 70 47 64 48 63 49 19 51 51 52 31 53 50 54 32 55 35 56
REMARK SMILES IDX 49 57 68 58 33 59 34 60 48 62 69 63 36 64 20 65 21 66 29 67
REMARK SMILES IDX 22 68 28 69 30 70 27 71 23 72 24 73 25 74 26 75 52 76 53 77
REMARK SMILES IDX 61 78 54 79 60 80 62 81 59 82 55 83 56 84 57 85 58 86 37 87
REMARK SMILES IDX 38 88 46 89 39 90 45 91 47 92 44 93 40 94 41 95 42 96 43 97
REMARK H PARENT 3 6 88 26 8 31 67 50 35 61
REMARK Flexibility Score: inf
ROOT
ATOM      1  C   UNL A   1      31.231  31.257  25.887  1.00  0.00     0.023 C 
ENDROOT
BRANCH   1   2
ATOM      2  C   UNL A   1      31.371  29.929  25.143  1.00  0.00     0.116 C 
BRANCH   2   3
ATOM      3  N   UNL A   1      30.662  29.927  23.877  1.00  0.00    -0.352 N 
ATOM      4  O   UNL A   1      30.036  29.175  21.850  1.00  0.00    -0.269 OA
ATOM      5  C   UNL A   1      30.546  28.935  22.939  1.00  0.00     0.251 C 
ATOM      6  H   UNL A   1      30.194  30.765  23.659  1.00  0.00     0.163 HD
BRANCH   5   7
ATOM      7  C   UNL A   1      31.062  27.575  23.207  1.00  0.00     0.039 A 
ATOM      8  C   UNL A   1      32.337  27.162  22.802  1.00  0.00     0.014 A 
ATOM      9  C   UNL A   1      30.256  26.718  23.952  1.00  0.00     0.014 A 
ATOM     10  C   UNL A   1      32.789  25.867  23.099  1.00  0.00     0.009 A 
ATOM     11  C   UNL A   1      30.713  25.437  24.253  1.00  0.00     0.009 A 
ATOM     12  C   UNL A   1      31.979  24.991  23.827  1.00  0.00    -0.026 A 
BRANCH  12  13
ATOM     13  C   UNL A   1      32.304  23.589  24.117  1.00  0.00     0.010 C 
ATOM     14  C   UNL A   1      32.315  22.503  23.316  1.00  0.00     0.029 C 
BRANCH  14  15
ATOM     15  C   UNL A   1      32.105  21.229  24.053  1.00  0.00     0.064 A 
ATOM     16  C   UNL A   1      32.767  21.229  25.278  1.00  0.00     0.029 A 
ATOM     17  N   UNL A   1      31.971  20.113  23.292  1.00  0.00    -0.245 NA
ATOM     18  C   UNL A   1      33.659  20.194  25.517  1.00  0.00     0.013 A 
ATOM     19  C   UNL A   1      32.788  19.072  23.579  1.00  0.00     0.113 A 
ATOM     20  C   UNL A   1      33.748  19.137  24.605  1.00  0.00     0.004 A 
ATOM     21  C   UNL A   1      32.762  17.913  22.805  1.00  0.00     0.141 A 
ATOM     22  C   UNL A   1      34.774  18.180  24.678  1.00  0.00     0.010 A 
ATOM     23  C   UNL A   1      33.741  16.927  22.902  1.00  0.00     0.048 A 
ATOM     24  C   UNL A   1      34.787  17.094  23.804  1.00  0.00     0.005 A 
BRANCH  21  25
ATOM     25  O   UNL A   1      31.746  17.723  21.900  1.00  0.00    -0.506 OA
ATOM     26  H   UNL A   1      31.603  18.350  21.218  1.00  0.00     0.293 HD
ENDBRANCH  21  25
ENDBRANCH  14  15
ENDBRANCH  12  13
ENDBRANCH   5   7
ENDBRANCH   2   3
ENDBRANCH   1   2
BRANCH   1  27
ATOM     27  C   UNL A   1      32.023  31.371  27.191  1.00  0.00     0.023 C 
BRANCH  27  28
ATOM     28  C   UNL A   1      33.153  32.396  27.194  1.00  0.00     0.116 C 
BRANCH  28  29
ATOM     29  N   UNL A   1      32.706  33.738  27.537  1.00  0.00    -0.352 N 
ATOM     30  C   UNL A   1      33.158  34.581  28.526  1.00  0.00     0.251 C 
ATOM     31  H   UNL A   1      31.974  34.094  26.981  1.00  0.00     0.163 HD
ATOM     32  O   UNL A   1      32.568  35.634  28.747  1.00  0.00    -0.269 OA
BRANCH  30  33
ATOM     33  C   UNL A   1      34.329  34.192  29.343  1.00  0.00     0.039 A 
ATOM     34  C   UNL A   1      34.127  33.431  30.498  1.00  0.00     0.014 A 
ATOM     35  C   UNL A   1      35.623  34.544  28.953  1.00  0.00     0.014 A 
ATOM     36  C   UNL A   1      35.229  32.949  31.212  1.00  0.00     0.010 A 
ATOM     37  C   UNL A   1      36.718  34.001  29.622  1.00  0.00     0.010 A 
ATOM     38  C   UNL A   1      36.534  33.189  30.753  1.00  0.00    -0.014 A 
BRANCH  38  39
ATOM     39  C   UNL A   1      37.723  32.598  31.427  1.00  0.00     0.031 A 
ATOM     40  C   UNL A   1      38.464  31.461  30.776  1.00  0.00     0.074 A 
ATOM     41  C   UNL A   1      38.076  33.020  32.660  1.00  0.00     0.049 A 
ATOM     42  N   UNL A   1      39.433  30.723  31.253  1.00  0.00    -0.248 NA
ATOM     43  C   UNL A   1      38.038  31.083  29.418  1.00  0.00     0.031 C 
ATOM     44  C   UNL A   1      37.417  34.093  33.408  1.00  0.00     0.029 A 
ATOM     45  N   UNL A   1      39.063  32.586  33.511  1.00  0.00    -0.354 N 
ATOM     46  C   UNL A   1      39.711  29.778  30.272  1.00  0.00     0.074 A 
ATOM     47  C   UNL A   1      38.783  30.012  29.188  1.00  0.00     0.031 C 
ATOM     48  C   UNL A   1      38.026  34.241  34.597  1.00  0.00     0.029 A 
ATOM     49  C   UNL A   1      39.079  33.239  34.725  1.00  0.00     0.049 A 
ATOM     50  H   UNL A   1      39.700  31.873  33.277  1.00  0.00     0.167 HD
ATOM     51  C   UNL A   1      40.662  28.813  30.273  1.00  0.00     0.034 A 
ATOM     52  C   UNL A   1      39.837  33.039  35.822  1.00  0.00     0.034 A 
ATOM     53  C   UNL A   1      41.604  28.615  31.347  1.00  0.00     0.049 A 
ATOM     54  C   UNL A   1      40.873  31.939  35.801  1.00  0.00     0.074 A 
ATOM     55  C   UNL A   1      42.663  27.725  31.406  1.00  0.00     0.029 A 
ATOM     56  N   UNL A   1      41.596  29.303  32.552  1.00  0.00    -0.354 N 
ATOM     57  N   UNL A   1      41.169  31.100  34.834  1.00  0.00    -0.248 NA
ATOM     58  C   UNL A   1      41.685  31.763  37.013  1.00  0.00     0.031 C 
ATOM     59  C   UNL A   1      43.244  27.818  32.674  1.00  0.00     0.029 A 
ATOM     60  C   UNL A   1      42.606  28.828  33.375  1.00  0.00     0.049 A 
ATOM     61  H   UNL A   1      40.968  30.023  32.788  1.00  0.00     0.167 HD
ATOM     62  C   UNL A   1      42.229  30.331  35.310  1.00  0.00     0.074 A 
ATOM     63  C   UNL A   1      42.527  30.811  36.642  1.00  0.00     0.031 C 
ATOM     64  C   UNL A   1      42.899  29.322  34.699  1.00  0.00     0.034 A 
BRANCH  51  65
ATOM     65  C   UNL A   1      40.717  27.871  29.095  1.00  0.00     0.023 A 
ATOM     66  C   UNL A   1      41.627  28.048  28.040  1.00  0.00     0.031 A 
ATOM     67  C   UNL A   1      39.854  26.761  29.043  1.00  0.00     0.131 A 
ATOM     68  C   UNL A   1      41.620  27.160  26.954  1.00  0.00     0.055 A 
ATOM     69  C   UNL A   1      39.902  25.839  27.996  1.00  0.00     0.041 A 
ATOM     70  F   UNL A   1      38.949  26.553  30.013  1.00  0.00    -0.206 F 
ATOM     71  C   UNL A   1      40.782  26.041  26.938  1.00  0.00     0.022 A 
BRANCH  68  72
ATOM     72  S   UNL A   1      42.644  27.546  25.509  1.00  0.00     0.124 S 
ATOM     73  O   UNL A   1      42.449  26.358  24.681  1.00  0.00    -0.237 OA
ATOM     74  O   UNL A   1      42.040  28.776  25.012  1.00  0.00    -0.237 OA
ATOM     75  O   UNL A   1      43.986  27.692  26.070  1.00  0.00    -0.744 OA
ENDBRANCH  68  72
ENDBRANCH  51  65
BRANCH  52  76
ATOM     76  C   UNL A   1      39.642  33.862  37.054  1.00  0.00     0.023 A 
ATOM     77  C   UNL A   1      40.459  34.973  37.317  1.00  0.00     0.031 A 
ATOM     78  C   UNL A   1      38.699  33.497  38.033  1.00  0.00     0.131 A 
ATOM     79  C   UNL A   1      40.373  35.633  38.553  1.00  0.00     0.055 A 
ATOM     80  C   UNL A   1      38.569  34.200  39.233  1.00  0.00     0.041 A 
ATOM     81  F   UNL A   1      37.890  32.443  37.840  1.00  0.00    -0.206 F 
ATOM     82  C   UNL A   1      39.423  35.264  39.507  1.00  0.00     0.022 A 
BRANCH  79  83
ATOM     83  S   UNL A   1      41.617  36.893  38.949  1.00  0.00     0.124 S 
ATOM     84  O   UNL A   1      40.789  37.966  39.491  1.00  0.00    -0.237 OA
ATOM     85  O   UNL A   1      42.464  36.190  39.906  1.00  0.00    -0.237 OA
ATOM     86  O   UNL A   1      42.238  37.174  37.657  1.00  0.00    -0.744 OA
ENDBRANCH  79  83
ENDBRANCH  52  76
BRANCH  64  87
ATOM     87  C   UNL A   1      44.068  28.719  35.438  1.00  0.00     0.023 A 
ATOM     88  C   UNL A   1      43.923  27.607  36.285  1.00  0.00     0.031 A 
ATOM     89  C   UNL A   1      45.355  29.267  35.279  1.00  0.00     0.131 A 
ATOM     90  C   UNL A   1      45.036  27.108  36.979  1.00  0.00     0.055 A 
ATOM     91  C   UNL A   1      46.468  28.728  35.923  1.00  0.00     0.041 A 
ATOM     92  F   UNL A   1      45.551  30.332  34.484  1.00  0.00    -0.206 F 
ATOM     93  C   UNL A   1      46.310  27.649  36.788  1.00  0.00     0.022 A 
BRANCH  90  94
ATOM     94  S   UNL A   1      44.785  25.788  38.197  1.00  0.00     0.124 S 
ATOM     95  O   UNL A   1      44.227  26.522  39.328  1.00  0.00    -0.237 OA
ATOM     96  O   UNL A   1      43.866  24.893  37.503  1.00  0.00    -0.237 OA
ATOM     97  O   UNL A   1      46.129  25.254  38.406  1.00  0.00    -0.744 OA
ENDBRANCH  90  94
ENDBRANCH  64  87
ENDBRANCH  38  39
ENDBRANCH  30  33
ENDBRANCH  28  29
ENDBRANCH  27  28
ENDBRANCH   1  27
TORSDOF 17
ENDMDL
MODEL 2
REMARK VINA RESULT:     -12.5      2.612      3.258
REMARK SMILES O=C(NCCCCNC(=O)c1ccc(-c2c3nc(c(-c4cc(S(=O)(=O)[O-])ccc4F)c4ccc([nH]4)c(-c4cc(S(=O)(=O)[O-])ccc4F)c4nc(c(-c5cc(S(=O)(=O)[O-])ccc5F)c5ccc2[nH]5)C=C4)C=C3)cc1)c1ccc(/C=C/c2ccc3cccc(O)c3n2)cc1
REMARK SMILES IDX 5 1 4 2 3 3 1 4 2 5 74 7 75 8 92 9 76 10 91 11 77 12 78 13
REMARK SMILES IDX 79 14 80 15 81 16 90 17 82 18 89 19 83 20 87 21 84 22 86 23
REMARK SMILES IDX 85 24 88 25 6 27 7 28 8 29 9 30 10 32 11 33 12 34 73 35
REMARK SMILES IDX 13 36 72 37 14 38 15 39 16 40 66 41 17 42 71 43 65 44 67 45
REMARK SMILES IDX 18 46 70 47 64 48 63 49 19 51 51 52 31 53 50 54 32 55 35 56
REMARK SMILES IDX 49 57 68 58 33 59 34 60 48 62 69 63 36 64 20 65 21 66 29 67
REMARK SMILES IDX 22 68 28 69 30 70 27 71 23 72 24 73 25 74 26 75 52 76 53 77
REMARK SMILES IDX 61 78 54 79 60 80 62 81 59 82 55 83 56 84 57 85 58 86 37 87
REMARK SMILES IDX 38 88 46 89 39 90 45 91 47 92 44 93 40 94 41 95 42 96 43 97
REMARK H PARENT 3 6 88 26 8 31 67 50 35 61
REMARK Flexibility Score: inf
ROOT
ATOM      1  C   UNL A   1      32.444  29.681  24.609  1.00  0.00     0.023 C 
ENDROOT
BRANCH   1   2
ATOM      2  C   UNL A   1      30.949  29.912  24.824  1.00  0.00     0.116 C 
BRANCH   2   3
ATOM      3  N   UNL A   1      30.193  29.831  23.589  1.00  0.00    -0.352 N 
ATOM      4  O   UNL A   1      29.512  28.967  21.625  1.00  0.00    -0.269 OA
ATOM      5  C   UNL A   1      30.070  28.793  22.702  1.00  0.00     0.251 C 
ATOM      6  H   UNL A   1      29.691  30.645  23.352  1.00  0.00     0.163 HD
BRANCH   5   7
ATOM      7  C   UNL A   1      30.636  27.463  23.011  1.00  0.00     0.039 A 
ATOM      8  C   UNL A   1      31.709  26.917  22.295  1.00  0.00     0.014 A 
ATOM      9  C   UNL A   1      30.110  26.779  24.104  1.00  0.00     0.014 A 
ATOM     10  C   UNL A   1      32.224  25.658  22.641  1.00  0.00     0.009 A 
ATOM     11  C   UNL A   1      30.632  25.535  24.450  1.00  0.00     0.009 A 
ATOM     12  C   UNL A   1      31.688  24.954  23.722  1.00  0.00    -0.026 A 
BRANCH  12  13
ATOM     13  C   UNL A   1      32.081  23.597  24.120  1.00  0.00     0.010 C 
ATOM     14  C   UNL A   1      32.380  22.512  23.375  1.00  0.00     0.029 C 
BRANCH  14  15
ATOM     15  C   UNL A   1      32.142  21.228  24.086  1.00  0.00     0.064 A 
ATOM     16  C   UNL A   1      32.783  21.199  25.322  1.00  0.00     0.029 A 
ATOM     17  N   UNL A   1      32.008  20.128  23.304  1.00  0.00    -0.245 NA
ATOM     18  C   UNL A   1      33.658  20.150  25.558  1.00  0.00     0.013 A 
ATOM     19  C   UNL A   1      32.807  19.071  23.587  1.00  0.00     0.113 A 
ATOM     20  C   UNL A   1      33.749  19.107  24.630  1.00  0.00     0.004 A 
ATOM     21  C   UNL A   1      32.781  17.926  22.793  1.00  0.00     0.141 A 
ATOM     22  C   UNL A   1      34.763  18.137  24.704  1.00  0.00     0.010 A 
ATOM     23  C   UNL A   1      33.746  16.927  22.890  1.00  0.00     0.048 A 
ATOM     24  C   UNL A   1      34.778  17.065  23.812  1.00  0.00     0.005 A 
BRANCH  21  25
ATOM     25  O   UNL A   1      31.778  17.764  21.867  1.00  0.00    -0.506 OA
ATOM     26  H   UNL A   1      31.963  17.863  20.954  1.00  0.00     0.293 HD
ENDBRANCH  21  25
ENDBRANCH  14  15
ENDBRANCH  12  13
ENDBRANCH   5   7
ENDBRANCH   2   3
ENDBRANCH   1   2
BRANCH   1  27
ATOM     27  C   UNL A   1      33.168  28.937  25.732  1.00  0.00     0.023 C 
BRANCH  27  28
ATOM     28  C   UNL A   1      32.963  29.495  27.137  1.00  0.00     0.116 C 
BRANCH  28  29
ATOM     29  N   UNL A   1      32.895  30.948  27.170  1.00  0.00    -0.352 N 
ATOM     30  C   UNL A   1      33.822  31.854  27.632  1.00  0.00     0.251 C 
ATOM     31  H   UNL A   1      32.065  31.340  26.811  1.00  0.00     0.163 HD
ATOM     32  O   UNL A   1      33.533  33.044  27.695  1.00  0.00    -0.269 OA
BRANCH  30  33
ATOM     33  C   UNL A   1      35.149  31.379  28.086  1.00  0.00     0.039 A 
ATOM     34  C   UNL A   1      36.218  32.279  28.112  1.00  0.00     0.014 A 
ATOM     35  C   UNL A   1      35.329  30.063  28.517  1.00  0.00     0.014 A 
ATOM     36  C   UNL A   1      37.444  31.882  28.654  1.00  0.00     0.010 A 
ATOM     37  C   UNL A   1      36.527  29.693  29.125  1.00  0.00     0.010 A 
ATOM     38  C   UNL A   1      37.595  30.601  29.210  1.00  0.00    -0.014 A 
BRANCH  38  39
ATOM     39  C   UNL A   1      38.851  30.187  29.893  1.00  0.00     0.031 A 
ATOM     40  C   UNL A   1      39.734  29.140  29.267  1.00  0.00     0.074 A 
ATOM     41  C   UNL A   1      39.147  30.680  31.115  1.00  0.00     0.049 A 
ATOM     42  N   UNL A   1      40.791  28.547  29.759  1.00  0.00    -0.248 NA
ATOM     43  C   UNL A   1      39.360  28.677  27.921  1.00  0.00     0.031 C 
ATOM     44  C   UNL A   1      38.354  31.677  31.839  1.00  0.00     0.029 A 
ATOM     45  N   UNL A   1      40.182  30.400  31.973  1.00  0.00    -0.354 N 
ATOM     46  C   UNL A   1      41.190  27.622  28.800  1.00  0.00     0.074 A 
ATOM     47  C   UNL A   1      40.238  27.707  27.713  1.00  0.00     0.031 C 
ATOM     48  C   UNL A   1      38.939  31.932  33.021  1.00  0.00     0.029 A 
ATOM     49  C   UNL A   1      40.114  31.079  33.170  1.00  0.00     0.049 A 
ATOM     50  H   UNL A   1      40.907  29.770  31.753  1.00  0.00     0.167 HD
ATOM     51  C   UNL A   1      42.258  26.789  28.821  1.00  0.00     0.034 A 
ATOM     52  C   UNL A   1      40.892  31.006  34.269  1.00  0.00     0.034 A 
ATOM     53  C   UNL A   1      43.219  26.742  29.896  1.00  0.00     0.049 A 
ATOM     54  C   UNL A   1      42.062  30.051  34.270  1.00  0.00     0.074 A 
ATOM     55  C   UNL A   1      44.384  26.000  29.973  1.00  0.00     0.029 A 
ATOM     56  N   UNL A   1      43.122  27.453  31.084  1.00  0.00    -0.354 N 
ATOM     57  N   UNL A   1      42.465  29.234  33.323  1.00  0.00    -0.248 NA
ATOM     58  C   UNL A   1      42.890  30.011  35.484  1.00  0.00     0.031 C 
ATOM     59  C   UNL A   1      44.949  26.198  31.236  1.00  0.00     0.029 A 
ATOM     60  C   UNL A   1      44.185  27.134  31.914  1.00  0.00     0.049 A 
ATOM     61  H   UNL A   1      42.405  28.090  31.304  1.00  0.00     0.167 HD
ATOM     62  C   UNL A   1      43.615  28.622  33.814  1.00  0.00     0.074 A 
ATOM     63  C   UNL A   1      43.849  29.168  35.133  1.00  0.00     0.031 C 
ATOM     64  C   UNL A   1      44.412  27.694  33.225  1.00  0.00     0.034 A 
BRANCH  51  65
ATOM     65  C   UNL A   1      42.435  25.834  27.666  1.00  0.00     0.023 A 
ATOM     66  C   UNL A   1      41.844  24.560  27.654  1.00  0.00     0.031 A 
ATOM     67  C   UNL A   1      43.195  26.220  26.546  1.00  0.00     0.131 A 
ATOM     68  C   UNL A   1      42.063  23.698  26.568  1.00  0.00     0.055 A 
ATOM     69  C   UNL A   1      43.347  25.386  25.437  1.00  0.00     0.041 A 
ATOM     70  F   UNL A   1      43.801  27.417  26.511  1.00  0.00    -0.206 F 
ATOM     71  C   UNL A   1      42.787  24.113  25.447  1.00  0.00     0.022 A 
BRANCH  68  72
ATOM     72  S   UNL A   1      41.477  21.987  26.686  1.00  0.00     0.124 S 
ATOM     73  O   UNL A   1      42.004  21.583  27.988  1.00  0.00    -0.237 OA
ATOM     74  O   UNL A   1      40.029  22.141  26.604  1.00  0.00    -0.237 OA
ATOM     75  O   UNL A   1      42.100  21.330  25.539  1.00  0.00    -0.744 OA
ENDBRANCH  68  72
ENDBRANCH  51  65
BRANCH  52  76
ATOM     76  C   UNL A   1      40.591  31.826  35.482  1.00  0.00     0.023 A 
ATOM     77  C   UNL A   1      39.554  31.466  36.357  1.00  0.00     0.031 A 
ATOM     78  C   UNL A   1      41.273  33.031  35.734  1.00  0.00     0.131 A 
ATOM     79  C   UNL A   1      39.178  32.333  37.396  1.00  0.00     0.055 A 
ATOM     80  C   UNL A   1      40.941  33.857  36.811  1.00  0.00     0.041 A 
ATOM     81  F   UNL A   1      42.274  33.428  34.932  1.00  0.00    -0.206 F 
ATOM     82  C   UNL A   1      39.874  33.519  37.637  1.00  0.00     0.022 A 
BRANCH  79  83
ATOM     83  S   UNL A   1      37.675  31.953  38.338  1.00  0.00     0.124 S 
ATOM     84  O   UNL A   1      37.356  30.614  37.858  1.00  0.00    -0.237 OA
ATOM     85  O   UNL A   1      38.151  32.046  39.714  1.00  0.00    -0.237 OA
ATOM     86  O   UNL A   1      36.744  33.003  37.929  1.00  0.00    -0.744 OA
ENDBRANCH  79  83
ENDBRANCH  52  76
BRANCH  64  87
ATOM     87  C   UNL A   1      45.650  27.267  33.974  1.00  0.00     0.023 A 
ATOM     88  C   UNL A   1      45.657  26.151  34.829  1.00  0.00     0.031 A 
ATOM     89  C   UNL A   1      46.848  27.989  33.817  1.00  0.00     0.131 A 
ATOM     90  C   UNL A   1      46.826  25.819  35.532  1.00  0.00     0.055 A 
ATOM     91  C   UNL A   1      48.022  27.617  34.471  1.00  0.00     0.041 A 
ATOM     92  F   UNL A   1      46.897  29.065  33.015  1.00  0.00    -0.206 F 
ATOM     93  C   UNL A   1      48.012  26.532  35.343  1.00  0.00     0.022 A 
BRANCH  90  94
ATOM     94  S   UNL A   1      46.756  24.485  36.759  1.00  0.00     0.124 S 
ATOM     95  O   UNL A   1      47.057  25.196  37.997  1.00  0.00    -0.237 OA
ATOM     96  O   UNL A   1      45.387  24.002  36.618  1.00  0.00    -0.237 OA
ATOM     97  O   UNL A   1      47.790  23.553  36.312  1.00  0.00    -0.744 OA
ENDBRANCH  90  94
ENDBRANCH  64  87
ENDBRANCH  38  39
ENDBRANCH  30  33
ENDBRANCH  28  29
ENDBRANCH  27  28
ENDBRANCH   1  27
TORSDOF 17
ENDMDL
MODEL 3
REMARK VINA RESULT:     -12.5      3.073      8.396
REMARK SMILES O=C(NCCCCNC(=O)c1ccc(-c2c3nc(c(-c4cc(S(=O)(=O)[O-])ccc4F)c4ccc([nH]4)c(-c4cc(S(=O)(=O)[O-])ccc4F)c4nc(c(-c5cc(S(=O)(=O)[O-])ccc5F)c5ccc2[nH]5)C=C4)C=C3)cc1)c1ccc(/C=C/c2ccc3cccc(O)c3n2)cc1
REMARK SMILES IDX 5 1 4 2 3 3 1 4 2 5 74 7 75 8 92 9 76 10 91 11 77 12 78 13
REMARK SMILES IDX 79 14 80 15 81 16 90 17 82 18 89 19 83 20 87 21 84 22 86 23
REMARK SMILES IDX 85 24 88 25 6 27 7 28 8 29 9 30 10 32 11 33 12 34 73 35
REMARK SMILES IDX 13 36 72 37 14 38 15 39 16 40 66 41 17 42 71 43 65 44 67 45
REMARK SMILES IDX 18 46 70 47 64 48 63 49 19 51 51 52 31 53 50 54 32 55 35 56
REMARK SMILES IDX 49 57 68 58 33 59 34 60 48 62 69 63 36 64 20 65 21 66 29 67
REMARK SMILES IDX 22 68 28 69 30 70 27 71 23 72 24 73 25 74 26 75 52 76 53 77
REMARK SMILES IDX 61 78 54 79 60 80 62 81 59 82 55 83 56 84 57 85 58 86 37 87
REMARK SMILES IDX 38 88 46 89 39 90 45 91 47 92 44 93 40 94 41 95 42 96 43 97
REMARK H PARENT 3 6 88 26 8 31 67 50 35 61
REMARK Flexibility Score: inf
ROOT
ATOM      1  C   UNL A   1      32.908  29.406  24.649  1.00  0.00     0.023 C 
ENDROOT
BRANCH   1   2
ATOM      2  C   UNL A   1      31.447  29.764  24.921  1.00  0.00     0.116 C 
BRANCH   2   3
ATOM      3  N   UNL A   1      30.646  29.775  23.712  1.00  0.00    -0.352 N 
ATOM      4  O   UNL A   1      29.860  29.038  21.735  1.00  0.00    -0.269 OA
ATOM      5  C   UNL A   1      30.447  28.788  22.782  1.00  0.00     0.251 C 
ATOM      6  H   UNL A   1      30.173  30.620  23.532  1.00  0.00     0.163 HD
BRANCH   5   7
ATOM      7  C   UNL A   1      30.965  27.421  23.007  1.00  0.00     0.039 A 
ATOM      8  C   UNL A   1      32.101  26.930  22.352  1.00  0.00     0.014 A 
ATOM      9  C   UNL A   1      30.320  26.640  23.961  1.00  0.00     0.014 A 
ATOM     10  C   UNL A   1      32.565  25.632  22.615  1.00  0.00     0.009 A 
ATOM     11  C   UNL A   1      30.790  25.355  24.227  1.00  0.00     0.009 A 
ATOM     12  C   UNL A   1      31.911  24.831  23.555  1.00  0.00    -0.026 A 
BRANCH  12  13
ATOM     13  C   UNL A   1      32.247  23.432  23.847  1.00  0.00     0.010 C 
ATOM     14  C   UNL A   1      32.096  22.317  23.103  1.00  0.00     0.029 C 
BRANCH  14  15
ATOM     15  C   UNL A   1      31.982  21.078  23.918  1.00  0.00     0.064 A 
ATOM     16  C   UNL A   1      32.679  21.189  25.119  1.00  0.00     0.029 A 
ATOM     17  N   UNL A   1      31.891  19.914  23.228  1.00  0.00    -0.245 NA
ATOM     18  C   UNL A   1      33.637  20.223  25.388  1.00  0.00     0.013 A 
ATOM     19  C   UNL A   1      32.776  18.939  23.548  1.00  0.00     0.113 A 
ATOM     20  C   UNL A   1      33.760  19.119  24.537  1.00  0.00     0.004 A 
ATOM     21  C   UNL A   1      32.796  17.737  22.844  1.00  0.00     0.141 A 
ATOM     22  C   UNL A   1      34.843  18.229  24.630  1.00  0.00     0.010 A 
ATOM     23  C   UNL A   1      33.833  16.816  22.965  1.00  0.00     0.048 A 
ATOM     24  C   UNL A   1      34.894  17.095  23.822  1.00  0.00     0.005 A 
BRANCH  21  25
ATOM     25  O   UNL A   1      31.766  17.436  21.985  1.00  0.00    -0.506 OA
ATOM     26  H   UNL A   1      31.346  16.599  22.031  1.00  0.00     0.293 HD
ENDBRANCH  21  25
ENDBRANCH  14  15
ENDBRANCH  12  13
ENDBRANCH   5   7
ENDBRANCH   2   3
ENDBRANCH   1   2
BRANCH   1  27
ATOM     27  C   UNL A   1      33.708  28.921  25.859  1.00  0.00     0.023 C 
BRANCH  27  28
ATOM     28  C   UNL A   1      33.234  29.433  27.216  1.00  0.00     0.116 C 
BRANCH  28  29
ATOM     29  N   UNL A   1      33.498  30.851  27.415  1.00  0.00    -0.352 N 
ATOM     30  C   UNL A   1      34.586  31.462  27.996  1.00  0.00     0.251 C 
ATOM     31  H   UNL A   1      32.797  31.461  27.088  1.00  0.00     0.163 HD
ATOM     32  O   UNL A   1      34.573  32.673  28.191  1.00  0.00    -0.269 OA
BRANCH  30  33
ATOM     33  C   UNL A   1      35.747  30.646  28.418  1.00  0.00     0.039 A 
ATOM     34  C   UNL A   1      36.865  30.576  27.582  1.00  0.00     0.014 A 
ATOM     35  C   UNL A   1      35.748  29.984  29.647  1.00  0.00     0.014 A 
ATOM     36  C   UNL A   1      38.017  29.914  28.019  1.00  0.00     0.010 A 
ATOM     37  C   UNL A   1      36.920  29.390  30.112  1.00  0.00     0.010 A 
ATOM     38  C   UNL A   1      38.071  29.357  29.307  1.00  0.00    -0.014 A 
BRANCH  38  39
ATOM     39  C   UNL A   1      39.317  28.744  29.844  1.00  0.00     0.031 A 
ATOM     40  C   UNL A   1      39.976  29.333  31.063  1.00  0.00     0.074 A 
ATOM     41  C   UNL A   1      39.903  27.722  29.184  1.00  0.00     0.049 A 
ATOM     42  N   UNL A   1      41.129  29.035  31.607  1.00  0.00    -0.248 NA
ATOM     43  C   UNL A   1      39.258  30.422  31.744  1.00  0.00     0.031 C 
ATOM     44  C   UNL A   1      39.377  27.085  27.973  1.00  0.00     0.029 A 
ATOM     45  N   UNL A   1      41.077  27.051  29.423  1.00  0.00    -0.354 N 
ATOM     46  C   UNL A   1      41.287  29.917  32.670  1.00  0.00     0.074 A 
ATOM     47  C   UNL A   1      40.130  30.786  32.672  1.00  0.00     0.031 C 
ATOM     48  C   UNL A   1      40.217  26.110  27.588  1.00  0.00     0.029 A 
ATOM     49  C   UNL A   1      41.370  26.087  28.482  1.00  0.00     0.049 A 
ATOM     50  H   UNL A   1      41.657  27.242  30.195  1.00  0.00     0.167 HD
ATOM     51  C   UNL A   1      42.300  29.986  33.567  1.00  0.00     0.034 A 
ATOM     52  C   UNL A   1      42.452  25.294  28.342  1.00  0.00     0.034 A 
ATOM     53  C   UNL A   1      43.430  29.089  33.573  1.00  0.00     0.049 A 
ATOM     54  C   UNL A   1      43.575  25.411  29.346  1.00  0.00     0.074 A 
ATOM     55  C   UNL A   1      44.462  29.016  34.492  1.00  0.00     0.029 A 
ATOM     56  N   UNL A   1      43.684  28.119  32.613  1.00  0.00    -0.354 N 
ATOM     57  N   UNL A   1      43.674  26.204  30.388  1.00  0.00    -0.248 NA
ATOM     58  C   UNL A   1      44.729  24.520  29.162  1.00  0.00     0.031 C 
ATOM     59  C   UNL A   1      45.381  28.061  34.046  1.00  0.00     0.029 A 
ATOM     60  C   UNL A   1      44.878  27.474  32.897  1.00  0.00     0.049 A 
ATOM     61  H   UNL A   1      43.103  27.919  31.845  1.00  0.00     0.167 HD
ATOM     62  C   UNL A   1      44.879  25.873  31.004  1.00  0.00     0.074 A 
ATOM     63  C   UNL A   1      45.465  24.804  30.226  1.00  0.00     0.031 C 
ATOM     64  C   UNL A   1      45.447  26.401  32.117  1.00  0.00     0.034 A 
BRANCH  51  65
ATOM     65  C   UNL A   1      42.258  31.084  34.601  1.00  0.00     0.023 A 
ATOM     66  C   UNL A   1      42.721  32.382  34.329  1.00  0.00     0.031 A 
ATOM     67  C   UNL A   1      41.723  30.828  35.877  1.00  0.00     0.131 A 
ATOM     68  C   UNL A   1      42.685  33.361  35.334  1.00  0.00     0.055 A 
ATOM     69  C   UNL A   1      41.622  31.825  36.848  1.00  0.00     0.041 A 
ATOM     70  F   UNL A   1      41.285  29.600  36.200  1.00  0.00    -0.206 F 
ATOM     71  C   UNL A   1      42.114  33.099  36.582  1.00  0.00     0.022 A 
BRANCH  68  72
ATOM     72  S   UNL A   1      43.495  34.953  35.024  1.00  0.00     0.124 S 
ATOM     73  O   UNL A   1      42.696  35.858  35.847  1.00  0.00    -0.237 OA
ATOM     74  O   UNL A   1      44.858  34.710  35.483  1.00  0.00    -0.237 OA
ATOM     75  O   UNL A   1      43.346  35.139  33.582  1.00  0.00    -0.744 OA
ENDBRANCH  68  72
ENDBRANCH  51  65
BRANCH  52  76
ATOM     76  C   UNL A   1      42.563  24.337  27.200  1.00  0.00     0.023 A 
ATOM     77  C   UNL A   1      41.952  23.074  27.255  1.00  0.00     0.031 A 
ATOM     78  C   UNL A   1      43.356  24.632  26.076  1.00  0.00     0.131 A 
ATOM     79  C   UNL A   1      42.202  22.127  26.249  1.00  0.00     0.055 A 
ATOM     80  C   UNL A   1      43.547  23.711  25.043  1.00  0.00     0.041 A 
ATOM     81  F   UNL A   1      43.967  25.823  25.967  1.00  0.00    -0.206 F 
ATOM     82  C   UNL A   1      42.984  22.442  25.136  1.00  0.00     0.022 A 
BRANCH  79  83
ATOM     83  S   UNL A   1      41.605  20.431  26.489  1.00  0.00     0.124 S 
ATOM     84  O   UNL A   1      42.133  20.116  27.811  1.00  0.00    -0.237 OA
ATOM     85  O   UNL A   1      40.160  20.605  26.399  1.00  0.00    -0.237 OA
ATOM     86  O   UNL A   1      42.214  19.697  25.381  1.00  0.00    -0.744 OA
ENDBRANCH  79  83
ENDBRANCH  52  76
BRANCH  64  87
ATOM     87  C   UNL A   1      46.735  25.781  32.599  1.00  0.00     0.023 A 
ATOM     88  C   UNL A   1      46.758  24.774  33.580  1.00  0.00     0.031 A 
ATOM     89  C   UNL A   1      47.963  26.203  32.055  1.00  0.00     0.131 A 
ATOM     90  C   UNL A   1      47.986  24.257  34.020  1.00  0.00     0.055 A 
ATOM     91  C   UNL A   1      49.175  25.641  32.452  1.00  0.00     0.041 A 
ATOM     92  F   UNL A   1      48.000  27.163  31.117  1.00  0.00    -0.206 F 
ATOM     93  C   UNL A   1      49.192  24.670  33.449  1.00  0.00     0.022 A 
BRANCH  90  94
ATOM     94  S   UNL A   1      47.993  23.089  35.408  1.00  0.00     0.124 S 
ATOM     95  O   UNL A   1      48.010  23.986  36.559  1.00  0.00    -0.237 OA
ATOM     96  O   UNL A   1      46.755  22.346  35.198  1.00  0.00    -0.237 OA
ATOM     97  O   UNL A   1      49.219  22.320  35.203  1.00  0.00    -0.744 OA
ENDBRANCH  90  94
ENDBRANCH  64  87
ENDBRANCH  38  39
ENDBRANCH  30  33
ENDBRANCH  28  29
ENDBRANCH  27  28
ENDBRANCH   1  27
TORSDOF 17
ENDMDL
