MODEL 1
REMARK VINA RESULT:     -11.1      0.000      0.000
REMARK SMILES CCC([NH3+])(CC)C(=O)N1C[C@@H](O)C[C@H]1C(=O)NCCCCNC(=O)c1ccc(-c2c3nc(c(-c4cc(S(=O)(=O)[O-])ccc4F)c4ccc([nH]4)c(-c4cc(S(=O)(=O)[O-])ccc4F)c4nc(c(-c5cc(S(=O)(=O)[O-])ccc5F)c5ccc2[nH]5)C=C4)C=C3)cc1
REMARK SMILES IDX 19 1 18 2 17 3 15 4 16 5 14 7 9 8 10 9 11 10 13 11 7 12 8 13
REMARK SMILES IDX 3 14 2 15 1 16 4 17 5 21 6 22 12 23 20 25 21 26 22 27 23 28
REMARK SMILES IDX 24 30 25 31 26 32 87 33 27 34 86 35 28 36 29 37 30 38 80 39
REMARK SMILES IDX 31 40 85 41 79 42 81 43 32 44 84 45 78 46 77 47 33 49 65 50
REMARK SMILES IDX 45 51 64 52 46 53 49 54 63 55 82 56 47 57 48 58 62 60 83 61
REMARK SMILES IDX 50 62 34 63 35 64 43 65 36 66 42 67 44 68 41 69 37 70 38 71
REMARK SMILES IDX 39 72 40 73 66 74 67 75 75 76 68 77 74 78 76 79 73 80 69 81
REMARK SMILES IDX 70 82 71 83 72 84 51 85 52 86 60 87 53 88 59 89 61 90 58 91
REMARK SMILES IDX 54 92 55 93 56 94 57 95
REMARK H PARENT 17 6 4 18 4 19 4 20 12 24 22 29 81 48 49 59
REMARK Flexibility Score: inf
ROOT
ATOM      1  C   UNL A   1      32.615  29.931  26.878  1.00  0.00     0.023 C 
ENDROOT
BRANCH   1   2
ATOM      2  C   UNL A   1      32.133  29.411  25.532  1.00  0.00     0.116 C 
BRANCH   2   3
ATOM      3  N   UNL A   1      33.145  29.504  24.506  1.00  0.00    -0.354 N 
ATOM      4  C   UNL A   1      33.430  28.665  23.471  1.00  0.00     0.242 C 
ATOM      5  O   UNL A   1      34.192  29.091  22.596  1.00  0.00    -0.273 OA
ATOM      6  H   UNL A   1      33.721  30.302  24.564  1.00  0.00     0.163 HD
BRANCH   4   7
ATOM      7  C   UNL A   1      32.672  27.337  23.250  1.00  0.00     0.177 C 
ATOM      8  N   UNL A   1      31.341  27.360  22.624  1.00  0.00    -0.323 N 
ATOM      9  C   UNL A   1      31.275  26.463  21.484  1.00  0.00     0.152 C 
ATOM     10  C   UNL A   1      32.546  25.621  21.532  1.00  0.00     0.136 C 
ATOM     11  C   UNL A   1      33.529  26.400  22.393  1.00  0.00     0.069 C 
BRANCH   8  12
ATOM     12  C   UNL A   1      30.325  28.024  23.292  1.00  0.00     0.284 C 
ATOM     13  O   UNL A   1      29.832  27.489  24.291  1.00  0.00    -0.268 OA
BRANCH  12  14
ATOM     14  C   UNL A   1      29.709  29.368  22.733  1.00  0.00     0.173 C 
BRANCH  14  15
ATOM     15  C   UNL A   1      28.294  29.108  22.117  1.00  0.00     0.075 C 
ATOM     16  C   UNL A   1      27.178  28.679  23.073  1.00  0.00     0.011 C 
ENDBRANCH  14  15
BRANCH  14  17
ATOM     17  N   UNL A   1      30.580  29.864  21.630  1.00  0.00    -0.345 N 
ATOM     18  H   UNL A   1      30.342  30.835  21.420  1.00  0.00     0.345 HD
ATOM     19  H   UNL A   1      30.435  29.292  20.799  1.00  0.00     0.345 HD
ATOM     20  H   UNL A   1      31.557  29.809  21.916  1.00  0.00     0.345 HD
ENDBRANCH  14  17
BRANCH  14  21
ATOM     21  C   UNL A   1      29.580  30.494  23.790  1.00  0.00     0.075 C 
ATOM     22  C   UNL A   1      28.896  31.764  23.299  1.00  0.00     0.011 C 
ENDBRANCH  14  21
ENDBRANCH  12  14
ENDBRANCH   8  12
BRANCH  10  23
ATOM     23  O   UNL A   1      33.073  25.379  20.236  1.00  0.00    -0.391 OA
ATOM     24  H   UNL A   1      32.406  24.927  19.695  1.00  0.00     0.211 HD
ENDBRANCH  10  23
ENDBRANCH   4   7
ENDBRANCH   2   3
ENDBRANCH   1   2
BRANCH   1  25
ATOM     25  C   UNL A   1      32.164  31.353  27.217  1.00  0.00     0.023 C 
BRANCH  25  26
ATOM     26  C   UNL A   1      33.237  32.433  27.108  1.00  0.00     0.116 C 
BRANCH  26  27
ATOM     27  N   UNL A   1      32.780  33.748  27.530  1.00  0.00    -0.352 N 
ATOM     28  C   UNL A   1      33.234  34.522  28.572  1.00  0.00     0.251 C 
ATOM     29  H   UNL A   1      32.047  34.136  26.999  1.00  0.00     0.163 HD
ATOM     30  O   UNL A   1      32.660  35.571  28.847  1.00  0.00    -0.269 OA
BRANCH  28  31
ATOM     31  C   UNL A   1      34.384  34.058  29.379  1.00  0.00     0.039 A 
ATOM     32  C   UNL A   1      34.149  33.200  30.456  1.00  0.00     0.014 A 
ATOM     33  C   UNL A   1      35.689  34.438  29.053  1.00  0.00     0.014 A 
ATOM     34  C   UNL A   1      35.229  32.664  31.162  1.00  0.00     0.010 A 
ATOM     35  C   UNL A   1      36.765  33.852  29.716  1.00  0.00     0.010 A 
ATOM     36  C   UNL A   1      36.547  32.956  30.774  1.00  0.00    -0.014 A 
BRANCH  36  37
ATOM     37  C   UNL A   1      37.709  32.336  31.463  1.00  0.00     0.031 A 
ATOM     38  C   UNL A   1      38.449  31.200  30.811  1.00  0.00     0.074 A 
ATOM     39  C   UNL A   1      38.054  32.749  32.698  1.00  0.00     0.049 A 
ATOM     40  N   UNL A   1      39.427  30.469  31.281  1.00  0.00    -0.248 NA
ATOM     41  C   UNL A   1      38.007  30.816  29.463  1.00  0.00     0.031 C 
ATOM     42  C   UNL A   1      37.386  33.814  33.451  1.00  0.00     0.029 A 
ATOM     43  N   UNL A   1      39.044  32.318  33.546  1.00  0.00    -0.354 N 
ATOM     44  C   UNL A   1      39.710  29.532  30.294  1.00  0.00     0.074 A 
ATOM     45  C   UNL A   1      38.756  29.750  29.226  1.00  0.00     0.031 C 
ATOM     46  C   UNL A   1      37.998  33.966  34.636  1.00  0.00     0.029 A 
ATOM     47  C   UNL A   1      39.073  32.984  34.750  1.00  0.00     0.049 A 
ATOM     48  H   UNL A   1      39.674  31.599  33.314  1.00  0.00     0.167 HD
ATOM     49  C   UNL A   1      40.687  28.591  30.270  1.00  0.00     0.034 A 
ATOM     50  C   UNL A   1      39.869  32.817  35.825  1.00  0.00     0.034 A 
ATOM     51  C   UNL A   1      41.639  28.396  31.336  1.00  0.00     0.049 A 
ATOM     52  C   UNL A   1      40.941  31.757  35.780  1.00  0.00     0.074 A 
ATOM     53  C   UNL A   1      42.697  27.505  31.397  1.00  0.00     0.029 A 
ATOM     54  N   UNL A   1      41.649  29.102  32.533  1.00  0.00    -0.354 N 
ATOM     55  N   UNL A   1      41.222  30.907  34.818  1.00  0.00    -0.248 NA
ATOM     56  C   UNL A   1      41.810  31.644  36.957  1.00  0.00     0.031 C 
ATOM     57  C   UNL A   1      43.308  27.631  32.650  1.00  0.00     0.029 A 
ATOM     58  C   UNL A   1      42.678  28.651  33.345  1.00  0.00     0.049 A 
ATOM     59  H   UNL A   1      41.016  29.818  32.770  1.00  0.00     0.167 HD
ATOM     60  C   UNL A   1      42.326  30.184  35.264  1.00  0.00     0.074 A 
ATOM     61  C   UNL A   1      42.664  30.707  36.572  1.00  0.00     0.031 C 
ATOM     62  C   UNL A   1      43.001  29.181  34.648  1.00  0.00     0.034 A 
BRANCH  49  63
ATOM     63  C   UNL A   1      40.756  27.694  29.057  1.00  0.00     0.023 A 
ATOM     64  C   UNL A   1      41.700  27.905  28.037  1.00  0.00     0.031 A 
ATOM     65  C   UNL A   1      39.848  26.631  28.903  1.00  0.00     0.131 A 
ATOM     66  C   UNL A   1      41.665  27.118  26.876  1.00  0.00     0.055 A 
ATOM     67  C   UNL A   1      39.873  25.798  27.782  1.00  0.00     0.041 A 
ATOM     68  F   UNL A   1      38.911  26.392  29.834  1.00  0.00    -0.206 F 
ATOM     69  C   UNL A   1      40.776  26.050  26.753  1.00  0.00     0.022 A 
BRANCH  66  70
ATOM     70  S   UNL A   1      42.707  27.601  25.472  1.00  0.00     0.124 S 
ATOM     71  O   UNL A   1      42.776  26.354  24.714  1.00  0.00    -0.237 OA
ATOM     72  O   UNL A   1      41.936  28.677  24.862  1.00  0.00    -0.237 OA
ATOM     73  O   UNL A   1      43.962  28.011  26.100  1.00  0.00    -0.744 OA
ENDBRANCH  66  70
ENDBRANCH  49  63
BRANCH  50  74
ATOM     74  C   UNL A   1      39.689  33.660  37.042  1.00  0.00     0.023 A 
ATOM     75  C   UNL A   1      38.997  33.172  38.161  1.00  0.00     0.031 A 
ATOM     76  C   UNL A   1      40.161  34.984  37.084  1.00  0.00     0.131 A 
ATOM     77  C   UNL A   1      38.746  34.018  39.253  1.00  0.00     0.055 A 
ATOM     78  C   UNL A   1      39.956  35.805  38.195  1.00  0.00     0.041 A 
ATOM     79  F   UNL A   1      40.836  35.497  36.043  1.00  0.00    -0.206 F 
ATOM     80  C   UNL A   1      39.231  35.327  39.282  1.00  0.00     0.022 A 
BRANCH  77  81
ATOM     81  S   UNL A   1      37.693  33.409  40.598  1.00  0.00     0.124 S 
ATOM     82  O   UNL A   1      36.514  32.952  39.870  1.00  0.00    -0.237 OA
ATOM     83  O   UNL A   1      38.527  32.366  41.186  1.00  0.00    -0.237 OA
ATOM     84  O   UNL A   1      37.492  34.590  41.435  1.00  0.00    -0.744 OA
ENDBRANCH  77  81
ENDBRANCH  50  74
BRANCH  62  85
ATOM     85  C   UNL A   1      44.208  28.629  35.364  1.00  0.00     0.023 A 
ATOM     86  C   UNL A   1      44.097  27.628  36.344  1.00  0.00     0.031 A 
ATOM     87  C   UNL A   1      45.490  29.128  35.070  1.00  0.00     0.131 A 
ATOM     88  C   UNL A   1      45.240  27.197  37.035  1.00  0.00     0.055 A 
ATOM     89  C   UNL A   1      46.630  28.654  35.720  1.00  0.00     0.041 A 
ATOM     90  F   UNL A   1      45.655  30.086  34.143  1.00  0.00    -0.206 F 
ATOM     91  C   UNL A   1      46.508  27.693  36.718  1.00  0.00     0.022 A 
BRANCH  88  92
ATOM     92  S   UNL A   1      45.037  26.042  38.420  1.00  0.00     0.124 S 
ATOM     93  O   UNL A   1      45.044  24.749  37.741  1.00  0.00    -0.237 OA
ATOM     94  O   UNL A   1      46.204  26.336  39.245  1.00  0.00    -0.237 OA
ATOM     95  O   UNL A   1      43.753  26.428  39.002  1.00  0.00    -0.744 OA
ENDBRANCH  88  92
ENDBRANCH  62  85
ENDBRANCH  36  37
ENDBRANCH  28  31
ENDBRANCH  26  27
ENDBRANCH  25  26
ENDBRANCH   1  25
TORSDOF 20
ENDMDL
MODEL 2
REMARK VINA RESULT:     -10.8      1.907      8.032
REMARK SMILES CCC([NH3+])(CC)C(=O)N1C[C@@H](O)C[C@H]1C(=O)NCCCCNC(=O)c1ccc(-c2c3nc(c(-c4cc(S(=O)(=O)[O-])ccc4F)c4ccc([nH]4)c(-c4cc(S(=O)(=O)[O-])ccc4F)c4nc(c(-c5cc(S(=O)(=O)[O-])ccc5F)c5ccc2[nH]5)C=C4)C=C3)cc1
REMARK SMILES IDX 19 1 18 2 17 3 15 4 16 5 14 7 9 8 10 9 11 10 13 11 7 12 8 13
REMARK SMILES IDX 3 14 2 15 1 16 4 17 5 21 6 22 12 23 20 25 21 26 22 27 23 28
REMARK SMILES IDX 24 30 25 31 26 32 87 33 27 34 86 35 28 36 29 37 30 38 80 39
REMARK SMILES IDX 31 40 85 41 79 42 81 43 32 44 84 45 78 46 77 47 33 49 65 50
REMARK SMILES IDX 45 51 64 52 46 53 49 54 63 55 82 56 47 57 48 58 62 60 83 61
REMARK SMILES IDX 50 62 34 63 35 64 43 65 36 66 42 67 44 68 41 69 37 70 38 71
REMARK SMILES IDX 39 72 40 73 66 74 67 75 75 76 68 77 74 78 76 79 73 80 69 81
REMARK SMILES IDX 70 82 71 83 72 84 51 85 52 86 60 87 53 88 59 89 61 90 58 91
REMARK SMILES IDX 54 92 55 93 56 94 57 95
REMARK H PARENT 17 6 4 18 4 19 4 20 12 24 22 29 81 48 49 59
REMARK Flexibility Score: inf
ROOT
ATOM      1  C   UNL A   1      31.903  30.218  26.876  1.00  0.00     0.023 C 
ENDROOT
BRANCH   1   2
ATOM      2  C   UNL A   1      32.555  29.562  25.668  1.00  0.00     0.116 C 
BRANCH   2   3
ATOM      3  N   UNL A   1      31.752  29.677  24.473  1.00  0.00    -0.354 N 
ATOM      4  C   UNL A   1      31.591  28.812  23.433  1.00  0.00     0.242 C 
ATOM      5  O   UNL A   1      30.665  29.043  22.647  1.00  0.00    -0.273 OA
ATOM      6  H   UNL A   1      31.240  30.515  24.398  1.00  0.00     0.163 HD
BRANCH   4   7
ATOM      7  C   UNL A   1      32.355  27.471  23.347  1.00  0.00     0.177 C 
ATOM      8  N   UNL A   1      31.608  26.207  23.413  1.00  0.00    -0.323 N 
ATOM      9  C   UNL A   1      31.921  25.343  22.289  1.00  0.00     0.152 C 
ATOM     10  C   UNL A   1      33.129  25.969  21.598  1.00  0.00     0.136 C 
ATOM     11  C   UNL A   1      33.153  27.425  22.040  1.00  0.00     0.069 C 
BRANCH   8  12
ATOM     12  C   UNL A   1      30.912  25.928  24.579  1.00  0.00     0.284 C 
ATOM     13  O   UNL A   1      29.694  26.133  24.599  1.00  0.00    -0.268 OA
BRANCH  12  14
ATOM     14  C   UNL A   1      31.657  25.481  25.900  1.00  0.00     0.173 C 
BRANCH  14  15
ATOM     15  C   UNL A   1      31.125  24.091  26.385  1.00  0.00     0.075 C 
ATOM     16  C   UNL A   1      30.835  23.036  25.315  1.00  0.00     0.011 C 
ENDBRANCH  14  15
BRANCH  14  17
ATOM     17  N   UNL A   1      31.346  26.466  26.975  1.00  0.00    -0.345 N 
ATOM     18  H   UNL A   1      30.589  27.077  26.666  1.00  0.00     0.345 HD
ATOM     19  H   UNL A   1      32.174  27.025  27.173  1.00  0.00     0.345 HD
ATOM     20  H   UNL A   1      31.059  25.970  27.818  1.00  0.00     0.345 HD
ENDBRANCH  14  17
BRANCH  14  21
ATOM     21  C   UNL A   1      33.198  25.390  25.759  1.00  0.00     0.075 C 
ATOM     22  C   UNL A   1      33.826  24.133  26.350  1.00  0.00     0.011 C 
ENDBRANCH  14  21
ENDBRANCH  12  14
ENDBRANCH   8  12
BRANCH  10  23
ATOM     23  O   UNL A   1      33.048  25.859  20.184  1.00  0.00    -0.391 OA
ATOM     24  H   UNL A   1      33.776  25.305  19.861  1.00  0.00     0.211 HD
ENDBRANCH  10  23
ENDBRANCH   4   7
ENDBRANCH   2   3
ENDBRANCH   1   2
BRANCH   1  25
ATOM     25  C   UNL A   1      31.746  31.737  26.776  1.00  0.00     0.023 C 
BRANCH  25  26
ATOM     26  C   UNL A   1      32.987  32.556  27.117  1.00  0.00     0.116 C 
BRANCH  26  27
ATOM     27  N   UNL A   1      32.682  33.870  27.663  1.00  0.00    -0.352 N 
ATOM     28  C   UNL A   1      33.288  34.528  28.707  1.00  0.00     0.251 C 
ATOM     29  H   UNL A   1      31.942  34.351  27.227  1.00  0.00     0.163 HD
ATOM     30  O   UNL A   1      32.831  35.597  29.101  1.00  0.00    -0.269 OA
BRANCH  28  31
ATOM     31  C   UNL A   1      34.459  33.918  29.374  1.00  0.00     0.039 A 
ATOM     32  C   UNL A   1      34.245  32.995  30.401  1.00  0.00     0.014 A 
ATOM     33  C   UNL A   1      35.760  34.227  28.965  1.00  0.00     0.014 A 
ATOM     34  C   UNL A   1      35.333  32.327  30.968  1.00  0.00     0.010 A 
ATOM     35  C   UNL A   1      36.836  33.512  29.486  1.00  0.00     0.010 A 
ATOM     36  C   UNL A   1      36.634  32.552  30.489  1.00  0.00    -0.014 A 
BRANCH  36  37
ATOM     37  C   UNL A   1      37.795  31.795  31.027  1.00  0.00     0.031 A 
ATOM     38  C   UNL A   1      38.342  32.126  32.389  1.00  0.00     0.074 A 
ATOM     39  C   UNL A   1      38.395  30.859  30.265  1.00  0.00     0.049 A 
ATOM     40  N   UNL A   1      39.395  31.647  32.998  1.00  0.00    -0.248 NA
ATOM     41  C   UNL A   1      37.624  33.158  33.151  1.00  0.00     0.031 C 
ATOM     42  C   UNL A   1      37.982  30.478  28.912  1.00  0.00     0.029 A 
ATOM     43  N   UNL A   1      39.486  30.065  30.512  1.00  0.00    -0.354 N 
ATOM     44  C   UNL A   1      39.475  32.325  34.210  1.00  0.00     0.074 A 
ATOM     45  C   UNL A   1      38.397  33.293  34.218  1.00  0.00     0.031 C 
ATOM     46  C   UNL A   1      38.796  29.511  28.459  1.00  0.00     0.029 A 
ATOM     47  C   UNL A   1      39.814  29.231  29.467  1.00  0.00     0.049 A 
ATOM     48  H   UNL A   1      39.989  30.089  31.358  1.00  0.00     0.167 HD
ATOM     49  C   UNL A   1      40.351  32.143  35.229  1.00  0.00     0.034 A 
ATOM     50  C   UNL A   1      40.825  28.349  29.334  1.00  0.00     0.034 A 
ATOM     51  C   UNL A   1      41.410  31.164  35.212  1.00  0.00     0.049 A 
ATOM     52  C   UNL A   1      41.793  28.172  30.476  1.00  0.00     0.074 A 
ATOM     53  C   UNL A   1      42.325  30.864  36.208  1.00  0.00     0.029 A 
ATOM     54  N   UNL A   1      41.700  30.325  34.144  1.00  0.00    -0.354 N 
ATOM     55  N   UNL A   1      41.827  28.793  31.634  1.00  0.00    -0.248 NA
ATOM     56  C   UNL A   1      42.848  27.167  30.301  1.00  0.00     0.031 C 
ATOM     57  C   UNL A   1      43.201  29.888  35.720  1.00  0.00     0.029 A 
ATOM     58  C   UNL A   1      42.791  29.525  34.447  1.00  0.00     0.049 A 
ATOM     59  H   UNL A   1      41.203  30.302  33.294  1.00  0.00     0.167 HD
ATOM     60  C   UNL A   1      42.887  28.224  32.336  1.00  0.00     0.074 A 
ATOM     61  C   UNL A   1      43.455  27.205  31.477  1.00  0.00     0.031 C 
ATOM     62  C   UNL A   1      43.347  28.515  33.579  1.00  0.00     0.034 A 
BRANCH  49  63
ATOM     63  C   UNL A   1      40.205  33.039  36.436  1.00  0.00     0.023 A 
ATOM     64  C   UNL A   1      39.456  32.645  37.559  1.00  0.00     0.031 A 
ATOM     65  C   UNL A   1      40.796  34.314  36.455  1.00  0.00     0.131 A 
ATOM     66  C   UNL A   1      39.253  33.544  38.617  1.00  0.00     0.055 A 
ATOM     67  C   UNL A   1      40.659  35.173  37.548  1.00  0.00     0.041 A 
ATOM     68  F   UNL A   1      41.505  34.754  35.404  1.00  0.00    -0.206 F 
ATOM     69  C   UNL A   1      39.871  34.795  38.631  1.00  0.00     0.022 A 
BRANCH  66  70
ATOM     70  S   UNL A   1      38.057  33.106  39.908  1.00  0.00     0.124 S 
ATOM     71  O   UNL A   1      36.861  32.822  39.117  1.00  0.00    -0.237 OA
ATOM     72  O   UNL A   1      38.687  31.957  40.547  1.00  0.00    -0.237 OA
ATOM     73  O   UNL A   1      37.980  34.312  40.729  1.00  0.00    -0.744 OA
ENDBRANCH  66  70
ENDBRANCH  49  63
BRANCH  50  74
ATOM     74  C   UNL A   1      40.987  27.565  28.076  1.00  0.00     0.023 A 
ATOM     75  C   UNL A   1      40.677  26.197  28.033  1.00  0.00     0.031 A 
ATOM     76  C   UNL A   1      41.506  28.159  26.912  1.00  0.00     0.131 A 
ATOM     77  C   UNL A   1      40.939  25.454  26.872  1.00  0.00     0.055 A 
ATOM     78  C   UNL A   1      41.715  27.428  25.740  1.00  0.00     0.041 A 
ATOM     79  F   UNL A   1      41.812  29.466  26.896  1.00  0.00    -0.206 F 
ATOM     80  C   UNL A   1      41.445  26.063  25.720  1.00  0.00     0.022 A 
BRANCH  77  81
ATOM     81  S   UNL A   1      40.696  23.658  26.916  1.00  0.00     0.124 S 
ATOM     82  O   UNL A   1      39.297  23.537  26.521  1.00  0.00    -0.237 OA
ATOM     83  O   UNL A   1      41.680  23.195  25.944  1.00  0.00    -0.237 OA
ATOM     84  O   UNL A   1      40.984  23.310  28.306  1.00  0.00    -0.744 OA
ENDBRANCH  77  81
ENDBRANCH  50  74
BRANCH  62  85
ATOM     85  C   UNL A   1      44.487  27.675  34.100  1.00  0.00     0.023 A 
ATOM     86  C   UNL A   1      44.267  26.504  34.845  1.00  0.00     0.031 A 
ATOM     87  C   UNL A   1      45.816  28.065  33.857  1.00  0.00     0.131 A 
ATOM     88  C   UNL A   1      45.358  25.795  35.371  1.00  0.00     0.055 A 
ATOM     89  C   UNL A   1      46.899  27.324  34.333  1.00  0.00     0.041 A 
ATOM     90  F   UNL A   1      46.085  29.176  33.151  1.00  0.00    -0.206 F 
ATOM     91  C   UNL A   1      46.672  26.189  35.106  1.00  0.00     0.022 A 
BRANCH  88  92
ATOM     92  S   UNL A   1      45.035  24.398  36.483  1.00  0.00     0.124 S 
ATOM     93  O   UNL A   1      43.995  24.938  37.354  1.00  0.00    -0.237 OA
ATOM     94  O   UNL A   1      44.612  23.353  35.556  1.00  0.00    -0.237 OA
ATOM     95  O   UNL A   1      46.326  24.168  37.128  1.00  0.00    -0.744 OA
ENDBRANCH  88  92
ENDBRANCH  62  85
ENDBRANCH  36  37
ENDBRANCH  28  31
ENDBRANCH  26  27
ENDBRANCH  25  26
ENDBRANCH   1  25
TORSDOF 20
ENDMDL
MODEL 3
REMARK VINA RESULT:     -10.8      3.395      8.653
REMARK SMILES CCC([NH3+])(CC)C(=O)N1C[C@@H](O)C[C@H]1C(=O)NCCCCNC(=O)c1ccc(-c2c3nc(c(-c4cc(S(=O)(=O)[O-])ccc4F)c4ccc([nH]4)c(-c4cc(S(=O)(=O)[O-])ccc4F)c4nc(c(-c5cc(S(=O)(=O)[O-])ccc5F)c5ccc2[nH]5)C=C4)C=C3)cc1
REMARK SMILES IDX 19 1 18 2 17 3 15 4 16 5 14 7 9 8 10 9 11 10 13 11 7 12 8 13
REMARK SMILES IDX 3 14 2 15 1 16 4 17 5 21 6 22 12 23 20 25 21 26 22 27 23 28
REMARK SMILES IDX 24 30 25 31 26 32 87 33 27 34 86 35 28 36 29 37 30 38 80 39
REMARK SMILES IDX 31 40 85 41 79 42 81 43 32 44 84 45 78 46 77 47 33 49 65 50
REMARK SMILES IDX 45 51 64 52 46 53 49 54 63 55 82 56 47 57 48 58 62 60 83 61
REMARK SMILES IDX 50 62 34 63 35 64 43 65 36 66 42 67 44 68 41 69 37 70 38 71
REMARK SMILES IDX 39 72 40 73 66 74 67 75 75 76 68 77 74 78 76 79 73 80 69 81
REMARK SMILES IDX 70 82 71 83 72 84 51 85 52 86 60 87 53 88 59 89 61 90 58 91
REMARK SMILES IDX 54 92 55 93 56 94 57 95
REMARK H PARENT 17 6 4 18 4 19 4 20 12 24 22 29 81 48 49 59
REMARK Flexibility Score: inf
ROOT
ATOM      1  C   UNL A   1      33.703  26.694  26.488  1.00  0.00     0.023 C 
ENDROOT
BRANCH   1   2
ATOM      2  C   UNL A   1      32.923  25.851  25.490  1.00  0.00     0.116 C 
BRANCH   2   3
ATOM      3  N   UNL A   1      31.499  25.889  25.725  1.00  0.00    -0.354 N 
ATOM      4  C   UNL A   1      30.476  26.226  24.890  1.00  0.00     0.242 C 
ATOM      5  O   UNL A   1      29.331  25.949  25.263  1.00  0.00    -0.273 OA
ATOM      6  H   UNL A   1      31.222  25.631  26.635  1.00  0.00     0.163 HD
BRANCH   4   7
ATOM      7  C   UNL A   1      30.717  26.711  23.442  1.00  0.00     0.177 C 
ATOM      8  N   UNL A   1      31.351  28.017  23.213  1.00  0.00    -0.323 N 
ATOM      9  C   UNL A   1      32.501  27.904  22.334  1.00  0.00     0.152 C 
ATOM     10  C   UNL A   1      32.454  26.493  21.754  1.00  0.00     0.136 C 
ATOM     11  C   UNL A   1      31.578  25.684  22.699  1.00  0.00     0.069 C 
BRANCH   8  12
ATOM     12  C   UNL A   1      30.684  29.147  23.659  1.00  0.00     0.284 C 
ATOM     13  O   UNL A   1      30.832  29.489  24.836  1.00  0.00    -0.268 OA
BRANCH  12  14
ATOM     14  C   UNL A   1      29.655  29.917  22.738  1.00  0.00     0.173 C 
BRANCH  14  15
ATOM     15  C   UNL A   1      28.501  28.961  22.287  1.00  0.00     0.075 C 
ATOM     16  C   UNL A   1      27.431  28.610  23.326  1.00  0.00     0.011 C 
ENDBRANCH  14  15
BRANCH  14  17
ATOM     17  N   UNL A   1      30.364  30.356  21.502  1.00  0.00    -0.345 N 
ATOM     18  H   UNL A   1      29.709  30.847  20.892  1.00  0.00     0.345 HD
ATOM     19  H   UNL A   1      30.735  29.541  21.016  1.00  0.00     0.345 HD
ATOM     20  H   UNL A   1      31.128  30.982  21.752  1.00  0.00     0.345 HD
ENDBRANCH  14  17
BRANCH  14  21
ATOM     21  C   UNL A   1      29.022  31.166  23.401  1.00  0.00     0.075 C 
ATOM     22  C   UNL A   1      28.418  32.175  22.431  1.00  0.00     0.011 C 
ENDBRANCH  14  21
ENDBRANCH  12  14
ENDBRANCH   8  12
BRANCH  10  23
ATOM     23  O   UNL A   1      33.750  25.924  21.636  1.00  0.00    -0.391 OA
ATOM     24  H   UNL A   1      33.704  25.129  21.081  1.00  0.00     0.211 HD
ENDBRANCH  10  23
ENDBRANCH   4   7
ENDBRANCH   2   3
ENDBRANCH   1   2
BRANCH   1  25
ATOM     25  C   UNL A   1      33.191  28.126  26.660  1.00  0.00     0.023 C 
BRANCH  25  26
ATOM     26  C   UNL A   1      34.153  29.230  26.230  1.00  0.00     0.116 C 
BRANCH  26  27
ATOM     27  N   UNL A   1      33.764  30.551  26.700  1.00  0.00    -0.352 N 
ATOM     28  C   UNL A   1      34.358  31.327  27.668  1.00  0.00     0.251 C 
ATOM     29  H   UNL A   1      32.970  30.941  26.268  1.00  0.00     0.163 HD
ATOM     30  O   UNL A   1      33.832  32.383  28.010  1.00  0.00    -0.269 OA
BRANCH  28  31
ATOM     31  C   UNL A   1      35.601  30.860  28.319  1.00  0.00     0.039 A 
ATOM     32  C   UNL A   1      35.521  29.844  29.275  1.00  0.00     0.014 A 
ATOM     33  C   UNL A   1      36.843  31.394  27.962  1.00  0.00     0.014 A 
ATOM     34  C   UNL A   1      36.693  29.314  29.821  1.00  0.00     0.010 A 
ATOM     35  C   UNL A   1      38.011  30.820  28.458  1.00  0.00     0.010 A 
ATOM     36  C   UNL A   1      37.948  29.771  29.388  1.00  0.00    -0.014 A 
BRANCH  36  37
ATOM     37  C   UNL A   1      39.206  29.166  29.900  1.00  0.00     0.031 A 
ATOM     38  C   UNL A   1      39.894  29.763  31.097  1.00  0.00     0.074 A 
ATOM     39  C   UNL A   1      39.761  28.125  29.248  1.00  0.00     0.049 A 
ATOM     40  N   UNL A   1      41.038  29.441  31.643  1.00  0.00    -0.248 NA
ATOM     41  C   UNL A   1      39.216  30.895  31.747  1.00  0.00     0.031 C 
ATOM     42  C   UNL A   1      39.211  27.485  28.051  1.00  0.00     0.029 A 
ATOM     43  N   UNL A   1      40.918  27.427  29.492  1.00  0.00    -0.354 N 
ATOM     44  C   UNL A   1      41.225  30.336  32.691  1.00  0.00     0.074 A 
ATOM     45  C   UNL A   1      40.104  31.252  32.662  1.00  0.00     0.031 C 
ATOM     46  C   UNL A   1      40.017  26.477  27.680  1.00  0.00     0.029 A 
ATOM     47  C   UNL A   1      41.164  26.424  28.582  1.00  0.00     0.049 A 
ATOM     48  H   UNL A   1      41.517  27.625  30.248  1.00  0.00     0.167 HD
ATOM     49  C   UNL A   1      42.227  30.376  33.605  1.00  0.00     0.034 A 
ATOM     50  C   UNL A   1      42.198  25.566  28.482  1.00  0.00     0.034 A 
ATOM     51  C   UNL A   1      43.330  29.447  33.628  1.00  0.00     0.049 A 
ATOM     52  C   UNL A   1      43.306  25.638  29.503  1.00  0.00     0.074 A 
ATOM     53  C   UNL A   1      44.373  29.368  34.535  1.00  0.00     0.029 A 
ATOM     54  N   UNL A   1      43.535  28.433  32.701  1.00  0.00    -0.354 N 
ATOM     55  N   UNL A   1      43.445  26.465  30.515  1.00  0.00    -0.248 NA
ATOM     56  C   UNL A   1      44.387  24.653  29.377  1.00  0.00     0.031 C 
ATOM     57  C   UNL A   1      45.238  28.347  34.123  1.00  0.00     0.029 A 
ATOM     58  C   UNL A   1      44.698  27.740  33.001  1.00  0.00     0.049 A 
ATOM     59  H   UNL A   1      42.941  28.236  31.941  1.00  0.00     0.167 HD
ATOM     60  C   UNL A   1      44.612  26.072  31.165  1.00  0.00     0.074 A 
ATOM     61  C   UNL A   1      45.128  24.930  30.439  1.00  0.00     0.031 C 
ATOM     62  C   UNL A   1      45.202  26.605  32.266  1.00  0.00     0.034 A 
BRANCH  49  63
ATOM     63  C   UNL A   1      42.177  31.476  34.638  1.00  0.00     0.023 A 
ATOM     64  C   UNL A   1      41.195  31.497  35.645  1.00  0.00     0.031 A 
ATOM     65  C   UNL A   1      43.104  32.533  34.602  1.00  0.00     0.131 A 
ATOM     66  C   UNL A   1      41.115  32.589  36.522  1.00  0.00     0.055 A 
ATOM     67  C   UNL A   1      43.068  33.576  35.530  1.00  0.00     0.041 A 
ATOM     68  F   UNL A   1      44.051  32.579  33.652  1.00  0.00    -0.206 F 
ATOM     69  C   UNL A   1      42.060  33.615  36.489  1.00  0.00     0.022 A 
BRANCH  66  70
ATOM     70  S   UNL A   1      39.673  32.715  37.615  1.00  0.00     0.124 S 
ATOM     71  O   UNL A   1      40.292  32.595  38.934  1.00  0.00    -0.237 OA
ATOM     72  O   UNL A   1      39.136  34.028  37.280  1.00  0.00    -0.237 OA
ATOM     73  O   UNL A   1      38.841  31.581  37.220  1.00  0.00    -0.744 OA
ENDBRANCH  66  70
ENDBRANCH  49  63
BRANCH  50  74
ATOM     74  C   UNL A   1      42.252  24.567  27.376  1.00  0.00     0.023 A 
ATOM     75  C   UNL A   1      41.521  23.372  27.448  1.00  0.00     0.031 A 
ATOM     76  C   UNL A   1      43.077  24.769  26.255  1.00  0.00     0.131 A 
ATOM     77  C   UNL A   1      41.669  22.398  26.449  1.00  0.00     0.055 A 
ATOM     78  C   UNL A   1      43.180  23.820  25.235  1.00  0.00     0.041 A 
ATOM     79  F   UNL A   1      43.792  25.898  26.133  1.00  0.00    -0.206 F 
ATOM     80  C   UNL A   1      42.485  22.619  25.336  1.00  0.00     0.022 A 
BRANCH  77  81
ATOM     81  S   UNL A   1      40.850  20.795  26.670  1.00  0.00     0.124 S 
ATOM     82  O   UNL A   1      40.811  20.679  28.124  1.00  0.00    -0.237 OA
ATOM     83  O   UNL A   1      39.568  21.017  26.010  1.00  0.00    -0.237 OA
ATOM     84  O   UNL A   1      41.744  19.859  25.992  1.00  0.00    -0.744 OA
ENDBRANCH  77  81
ENDBRANCH  50  74
BRANCH  62  85
ATOM     85  C   UNL A   1      46.441  25.915  32.778  1.00  0.00     0.023 A 
ATOM     86  C   UNL A   1      47.699  26.109  32.181  1.00  0.00     0.031 A 
ATOM     87  C   UNL A   1      46.356  25.037  33.873  1.00  0.00     0.131 A 
ATOM     88  C   UNL A   1      48.811  25.390  32.646  1.00  0.00     0.055 A 
ATOM     89  C   UNL A   1      47.477  24.368  34.368  1.00  0.00     0.041 A 
ATOM     90  F   UNL A   1      45.180  24.813  34.480  1.00  0.00    -0.206 F 
ATOM     91  C   UNL A   1      48.711  24.533  33.746  1.00  0.00     0.022 A 
BRANCH  88  92
ATOM     92  S   UNL A   1      50.376  25.521  31.737  1.00  0.00     0.124 S 
ATOM     93  O   UNL A   1      50.710  24.119  31.504  1.00  0.00    -0.237 OA
ATOM     94  O   UNL A   1      49.988  26.289  30.558  1.00  0.00    -0.237 OA
ATOM     95  O   UNL A   1      51.256  26.222  32.670  1.00  0.00    -0.744 OA
ENDBRANCH  88  92
ENDBRANCH  62  85
ENDBRANCH  36  37
ENDBRANCH  28  31
ENDBRANCH  26  27
ENDBRANCH  25  26
ENDBRANCH   1  25
TORSDOF 20
ENDMDL
