MODEL 1
REMARK VINA RESULT:     -13.3      0.000      0.000
REMARK SMILES O=C(NCCCCNC(=O)[C@H]1Cc2c([nH]c3ccccc23)[C@@H](c2ccc(OC(F)(F)F)cc2)[NH2+]1)c1ccc(-c2c3nc(c(-c4cc(S(=O)(=O)[O-])ccc4F)c4ccc([nH]4)c(-c4cc(S(=O)(=O)[O-])ccc4F)c4nc(c(-c5cc(S(=O)(=O)[O-])ccc5F)c5ccc2[nH]5)C=C4)C=C3)cc1
REMARK SMILES IDX 5 1 4 2 3 3 1 4 2 5 35 7 36 8 97 9 37 10 96 11 38 12 39 13
REMARK SMILES IDX 40 14 90 15 41 16 95 17 89 18 91 19 42 20 94 21 88 22 87 23
REMARK SMILES IDX 43 25 75 26 55 27 74 28 56 29 59 30 73 31 92 32 57 33 58 34
REMARK SMILES IDX 72 36 93 37 60 38 44 39 45 40 53 41 46 42 52 43 54 44 51 45
REMARK SMILES IDX 47 46 48 47 49 48 50 49 76 50 77 51 85 52 78 53 84 54 86 55
REMARK SMILES IDX 83 56 79 57 80 58 81 59 82 60 61 61 62 62 70 63 63 64 69 65
REMARK SMILES IDX 71 66 68 67 64 68 65 69 66 70 67 71 6 72 7 73 8 74 9 75
REMARK SMILES IDX 10 77 11 78 12 79 34 80 13 81 22 82 14 85 21 86 15 87 16 88
REMARK SMILES IDX 20 89 17 91 19 92 18 93 23 94 24 95 33 96 25 97 32 98 26 99
REMARK SMILES IDX 27 100 28 101 29 102 30 103 31 104
REMARK H PARENT 3 6 91 24 59 35 8 76 34 83 34 84 15 90
REMARK Flexibility Score: inf
ROOT
ATOM      1  C   UNL A   1      35.620  23.156  24.779  1.00  0.00     0.023 C 
ENDROOT
BRANCH   1   2
ATOM      2  C   UNL A   1      36.389  22.902  26.070  1.00  0.00     0.116 C 
BRANCH   2   3
ATOM      3  N   UNL A   1      37.346  21.809  25.969  1.00  0.00    -0.352 N 
ATOM      4  O   UNL A   1      39.379  20.833  25.942  1.00  0.00    -0.269 OA
ATOM      5  C   UNL A   1      38.707  21.835  26.175  1.00  0.00     0.251 C 
ATOM      6  H   UNL A   1      36.968  20.935  25.720  1.00  0.00     0.163 HD
BRANCH   5   7
ATOM      7  C   UNL A   1      39.357  23.080  26.643  1.00  0.00     0.039 A 
ATOM      8  C   UNL A   1      39.002  24.317  26.102  1.00  0.00     0.014 A 
ATOM      9  C   UNL A   1      40.353  23.002  27.620  1.00  0.00     0.014 A 
ATOM     10  C   UNL A   1      39.745  25.448  26.422  1.00  0.00     0.010 A 
ATOM     11  C   UNL A   1      41.045  24.157  28.001  1.00  0.00     0.010 A 
ATOM     12  C   UNL A   1      40.776  25.383  27.374  1.00  0.00    -0.014 A 
BRANCH  12  13
ATOM     13  C   UNL A   1      41.540  26.618  27.702  1.00  0.00     0.031 A 
ATOM     14  C   UNL A   1      42.905  26.865  27.116  1.00  0.00     0.074 A 
ATOM     15  C   UNL A   1      40.969  27.543  28.498  1.00  0.00     0.049 A 
ATOM     16  N   UNL A   1      43.685  27.907  27.251  1.00  0.00    -0.248 NA
ATOM     17  C   UNL A   1      43.473  25.797  26.280  1.00  0.00     0.031 C 
ATOM     18  C   UNL A   1      39.655  27.410  29.130  1.00  0.00     0.029 A 
ATOM     19  N   UNL A   1      41.401  28.785  28.888  1.00  0.00    -0.354 N 
ATOM     20  C   UNL A   1      44.843  27.617  26.536  1.00  0.00     0.074 A 
ATOM     21  C   UNL A   1      44.673  26.282  25.999  1.00  0.00     0.031 C 
ATOM     22  C   UNL A   1      39.362  28.547  29.779  1.00  0.00     0.029 A 
ATOM     23  C   UNL A   1      40.490  29.464  29.663  1.00  0.00     0.049 A 
ATOM     24  H   UNL A   1      42.278  29.154  28.639  1.00  0.00     0.167 HD
ATOM     25  C   UNL A   1      45.940  28.392  26.342  1.00  0.00     0.034 A 
ATOM     26  C   UNL A   1      40.554  30.687  30.224  1.00  0.00     0.034 A 
ATOM     27  C   UNL A   1      46.088  29.727  26.876  1.00  0.00     0.049 A 
ATOM     28  C   UNL A   1      41.789  31.519  30.008  1.00  0.00     0.074 A 
ATOM     29  C   UNL A   1      47.135  30.617  26.701  1.00  0.00     0.029 A 
ATOM     30  N   UNL A   1      45.165  30.364  27.696  1.00  0.00    -0.354 N 
ATOM     31  N   UNL A   1      42.864  31.236  29.310  1.00  0.00    -0.248 NA
ATOM     32  C   UNL A   1      41.815  32.835  30.656  1.00  0.00     0.031 C 
ATOM     33  C   UNL A   1      46.876  31.761  27.465  1.00  0.00     0.029 A 
ATOM     34  C   UNL A   1      45.633  31.618  28.062  1.00  0.00     0.049 A 
ATOM     35  H   UNL A   1      44.302  29.982  27.977  1.00  0.00     0.167 HD
ATOM     36  C   UNL A   1      43.688  32.351  29.420  1.00  0.00     0.074 A 
ATOM     37  C   UNL A   1      42.975  33.317  30.233  1.00  0.00     0.031 C 
ATOM     38  C   UNL A   1      44.922  32.562  28.894  1.00  0.00     0.034 A 
BRANCH  25  39
ATOM     39  C   UNL A   1      47.087  27.794  25.559  1.00  0.00     0.023 A 
ATOM     40  C   UNL A   1      47.302  28.094  24.203  1.00  0.00     0.031 A 
ATOM     41  C   UNL A   1      47.965  26.883  26.176  1.00  0.00     0.131 A 
ATOM     42  C   UNL A   1      48.318  27.437  23.491  1.00  0.00     0.055 A 
ATOM     43  C   UNL A   1      49.023  26.291  25.482  1.00  0.00     0.041 A 
ATOM     44  F   UNL A   1      47.800  26.540  27.463  1.00  0.00    -0.206 F 
ATOM     45  C   UNL A   1      49.194  26.555  24.126  1.00  0.00     0.022 A 
BRANCH  42  46
ATOM     46  S   UNL A   1      48.385  27.640  21.688  1.00  0.00     0.124 S 
ATOM     47  O   UNL A   1      47.051  28.160  21.398  1.00  0.00    -0.237 OA
ATOM     48  O   UNL A   1      49.488  28.578  21.517  1.00  0.00    -0.237 OA
ATOM     49  O   UNL A   1      48.636  26.285  21.200  1.00  0.00    -0.744 OA
ENDBRANCH  42  46
ENDBRANCH  25  39
BRANCH  26  50
ATOM     50  C   UNL A   1      39.425  31.191  31.053  1.00  0.00     0.023 A 
ATOM     51  C   UNL A   1      39.484  31.152  32.455  1.00  0.00     0.031 A 
ATOM     52  C   UNL A   1      38.261  31.703  30.453  1.00  0.00     0.131 A 
ATOM     53  C   UNL A   1      38.384  31.585  33.210  1.00  0.00     0.055 A 
ATOM     54  C   UNL A   1      37.189  32.178  31.209  1.00  0.00     0.041 A 
ATOM     55  F   UNL A   1      38.160  31.767  29.115  1.00  0.00    -0.206 F 
ATOM     56  C   UNL A   1      37.243  32.110  32.598  1.00  0.00     0.022 A 
BRANCH  53  57
ATOM     57  S   UNL A   1      38.438  31.392  35.013  1.00  0.00     0.124 S 
ATOM     58  O   UNL A   1      39.699  32.046  35.345  1.00  0.00    -0.237 OA
ATOM     59  O   UNL A   1      37.225  32.087  35.428  1.00  0.00    -0.237 OA
ATOM     60  O   UNL A   1      38.417  29.943  35.201  1.00  0.00    -0.744 OA
ENDBRANCH  53  57
ENDBRANCH  26  50
BRANCH  38  61
ATOM     61  C   UNL A   1      45.551  33.906  29.165  1.00  0.00     0.023 A 
ATOM     62  C   UNL A   1      45.317  35.012  28.329  1.00  0.00     0.031 A 
ATOM     63  C   UNL A   1      46.430  34.068  30.250  1.00  0.00     0.131 A 
ATOM     64  C   UNL A   1      46.006  36.213  28.553  1.00  0.00     0.055 A 
ATOM     65  C   UNL A   1      47.068  35.284  30.502  1.00  0.00     0.041 A 
ATOM     66  F   UNL A   1      46.692  33.044  31.078  1.00  0.00    -0.206 F 
ATOM     67  C   UNL A   1      46.869  36.360  29.642  1.00  0.00     0.022 A 
BRANCH  64  68
ATOM     68  S   UNL A   1      45.840  37.551  27.339  1.00  0.00     0.124 S 
ATOM     69  O   UNL A   1      46.228  38.720  28.121  1.00  0.00    -0.237 OA
ATOM     70  O   UNL A   1      46.775  37.143  26.295  1.00  0.00    -0.237 OA
ATOM     71  O   UNL A   1      44.429  37.499  26.961  1.00  0.00    -0.744 OA
ENDBRANCH  64  68
ENDBRANCH  38  61
ENDBRANCH  12  13
ENDBRANCH   5   7
ENDBRANCH   2   3
ENDBRANCH   1   2
BRANCH   1  72
ATOM     72  C   UNL A   1      34.438  22.219  24.511  1.00  0.00     0.023 C 
BRANCH  72  73
ATOM     73  C   UNL A   1      33.087  22.914  24.347  1.00  0.00     0.116 C 
BRANCH  73  74
ATOM     74  N   UNL A   1      32.452  23.175  25.625  1.00  0.00    -0.351 N 
ATOM     75  C   UNL A   1      31.985  24.341  26.160  1.00  0.00     0.278 C 
ATOM     76  H   UNL A   1      32.342  22.384  26.200  1.00  0.00     0.163 HD
ATOM     77  O   UNL A   1      31.507  24.293  27.295  1.00  0.00    -0.268 OA
BRANCH  75  78
ATOM     78  C   UNL A   1      32.050  25.639  25.339  1.00  0.00     0.277 C 
ATOM     79  C   UNL A   1      30.598  26.073  25.022  1.00  0.00     0.114 C 
ATOM     80  N   UNL A   1      32.766  26.687  26.108  1.00  0.00    -0.325 N 
ATOM     81  C   UNL A   1      30.620  27.432  24.413  1.00  0.00    -0.006 A 
ATOM     82  C   UNL A   1      32.961  27.942  25.361  1.00  0.00     0.262 C 
ATOM     83  H   UNL A   1      33.682  26.324  26.372  1.00  0.00     0.347 HD
ATOM     84  H   UNL A   1      32.187  26.911  26.918  1.00  0.00     0.347 HD
ATOM     85  C   UNL A   1      31.721  28.254  24.564  1.00  0.00     0.083 A 
ATOM     86  C   UNL A   1      29.632  28.150  23.693  1.00  0.00     0.003 A 
ATOM     87  N   UNL A   1      31.492  29.390  23.834  1.00  0.00    -0.353 N 
ATOM     88  C   UNL A   1      30.203  29.376  23.340  1.00  0.00     0.046 A 
ATOM     89  C   UNL A   1      28.300  27.887  23.320  1.00  0.00     0.010 A 
ATOM     90  H   UNL A   1      32.148  30.108  23.682  1.00  0.00     0.166 HD
ATOM     91  C   UNL A   1      29.499  30.353  22.623  1.00  0.00     0.026 A 
ATOM     92  C   UNL A   1      27.580  28.859  22.618  1.00  0.00     0.001 A 
ATOM     93  C   UNL A   1      28.173  30.072  22.273  1.00  0.00     0.002 A 
BRANCH  82  94
ATOM     94  C   UNL A   1      33.375  29.024  26.359  1.00  0.00     0.016 A 
ATOM     95  C   UNL A   1      34.636  29.054  26.974  1.00  0.00     0.014 A 
ATOM     96  C   UNL A   1      32.505  30.102  26.603  1.00  0.00     0.014 A 
ATOM     97  C   UNL A   1      34.997  30.103  27.824  1.00  0.00     0.047 A 
ATOM     98  C   UNL A   1      32.882  31.171  27.426  1.00  0.00     0.047 A 
ATOM     99  C   UNL A   1      34.133  31.177  28.040  1.00  0.00     0.129 A 
BRANCH  99 100
ATOM    100  O   UNL A   1      34.631  32.147  28.860  1.00  0.00    -0.406 OA
BRANCH 100 101
ATOM    101  C   UNL A   1      35.160  33.311  28.249  1.00  0.00     0.573 C 
ATOM    102  F   UNL A   1      35.609  34.192  29.166  1.00  0.00    -0.132 F 
ATOM    103  F   UNL A   1      36.156  32.998  27.391  1.00  0.00    -0.132 F 
ATOM    104  F   UNL A   1      34.175  33.908  27.539  1.00  0.00    -0.132 F 
ENDBRANCH 100 101
ENDBRANCH  99 100
ENDBRANCH  82  94
ENDBRANCH  75  78
ENDBRANCH  73  74
ENDBRANCH  72  73
ENDBRANCH   1  72
TORSDOF 17
ENDMDL
MODEL 2
REMARK VINA RESULT:     -13.0      4.581     10.618
REMARK SMILES O=C(NCCCCNC(=O)[C@H]1Cc2c([nH]c3ccccc23)[C@@H](c2ccc(OC(F)(F)F)cc2)[NH2+]1)c1ccc(-c2c3nc(c(-c4cc(S(=O)(=O)[O-])ccc4F)c4ccc([nH]4)c(-c4cc(S(=O)(=O)[O-])ccc4F)c4nc(c(-c5cc(S(=O)(=O)[O-])ccc5F)c5ccc2[nH]5)C=C4)C=C3)cc1
REMARK SMILES IDX 5 1 4 2 3 3 1 4 2 5 35 7 36 8 97 9 37 10 96 11 38 12 39 13
REMARK SMILES IDX 40 14 90 15 41 16 95 17 89 18 91 19 42 20 94 21 88 22 87 23
REMARK SMILES IDX 43 25 75 26 55 27 74 28 56 29 59 30 73 31 92 32 57 33 58 34
REMARK SMILES IDX 72 36 93 37 60 38 44 39 45 40 53 41 46 42 52 43 54 44 51 45
REMARK SMILES IDX 47 46 48 47 49 48 50 49 76 50 77 51 85 52 78 53 84 54 86 55
REMARK SMILES IDX 83 56 79 57 80 58 81 59 82 60 61 61 62 62 70 63 63 64 69 65
REMARK SMILES IDX 71 66 68 67 64 68 65 69 66 70 67 71 6 72 7 73 8 74 9 75
REMARK SMILES IDX 10 77 11 78 12 79 34 80 13 81 22 82 14 85 21 86 15 87 16 88
REMARK SMILES IDX 20 89 17 91 19 92 18 93 23 94 24 95 33 96 25 97 32 98 26 99
REMARK SMILES IDX 27 100 28 101 29 102 30 103 31 104
REMARK H PARENT 3 6 91 24 59 35 8 76 34 83 34 84 15 90
REMARK Flexibility Score: inf
ROOT
ATOM      1  C   UNL A   1      33.059  27.922  25.989  1.00  0.00     0.023 C 
ENDROOT
BRANCH   1   2
ATOM      2  C   UNL A   1      33.813  29.173  25.556  1.00  0.00     0.116 C 
BRANCH   2   3
ATOM      3  N   UNL A   1      33.240  30.405  26.080  1.00  0.00    -0.352 N 
ATOM      4  O   UNL A   1      33.026  32.155  27.486  1.00  0.00    -0.269 OA
ATOM      5  C   UNL A   1      33.699  31.200  27.106  1.00  0.00     0.251 C 
ATOM      6  H   UNL A   1      32.413  30.710  25.641  1.00  0.00     0.163 HD
BRANCH   5   7
ATOM      7  C   UNL A   1      34.983  30.878  27.769  1.00  0.00     0.039 A 
ATOM      8  C   UNL A   1      35.205  29.614  28.319  1.00  0.00     0.014 A 
ATOM      9  C   UNL A   1      35.968  31.865  27.862  1.00  0.00     0.014 A 
ATOM     10  C   UNL A   1      36.339  29.387  29.090  1.00  0.00     0.010 A 
ATOM     11  C   UNL A   1      37.146  31.607  28.570  1.00  0.00     0.010 A 
ATOM     12  C   UNL A   1      37.323  30.380  29.228  1.00  0.00    -0.014 A 
BRANCH  12  13
ATOM     13  C   UNL A   1      38.531  30.097  30.050  1.00  0.00     0.031 A 
ATOM     14  C   UNL A   1      38.661  30.634  31.450  1.00  0.00     0.074 A 
ATOM     15  C   UNL A   1      39.494  29.304  29.538  1.00  0.00     0.049 A 
ATOM     16  N   UNL A   1      39.617  30.441  32.323  1.00  0.00    -0.248 NA
ATOM     17  C   UNL A   1      37.584  31.514  31.927  1.00  0.00     0.031 C 
ATOM     18  C   UNL A   1      39.481  28.732  28.190  1.00  0.00     0.029 A 
ATOM     19  N   UNL A   1      40.650  28.819  30.094  1.00  0.00    -0.354 N 
ATOM     20  C   UNL A   1      39.270  31.187  33.445  1.00  0.00     0.074 A 
ATOM     21  C   UNL A   1      38.030  31.865  33.124  1.00  0.00     0.031 C 
ATOM     22  C   UNL A   1      40.544  27.928  28.044  1.00  0.00     0.029 A 
ATOM     23  C   UNL A   1      41.347  27.975  29.261  1.00  0.00     0.049 A 
ATOM     24  H   UNL A   1      40.952  29.053  31.000  1.00  0.00     0.167 HD
ATOM     25  C   UNL A   1      39.921  31.292  34.632  1.00  0.00     0.034 A 
ATOM     26  C   UNL A   1      42.505  27.315  29.451  1.00  0.00     0.034 A 
ATOM     27  C   UNL A   1      41.151  30.599  34.940  1.00  0.00     0.049 A 
ATOM     28  C   UNL A   1      43.216  27.462  30.769  1.00  0.00     0.074 A 
ATOM     29  C   UNL A   1      41.868  30.596  36.125  1.00  0.00     0.029 A 
ATOM     30  N   UNL A   1      41.853  29.790  34.056  1.00  0.00    -0.354 N 
ATOM     31  N   UNL A   1      42.860  28.155  31.826  1.00  0.00    -0.248 NA
ATOM     32  C   UNL A   1      44.482  26.737  30.917  1.00  0.00     0.031 C 
ATOM     33  C   UNL A   1      43.032  29.842  35.937  1.00  0.00     0.029 A 
ATOM     34  C   UNL A   1      43.009  29.312  34.656  1.00  0.00     0.049 A 
ATOM     35  H   UNL A   1      41.572  29.584  33.135  1.00  0.00     0.167 HD
ATOM     36  C   UNL A   1      43.854  27.931  32.774  1.00  0.00     0.074 A 
ATOM     37  C   UNL A   1      44.809  27.023  32.168  1.00  0.00     0.031 C 
ATOM     38  C   UNL A   1      43.966  28.427  34.032  1.00  0.00     0.034 A 
BRANCH  25  39
ATOM     39  C   UNL A   1      39.339  32.229  35.666  1.00  0.00     0.023 A 
ATOM     40  C   UNL A   1      39.743  33.572  35.767  1.00  0.00     0.031 A 
ATOM     41  C   UNL A   1      38.381  31.763  36.585  1.00  0.00     0.131 A 
ATOM     42  C   UNL A   1      39.250  34.377  36.806  1.00  0.00     0.055 A 
ATOM     43  C   UNL A   1      37.836  32.591  37.569  1.00  0.00     0.041 A 
ATOM     44  F   UNL A   1      37.969  30.485  36.553  1.00  0.00    -0.206 F 
ATOM     45  C   UNL A   1      38.282  33.903  37.693  1.00  0.00     0.022 A 
BRANCH  42  46
ATOM     46  S   UNL A   1      40.001  36.008  37.071  1.00  0.00     0.124 S 
ATOM     47  O   UNL A   1      39.206  36.523  38.184  1.00  0.00    -0.237 OA
ATOM     48  O   UNL A   1      41.386  35.672  37.377  1.00  0.00    -0.237 OA
ATOM     49  O   UNL A   1      39.791  36.695  35.798  1.00  0.00    -0.744 OA
ENDBRANCH  42  46
ENDBRANCH  25  39
BRANCH  26  50
ATOM     50  C   UNL A   1      43.072  26.470  28.364  1.00  0.00     0.023 A 
ATOM     51  C   UNL A   1      44.135  26.928  27.572  1.00  0.00     0.031 A 
ATOM     52  C   UNL A   1      42.544  25.195  28.091  1.00  0.00     0.131 A 
ATOM     53  C   UNL A   1      44.615  26.131  26.521  1.00  0.00     0.055 A 
ATOM     54  C   UNL A   1      43.056  24.386  27.077  1.00  0.00     0.041 A 
ATOM     55  F   UNL A   1      41.530  24.710  28.826  1.00  0.00    -0.206 F 
ATOM     56  C   UNL A   1      44.092  24.859  26.277  1.00  0.00     0.022 A 
BRANCH  53  57
ATOM     57  S   UNL A   1      45.896  26.810  25.430  1.00  0.00     0.124 S 
ATOM     58  O   UNL A   1      45.178  27.893  24.767  1.00  0.00    -0.237 OA
ATOM     59  O   UNL A   1      46.923  27.211  26.384  1.00  0.00    -0.237 OA
ATOM     60  O   UNL A   1      46.249  25.679  24.575  1.00  0.00    -0.744 OA
ENDBRANCH  53  57
ENDBRANCH  26  50
BRANCH  38  61
ATOM     61  C   UNL A   1      45.155  27.963  34.837  1.00  0.00     0.023 A 
ATOM     62  C   UNL A   1      45.105  26.794  35.617  1.00  0.00     0.031 A 
ATOM     63  C   UNL A   1      46.336  28.724  34.856  1.00  0.00     0.131 A 
ATOM     64  C   UNL A   1      46.193  26.455  36.436  1.00  0.00     0.055 A 
ATOM     65  C   UNL A   1      47.437  28.350  35.628  1.00  0.00     0.041 A 
ATOM     66  F   UNL A   1      46.436  29.851  34.132  1.00  0.00    -0.206 F 
ATOM     67  C   UNL A   1      47.364  27.219  36.435  1.00  0.00     0.022 A 
BRANCH  64  68
ATOM     68  S   UNL A   1      46.020  25.060  37.582  1.00  0.00     0.124 S 
ATOM     69  O   UNL A   1      44.580  25.042  37.822  1.00  0.00    -0.237 OA
ATOM     70  O   UNL A   1      46.550  23.947  36.801  1.00  0.00    -0.237 OA
ATOM     71  O   UNL A   1      46.834  25.455  38.730  1.00  0.00    -0.744 OA
ENDBRANCH  64  68
ENDBRANCH  38  61
ENDBRANCH  12  13
ENDBRANCH   5   7
ENDBRANCH   2   3
ENDBRANCH   1   2
BRANCH   1  72
ATOM     72  C   UNL A   1      31.656  27.750  25.396  1.00  0.00     0.023 C 
BRANCH  72  73
ATOM     73  C   UNL A   1      31.461  26.492  24.551  1.00  0.00     0.116 C 
BRANCH  73  74
ATOM     74  N   UNL A   1      32.403  26.427  23.450  1.00  0.00    -0.351 N 
ATOM     75  C   UNL A   1      33.361  25.500  23.157  1.00  0.00     0.278 C 
ATOM     76  H   UNL A   1      32.343  27.174  22.811  1.00  0.00     0.163 HD
ATOM     77  O   UNL A   1      34.057  25.698  22.160  1.00  0.00    -0.268 OA
BRANCH  75  78
ATOM     78  C   UNL A   1      33.520  24.257  24.047  1.00  0.00     0.277 C 
ATOM     79  C   UNL A   1      33.153  23.015  23.200  1.00  0.00     0.114 C 
ATOM     80  N   UNL A   1      34.914  24.171  24.549  1.00  0.00    -0.325 N 
ATOM     81  C   UNL A   1      33.499  21.785  23.966  1.00  0.00    -0.006 A 
ATOM     82  C   UNL A   1      35.138  23.061  25.491  1.00  0.00     0.262 C 
ATOM     83  H   UNL A   1      35.140  25.045  25.023  1.00  0.00     0.347 HD
ATOM     84  H   UNL A   1      35.512  24.000  23.741  1.00  0.00     0.347 HD
ATOM     85  C   UNL A   1      34.389  21.841  25.022  1.00  0.00     0.083 A 
ATOM     86  C   UNL A   1      33.115  20.432  23.785  1.00  0.00     0.003 A 
ATOM     87  N   UNL A   1      34.444  20.591  25.581  1.00  0.00    -0.353 N 
ATOM     88  C   UNL A   1      33.721  19.702  24.812  1.00  0.00     0.046 A 
ATOM     89  C   UNL A   1      32.326  19.751  22.839  1.00  0.00     0.010 A 
ATOM     90  H   UNL A   1      34.926  20.362  26.409  1.00  0.00     0.166 HD
ATOM     91  C   UNL A   1      33.568  18.315  24.937  1.00  0.00     0.026 A 
ATOM     92  C   UNL A   1      32.177  18.364  22.943  1.00  0.00     0.001 A 
ATOM     93  C   UNL A   1      32.788  17.659  23.978  1.00  0.00     0.002 A 
BRANCH  82  94
ATOM     94  C   UNL A   1      36.648  22.872  25.645  1.00  0.00     0.016 A 
ATOM     95  C   UNL A   1      37.469  23.794  26.313  1.00  0.00     0.014 A 
ATOM     96  C   UNL A   1      37.239  21.678  25.196  1.00  0.00     0.014 A 
ATOM     97  C   UNL A   1      38.832  23.543  26.492  1.00  0.00     0.047 A 
ATOM     98  C   UNL A   1      38.598  21.411  25.409  1.00  0.00     0.047 A 
ATOM     99  C   UNL A   1      39.402  22.345  26.061  1.00  0.00     0.129 A 
BRANCH  99 100
ATOM    100  O   UNL A   1      40.732  22.219  26.339  1.00  0.00    -0.406 OA
BRANCH 100 101
ATOM    101  C   UNL A   1      41.103  21.318  27.366  1.00  0.00     0.573 C 
ATOM    102  F   UNL A   1      42.422  21.041  27.331  1.00  0.00    -0.132 F 
ATOM    103  F   UNL A   1      40.772  21.806  28.582  1.00  0.00    -0.132 F 
ATOM    104  F   UNL A   1      40.425  20.160  27.187  1.00  0.00    -0.132 F 
ENDBRANCH 100 101
ENDBRANCH  99 100
ENDBRANCH  82  94
ENDBRANCH  75  78
ENDBRANCH  73  74
ENDBRANCH  72  73
ENDBRANCH   1  72
TORSDOF 17
ENDMDL
MODEL 3
REMARK VINA RESULT:     -13.0      2.253      3.859
REMARK SMILES O=C(NCCCCNC(=O)[C@H]1Cc2c([nH]c3ccccc23)[C@@H](c2ccc(OC(F)(F)F)cc2)[NH2+]1)c1ccc(-c2c3nc(c(-c4cc(S(=O)(=O)[O-])ccc4F)c4ccc([nH]4)c(-c4cc(S(=O)(=O)[O-])ccc4F)c4nc(c(-c5cc(S(=O)(=O)[O-])ccc5F)c5ccc2[nH]5)C=C4)C=C3)cc1
REMARK SMILES IDX 5 1 4 2 3 3 1 4 2 5 35 7 36 8 97 9 37 10 96 11 38 12 39 13
REMARK SMILES IDX 40 14 90 15 41 16 95 17 89 18 91 19 42 20 94 21 88 22 87 23
REMARK SMILES IDX 43 25 75 26 55 27 74 28 56 29 59 30 73 31 92 32 57 33 58 34
REMARK SMILES IDX 72 36 93 37 60 38 44 39 45 40 53 41 46 42 52 43 54 44 51 45
REMARK SMILES IDX 47 46 48 47 49 48 50 49 76 50 77 51 85 52 78 53 84 54 86 55
REMARK SMILES IDX 83 56 79 57 80 58 81 59 82 60 61 61 62 62 70 63 63 64 69 65
REMARK SMILES IDX 71 66 68 67 64 68 65 69 66 70 67 71 6 72 7 73 8 74 9 75
REMARK SMILES IDX 10 77 11 78 12 79 34 80 13 81 22 82 14 85 21 86 15 87 16 88
REMARK SMILES IDX 20 89 17 91 19 92 18 93 23 94 24 95 33 96 25 97 32 98 26 99
REMARK SMILES IDX 27 100 28 101 29 102 30 103 31 104
REMARK H PARENT 3 6 91 24 59 35 8 76 34 83 34 84 15 90
REMARK Flexibility Score: inf
ROOT
ATOM      1  C   UNL A   1      34.592  22.647  26.785  1.00  0.00     0.023 C 
ENDROOT
BRANCH   1   2
ATOM      2  C   UNL A   1      35.979  22.943  26.227  1.00  0.00     0.116 C 
BRANCH   2   3
ATOM      3  N   UNL A   1      36.792  21.751  26.035  1.00  0.00    -0.352 N 
ATOM      4  O   UNL A   1      38.686  20.562  25.747  1.00  0.00    -0.269 OA
ATOM      5  C   UNL A   1      38.164  21.637  26.030  1.00  0.00     0.251 C 
ATOM      6  H   UNL A   1      36.294  20.915  25.891  1.00  0.00     0.163 HD
BRANCH   5   7
ATOM      7  C   UNL A   1      39.003  22.819  26.330  1.00  0.00     0.039 A 
ATOM      8  C   UNL A   1      40.057  22.734  27.241  1.00  0.00     0.014 A 
ATOM      9  C   UNL A   1      38.713  24.036  25.706  1.00  0.00     0.014 A 
ATOM     10  C   UNL A   1      40.717  23.890  27.642  1.00  0.00     0.010 A 
ATOM     11  C   UNL A   1      39.434  25.184  26.052  1.00  0.00     0.010 A 
ATOM     12  C   UNL A   1      40.413  25.130  27.055  1.00  0.00    -0.014 A 
BRANCH  12  13
ATOM     13  C   UNL A   1      41.150  26.344  27.500  1.00  0.00     0.031 A 
ATOM     14  C   UNL A   1      42.552  26.620  27.024  1.00  0.00     0.074 A 
ATOM     15  C   UNL A   1      40.523  27.228  28.301  1.00  0.00     0.049 A 
ATOM     16  N   UNL A   1      43.318  27.653  27.268  1.00  0.00    -0.248 NA
ATOM     17  C   UNL A   1      43.179  25.596  26.175  1.00  0.00     0.031 C 
ATOM     18  C   UNL A   1      39.168  27.064  28.832  1.00  0.00     0.029 A 
ATOM     19  N   UNL A   1      40.924  28.447  28.785  1.00  0.00    -0.354 N 
ATOM     20  C   UNL A   1      44.524  27.398  26.622  1.00  0.00     0.074 A 
ATOM     21  C   UNL A   1      44.395  26.093  26.004  1.00  0.00     0.031 C 
ATOM     22  C   UNL A   1      38.828  28.166  29.517  1.00  0.00     0.029 A 
ATOM     23  C   UNL A   1      39.959  29.086  29.528  1.00  0.00     0.049 A 
ATOM     24  H   UNL A   1      41.815  28.827  28.617  1.00  0.00     0.167 HD
ATOM     25  C   UNL A   1      45.631  28.181  26.545  1.00  0.00     0.034 A 
ATOM     26  C   UNL A   1      39.982  30.277  30.156  1.00  0.00     0.034 A 
ATOM     27  C   UNL A   1      45.738  29.485  27.157  1.00  0.00     0.049 A 
ATOM     28  C   UNL A   1      41.226  31.118  30.070  1.00  0.00     0.074 A 
ATOM     29  C   UNL A   1      46.793  30.382  27.102  1.00  0.00     0.029 A 
ATOM     30  N   UNL A   1      44.758  30.081  27.942  1.00  0.00    -0.354 N 
ATOM     31  N   UNL A   1      42.348  30.870  29.435  1.00  0.00    -0.248 NA
ATOM     32  C   UNL A   1      41.205  32.398  30.786  1.00  0.00     0.031 C 
ATOM     33  C   UNL A   1      46.479  31.484  27.905  1.00  0.00     0.029 A 
ATOM     34  C   UNL A   1      45.197  31.313  28.405  1.00  0.00     0.049 A 
ATOM     35  H   UNL A   1      43.879  29.685  28.143  1.00  0.00     0.167 HD
ATOM     36  C   UNL A   1      43.161  31.977  29.661  1.00  0.00     0.074 A 
ATOM     37  C   UNL A   1      42.390  32.900  30.471  1.00  0.00     0.031 C 
ATOM     38  C   UNL A   1      44.428  32.213  29.234  1.00  0.00     0.034 A 
BRANCH  25  39
ATOM     39  C   UNL A   1      46.830  27.622  25.814  1.00  0.00     0.023 A 
ATOM     40  C   UNL A   1      47.132  27.984  24.490  1.00  0.00     0.031 A 
ATOM     41  C   UNL A   1      47.672  26.688  26.446  1.00  0.00     0.131 A 
ATOM     42  C   UNL A   1      48.198  27.363  23.818  1.00  0.00     0.055 A 
ATOM     43  C   UNL A   1      48.777  26.132  25.798  1.00  0.00     0.041 A 
ATOM     44  F   UNL A   1      47.424  26.287  27.704  1.00  0.00    -0.206 F 
ATOM     45  C   UNL A   1      49.036  26.457  24.470  1.00  0.00     0.022 A 
BRANCH  42  46
ATOM     46  S   UNL A   1      48.383  27.647  22.035  1.00  0.00     0.124 S 
ATOM     47  O   UNL A   1      49.505  28.581  21.997  1.00  0.00    -0.237 OA
ATOM     48  O   UNL A   1      48.650  26.306  21.528  1.00  0.00    -0.237 OA
ATOM     49  O   UNL A   1      47.096  28.218  21.643  1.00  0.00    -0.744 OA
ENDBRANCH  42  46
ENDBRANCH  25  39
BRANCH  26  50
ATOM     50  C   UNL A   1      38.796  30.739  30.929  1.00  0.00     0.023 A 
ATOM     51  C   UNL A   1      37.876  31.641  30.373  1.00  0.00     0.031 A 
ATOM     52  C   UNL A   1      38.577  30.298  32.247  1.00  0.00     0.131 A 
ATOM     53  C   UNL A   1      36.797  32.099  31.143  1.00  0.00     0.055 A 
ATOM     54  C   UNL A   1      37.476  30.719  32.992  1.00  0.00     0.041 A 
ATOM     55  F   UNL A   1      39.426  29.430  32.821  1.00  0.00    -0.206 F 
ATOM     56  C   UNL A   1      36.583  31.635  32.443  1.00  0.00     0.022 A 
BRANCH  53  57
ATOM     57  S   UNL A   1      35.706  33.368  30.442  1.00  0.00     0.124 S 
ATOM     58  O   UNL A   1      35.731  34.390  31.482  1.00  0.00    -0.237 OA
ATOM     59  O   UNL A   1      36.391  33.701  29.198  1.00  0.00    -0.237 OA
ATOM     60  O   UNL A   1      34.432  32.670  30.281  1.00  0.00    -0.744 OA
ENDBRANCH  53  57
ENDBRANCH  26  50
BRANCH  38  61
ATOM     61  C   UNL A   1      45.034  33.539  29.618  1.00  0.00     0.023 A 
ATOM     62  C   UNL A   1      44.877  34.682  28.814  1.00  0.00     0.031 A 
ATOM     63  C   UNL A   1      45.814  33.649  30.782  1.00  0.00     0.131 A 
ATOM     64  C   UNL A   1      45.545  35.869  29.150  1.00  0.00     0.055 A 
ATOM     65  C   UNL A   1      46.430  34.848  31.142  1.00  0.00     0.041 A 
ATOM     66  F   UNL A   1      46.000  32.588  31.584  1.00  0.00    -0.206 F 
ATOM     67  C   UNL A   1      46.310  35.963  30.317  1.00  0.00     0.022 A 
BRANCH  64  68
ATOM     68  S   UNL A   1      45.490  37.260  27.987  1.00  0.00     0.124 S 
ATOM     69  O   UNL A   1      46.144  36.697  26.810  1.00  0.00    -0.237 OA
ATOM     70  O   UNL A   1      44.056  37.505  27.863  1.00  0.00    -0.237 OA
ATOM     71  O   UNL A   1      46.240  38.311  28.671  1.00  0.00    -0.744 OA
ENDBRANCH  64  68
ENDBRANCH  38  61
ENDBRANCH  12  13
ENDBRANCH   5   7
ENDBRANCH   2   3
ENDBRANCH   1   2
BRANCH   1  72
ATOM     72  C   UNL A   1      33.763  21.622  26.003  1.00  0.00     0.023 C 
BRANCH  72  73
ATOM     73  C   UNL A   1      32.740  22.221  25.037  1.00  0.00     0.116 C 
BRANCH  73  74
ATOM     74  N   UNL A   1      33.375  22.833  23.886  1.00  0.00    -0.351 N 
ATOM     75  C   UNL A   1      33.467  24.144  23.519  1.00  0.00     0.278 C 
ATOM     76  H   UNL A   1      33.809  22.200  23.269  1.00  0.00     0.163 HD
ATOM     77  O   UNL A   1      34.047  24.398  22.461  1.00  0.00    -0.268 OA
BRANCH  75  78
ATOM     78  C   UNL A   1      32.877  25.236  24.425  1.00  0.00     0.277 C 
ATOM     79  C   UNL A   1      34.029  26.185  24.837  1.00  0.00     0.114 C 
ATOM     80  N   UNL A   1      31.809  25.970  23.702  1.00  0.00    -0.325 N 
ATOM     81  C   UNL A   1      33.455  27.367  25.539  1.00  0.00    -0.006 A 
ATOM     82  C   UNL A   1      31.118  26.977  24.526  1.00  0.00     0.262 C 
ATOM     83  H   UNL A   1      31.120  25.295  23.373  1.00  0.00     0.347 HD
ATOM     84  H   UNL A   1      32.259  26.472  22.936  1.00  0.00     0.347 HD
ATOM     85  C   UNL A   1      32.119  27.690  25.398  1.00  0.00     0.083 A 
ATOM     86  C   UNL A   1      34.063  28.358  26.351  1.00  0.00     0.003 A 
ATOM     87  N   UNL A   1      31.864  28.759  26.216  1.00  0.00    -0.353 N 
ATOM     88  C   UNL A   1      33.044  29.220  26.765  1.00  0.00     0.046 A 
ATOM     89  C   UNL A   1      35.384  28.618  26.763  1.00  0.00     0.010 A 
ATOM     90  H   UNL A   1      30.973  29.140  26.389  1.00  0.00     0.166 HD
ATOM     91  C   UNL A   1      33.288  30.333  27.579  1.00  0.00     0.026 A 
ATOM     92  C   UNL A   1      35.645  29.735  27.563  1.00  0.00     0.001 A 
ATOM     93  C   UNL A   1      34.610  30.577  27.966  1.00  0.00     0.002 A 
BRANCH  82  94
ATOM     94  C   UNL A   1      30.316  27.882  23.590  1.00  0.00     0.016 A 
ATOM     95  C   UNL A   1      28.914  27.891  23.552  1.00  0.00     0.014 A 
ATOM     96  C   UNL A   1      30.996  28.827  22.801  1.00  0.00     0.014 A 
ATOM     97  C   UNL A   1      28.223  28.787  22.733  1.00  0.00     0.047 A 
ATOM     98  C   UNL A   1      30.302  29.750  22.008  1.00  0.00     0.047 A 
ATOM     99  C   UNL A   1      28.908  29.734  21.972  1.00  0.00     0.129 A 
BRANCH  99 100
ATOM    100  O   UNL A   1      28.105  30.570  21.251  1.00  0.00    -0.406 OA
BRANCH 100 101
ATOM    101  C   UNL A   1      27.967  31.902  21.713  1.00  0.00     0.573 C 
ATOM    102  F   UNL A   1      27.266  31.957  22.864  1.00  0.00    -0.132 F 
ATOM    103  F   UNL A   1      29.174  32.483  21.885  1.00  0.00    -0.132 F 
ATOM    104  F   UNL A   1      27.295  32.612  20.777  1.00  0.00    -0.132 F 
ENDBRANCH 100 101
ENDBRANCH  99 100
ENDBRANCH  82  94
ENDBRANCH  75  78
ENDBRANCH  73  74
ENDBRANCH  72  73
ENDBRANCH   1  72
TORSDOF 17
ENDMDL
