MODEL 1
REMARK VINA RESULT:     -11.5      0.000      0.000
REMARK SMILES C[N@H+](Cc1cc(Cl)ccc1[N+](=O)[O-])[C@H]1COC[C@@H]1C(=O)NCCCCNC(=O)c1ccc(-c2c3nc(c(-c4cc(S(=O)(=O)[O-])ccc4F)c4ccc([nH]4)c(-c4cc(S(=O)(=O)[O-])ccc4F)c4nc(c(-c5cc(S(=O)(=O)[O-])ccc5F)c5ccc2[nH]5)C=C4)C=C3)cc1
REMARK SMILES IDX 23 1 22 2 21 3 19 4 20 5 18 7 14 8 15 9 16 10 17 11 2 12
REMARK SMILES IDX 1 13 3 15 4 16 5 17 10 18 6 19 9 20 7 21 8 22 11 23 12 24
REMARK SMILES IDX 13 25 24 26 25 27 26 28 27 29 28 31 29 32 30 33 91 34 31 35
REMARK SMILES IDX 90 36 32 37 33 38 34 39 84 40 35 41 89 42 83 43 85 44 36 45
REMARK SMILES IDX 88 46 82 47 81 48 37 50 69 51 49 52 68 53 50 54 53 55 67 56
REMARK SMILES IDX 86 57 51 58 52 59 66 61 87 62 54 63 38 64 39 65 47 66 40 67
REMARK SMILES IDX 46 68 48 69 45 70 41 71 42 72 43 73 44 74 70 75 71 76 79 77
REMARK SMILES IDX 72 78 78 79 80 80 77 81 73 82 74 83 75 84 76 85 55 86 56 87
REMARK SMILES IDX 64 88 57 89 63 90 65 91 62 92 58 93 59 94 60 95 61 96
REMARK H PARENT 21 6 2 14 26 30 85 49 53 60
REMARK Flexibility Score: inf
ROOT
ATOM      1  C   UNL A   1      31.491  29.768  25.410  1.00  0.00     0.023 C 
ENDROOT
BRANCH   1   2
ATOM      2  C   UNL A   1      31.096  29.325  23.998  1.00  0.00     0.116 C 
BRANCH   2   3
ATOM      3  N   UNL A   1      32.269  29.047  23.200  1.00  0.00    -0.356 N 
ATOM      4  C   UNL A   1      32.816  27.918  22.696  1.00  0.00     0.231 C 
ATOM      5  O   UNL A   1      33.841  28.107  22.026  1.00  0.00    -0.274 OA
ATOM      6  H   UNL A   1      32.782  29.856  22.974  1.00  0.00     0.163 HD
BRANCH   4   7
ATOM      7  C   UNL A   1      32.224  26.503  22.780  1.00  0.00     0.164 C 
ATOM      8  C   UNL A   1      32.920  25.381  23.550  1.00  0.00     0.225 C 
ATOM      9  C   UNL A   1      33.805  24.757  22.471  1.00  0.00     0.226 C 
ATOM     10  O   UNL A   1      33.044  24.797  21.266  1.00  0.00    -0.374 OA
ATOM     11  C   UNL A   1      32.182  25.949  21.342  1.00  0.00     0.180 C 
BRANCH   8  12
ATOM     12  N   UNL A   1      31.972  24.444  24.251  1.00  0.00    -0.328 N 
ATOM     13  C   UNL A   1      30.666  25.097  24.431  1.00  0.00     0.333 C 
ATOM     14  H   UNL A   1      31.865  23.628  23.649  1.00  0.00     0.348 HD
BRANCH  12  15
ATOM     15  C   UNL A   1      32.489  23.902  25.524  1.00  0.00     0.306 C 
BRANCH  15  16
ATOM     16  C   UNL A   1      33.790  23.133  25.372  1.00  0.00     0.085 A 
ATOM     17  C   UNL A   1      34.985  23.748  25.798  1.00  0.00     0.037 A 
ATOM     18  C   UNL A   1      33.866  21.809  24.902  1.00  0.00     0.278 A 
ATOM     19  C   UNL A   1      36.195  23.050  25.785  1.00  0.00     0.042 A 
ATOM     20  C   UNL A   1      35.083  21.106  24.892  1.00  0.00     0.088 A 
ATOM     21  Cl  UNL A   1      37.627  23.821  26.345  1.00  0.00    -0.084 Cl
ATOM     22  C   UNL A   1      36.247  21.730  25.342  1.00  0.00     0.027 A 
BRANCH  18  23
ATOM     23  N   UNL A   1      32.685  21.110  24.406  1.00  0.00     0.063 N 
ATOM     24  O   UNL A   1      32.287  21.411  23.271  1.00  0.00    -0.258 OA
ATOM     25  O   UNL A   1      32.112  20.335  25.183  1.00  0.00    -0.258 OA
ENDBRANCH  18  23
ENDBRANCH  15  16
ENDBRANCH  12  15
ENDBRANCH   8  12
ENDBRANCH   4   7
ENDBRANCH   2   3
ENDBRANCH   1   2
BRANCH   1  26
ATOM     26  C   UNL A   1      32.113  28.664  26.273  1.00  0.00     0.023 C 
BRANCH  26  27
ATOM     27  C   UNL A   1      33.312  29.095  27.108  1.00  0.00     0.116 C 
BRANCH  27  28
ATOM     28  N   UNL A   1      33.348  30.525  27.375  1.00  0.00    -0.352 N 
ATOM     29  C   UNL A   1      34.344  31.250  27.994  1.00  0.00     0.251 C 
ATOM     30  H   UNL A   1      32.564  31.038  27.077  1.00  0.00     0.163 HD
ATOM     31  O   UNL A   1      34.182  32.432  28.241  1.00  0.00    -0.269 OA
BRANCH  29  32
ATOM     32  C   UNL A   1      35.583  30.546  28.389  1.00  0.00     0.039 A 
ATOM     33  C   UNL A   1      36.729  30.706  27.609  1.00  0.00     0.014 A 
ATOM     34  C   UNL A   1      35.619  29.787  29.561  1.00  0.00     0.014 A 
ATOM     35  C   UNL A   1      37.935  30.156  28.044  1.00  0.00     0.010 A 
ATOM     36  C   UNL A   1      36.836  29.314  30.034  1.00  0.00     0.010 A 
ATOM     37  C   UNL A   1      38.004  29.485  29.276  1.00  0.00    -0.014 A 
BRANCH  37  38
ATOM     38  C   UNL A   1      39.284  28.924  29.776  1.00  0.00     0.031 A 
ATOM     39  C   UNL A   1      39.945  29.539  30.981  1.00  0.00     0.074 A 
ATOM     40  C   UNL A   1      39.879  27.915  29.111  1.00  0.00     0.049 A 
ATOM     41  N   UNL A   1      41.090  29.246  31.540  1.00  0.00    -0.248 NA
ATOM     42  C   UNL A   1      39.239  30.664  31.612  1.00  0.00     0.031 C 
ATOM     43  C   UNL A   1      39.360  27.277  27.900  1.00  0.00     0.029 A 
ATOM     44  N   UNL A   1      41.053  27.250  29.359  1.00  0.00    -0.354 N 
ATOM     45  C   UNL A   1      41.252  30.165  32.571  1.00  0.00     0.074 A 
ATOM     46  C   UNL A   1      40.125  31.069  32.507  1.00  0.00     0.031 C 
ATOM     47  C   UNL A   1      40.191  26.285  27.535  1.00  0.00     0.029 A 
ATOM     48  C   UNL A   1      41.318  26.243  28.460  1.00  0.00     0.049 A 
ATOM     49  H   UNL A   1      41.649  27.472  30.110  1.00  0.00     0.167 HD
ATOM     50  C   UNL A   1      42.233  30.229  33.506  1.00  0.00     0.034 A 
ATOM     51  C   UNL A   1      42.353  25.382  28.397  1.00  0.00     0.034 A 
ATOM     52  C   UNL A   1      43.333  29.299  33.567  1.00  0.00     0.049 A 
ATOM     53  C   UNL A   1      43.431  25.467  29.446  1.00  0.00     0.074 A 
ATOM     54  C   UNL A   1      44.349  29.220  34.504  1.00  0.00     0.029 A 
ATOM     55  N   UNL A   1      43.565  28.284  32.646  1.00  0.00    -0.354 N 
ATOM     56  N   UNL A   1      43.541  26.301  30.456  1.00  0.00    -0.248 NA
ATOM     57  C   UNL A   1      44.518  24.485  29.355  1.00  0.00     0.031 C 
ATOM     58  C   UNL A   1      45.225  28.199  34.118  1.00  0.00     0.029 A 
ATOM     59  C   UNL A   1      44.719  27.591  32.979  1.00  0.00     0.049 A 
ATOM     60  H   UNL A   1      42.992  28.085  31.871  1.00  0.00     0.167 HD
ATOM     61  C   UNL A   1      44.690  25.918  31.141  1.00  0.00     0.074 A 
ATOM     62  C   UNL A   1      45.230  24.773  30.434  1.00  0.00     0.031 C 
ATOM     63  C   UNL A   1      45.245  26.456  32.256  1.00  0.00     0.034 A 
BRANCH  50  64
ATOM     64  C   UNL A   1      42.158  31.359  34.508  1.00  0.00     0.023 A 
ATOM     65  C   UNL A   1      41.203  31.366  35.540  1.00  0.00     0.031 A 
ATOM     66  C   UNL A   1      43.005  32.474  34.393  1.00  0.00     0.131 A 
ATOM     67  C   UNL A   1      41.045  32.505  36.344  1.00  0.00     0.055 A 
ATOM     68  C   UNL A   1      42.907  33.567  35.258  1.00  0.00     0.041 A 
ATOM     69  F   UNL A   1      43.925  32.537  33.417  1.00  0.00    -0.206 F 
ATOM     70  C   UNL A   1      41.908  33.596  36.227  1.00  0.00     0.022 A 
BRANCH  67  71
ATOM     71  S   UNL A   1      39.582  32.612  37.412  1.00  0.00     0.124 S 
ATOM     72  O   UNL A   1      39.019  33.900  37.011  1.00  0.00    -0.237 OA
ATOM     73  O   UNL A   1      38.819  31.433  37.020  1.00  0.00    -0.237 OA
ATOM     74  O   UNL A   1      40.139  32.577  38.762  1.00  0.00    -0.744 OA
ENDBRANCH  67  71
ENDBRANCH  50  64
BRANCH  51  75
ATOM     75  C   UNL A   1      42.413  24.349  27.324  1.00  0.00     0.023 A 
ATOM     76  C   UNL A   1      41.639  23.181  27.411  1.00  0.00     0.031 A 
ATOM     77  C   UNL A   1      43.268  24.494  26.217  1.00  0.00     0.131 A 
ATOM     78  C   UNL A   1      41.767  22.181  26.434  1.00  0.00     0.055 A 
ATOM     79  C   UNL A   1      43.358  23.517  25.224  1.00  0.00     0.041 A 
ATOM     80  F   UNL A   1      44.022  25.596  26.082  1.00  0.00    -0.206 F 
ATOM     81  C   UNL A   1      42.613  22.347  25.335  1.00  0.00     0.022 A 
BRANCH  78  82
ATOM     82  S   UNL A   1      40.860  20.627  26.660  1.00  0.00     0.124 S 
ATOM     83  O   UNL A   1      40.894  20.471  28.110  1.00  0.00    -0.237 OA
ATOM     84  O   UNL A   1      39.561  20.947  26.079  1.00  0.00    -0.237 OA
ATOM     85  O   UNL A   1      41.655  19.658  25.907  1.00  0.00    -0.744 OA
ENDBRANCH  78  82
ENDBRANCH  51  75
BRANCH  63  86
ATOM     86  C   UNL A   1      46.473  25.771  32.804  1.00  0.00     0.023 A 
ATOM     87  C   UNL A   1      47.758  26.039  32.301  1.00  0.00     0.031 A 
ATOM     88  C   UNL A   1      46.349  24.817  33.831  1.00  0.00     0.131 A 
ATOM     89  C   UNL A   1      48.861  25.317  32.781  1.00  0.00     0.055 A 
ATOM     90  C   UNL A   1      47.458  24.147  34.349  1.00  0.00     0.041 A 
ATOM     91  F   UNL A   1      45.145  24.522  34.346  1.00  0.00    -0.206 F 
ATOM     92  C   UNL A   1      48.721  24.385  33.814  1.00  0.00     0.022 A 
BRANCH  89  93
ATOM     93  S   UNL A   1      50.467  25.541  31.971  1.00  0.00     0.124 S 
ATOM     94  O   UNL A   1      51.381  25.561  33.108  1.00  0.00    -0.237 OA
ATOM     95  O   UNL A   1      50.549  24.366  31.108  1.00  0.00    -0.237 OA
ATOM     96  O   UNL A   1      50.321  26.815  31.268  1.00  0.00    -0.744 OA
ENDBRANCH  89  93
ENDBRANCH  63  86
ENDBRANCH  37  38
ENDBRANCH  29  32
ENDBRANCH  27  28
ENDBRANCH  26  27
ENDBRANCH   1  26
TORSDOF 18
ENDMDL
MODEL 2
REMARK VINA RESULT:     -11.3      3.549      8.596
REMARK SMILES C[N@H+](Cc1cc(Cl)ccc1[N+](=O)[O-])[C@H]1COC[C@@H]1C(=O)NCCCCNC(=O)c1ccc(-c2c3nc(c(-c4cc(S(=O)(=O)[O-])ccc4F)c4ccc([nH]4)c(-c4cc(S(=O)(=O)[O-])ccc4F)c4nc(c(-c5cc(S(=O)(=O)[O-])ccc5F)c5ccc2[nH]5)C=C4)C=C3)cc1
REMARK SMILES IDX 23 1 22 2 21 3 19 4 20 5 18 7 14 8 15 9 16 10 17 11 2 12
REMARK SMILES IDX 1 13 3 15 4 16 5 17 10 18 6 19 9 20 7 21 8 22 11 23 12 24
REMARK SMILES IDX 13 25 24 26 25 27 26 28 27 29 28 31 29 32 30 33 91 34 31 35
REMARK SMILES IDX 90 36 32 37 33 38 34 39 84 40 35 41 89 42 83 43 85 44 36 45
REMARK SMILES IDX 88 46 82 47 81 48 37 50 69 51 49 52 68 53 50 54 53 55 67 56
REMARK SMILES IDX 86 57 51 58 52 59 66 61 87 62 54 63 38 64 39 65 47 66 40 67
REMARK SMILES IDX 46 68 48 69 45 70 41 71 42 72 43 73 44 74 70 75 71 76 79 77
REMARK SMILES IDX 72 78 78 79 80 80 77 81 73 82 74 83 75 84 76 85 55 86 56 87
REMARK SMILES IDX 64 88 57 89 63 90 65 91 62 92 58 93 59 94 60 95 61 96
REMARK H PARENT 21 6 2 14 26 30 85 49 53 60
REMARK Flexibility Score: inf
ROOT
ATOM      1  C   UNL A   1      31.564  30.534  26.660  1.00  0.00     0.023 C 
ENDROOT
BRANCH   1   2
ATOM      2  C   UNL A   1      32.774  30.069  25.844  1.00  0.00     0.116 C 
BRANCH   2   3
ATOM      3  N   UNL A   1      32.368  29.628  24.529  1.00  0.00    -0.356 N 
ATOM      4  C   UNL A   1      32.146  28.416  23.971  1.00  0.00     0.231 C 
ATOM      5  O   UNL A   1      31.776  28.463  22.789  1.00  0.00    -0.274 OA
ATOM      6  H   UNL A   1      32.220  30.372  23.901  1.00  0.00     0.163 HD
BRANCH   4   7
ATOM      7  C   UNL A   1      32.193  27.060  24.691  1.00  0.00     0.164 C 
ATOM      8  C   UNL A   1      32.148  25.737  23.926  1.00  0.00     0.225 C 
ATOM      9  C   UNL A   1      30.647  25.456  23.867  1.00  0.00     0.226 C 
ATOM     10  O   UNL A   1      30.115  25.887  25.118  1.00  0.00    -0.374 OA
ATOM     11  C   UNL A   1      30.934  26.980  25.577  1.00  0.00     0.180 C 
BRANCH   8  12
ATOM     12  N   UNL A   1      33.001  24.655  24.532  1.00  0.00    -0.328 N 
ATOM     13  C   UNL A   1      33.941  25.241  25.499  1.00  0.00     0.333 C 
ATOM     14  H   UNL A   1      32.368  24.017  25.016  1.00  0.00     0.348 HD
BRANCH  12  15
ATOM     15  C   UNL A   1      33.696  23.807  23.541  1.00  0.00     0.306 C 
BRANCH  15  16
ATOM     16  C   UNL A   1      34.216  22.502  24.118  1.00  0.00     0.085 A 
ATOM     17  C   UNL A   1      33.283  21.505  24.468  1.00  0.00     0.037 A 
ATOM     18  C   UNL A   1      35.583  22.195  24.252  1.00  0.00     0.278 A 
ATOM     19  C   UNL A   1      33.707  20.246  24.899  1.00  0.00     0.042 A 
ATOM     20  C   UNL A   1      36.009  20.927  24.682  1.00  0.00     0.088 A 
ATOM     21  Cl  UNL A   1      32.539  19.043  25.284  1.00  0.00    -0.084 Cl
ATOM     22  C   UNL A   1      35.063  19.950  24.999  1.00  0.00     0.027 A 
BRANCH  18  23
ATOM     23  N   UNL A   1      36.616  23.181  23.948  1.00  0.00     0.063 N 
ATOM     24  O   UNL A   1      36.931  23.319  22.758  1.00  0.00    -0.258 OA
ATOM     25  O   UNL A   1      37.168  23.742  24.904  1.00  0.00    -0.258 OA
ENDBRANCH  18  23
ENDBRANCH  15  16
ENDBRANCH  12  15
ENDBRANCH   8  12
ENDBRANCH   4   7
ENDBRANCH   2   3
ENDBRANCH   1   2
BRANCH   1  26
ATOM     26  C   UNL A   1      31.443  32.055  26.811  1.00  0.00     0.023 C 
BRANCH  26  27
ATOM     27  C   UNL A   1      32.749  32.779  27.113  1.00  0.00     0.116 C 
BRANCH  27  28
ATOM     28  N   UNL A   1      32.558  34.109  27.670  1.00  0.00    -0.352 N 
ATOM     29  C   UNL A   1      33.252  34.709  28.699  1.00  0.00     0.251 C 
ATOM     30  H   UNL A   1      31.844  34.649  27.262  1.00  0.00     0.163 HD
ATOM     31  O   UNL A   1      32.904  35.795  29.126  1.00  0.00    -0.269 OA
BRANCH  29  32
ATOM     32  C   UNL A   1      34.390  33.979  29.297  1.00  0.00     0.039 A 
ATOM     33  C   UNL A   1      35.687  34.437  29.057  1.00  0.00     0.014 A 
ATOM     34  C   UNL A   1      34.164  32.889  30.140  1.00  0.00     0.014 A 
ATOM     35  C   UNL A   1      36.758  33.837  29.721  1.00  0.00     0.010 A 
ATOM     36  C   UNL A   1      35.221  32.351  30.863  1.00  0.00     0.010 A 
ATOM     37  C   UNL A   1      36.529  32.813  30.655  1.00  0.00    -0.014 A 
BRANCH  37  38
ATOM     38  C   UNL A   1      37.649  32.187  31.401  1.00  0.00     0.031 A 
ATOM     39  C   UNL A   1      38.424  31.061  30.770  1.00  0.00     0.074 A 
ATOM     40  C   UNL A   1      37.921  32.583  32.659  1.00  0.00     0.049 A 
ATOM     41  N   UNL A   1      39.392  30.337  31.271  1.00  0.00    -0.248 NA
ATOM     42  C   UNL A   1      38.024  30.672  29.409  1.00  0.00     0.031 C 
ATOM     43  C   UNL A   1      37.201  33.626  33.393  1.00  0.00     0.029 A 
ATOM     44  N   UNL A   1      38.875  32.153  33.545  1.00  0.00    -0.354 N 
ATOM     45  C   UNL A   1      39.698  29.393  30.296  1.00  0.00     0.074 A 
ATOM     46  C   UNL A   1      38.761  29.592  29.212  1.00  0.00     0.031 C 
ATOM     47  C   UNL A   1      37.767  33.782  34.602  1.00  0.00     0.029 A 
ATOM     48  C   UNL A   1      38.860  32.828  34.744  1.00  0.00     0.049 A 
ATOM     49  H   UNL A   1      39.512  31.430  33.343  1.00  0.00     0.167 HD
ATOM     50  C   UNL A   1      40.690  28.468  30.292  1.00  0.00     0.034 A 
ATOM     51  C   UNL A   1      39.646  32.692  35.831  1.00  0.00     0.034 A 
ATOM     52  C   UNL A   1      41.631  28.307  31.372  1.00  0.00     0.049 A 
ATOM     53  C   UNL A   1      40.745  31.660  35.805  1.00  0.00     0.074 A 
ATOM     54  C   UNL A   1      42.717  27.453  31.455  1.00  0.00     0.029 A 
ATOM     55  N   UNL A   1      41.593  29.016  32.568  1.00  0.00    -0.354 N 
ATOM     56  N   UNL A   1      41.066  30.815  34.851  1.00  0.00    -0.248 NA
ATOM     57  C   UNL A   1      41.597  31.575  36.997  1.00  0.00     0.031 C 
ATOM     58  C   UNL A   1      43.299  27.603  32.719  1.00  0.00     0.029 A 
ATOM     59  C   UNL A   1      42.620  28.601  33.401  1.00  0.00     0.049 A 
ATOM     60  H   UNL A   1      40.933  29.711  32.790  1.00  0.00     0.167 HD
ATOM     61  C   UNL A   1      42.181  30.124  35.316  1.00  0.00     0.074 A 
ATOM     62  C   UNL A   1      42.480  30.660  36.630  1.00  0.00     0.031 C 
ATOM     63  C   UNL A   1      42.898  29.143  34.712  1.00  0.00     0.034 A 
BRANCH  50  64
ATOM     64  C   UNL A   1      40.775  27.555  29.089  1.00  0.00     0.023 A 
ATOM     65  C   UNL A   1      41.730  27.757  28.076  1.00  0.00     0.031 A 
ATOM     66  C   UNL A   1      39.851  26.511  28.918  1.00  0.00     0.131 A 
ATOM     67  C   UNL A   1      41.671  27.002  26.895  1.00  0.00     0.055 A 
ATOM     68  C   UNL A   1      39.858  25.699  27.781  1.00  0.00     0.041 A 
ATOM     69  F   UNL A   1      38.902  26.278  29.838  1.00  0.00    -0.206 F 
ATOM     70  C   UNL A   1      40.758  25.957  26.750  1.00  0.00     0.022 A 
BRANCH  67  71
ATOM     71  S   UNL A   1      42.681  27.531  25.483  1.00  0.00     0.124 S 
ATOM     72  O   UNL A   1      42.639  26.344  24.631  1.00  0.00    -0.237 OA
ATOM     73  O   UNL A   1      41.953  28.695  24.992  1.00  0.00    -0.237 OA
ATOM     74  O   UNL A   1      43.984  27.814  26.080  1.00  0.00    -0.744 OA
ENDBRANCH  67  71
ENDBRANCH  50  64
BRANCH  51  75
ATOM     75  C   UNL A   1      39.448  33.564  37.022  1.00  0.00     0.023 A 
ATOM     76  C   UNL A   1      38.778  33.083  38.158  1.00  0.00     0.031 A 
ATOM     77  C   UNL A   1      39.889  34.899  37.033  1.00  0.00     0.131 A 
ATOM     78  C   UNL A   1      38.527  33.940  39.240  1.00  0.00     0.055 A 
ATOM     79  C   UNL A   1      39.679  35.735  38.131  1.00  0.00     0.041 A 
ATOM     80  F   UNL A   1      40.543  35.405  35.976  1.00  0.00    -0.206 F 
ATOM     81  C   UNL A   1      38.983  35.260  39.239  1.00  0.00     0.022 A 
BRANCH  78  82
ATOM     82  S   UNL A   1      37.532  33.321  40.625  1.00  0.00     0.124 S 
ATOM     83  O   UNL A   1      37.242  34.551  41.355  1.00  0.00    -0.237 OA
ATOM     84  O   UNL A   1      36.406  32.701  39.936  1.00  0.00    -0.237 OA
ATOM     85  O   UNL A   1      38.435  32.391  41.301  1.00  0.00    -0.744 OA
ENDBRANCH  78  82
ENDBRANCH  51  75
BRANCH  63  86
ATOM     86  C   UNL A   1      44.107  28.628  35.453  1.00  0.00     0.023 A 
ATOM     87  C   UNL A   1      44.012  27.589  36.395  1.00  0.00     0.031 A 
ATOM     88  C   UNL A   1      45.370  29.205  35.227  1.00  0.00     0.131 A 
ATOM     89  C   UNL A   1      45.147  27.201  37.122  1.00  0.00     0.055 A 
ATOM     90  C   UNL A   1      46.508  28.771  35.908  1.00  0.00     0.041 A 
ATOM     91  F   UNL A   1      45.516  30.201  34.339  1.00  0.00    -0.206 F 
ATOM     92  C   UNL A   1      46.397  27.773  36.872  1.00  0.00     0.022 A 
BRANCH  89  93
ATOM     93  S   UNL A   1      44.949  26.004  38.470  1.00  0.00     0.124 S 
ATOM     94  O   UNL A   1      44.347  24.867  37.781  1.00  0.00    -0.237 OA
ATOM     95  O   UNL A   1      46.322  25.817  38.927  1.00  0.00    -0.237 OA
ATOM     96  O   UNL A   1      44.071  26.693  39.414  1.00  0.00    -0.744 OA
ENDBRANCH  89  93
ENDBRANCH  63  86
ENDBRANCH  37  38
ENDBRANCH  29  32
ENDBRANCH  27  28
ENDBRANCH  26  27
ENDBRANCH   1  26
TORSDOF 18
ENDMDL
MODEL 3
REMARK VINA RESULT:     -11.3      3.451      8.512
REMARK SMILES C[N@H+](Cc1cc(Cl)ccc1[N+](=O)[O-])[C@H]1COC[C@@H]1C(=O)NCCCCNC(=O)c1ccc(-c2c3nc(c(-c4cc(S(=O)(=O)[O-])ccc4F)c4ccc([nH]4)c(-c4cc(S(=O)(=O)[O-])ccc4F)c4nc(c(-c5cc(S(=O)(=O)[O-])ccc5F)c5ccc2[nH]5)C=C4)C=C3)cc1
REMARK SMILES IDX 23 1 22 2 21 3 19 4 20 5 18 7 14 8 15 9 16 10 17 11 2 12
REMARK SMILES IDX 1 13 3 15 4 16 5 17 10 18 6 19 9 20 7 21 8 22 11 23 12 24
REMARK SMILES IDX 13 25 24 26 25 27 26 28 27 29 28 31 29 32 30 33 91 34 31 35
REMARK SMILES IDX 90 36 32 37 33 38 34 39 84 40 35 41 89 42 83 43 85 44 36 45
REMARK SMILES IDX 88 46 82 47 81 48 37 50 69 51 49 52 68 53 50 54 53 55 67 56
REMARK SMILES IDX 86 57 51 58 52 59 66 61 87 62 54 63 38 64 39 65 47 66 40 67
REMARK SMILES IDX 46 68 48 69 45 70 41 71 42 72 43 73 44 74 70 75 71 76 79 77
REMARK SMILES IDX 72 78 78 79 80 80 77 81 73 82 74 83 75 84 76 85 55 86 56 87
REMARK SMILES IDX 64 88 57 89 63 90 65 91 62 92 58 93 59 94 60 95 61 96
REMARK H PARENT 21 6 2 14 26 30 85 49 53 60
REMARK Flexibility Score: inf
ROOT
ATOM      1  C   UNL A   1      32.333  29.729  27.199  1.00  0.00     0.023 C 
ENDROOT
BRANCH   1   2
ATOM      2  C   UNL A   1      33.658  29.149  26.694  1.00  0.00     0.116 C 
BRANCH   2   3
ATOM      3  N   UNL A   1      33.787  29.332  25.266  1.00  0.00    -0.356 N 
ATOM      4  C   UNL A   1      33.077  28.907  24.196  1.00  0.00     0.231 C 
ATOM      5  O   UNL A   1      33.511  29.311  23.107  1.00  0.00    -0.274 OA
ATOM      6  H   UNL A   1      34.560  29.888  25.017  1.00  0.00     0.163 HD
BRANCH   4   7
ATOM      7  C   UNL A   1      31.767  28.106  24.233  1.00  0.00     0.164 C 
ATOM      8  C   UNL A   1      31.658  26.706  23.627  1.00  0.00     0.225 C 
ATOM      9  C   UNL A   1      31.226  27.014  22.194  1.00  0.00     0.226 C 
ATOM     10  O   UNL A   1      30.329  28.119  22.281  1.00  0.00    -0.374 OA
ATOM     11  C   UNL A   1      30.730  28.906  23.420  1.00  0.00     0.180 C 
BRANCH   8  12
ATOM     12  N   UNL A   1      30.765  25.775  24.403  1.00  0.00    -0.328 N 
ATOM     13  C   UNL A   1      30.756  26.158  25.823  1.00  0.00     0.333 C 
ATOM     14  H   UNL A   1      29.827  25.877  24.016  1.00  0.00     0.348 HD
BRANCH  12  15
ATOM     15  C   UNL A   1      31.086  24.344  24.227  1.00  0.00     0.306 C 
BRANCH  15  16
ATOM     16  C   UNL A   1      32.097  23.821  25.233  1.00  0.00     0.085 A 
ATOM     17  C   UNL A   1      33.460  24.110  25.024  1.00  0.00     0.037 A 
ATOM     18  C   UNL A   1      31.746  23.129  26.407  1.00  0.00     0.278 A 
ATOM     19  C   UNL A   1      34.423  23.751  25.971  1.00  0.00     0.042 A 
ATOM     20  C   UNL A   1      32.714  22.772  27.361  1.00  0.00     0.088 A 
ATOM     21  Cl  UNL A   1      36.073  24.152  25.699  1.00  0.00    -0.084 Cl
ATOM     22  C   UNL A   1      34.055  23.092  27.141  1.00  0.00     0.027 A 
BRANCH  18  23
ATOM     23  N   UNL A   1      30.363  22.755  26.685  1.00  0.00     0.063 N 
ATOM     24  O   UNL A   1      29.776  23.389  27.574  1.00  0.00    -0.258 OA
ATOM     25  O   UNL A   1      29.904  21.778  26.080  1.00  0.00    -0.258 OA
ENDBRANCH  18  23
ENDBRANCH  15  16
ENDBRANCH  12  15
ENDBRANCH   8  12
ENDBRANCH   4   7
ENDBRANCH   2   3
ENDBRANCH   1   2
BRANCH   1  26
ATOM     26  C   UNL A   1      32.111  31.206  26.852  1.00  0.00     0.023 C 
BRANCH  26  27
ATOM     27  C   UNL A   1      33.251  32.139  27.241  1.00  0.00     0.116 C 
BRANCH  27  28
ATOM     28  N   UNL A   1      32.812  33.488  27.563  1.00  0.00    -0.352 N 
ATOM     29  C   UNL A   1      33.275  34.318  28.562  1.00  0.00     0.251 C 
ATOM     30  H   UNL A   1      32.095  33.854  26.997  1.00  0.00     0.163 HD
ATOM     31  O   UNL A   1      32.731  35.387  28.775  1.00  0.00    -0.269 OA
BRANCH  29  32
ATOM     32  C   UNL A   1      34.407  33.854  29.391  1.00  0.00     0.039 A 
ATOM     33  C   UNL A   1      34.155  32.981  30.451  1.00  0.00     0.014 A 
ATOM     34  C   UNL A   1      35.714  34.233  29.076  1.00  0.00     0.014 A 
ATOM     35  C   UNL A   1      35.227  32.433  31.155  1.00  0.00     0.010 A 
ATOM     36  C   UNL A   1      36.780  33.621  29.723  1.00  0.00     0.010 A 
ATOM     37  C   UNL A   1      36.548  32.722  30.774  1.00  0.00    -0.014 A 
BRANCH  37  38
ATOM     38  C   UNL A   1      37.703  32.121  31.486  1.00  0.00     0.031 A 
ATOM     39  C   UNL A   1      38.480  31.008  30.835  1.00  0.00     0.074 A 
ATOM     40  C   UNL A   1      38.007  32.526  32.734  1.00  0.00     0.049 A 
ATOM     41  N   UNL A   1      39.477  30.305  31.306  1.00  0.00    -0.248 NA
ATOM     42  C   UNL A   1      38.045  30.607  29.488  1.00  0.00     0.031 C 
ATOM     43  C   UNL A   1      37.290  33.557  33.487  1.00  0.00     0.029 A 
ATOM     44  N   UNL A   1      38.997  32.119  33.591  1.00  0.00    -0.354 N 
ATOM     45  C   UNL A   1      39.771  29.363  30.325  1.00  0.00     0.074 A 
ATOM     46  C   UNL A   1      38.796  29.540  29.271  1.00  0.00     0.031 C 
ATOM     47  C   UNL A   1      37.891  33.729  34.677  1.00  0.00     0.029 A 
ATOM     48  C   UNL A   1      39.007  32.797  34.788  1.00  0.00     0.049 A 
ATOM     49  H   UNL A   1      39.641  31.408  33.370  1.00  0.00     0.167 HD
ATOM     50  C   UNL A   1      40.780  28.458  30.291  1.00  0.00     0.034 A 
ATOM     51  C   UNL A   1      39.830  32.681  35.849  1.00  0.00     0.034 A 
ATOM     52  C   UNL A   1      41.758  28.319  31.342  1.00  0.00     0.049 A 
ATOM     53  C   UNL A   1      40.948  31.670  35.791  1.00  0.00     0.074 A 
ATOM     54  C   UNL A   1      42.863  27.488  31.392  1.00  0.00     0.029 A 
ATOM     55  N   UNL A   1      41.744  29.032  32.536  1.00  0.00    -0.354 N 
ATOM     56  N   UNL A   1      41.254  30.829  34.830  1.00  0.00    -0.248 NA
ATOM     57  C   UNL A   1      41.838  31.606  36.956  1.00  0.00     0.031 C 
ATOM     58  C   UNL A   1      43.481  27.654  32.637  1.00  0.00     0.029 A 
ATOM     59  C   UNL A   1      42.805  28.641  33.338  1.00  0.00     0.049 A 
ATOM     60  H   UNL A   1      41.078  29.715  32.777  1.00  0.00     0.167 HD
ATOM     61  C   UNL A   1      42.397  30.162  35.261  1.00  0.00     0.074 A 
ATOM     62  C   UNL A   1      42.727  30.708  36.563  1.00  0.00     0.031 C 
ATOM     63  C   UNL A   1      43.114  29.193  34.637  1.00  0.00     0.034 A 
BRANCH  50  64
ATOM     64  C   UNL A   1      40.846  27.543  29.089  1.00  0.00     0.023 A 
ATOM     65  C   UNL A   1      41.792  27.735  28.067  1.00  0.00     0.031 A 
ATOM     66  C   UNL A   1      39.910  26.506  28.929  1.00  0.00     0.131 A 
ATOM     67  C   UNL A   1      41.715  26.979  26.887  1.00  0.00     0.055 A 
ATOM     68  C   UNL A   1      39.899  25.693  27.793  1.00  0.00     0.041 A 
ATOM     69  F   UNL A   1      38.969  26.283  29.860  1.00  0.00    -0.206 F 
ATOM     70  C   UNL A   1      40.791  25.942  26.753  1.00  0.00     0.022 A 
BRANCH  67  71
ATOM     71  S   UNL A   1      42.714  27.497  25.464  1.00  0.00     0.124 S 
ATOM     72  O   UNL A   1      43.986  27.831  26.104  1.00  0.00    -0.237 OA
ATOM     73  O   UNL A   1      42.715  26.304  24.627  1.00  0.00    -0.237 OA
ATOM     74  O   UNL A   1      41.978  28.639  24.926  1.00  0.00    -0.744 OA
ENDBRANCH  67  71
ENDBRANCH  50  64
BRANCH  51  75
ATOM     75  C   UNL A   1      39.652  33.553  37.043  1.00  0.00     0.023 A 
ATOM     76  C   UNL A   1      39.180  33.021  38.254  1.00  0.00     0.031 A 
ATOM     77  C   UNL A   1      39.914  34.933  36.986  1.00  0.00     0.131 A 
ATOM     78  C   UNL A   1      38.940  33.869  39.346  1.00  0.00     0.055 A 
ATOM     79  C   UNL A   1      39.719  35.766  38.090  1.00  0.00     0.041 A 
ATOM     80  F   UNL A   1      40.376  35.489  35.856  1.00  0.00    -0.206 F 
ATOM     81  C   UNL A   1      39.218  35.236  39.276  1.00  0.00     0.022 A 
BRANCH  78  82
ATOM     82  S   UNL A   1      38.193  33.167  40.842  1.00  0.00     0.124 S 
ATOM     83  O   UNL A   1      39.149  33.570  41.868  1.00  0.00    -0.237 OA
ATOM     84  O   UNL A   1      36.896  33.833  40.875  1.00  0.00    -0.237 OA
ATOM     85  O   UNL A   1      38.148  31.734  40.558  1.00  0.00    -0.744 OA
ENDBRANCH  78  82
ENDBRANCH  51  75
BRANCH  63  86
ATOM     86  C   UNL A   1      44.356  28.704  35.342  1.00  0.00     0.023 A 
ATOM     87  C   UNL A   1      44.300  27.728  36.351  1.00  0.00     0.031 A 
ATOM     88  C   UNL A   1      45.612  29.244  35.010  1.00  0.00     0.131 A 
ATOM     89  C   UNL A   1      45.470  27.366  37.037  1.00  0.00     0.055 A 
ATOM     90  C   UNL A   1      46.780  28.834  35.652  1.00  0.00     0.041 A 
ATOM     91  F   UNL A   1      45.721  30.181  34.054  1.00  0.00    -0.206 F 
ATOM     92  C   UNL A   1      46.711  27.900  36.682  1.00  0.00     0.022 A 
BRANCH  89  93
ATOM     93  S   UNL A   1      45.332  26.258  38.466  1.00  0.00     0.124 S 
ATOM     94  O   UNL A   1      46.349  26.793  39.365  1.00  0.00    -0.237 OA
ATOM     95  O   UNL A   1      43.947  26.455  38.882  1.00  0.00    -0.237 OA
ATOM     96  O   UNL A   1      45.629  24.939  37.907  1.00  0.00    -0.744 OA
ENDBRANCH  89  93
ENDBRANCH  63  86
ENDBRANCH  37  38
ENDBRANCH  29  32
ENDBRANCH  27  28
ENDBRANCH  26  27
ENDBRANCH   1  26
TORSDOF 18
ENDMDL
