MODEL 1
REMARK VINA RESULT:     -12.3      0.000      0.000
REMARK SMILES C[C@@H]1Oc2c(C(=O)NCCCCNC(=O)c3ccc(-c4c5nc(c(-c6cc(S(=O)(=O)[O-])ccc6F)c6ccc([nH]6)c(-c6cc(S(=O)(=O)[O-])ccc6F)c6nc(c(-c7cc(S(=O)(=O)[O-])ccc7F)c7ccc4[nH]7)C=C6)C=C5)cc3)cccc2[C@@H]1C
REMARK SMILES IDX 12 1 11 2 10 3 9 4 8 5 6 6 7 7 5 9 1 10 2 11 3 12 83 13 4 14
REMARK SMILES IDX 82 15 84 16 81 17 79 18 80 19 13 20 14 21 15 23 16 24 17 25
REMARK SMILES IDX 78 26 18 27 77 28 19 29 20 30 21 31 71 32 22 33 76 34 70 35
REMARK SMILES IDX 72 36 23 37 75 38 69 39 68 40 24 42 56 43 36 44 55 45 37 46
REMARK SMILES IDX 40 47 54 48 73 49 38 50 39 51 53 53 74 54 41 55 25 56 26 57
REMARK SMILES IDX 34 58 27 59 33 60 35 61 32 62 28 63 29 64 30 65 31 66 57 67
REMARK SMILES IDX 58 68 66 69 59 70 65 71 67 72 64 73 60 74 61 75 62 76 63 77
REMARK SMILES IDX 42 78 43 79 51 80 44 81 50 82 52 83 49 84 45 85 46 86 47 87
REMARK SMILES IDX 48 88
REMARK H PARENT 8 8 13 22 72 41 40 52
REMARK Flexibility Score: inf
ROOT
ATOM      1  C   UNL A   1      32.737  30.275  26.360  1.00  0.00     0.116 C 
ENDROOT
BRANCH   1   2
ATOM      2  C   UNL A   1      31.778  29.249  26.953  1.00  0.00     0.023 C 
BRANCH   2   3
ATOM      3  C   UNL A   1      32.378  27.854  27.143  1.00  0.00     0.023 C 
BRANCH   3   4
ATOM      4  C   UNL A   1      31.849  26.799  26.165  1.00  0.00     0.116 C 
BRANCH   4   5
ATOM      5  N   UNL A   1      31.423  25.608  26.870  1.00  0.00    -0.352 N 
ATOM      6  C   UNL A   1      31.432  24.268  26.559  1.00  0.00     0.255 C 
ATOM      7  O   UNL A   1      30.953  23.523  27.414  1.00  0.00    -0.269 OA
ATOM      8  H   UNL A   1      31.046  25.797  27.759  1.00  0.00     0.163 HD
BRANCH   6   9
ATOM      9  C   UNL A   1      31.982  23.703  25.285  1.00  0.00     0.082 A 
ATOM     10  C   UNL A   1      36.686  23.926  26.148  1.00  0.00     0.053 C 
ATOM     11  C   UNL A   1      35.552  24.212  25.174  1.00  0.00     0.177 C 
ATOM     12  O   UNL A   1      34.309  24.224  25.914  1.00  0.00    -0.489 OA
ATOM     13  C   UNL A   1      35.415  23.225  23.996  1.00  0.00     0.060 C 
ATOM     14  C   UNL A   1      33.358  23.730  25.053  1.00  0.00     0.136 A 
ATOM     15  C   UNL A   1      33.929  23.186  23.902  1.00  0.00     0.001 A 
ATOM     16  C   UNL A   1      35.969  21.822  24.229  1.00  0.00     0.017 C 
ATOM     17  C   UNL A   1      33.151  22.618  22.909  1.00  0.00     0.008 A 
ATOM     18  C   UNL A   1      31.210  23.070  24.299  1.00  0.00     0.018 A 
ATOM     19  C   UNL A   1      31.779  22.559  23.116  1.00  0.00     0.001 A 
ENDBRANCH   6   9
ENDBRANCH   4   5
ENDBRANCH   3   4
ENDBRANCH   2   3
ENDBRANCH   1   2
BRANCH   1  20
ATOM     20  N   UNL A   1      32.522  31.630  26.849  1.00  0.00    -0.352 N 
ATOM     21  C   UNL A   1      33.374  32.411  27.601  1.00  0.00     0.251 C 
ATOM     22  H   UNL A   1      31.659  32.040  26.611  1.00  0.00     0.163 HD
ATOM     23  O   UNL A   1      33.008  33.505  28.009  1.00  0.00    -0.269 OA
BRANCH  21  24
ATOM     24  C   UNL A   1      34.707  31.875  27.960  1.00  0.00     0.039 A 
ATOM     25  C   UNL A   1      34.859  30.539  28.328  1.00  0.00     0.014 A 
ATOM     26  C   UNL A   1      35.801  32.746  28.002  1.00  0.00     0.014 A 
ATOM     27  C   UNL A   1      36.044  30.122  28.922  1.00  0.00     0.010 A 
ATOM     28  C   UNL A   1      37.020  32.298  28.518  1.00  0.00     0.010 A 
ATOM     29  C   UNL A   1      37.133  31.001  29.043  1.00  0.00    -0.014 A 
BRANCH  29  30
ATOM     30  C   UNL A   1      38.359  30.539  29.747  1.00  0.00     0.031 A 
ATOM     31  C   UNL A   1      38.646  30.970  31.162  1.00  0.00     0.074 A 
ATOM     32  C   UNL A   1      39.173  29.659  29.134  1.00  0.00     0.049 A 
ATOM     33  N   UNL A   1      39.614  30.590  31.956  1.00  0.00    -0.248 NA
ATOM     34  C   UNL A   1      37.732  31.954  31.766  1.00  0.00     0.031 C 
ATOM     35  C   UNL A   1      38.993  29.173  27.765  1.00  0.00     0.029 A 
ATOM     36  N   UNL A   1      40.283  28.988  29.583  1.00  0.00    -0.354 N 
ATOM     37  C   UNL A   1      39.437  31.295  33.142  1.00  0.00     0.074 A 
ATOM     38  C   UNL A   1      38.290  32.154  32.952  1.00  0.00     0.031 C 
ATOM     39  C   UNL A   1      39.914  28.235  27.509  1.00  0.00     0.029 A 
ATOM     40  C   UNL A   1      40.791  28.092  28.670  1.00  0.00     0.049 A 
ATOM     41  H   UNL A   1      40.679  29.133  30.473  1.00  0.00     0.167 HD
ATOM     42  C   UNL A   1      40.154  31.218  34.290  1.00  0.00     0.034 A 
ATOM     43  C   UNL A   1      41.838  27.246  28.754  1.00  0.00     0.034 A 
ATOM     44  C   UNL A   1      41.283  30.342  34.473  1.00  0.00     0.049 A 
ATOM     45  C   UNL A   1      42.617  27.177  30.041  1.00  0.00     0.074 A 
ATOM     46  C   UNL A   1      42.072  30.189  35.601  1.00  0.00     0.029 A 
ATOM     47  N   UNL A   1      41.778  29.464  33.520  1.00  0.00    -0.354 N 
ATOM     48  N   UNL A   1      42.412  27.826  31.164  1.00  0.00    -0.248 NA
ATOM     49  C   UNL A   1      43.763  26.258  30.082  1.00  0.00     0.031 C 
ATOM     50  C   UNL A   1      43.070  29.255  35.314  1.00  0.00     0.029 A 
ATOM     51  C   UNL A   1      42.867  28.776  34.030  1.00  0.00     0.049 A 
ATOM     52  H   UNL A   1      41.409  29.346  32.615  1.00  0.00     0.167 HD
ATOM     53  C   UNL A   1      43.389  27.379  32.048  1.00  0.00     0.074 A 
ATOM     54  C   UNL A   1      44.166  26.384  31.341  1.00  0.00     0.031 C 
ATOM     55  C   UNL A   1      43.623  27.767  33.328  1.00  0.00     0.034 A 
BRANCH  42  56
ATOM     56  C   UNL A   1      39.747  32.086  35.455  1.00  0.00     0.023 A 
ATOM     57  C   UNL A   1      38.909  31.571  36.462  1.00  0.00     0.031 A 
ATOM     58  C   UNL A   1      40.084  33.450  35.504  1.00  0.00     0.131 A 
ATOM     59  C   UNL A   1      38.410  32.421  37.457  1.00  0.00     0.055 A 
ATOM     60  C   UNL A   1      39.614  34.286  36.519  1.00  0.00     0.041 A 
ATOM     61  F   UNL A   1      40.882  33.989  34.568  1.00  0.00    -0.206 F 
ATOM     62  C   UNL A   1      38.763  33.774  37.493  1.00  0.00     0.022 A 
BRANCH  59  63
ATOM     63  S   UNL A   1      37.237  31.823  38.703  1.00  0.00     0.124 S 
ATOM     64  O   UNL A   1      37.028  30.440  38.278  1.00  0.00    -0.237 OA
ATOM     65  O   UNL A   1      37.995  31.987  39.940  1.00  0.00    -0.237 OA
ATOM     66  O   UNL A   1      36.082  32.701  38.550  1.00  0.00    -0.744 OA
ENDBRANCH  59  63
ENDBRANCH  42  56
BRANCH  43  67
ATOM     67  C   UNL A   1      42.146  26.360  27.594  1.00  0.00     0.023 A 
ATOM     68  C   UNL A   1      41.710  25.021  27.571  1.00  0.00     0.031 A 
ATOM     69  C   UNL A   1      42.981  26.800  26.553  1.00  0.00     0.131 A 
ATOM     70  C   UNL A   1      42.174  24.154  26.573  1.00  0.00     0.055 A 
ATOM     71  C   UNL A   1      43.379  25.950  25.519  1.00  0.00     0.041 A 
ATOM     72  F   UNL A   1      43.435  28.063  26.539  1.00  0.00    -0.206 F 
ATOM     73  C   UNL A   1      42.991  24.614  25.537  1.00  0.00     0.022 A 
BRANCH  70  74
ATOM     74  S   UNL A   1      41.855  22.370  26.676  1.00  0.00     0.124 S 
ATOM     75  O   UNL A   1      40.423  22.333  26.949  1.00  0.00    -0.237 OA
ATOM     76  O   UNL A   1      42.257  21.918  25.346  1.00  0.00    -0.237 OA
ATOM     77  O   UNL A   1      42.719  21.929  27.765  1.00  0.00    -0.744 OA
ENDBRANCH  70  74
ENDBRANCH  43  67
BRANCH  55  78
ATOM     78  C   UNL A   1      44.761  27.120  34.081  1.00  0.00     0.023 A 
ATOM     79  C   UNL A   1      44.542  25.923  34.790  1.00  0.00     0.031 A 
ATOM     80  C   UNL A   1      46.004  27.758  34.220  1.00  0.00     0.131 A 
ATOM     81  C   UNL A   1      45.543  25.417  35.630  1.00  0.00     0.055 A 
ATOM     82  C   UNL A   1      47.013  27.228  35.025  1.00  0.00     0.041 A 
ATOM     83  F   UNL A   1      46.255  28.909  33.575  1.00  0.00    -0.206 F 
ATOM     84  C   UNL A   1      46.780  26.060  35.746  1.00  0.00     0.022 A 
BRANCH  81  85
ATOM     85  S   UNL A   1      45.247  23.962  36.671  1.00  0.00     0.124 S 
ATOM     86  O   UNL A   1      44.261  23.225  35.883  1.00  0.00    -0.237 OA
ATOM     87  O   UNL A   1      46.573  23.353  36.736  1.00  0.00    -0.237 OA
ATOM     88  O   UNL A   1      44.751  24.520  37.925  1.00  0.00    -0.744 OA
ENDBRANCH  81  85
ENDBRANCH  55  78
ENDBRANCH  29  30
ENDBRANCH  21  24
ENDBRANCH   1  20
TORSDOF 14
ENDMDL
MODEL 2
REMARK VINA RESULT:     -12.2      1.381      1.674
REMARK SMILES C[C@@H]1Oc2c(C(=O)NCCCCNC(=O)c3ccc(-c4c5nc(c(-c6cc(S(=O)(=O)[O-])ccc6F)c6ccc([nH]6)c(-c6cc(S(=O)(=O)[O-])ccc6F)c6nc(c(-c7cc(S(=O)(=O)[O-])ccc7F)c7ccc4[nH]7)C=C6)C=C5)cc3)cccc2[C@@H]1C
REMARK SMILES IDX 12 1 11 2 10 3 9 4 8 5 6 6 7 7 5 9 1 10 2 11 3 12 83 13 4 14
REMARK SMILES IDX 82 15 84 16 81 17 79 18 80 19 13 20 14 21 15 23 16 24 17 25
REMARK SMILES IDX 78 26 18 27 77 28 19 29 20 30 21 31 71 32 22 33 76 34 70 35
REMARK SMILES IDX 72 36 23 37 75 38 69 39 68 40 24 42 56 43 36 44 55 45 37 46
REMARK SMILES IDX 40 47 54 48 73 49 38 50 39 51 53 53 74 54 41 55 25 56 26 57
REMARK SMILES IDX 34 58 27 59 33 60 35 61 32 62 28 63 29 64 30 65 31 66 57 67
REMARK SMILES IDX 58 68 66 69 59 70 65 71 67 72 64 73 60 74 61 75 62 76 63 77
REMARK SMILES IDX 42 78 43 79 51 80 44 81 50 82 52 83 49 84 45 85 46 86 47 87
REMARK SMILES IDX 48 88
REMARK H PARENT 8 8 13 22 72 41 40 52
REMARK Flexibility Score: inf
ROOT
ATOM      1  C   UNL A   1      32.734  29.719  25.937  1.00  0.00     0.116 C 
ENDROOT
BRANCH   1   2
ATOM      2  C   UNL A   1      31.609  28.697  26.050  1.00  0.00     0.023 C 
BRANCH   2   3
ATOM      3  C   UNL A   1      32.063  27.298  26.478  1.00  0.00     0.023 C 
BRANCH   3   4
ATOM      4  C   UNL A   1      31.053  26.186  26.173  1.00  0.00     0.116 C 
BRANCH   4   5
ATOM      5  N   UNL A   1      31.330  25.006  26.967  1.00  0.00    -0.352 N 
ATOM      6  C   UNL A   1      31.899  23.786  26.686  1.00  0.00     0.255 C 
ATOM      7  O   UNL A   1      31.950  22.995  27.627  1.00  0.00    -0.269 OA
ATOM      8  H   UNL A   1      31.052  25.096  27.907  1.00  0.00     0.163 HD
BRANCH   6   9
ATOM      9  C   UNL A   1      32.442  23.400  25.343  1.00  0.00     0.082 A 
ATOM     10  C   UNL A   1      37.145  23.898  26.084  1.00  0.00     0.053 C 
ATOM     11  C   UNL A   1      35.957  24.193  25.180  1.00  0.00     0.177 C 
ATOM     12  O   UNL A   1      34.745  24.033  25.954  1.00  0.00    -0.489 OA
ATOM     13  C   UNL A   1      35.849  23.326  23.909  1.00  0.00     0.060 C 
ATOM     14  C   UNL A   1      33.802  23.558  25.074  1.00  0.00     0.136 A 
ATOM     15  C   UNL A   1      34.368  23.181  23.856  1.00  0.00     0.001 A 
ATOM     16  C   UNL A   1      36.513  21.953  23.975  1.00  0.00     0.017 C 
ATOM     17  C   UNL A   1      33.597  22.660  22.832  1.00  0.00     0.008 A 
ATOM     18  C   UNL A   1      31.682  22.814  24.319  1.00  0.00     0.018 A 
ATOM     19  C   UNL A   1      32.241  22.473  23.072  1.00  0.00     0.001 A 
ENDBRANCH   6   9
ENDBRANCH   4   5
ENDBRANCH   3   4
ENDBRANCH   2   3
ENDBRANCH   1   2
BRANCH   1  20
ATOM     20  N   UNL A   1      32.384  31.035  26.454  1.00  0.00    -0.352 N 
ATOM     21  C   UNL A   1      33.134  31.860  27.267  1.00  0.00     0.251 C 
ATOM     22  H   UNL A   1      31.501  31.380  26.189  1.00  0.00     0.163 HD
ATOM     23  O   UNL A   1      32.659  32.905  27.689  1.00  0.00    -0.269 OA
BRANCH  21  24
ATOM     24  C   UNL A   1      34.491  31.425  27.671  1.00  0.00     0.039 A 
ATOM     25  C   UNL A   1      34.737  30.096  28.012  1.00  0.00     0.014 A 
ATOM     26  C   UNL A   1      35.505  32.381  27.784  1.00  0.00     0.014 A 
ATOM     27  C   UNL A   1      35.927  29.760  28.648  1.00  0.00     0.010 A 
ATOM     28  C   UNL A   1      36.735  32.020  28.342  1.00  0.00     0.010 A 
ATOM     29  C   UNL A   1      36.933  30.722  28.839  1.00  0.00    -0.014 A 
BRANCH  29  30
ATOM     30  C   UNL A   1      38.162  30.343  29.585  1.00  0.00     0.031 A 
ATOM     31  C   UNL A   1      38.376  30.800  31.005  1.00  0.00     0.074 A 
ATOM     32  C   UNL A   1      39.049  29.511  29.006  1.00  0.00     0.049 A 
ATOM     33  N   UNL A   1      39.341  30.487  31.832  1.00  0.00    -0.248 NA
ATOM     34  C   UNL A   1      37.385  31.729  31.571  1.00  0.00     0.031 C 
ATOM     35  C   UNL A   1      38.943  29.006  27.636  1.00  0.00     0.029 A 
ATOM     36  N   UNL A   1      40.183  28.914  29.495  1.00  0.00    -0.354 N 
ATOM     37  C   UNL A   1      39.082  31.186  33.006  1.00  0.00     0.074 A 
ATOM     38  C   UNL A   1      37.890  31.971  32.772  1.00  0.00     0.031 C 
ATOM     39  C   UNL A   1      39.928  28.125  27.417  1.00  0.00     0.029 A 
ATOM     40  C   UNL A   1      40.775  28.045  28.606  1.00  0.00     0.049 A 
ATOM     41  H   UNL A   1      40.541  29.089  30.395  1.00  0.00     0.167 HD
ATOM     42  C   UNL A   1      39.766  31.162  34.176  1.00  0.00     0.034 A 
ATOM     43  C   UNL A   1      41.870  27.267  28.730  1.00  0.00     0.034 A 
ATOM     44  C   UNL A   1      40.941  30.360  34.402  1.00  0.00     0.049 A 
ATOM     45  C   UNL A   1      42.610  27.255  30.041  1.00  0.00     0.074 A 
ATOM     46  C   UNL A   1      41.701  30.264  35.555  1.00  0.00     0.029 A 
ATOM     47  N   UNL A   1      41.520  29.508  33.472  1.00  0.00    -0.354 N 
ATOM     48  N   UNL A   1      42.329  27.898  31.152  1.00  0.00    -0.248 NA
ATOM     49  C   UNL A   1      43.809  26.410  30.126  1.00  0.00     0.031 C 
ATOM     50  C   UNL A   1      42.764  29.393  35.308  1.00  0.00     0.029 A 
ATOM     51  C   UNL A   1      42.633  28.893  34.023  1.00  0.00     0.049 A 
ATOM     52  H   UNL A   1      41.188  29.362  32.557  1.00  0.00     0.167 HD
ATOM     53  C   UNL A   1      43.303  27.518  32.070  1.00  0.00     0.074 A 
ATOM     54  C   UNL A   1      44.163  26.569  31.396  1.00  0.00     0.031 C 
ATOM     55  C   UNL A   1      43.472  27.929  33.353  1.00  0.00     0.034 A 
BRANCH  42  56
ATOM     56  C   UNL A   1      39.269  32.010  35.320  1.00  0.00     0.023 A 
ATOM     57  C   UNL A   1      39.741  33.327  35.482  1.00  0.00     0.031 A 
ATOM     58  C   UNL A   1      38.430  31.479  36.316  1.00  0.00     0.131 A 
ATOM     59  C   UNL A   1      39.398  34.055  36.629  1.00  0.00     0.055 A 
ATOM     60  C   UNL A   1      38.060  32.221  37.438  1.00  0.00     0.041 A 
ATOM     61  F   UNL A   1      37.951  30.228  36.207  1.00  0.00    -0.206 F 
ATOM     62  C   UNL A   1      38.556  33.511  37.604  1.00  0.00     0.022 A 
BRANCH  59  63
ATOM     63  S   UNL A   1      40.079  35.708  36.930  1.00  0.00     0.124 S 
ATOM     64  O   UNL A   1      39.466  36.056  38.210  1.00  0.00    -0.237 OA
ATOM     65  O   UNL A   1      41.515  35.443  36.979  1.00  0.00    -0.237 OA
ATOM     66  O   UNL A   1      39.621  36.492  35.788  1.00  0.00    -0.744 OA
ENDBRANCH  59  63
ENDBRANCH  42  56
BRANCH  43  67
ATOM     67  C   UNL A   1      42.269  26.394  27.588  1.00  0.00     0.023 A 
ATOM     68  C   UNL A   1      41.768  25.083  27.470  1.00  0.00     0.031 A 
ATOM     69  C   UNL A   1      43.246  26.812  26.669  1.00  0.00     0.131 A 
ATOM     70  C   UNL A   1      42.304  24.216  26.509  1.00  0.00     0.055 A 
ATOM     71  C   UNL A   1      43.721  25.967  25.664  1.00  0.00     0.041 A 
ATOM     72  F   UNL A   1      43.765  28.047  26.749  1.00  0.00    -0.206 F 
ATOM     73  C   UNL A   1      43.264  24.656  25.593  1.00  0.00     0.022 A 
BRANCH  70  74
ATOM     74  S   UNL A   1      41.881  22.451  26.516  1.00  0.00     0.124 S 
ATOM     75  O   UNL A   1      42.388  22.023  27.815  1.00  0.00    -0.237 OA
ATOM     76  O   UNL A   1      40.426  22.492  26.388  1.00  0.00    -0.237 OA
ATOM     77  O   UNL A   1      42.588  21.924  25.355  1.00  0.00    -0.744 OA
ENDBRANCH  70  74
ENDBRANCH  43  67
BRANCH  55  78
ATOM     78  C   UNL A   1      44.623  27.359  34.147  1.00  0.00     0.023 A 
ATOM     79  C   UNL A   1      44.422  26.228  34.963  1.00  0.00     0.031 A 
ATOM     80  C   UNL A   1      45.863  28.015  34.213  1.00  0.00     0.131 A 
ATOM     81  C   UNL A   1      45.437  25.806  35.832  1.00  0.00     0.055 A 
ATOM     82  C   UNL A   1      46.886  27.566  35.050  1.00  0.00     0.041 A 
ATOM     83  F   UNL A   1      46.098  29.105  33.465  1.00  0.00    -0.206 F 
ATOM     84  C   UNL A   1      46.669  26.465  35.875  1.00  0.00     0.022 A 
BRANCH  81  85
ATOM     85  S   UNL A   1      45.163  24.448  37.002  1.00  0.00     0.124 S 
ATOM     86  O   UNL A   1      46.465  24.349  37.657  1.00  0.00    -0.237 OA
ATOM     87  O   UNL A   1      44.084  24.970  37.836  1.00  0.00    -0.237 OA
ATOM     88  O   UNL A   1      44.806  23.316  36.153  1.00  0.00    -0.744 OA
ENDBRANCH  81  85
ENDBRANCH  55  78
ENDBRANCH  29  30
ENDBRANCH  21  24
ENDBRANCH   1  20
TORSDOF 14
ENDMDL
MODEL 3
REMARK VINA RESULT:     -12.1      5.092     10.311
REMARK SMILES C[C@@H]1Oc2c(C(=O)NCCCCNC(=O)c3ccc(-c4c5nc(c(-c6cc(S(=O)(=O)[O-])ccc6F)c6ccc([nH]6)c(-c6cc(S(=O)(=O)[O-])ccc6F)c6nc(c(-c7cc(S(=O)(=O)[O-])ccc7F)c7ccc4[nH]7)C=C6)C=C5)cc3)cccc2[C@@H]1C
REMARK SMILES IDX 12 1 11 2 10 3 9 4 8 5 6 6 7 7 5 9 1 10 2 11 3 12 83 13 4 14
REMARK SMILES IDX 82 15 84 16 81 17 79 18 80 19 13 20 14 21 15 23 16 24 17 25
REMARK SMILES IDX 78 26 18 27 77 28 19 29 20 30 21 31 71 32 22 33 76 34 70 35
REMARK SMILES IDX 72 36 23 37 75 38 69 39 68 40 24 42 56 43 36 44 55 45 37 46
REMARK SMILES IDX 40 47 54 48 73 49 38 50 39 51 53 53 74 54 41 55 25 56 26 57
REMARK SMILES IDX 34 58 27 59 33 60 35 61 32 62 28 63 29 64 30 65 31 66 57 67
REMARK SMILES IDX 58 68 66 69 59 70 65 71 67 72 64 73 60 74 61 75 62 76 63 77
REMARK SMILES IDX 42 78 43 79 51 80 44 81 50 82 52 83 49 84 45 85 46 86 47 87
REMARK SMILES IDX 48 88
REMARK H PARENT 8 8 13 22 72 41 40 52
REMARK Flexibility Score: inf
ROOT
ATOM      1  C   UNL A   1      36.906  21.635  25.417  1.00  0.00     0.116 C 
ENDROOT
BRANCH   1   2
ATOM      2  C   UNL A   1      35.499  21.049  25.430  1.00  0.00     0.023 C 
BRANCH   2   3
ATOM      3  C   UNL A   1      34.636  21.495  26.614  1.00  0.00     0.023 C 
BRANCH   3   4
ATOM      4  C   UNL A   1      33.859  22.795  26.375  1.00  0.00     0.116 C 
BRANCH   4   5
ATOM      5  N   UNL A   1      32.570  22.754  27.035  1.00  0.00    -0.352 N 
ATOM      6  C   UNL A   1      31.357  23.350  26.782  1.00  0.00     0.255 C 
ATOM      7  O   UNL A   1      30.464  23.099  27.591  1.00  0.00    -0.269 OA
ATOM      8  H   UNL A   1      32.560  22.178  27.833  1.00  0.00     0.163 HD
BRANCH   6   9
ATOM      9  C   UNL A   1      31.087  24.247  25.611  1.00  0.00     0.082 A 
ATOM     10  C   UNL A   1      32.241  28.514  27.448  1.00  0.00     0.053 C 
ATOM     11  C   UNL A   1      31.226  27.694  26.664  1.00  0.00     0.177 C 
ATOM     12  O   UNL A   1      31.470  26.294  26.932  1.00  0.00    -0.489 OA
ATOM     13  C   UNL A   1      31.223  27.912  25.137  1.00  0.00     0.060 C 
ATOM     14  C   UNL A   1      31.151  25.632  25.770  1.00  0.00     0.136 A 
ATOM     15  C   UNL A   1      30.945  26.512  24.708  1.00  0.00     0.001 A 
ATOM     16  C   UNL A   1      32.532  28.403  24.527  1.00  0.00     0.017 C 
ATOM     17  C   UNL A   1      30.630  26.055  23.441  1.00  0.00     0.008 A 
ATOM     18  C   UNL A   1      30.827  23.794  24.309  1.00  0.00     0.018 A 
ATOM     19  C   UNL A   1      30.575  24.681  23.244  1.00  0.00     0.001 A 
ENDBRANCH   6   9
ENDBRANCH   4   5
ENDBRANCH   3   4
ENDBRANCH   2   3
ENDBRANCH   1   2
BRANCH   1  20
ATOM     20  N   UNL A   1      37.960  20.629  25.437  1.00  0.00    -0.352 N 
ATOM     21  C   UNL A   1      39.233  20.738  25.956  1.00  0.00     0.251 C 
ATOM     22  H   UNL A   1      37.733  19.762  25.030  1.00  0.00     0.163 HD
ATOM     23  O   UNL A   1      40.035  19.825  25.816  1.00  0.00    -0.269 OA
BRANCH  21  24
ATOM     24  C   UNL A   1      39.629  22.000  26.623  1.00  0.00     0.039 A 
ATOM     25  C   UNL A   1      39.119  23.222  26.188  1.00  0.00     0.014 A 
ATOM     26  C   UNL A   1      40.583  21.958  27.644  1.00  0.00     0.014 A 
ATOM     27  C   UNL A   1      39.701  24.404  26.630  1.00  0.00     0.010 A 
ATOM     28  C   UNL A   1      41.104  23.152  28.152  1.00  0.00     0.010 A 
ATOM     29  C   UNL A   1      40.715  24.384  27.603  1.00  0.00    -0.014 A 
BRANCH  29  30
ATOM     30  C   UNL A   1      41.361  25.664  27.999  1.00  0.00     0.031 A 
ATOM     31  C   UNL A   1      42.750  26.006  27.527  1.00  0.00     0.074 A 
ATOM     32  C   UNL A   1      40.656  26.557  28.718  1.00  0.00     0.049 A 
ATOM     33  N   UNL A   1      43.427  27.113  27.698  1.00  0.00    -0.248 NA
ATOM     34  C   UNL A   1      43.477  24.975  26.767  1.00  0.00     0.031 C 
ATOM     35  C   UNL A   1      39.303  26.332  29.229  1.00  0.00     0.029 A 
ATOM     36  N   UNL A   1      40.952  27.838  29.112  1.00  0.00    -0.354 N 
ATOM     37  C   UNL A   1      44.657  26.910  27.084  1.00  0.00     0.074 A 
ATOM     38  C   UNL A   1      44.650  25.559  26.567  1.00  0.00     0.031 C 
ATOM     39  C   UNL A   1      38.861  27.457  29.808  1.00  0.00     0.029 A 
ATOM     40  C   UNL A   1      39.917  28.466  29.766  1.00  0.00     0.049 A 
ATOM     41  H   UNL A   1      41.822  28.267  28.944  1.00  0.00     0.167 HD
ATOM     42  C   UNL A   1      45.690  27.776  26.947  1.00  0.00     0.034 A 
ATOM     43  C   UNL A   1      39.821  29.713  30.272  1.00  0.00     0.034 A 
ATOM     44  C   UNL A   1      45.677  29.127  27.449  1.00  0.00     0.049 A 
ATOM     45  C   UNL A   1      40.982  30.658  30.105  1.00  0.00     0.074 A 
ATOM     46  C   UNL A   1      46.674  30.083  27.357  1.00  0.00     0.029 A 
ATOM     47  N   UNL A   1      44.618  29.720  28.122  1.00  0.00    -0.354 N 
ATOM     48  N   UNL A   1      42.124  30.459  29.489  1.00  0.00    -0.248 NA
ATOM     49  C   UNL A   1      40.844  31.999  30.689  1.00  0.00     0.031 C 
ATOM     50  C   UNL A   1      46.238  31.236  28.013  1.00  0.00     0.029 A 
ATOM     51  C   UNL A   1      44.943  31.024  28.460  1.00  0.00     0.049 A 
ATOM     52  H   UNL A   1      43.762  29.279  28.328  1.00  0.00     0.167 HD
ATOM     53  C   UNL A   1      42.830  31.653  29.595  1.00  0.00     0.074 A 
ATOM     54  C   UNL A   1      41.975  32.579  30.308  1.00  0.00     0.031 C 
ATOM     55  C   UNL A   1      44.077  31.950  29.149  1.00  0.00     0.034 A 
BRANCH  42  56
ATOM     56  C   UNL A   1      46.928  27.316  26.217  1.00  0.00     0.023 A 
ATOM     57  C   UNL A   1      47.157  27.721  24.888  1.00  0.00     0.031 A 
ATOM     58  C   UNL A   1      47.810  26.381  26.788  1.00  0.00     0.131 A 
ATOM     59  C   UNL A   1      48.222  27.170  24.165  1.00  0.00     0.055 A 
ATOM     60  C   UNL A   1      48.893  25.863  26.075  1.00  0.00     0.041 A 
ATOM     61  F   UNL A   1      47.636  25.964  28.053  1.00  0.00    -0.206 F 
ATOM     62  C   UNL A   1      49.094  26.248  24.753  1.00  0.00     0.022 A 
BRANCH  59  63
ATOM     63  S   UNL A   1      48.482  27.578  22.417  1.00  0.00     0.124 S 
ATOM     64  O   UNL A   1      47.287  28.360  22.112  1.00  0.00    -0.237 OA
ATOM     65  O   UNL A   1      49.729  28.337  22.463  1.00  0.00    -0.237 OA
ATOM     66  O   UNL A   1      48.559  26.278  21.759  1.00  0.00    -0.744 OA
ENDBRANCH  59  63
ENDBRANCH  42  56
BRANCH  43  67
ATOM     67  C   UNL A   1      38.544  30.135  30.919  1.00  0.00     0.023 A 
ATOM     68  C   UNL A   1      37.542  30.792  30.179  1.00  0.00     0.031 A 
ATOM     69  C   UNL A   1      38.359  29.996  32.304  1.00  0.00     0.131 A 
ATOM     70  C   UNL A   1      36.443  31.353  30.842  1.00  0.00     0.055 A 
ATOM     71  C   UNL A   1      37.223  30.492  32.949  1.00  0.00     0.041 A 
ATOM     72  F   UNL A   1      39.293  29.391  33.054  1.00  0.00    -0.206 F 
ATOM     73  C   UNL A   1      36.268  31.191  32.219  1.00  0.00     0.022 A 
BRANCH  70  74
ATOM     74  S   UNL A   1      35.286  32.439  29.960  1.00  0.00     0.124 S 
ATOM     75  O   UNL A   1      34.328  32.776  31.007  1.00  0.00    -0.237 OA
ATOM     76  O   UNL A   1      36.165  33.526  29.533  1.00  0.00    -0.237 OA
ATOM     77  O   UNL A   1      34.778  31.597  28.883  1.00  0.00    -0.744 OA
ENDBRANCH  70  74
ENDBRANCH  43  67
BRANCH  55  78
ATOM     78  C   UNL A   1      44.620  33.337  29.395  1.00  0.00     0.023 A 
ATOM     79  C   UNL A   1      44.507  34.324  28.397  1.00  0.00     0.031 A 
ATOM     80  C   UNL A   1      45.374  33.636  30.543  1.00  0.00     0.131 A 
ATOM     81  C   UNL A   1      45.162  35.552  28.552  1.00  0.00     0.055 A 
ATOM     82  C   UNL A   1      45.991  34.876  30.711  1.00  0.00     0.041 A 
ATOM     83  F   UNL A   1      45.524  32.723  31.516  1.00  0.00    -0.206 F 
ATOM     84  C   UNL A   1      45.899  35.835  29.707  1.00  0.00     0.022 A 
BRANCH  81  85
ATOM     85  S   UNL A   1      45.161  36.789  27.226  1.00  0.00     0.124 S 
ATOM     86  O   UNL A   1      43.755  36.806  26.832  1.00  0.00    -0.237 OA
ATOM     87  O   UNL A   1      45.629  37.986  27.919  1.00  0.00    -0.237 OA
ATOM     88  O   UNL A   1      46.080  36.242  26.232  1.00  0.00    -0.744 OA
ENDBRANCH  81  85
ENDBRANCH  55  78
ENDBRANCH  29  30
ENDBRANCH  21  24
ENDBRANCH   1  20
TORSDOF 14
ENDMDL
