MODEL 1
REMARK VINA RESULT:     -11.2      0.000      0.000
REMARK SMILES CC[C@@](O)(C(=O)NCCCCNC(=O)c1ccc(-c2c3nc(c(-c4cc(S(=O)(=O)[O-])ccc4F)c4ccc([nH]4)c(-c4cc(S(=O)(=O)[O-])ccc4F)c4nc(c(-c5cc(S(=O)(=O)[O-])ccc5F)c5ccc2[nH]5)C=C4)C=C3)cc1)[C@@H]1CCOc2ccccc21
REMARK SMILES IDX 10 1 9 2 8 3 7 4 5 5 6 6 3 8 2 9 1 10 4 11 78 13 79 14 87 15
REMARK SMILES IDX 80 16 82 17 86 18 81 19 83 20 85 21 84 22 11 23 12 24 13 25
REMARK SMILES IDX 14 27 15 28 16 29 77 30 17 31 76 32 18 33 19 34 20 35 70 36
REMARK SMILES IDX 21 37 75 38 69 39 71 40 22 41 74 42 68 43 67 44 23 46 55 47
REMARK SMILES IDX 35 48 54 49 36 50 39 51 53 52 72 53 37 54 38 55 52 57 73 58
REMARK SMILES IDX 40 59 24 60 25 61 33 62 26 63 32 64 34 65 31 66 27 67 28 68
REMARK SMILES IDX 29 69 30 70 56 71 57 72 65 73 58 74 64 75 66 76 63 77 59 78
REMARK SMILES IDX 60 79 61 80 62 81 41 82 42 83 50 84 43 85 49 86 51 87 48 88
REMARK SMILES IDX 44 89 45 90 46 91 47 92
REMARK H PARENT 7 7 4 12 12 26 71 45 39 56
REMARK Flexibility Score: inf
ROOT
ATOM      1  C   UNL A   1      33.021  28.294  26.480  1.00  0.00     0.023 C 
ENDROOT
BRANCH   1   2
ATOM      2  C   UNL A   1      33.565  26.877  26.285  1.00  0.00     0.023 C 
BRANCH   2   3
ATOM      3  C   UNL A   1      32.591  25.925  25.592  1.00  0.00     0.116 C 
BRANCH   3   4
ATOM      4  N   UNL A   1      32.927  25.792  24.193  1.00  0.00    -0.354 N 
ATOM      5  C   UNL A   1      33.844  24.999  23.569  1.00  0.00     0.252 C 
ATOM      6  O   UNL A   1      33.936  25.156  22.347  1.00  0.00    -0.272 OA
ATOM      7  H   UNL A   1      32.408  26.371  23.590  1.00  0.00     0.163 HD
BRANCH   5   8
ATOM      8  C   UNL A   1      34.720  23.957  24.356  1.00  0.00     0.149 C 
BRANCH   8   9
ATOM      9  C   UNL A   1      35.531  23.063  23.370  1.00  0.00     0.043 C 
ATOM     10  C   UNL A   1      36.859  22.508  23.867  1.00  0.00     0.007 C 
ENDBRANCH   8   9
BRANCH   8  11
ATOM     11  O   UNL A   1      35.642  24.754  25.138  1.00  0.00    -0.379 OA
ATOM     12  H   UNL A   1      36.027  24.207  25.841  1.00  0.00     0.212 HD
ENDBRANCH   8  11
BRANCH   8  13
ATOM     13  C   UNL A   1      33.794  23.171  25.368  1.00  0.00     0.068 C 
ATOM     14  C   UNL A   1      34.476  23.023  26.746  1.00  0.00     0.053 C 
ATOM     15  C   UNL A   1      33.250  21.820  24.912  1.00  0.00     0.001 A 
ATOM     16  C   UNL A   1      33.636  22.128  27.630  1.00  0.00     0.230 C 
ATOM     17  C   UNL A   1      33.221  20.731  25.796  1.00  0.00     0.122 A 
ATOM     18  C   UNL A   1      32.754  21.620  23.612  1.00  0.00     0.008 A 
ATOM     19  O   UNL A   1      33.598  20.800  27.111  1.00  0.00    -0.493 OA
ATOM     20  C   UNL A   1      32.828  19.464  25.358  1.00  0.00     0.047 A 
ATOM     21  C   UNL A   1      32.361  20.353  23.175  1.00  0.00     0.001 A 
ATOM     22  C   UNL A   1      32.415  19.270  24.043  1.00  0.00     0.004 A 
ENDBRANCH   8  13
ENDBRANCH   5   8
ENDBRANCH   3   4
ENDBRANCH   2   3
ENDBRANCH   1   2
BRANCH   1  23
ATOM     23  C   UNL A   1      33.984  29.402  26.074  1.00  0.00     0.116 C 
BRANCH  23  24
ATOM     24  N   UNL A   1      33.636  30.686  26.661  1.00  0.00    -0.352 N 
ATOM     25  C   UNL A   1      34.240  31.344  27.701  1.00  0.00     0.251 C 
ATOM     26  H   UNL A   1      32.864  31.145  26.257  1.00  0.00     0.163 HD
ATOM     27  O   UNL A   1      33.709  32.342  28.180  1.00  0.00    -0.269 OA
BRANCH  25  28
ATOM     28  C   UNL A   1      35.508  30.824  28.251  1.00  0.00     0.039 A 
ATOM     29  C   UNL A   1      35.467  29.749  29.140  1.00  0.00     0.014 A 
ATOM     30  C   UNL A   1      36.733  31.388  27.882  1.00  0.00     0.014 A 
ATOM     31  C   UNL A   1      36.659  29.218  29.631  1.00  0.00     0.010 A 
ATOM     32  C   UNL A   1      37.921  30.798  28.297  1.00  0.00     0.010 A 
ATOM     33  C   UNL A   1      37.897  29.723  29.197  1.00  0.00    -0.014 A 
BRANCH  33  34
ATOM     34  C   UNL A   1      39.171  29.168  29.719  1.00  0.00     0.031 A 
ATOM     35  C   UNL A   1      39.786  29.749  30.966  1.00  0.00     0.074 A 
ATOM     36  C   UNL A   1      39.782  28.164  29.061  1.00  0.00     0.049 A 
ATOM     37  N   UNL A   1      40.890  29.407  31.580  1.00  0.00    -0.248 NA
ATOM     38  C   UNL A   1      39.085  30.884  31.584  1.00  0.00     0.031 C 
ATOM     39  C   UNL A   1      39.301  27.552  27.820  1.00  0.00     0.029 A 
ATOM     40  N   UNL A   1      40.932  27.474  29.346  1.00  0.00    -0.354 N 
ATOM     41  C   UNL A   1      41.020  30.294  32.645  1.00  0.00     0.074 A 
ATOM     42  C   UNL A   1      39.924  31.232  32.546  1.00  0.00     0.031 C 
ATOM     43  C   UNL A   1      40.123  26.546  27.479  1.00  0.00     0.029 A 
ATOM     44  C   UNL A   1      41.213  26.471  28.446  1.00  0.00     0.049 A 
ATOM     45  H   UNL A   1      41.505  27.678  30.121  1.00  0.00     0.167 HD
ATOM     46  C   UNL A   1      41.951  30.306  33.631  1.00  0.00     0.034 A 
ATOM     47  C   UNL A   1      42.233  25.591  28.409  1.00  0.00     0.034 A 
ATOM     48  C   UNL A   1      43.028  29.350  33.719  1.00  0.00     0.049 A 
ATOM     49  C   UNL A   1      43.267  25.637  29.506  1.00  0.00     0.074 A 
ATOM     50  C   UNL A   1      43.993  29.229  34.703  1.00  0.00     0.029 A 
ATOM     51  N   UNL A   1      43.290  28.357  32.783  1.00  0.00    -0.354 N 
ATOM     52  N   UNL A   1      43.342  26.439  30.543  1.00  0.00    -0.248 NA
ATOM     53  C   UNL A   1      44.346  24.644  29.435  1.00  0.00     0.031 C 
ATOM     54  C   UNL A   1      44.885  28.220  34.321  1.00  0.00     0.029 A 
ATOM     55  C   UNL A   1      44.423  27.645  33.147  1.00  0.00     0.049 A 
ATOM     56  H   UNL A   1      42.751  28.186  31.978  1.00  0.00     0.167 HD
ATOM     57  C   UNL A   1      44.453  26.018  31.270  1.00  0.00     0.074 A 
ATOM     58  C   UNL A   1      45.003  24.882  30.559  1.00  0.00     0.031 C 
ATOM     59  C   UNL A   1      44.967  26.518  32.424  1.00  0.00     0.034 A 
BRANCH  46  60
ATOM     60  C   UNL A   1      41.858  31.406  34.665  1.00  0.00     0.023 A 
ATOM     61  C   UNL A   1      40.880  31.396  35.677  1.00  0.00     0.031 A 
ATOM     62  C   UNL A   1      42.738  32.502  34.617  1.00  0.00     0.131 A 
ATOM     63  C   UNL A   1      40.752  32.495  36.540  1.00  0.00     0.055 A 
ATOM     64  C   UNL A   1      42.665  33.548  35.539  1.00  0.00     0.041 A 
ATOM     65  F   UNL A   1      43.678  32.583  33.661  1.00  0.00    -0.206 F 
ATOM     66  C   UNL A   1      41.657  33.558  36.497  1.00  0.00     0.022 A 
BRANCH  63  67
ATOM     67  S   UNL A   1      39.289  32.590  37.608  1.00  0.00     0.124 S 
ATOM     68  O   UNL A   1      38.564  31.382  37.223  1.00  0.00    -0.237 OA
ATOM     69  O   UNL A   1      39.872  32.587  38.944  1.00  0.00    -0.237 OA
ATOM     70  O   UNL A   1      38.652  33.844  37.207  1.00  0.00    -0.744 OA
ENDBRANCH  63  67
ENDBRANCH  46  60
BRANCH  47  71
ATOM     71  C   UNL A   1      42.328  24.583  27.313  1.00  0.00     0.023 A 
ATOM     72  C   UNL A   1      41.557  23.409  27.344  1.00  0.00     0.031 A 
ATOM     73  C   UNL A   1      43.228  24.751  26.246  1.00  0.00     0.131 A 
ATOM     74  C   UNL A   1      41.739  22.425  26.359  1.00  0.00     0.055 A 
ATOM     75  C   UNL A   1      43.361  23.797  25.235  1.00  0.00     0.041 A 
ATOM     76  F   UNL A   1      43.986  25.856  26.165  1.00  0.00    -0.206 F 
ATOM     77  C   UNL A   1      42.625  22.619  25.297  1.00  0.00     0.022 A 
BRANCH  74  78
ATOM     78  S   UNL A   1      40.871  20.843  26.542  1.00  0.00     0.124 S 
ATOM     79  O   UNL A   1      41.723  19.946  25.770  1.00  0.00    -0.237 OA
ATOM     80  O   UNL A   1      40.885  20.657  27.990  1.00  0.00    -0.237 OA
ATOM     81  O   UNL A   1      39.555  21.109  25.963  1.00  0.00    -0.744 OA
ENDBRANCH  74  78
ENDBRANCH  47  71
BRANCH  59  82
ATOM     82  C   UNL A   1      46.155  25.795  33.016  1.00  0.00     0.023 A 
ATOM     83  C   UNL A   1      46.005  24.746  33.940  1.00  0.00     0.031 A 
ATOM     84  C   UNL A   1      47.462  26.184  32.667  1.00  0.00     0.131 A 
ATOM     85  C   UNL A   1      47.138  24.177  34.541  1.00  0.00     0.055 A 
ATOM     86  C   UNL A   1      48.585  25.560  33.209  1.00  0.00     0.041 A 
ATOM     87  F   UNL A   1      47.669  27.182  31.793  1.00  0.00    -0.206 F 
ATOM     88  C   UNL A   1      48.427  24.563  34.166  1.00  0.00     0.022 A 
BRANCH  85  89
ATOM     89  S   UNL A   1      46.901  23.014  35.914  1.00  0.00     0.124 S 
ATOM     90  O   UNL A   1      45.649  22.362  35.544  1.00  0.00    -0.237 OA
ATOM     91  O   UNL A   1      48.100  22.187  35.832  1.00  0.00    -0.237 OA
ATOM     92  O   UNL A   1      46.825  23.883  37.087  1.00  0.00    -0.744 OA
ENDBRANCH  85  89
ENDBRANCH  59  82
ENDBRANCH  33  34
ENDBRANCH  25  28
ENDBRANCH  23  24
ENDBRANCH   1  23
TORSDOF 17
ENDMDL
MODEL 2
REMARK VINA RESULT:     -11.2      1.062      2.250
REMARK SMILES CC[C@@](O)(C(=O)NCCCCNC(=O)c1ccc(-c2c3nc(c(-c4cc(S(=O)(=O)[O-])ccc4F)c4ccc([nH]4)c(-c4cc(S(=O)(=O)[O-])ccc4F)c4nc(c(-c5cc(S(=O)(=O)[O-])ccc5F)c5ccc2[nH]5)C=C4)C=C3)cc1)[C@@H]1CCOc2ccccc21
REMARK SMILES IDX 10 1 9 2 8 3 7 4 5 5 6 6 3 8 2 9 1 10 4 11 78 13 79 14 87 15
REMARK SMILES IDX 80 16 82 17 86 18 81 19 83 20 85 21 84 22 11 23 12 24 13 25
REMARK SMILES IDX 14 27 15 28 16 29 77 30 17 31 76 32 18 33 19 34 20 35 70 36
REMARK SMILES IDX 21 37 75 38 69 39 71 40 22 41 74 42 68 43 67 44 23 46 55 47
REMARK SMILES IDX 35 48 54 49 36 50 39 51 53 52 72 53 37 54 38 55 52 57 73 58
REMARK SMILES IDX 40 59 24 60 25 61 33 62 26 63 32 64 34 65 31 66 27 67 28 68
REMARK SMILES IDX 29 69 30 70 56 71 57 72 65 73 58 74 64 75 66 76 63 77 59 78
REMARK SMILES IDX 60 79 61 80 62 81 41 82 42 83 50 84 43 85 49 86 51 87 48 88
REMARK SMILES IDX 44 89 45 90 46 91 47 92
REMARK H PARENT 7 7 4 12 12 26 71 45 39 56
REMARK Flexibility Score: inf
ROOT
ATOM      1  C   UNL A   1      33.284  27.787  26.412  1.00  0.00     0.023 C 
ENDROOT
BRANCH   1   2
ATOM      2  C   UNL A   1      31.754  27.788  26.413  1.00  0.00     0.023 C 
BRANCH   2   3
ATOM      3  C   UNL A   1      31.129  26.534  25.800  1.00  0.00     0.116 C 
BRANCH   3   4
ATOM      4  N   UNL A   1      31.119  25.456  26.763  1.00  0.00    -0.354 N 
ATOM      5  C   UNL A   1      31.240  24.109  26.591  1.00  0.00     0.252 C 
ATOM      6  O   UNL A   1      31.134  23.432  27.619  1.00  0.00    -0.272 OA
ATOM      7  H   UNL A   1      31.007  25.742  27.698  1.00  0.00     0.163 HD
BRANCH   5   8
ATOM      8  C   UNL A   1      31.495  23.466  25.179  1.00  0.00     0.149 C 
BRANCH   8   9
ATOM      9  C   UNL A   1      31.757  21.936  25.310  1.00  0.00     0.043 C 
ATOM     10  C   UNL A   1      32.191  21.195  24.052  1.00  0.00     0.007 C 
ENDBRANCH   8   9
BRANCH   8  11
ATOM     11  O   UNL A   1      30.266  23.674  24.442  1.00  0.00    -0.379 OA
ATOM     12  H   UNL A   1      30.449  24.206  23.651  1.00  0.00     0.212 HD
ENDBRANCH   8  11
BRANCH   8  13
ATOM     13  C   UNL A   1      32.634  24.281  24.444  1.00  0.00     0.068 C 
ATOM     14  C   UNL A   1      32.367  24.363  22.925  1.00  0.00     0.053 C 
ATOM     15  C   UNL A   1      34.075  23.848  24.694  1.00  0.00     0.001 A 
ATOM     16  C   UNL A   1      33.554  25.004  22.240  1.00  0.00     0.230 C 
ATOM     17  C   UNL A   1      34.994  23.792  23.635  1.00  0.00     0.122 A 
ATOM     18  C   UNL A   1      34.535  23.504  25.977  1.00  0.00     0.008 A 
ATOM     19  O   UNL A   1      34.708  24.172  22.351  1.00  0.00    -0.493 OA
ATOM     20  C   UNL A   1      36.284  23.292  23.832  1.00  0.00     0.047 A 
ATOM     21  C   UNL A   1      35.825  23.004  26.173  1.00  0.00     0.001 A 
ATOM     22  C   UNL A   1      36.694  22.882  25.096  1.00  0.00     0.004 A 
ENDBRANCH   8  13
ENDBRANCH   5   8
ENDBRANCH   3   4
ENDBRANCH   2   3
ENDBRANCH   1   2
BRANCH   1  23
ATOM     23  C   UNL A   1      33.916  28.953  25.664  1.00  0.00     0.116 C 
BRANCH  23  24
ATOM     24  N   UNL A   1      33.609  30.238  26.271  1.00  0.00    -0.352 N 
ATOM     25  C   UNL A   1      34.228  30.857  27.328  1.00  0.00     0.251 C 
ATOM     26  H   UNL A   1      32.855  30.730  25.872  1.00  0.00     0.163 HD
ATOM     27  O   UNL A   1      33.727  31.864  27.821  1.00  0.00    -0.269 OA
BRANCH  25  28
ATOM     28  C   UNL A   1      35.473  30.283  27.876  1.00  0.00     0.039 A 
ATOM     29  C   UNL A   1      36.694  30.660  27.315  1.00  0.00     0.014 A 
ATOM     30  C   UNL A   1      35.436  29.385  28.947  1.00  0.00     0.014 A 
ATOM     31  C   UNL A   1      37.880  30.162  27.853  1.00  0.00     0.010 A 
ATOM     32  C   UNL A   1      36.620  28.965  29.541  1.00  0.00     0.010 A 
ATOM     33  C   UNL A   1      37.855  29.328  28.985  1.00  0.00    -0.014 A 
BRANCH  33  34
ATOM     34  C   UNL A   1      39.112  28.788  29.560  1.00  0.00     0.031 A 
ATOM     35  C   UNL A   1      39.645  29.348  30.854  1.00  0.00     0.074 A 
ATOM     36  C   UNL A   1      39.781  27.817  28.911  1.00  0.00     0.049 A 
ATOM     37  N   UNL A   1      40.722  29.015  31.518  1.00  0.00    -0.248 NA
ATOM     38  C   UNL A   1      38.884  30.449  31.462  1.00  0.00     0.031 C 
ATOM     39  C   UNL A   1      39.383  27.229  27.629  1.00  0.00     0.029 A 
ATOM     40  N   UNL A   1      40.932  27.146  29.239  1.00  0.00    -0.354 N 
ATOM     41  C   UNL A   1      40.773  29.875  32.611  1.00  0.00     0.074 A 
ATOM     42  C   UNL A   1      39.661  30.790  32.477  1.00  0.00     0.031 C 
ATOM     43  C   UNL A   1      40.247  26.252  27.307  1.00  0.00     0.029 A 
ATOM     44  C   UNL A   1      41.285  26.175  28.329  1.00  0.00     0.049 A 
ATOM     45  H   UNL A   1      41.457  27.342  30.049  1.00  0.00     0.167 HD
ATOM     46  C   UNL A   1      41.649  29.881  33.646  1.00  0.00     0.034 A 
ATOM     47  C   UNL A   1      42.326  25.320  28.325  1.00  0.00     0.034 A 
ATOM     48  C   UNL A   1      42.743  28.948  33.767  1.00  0.00     0.049 A 
ATOM     49  C   UNL A   1      43.299  25.359  29.477  1.00  0.00     0.074 A 
ATOM     50  C   UNL A   1      43.656  28.822  34.799  1.00  0.00     0.029 A 
ATOM     51  N   UNL A   1      43.079  27.988  32.821  1.00  0.00    -0.354 N 
ATOM     52  N   UNL A   1      43.298  26.134  30.538  1.00  0.00    -0.248 NA
ATOM     53  C   UNL A   1      44.404  24.394  29.439  1.00  0.00     0.031 C 
ATOM     54  C   UNL A   1      44.592  27.845  34.439  1.00  0.00     0.029 A 
ATOM     55  C   UNL A   1      44.208  27.292  33.227  1.00  0.00     0.049 A 
ATOM     56  H   UNL A   1      42.588  27.826  31.983  1.00  0.00     0.167 HD
ATOM     57  C   UNL A   1      44.379  25.719  31.313  1.00  0.00     0.074 A 
ATOM     58  C   UNL A   1      44.994  24.616  30.603  1.00  0.00     0.031 C 
ATOM     59  C   UNL A   1      44.818  26.199  32.505  1.00  0.00     0.034 A 
BRANCH  46  60
ATOM     60  C   UNL A   1      41.474  30.949  34.702  1.00  0.00     0.023 A 
ATOM     61  C   UNL A   1      40.369  30.961  35.574  1.00  0.00     0.031 A 
ATOM     62  C   UNL A   1      42.408  31.995  34.816  1.00  0.00     0.131 A 
ATOM     63  C   UNL A   1      40.182  32.036  36.456  1.00  0.00     0.055 A 
ATOM     64  C   UNL A   1      42.265  33.013  35.762  1.00  0.00     0.041 A 
ATOM     65  F   UNL A   1      43.471  32.055  33.998  1.00  0.00    -0.206 F 
ATOM     66  C   UNL A   1      41.137  33.047  36.577  1.00  0.00     0.022 A 
BRANCH  63  67
ATOM     67  S   UNL A   1      38.595  32.179  37.322  1.00  0.00     0.124 S 
ATOM     68  O   UNL A   1      37.954  30.913  36.974  1.00  0.00    -0.237 OA
ATOM     69  O   UNL A   1      39.006  32.326  38.713  1.00  0.00    -0.237 OA
ATOM     70  O   UNL A   1      37.981  33.363  36.723  1.00  0.00    -0.744 OA
ENDBRANCH  63  67
ENDBRANCH  46  60
BRANCH  47  71
ATOM     71  C   UNL A   1      42.504  24.345  27.210  1.00  0.00     0.023 A 
ATOM     72  C   UNL A   1      41.874  23.091  27.240  1.00  0.00     0.031 A 
ATOM     73  C   UNL A   1      43.349  24.630  26.122  1.00  0.00     0.131 A 
ATOM     74  C   UNL A   1      42.139  22.148  26.234  1.00  0.00     0.055 A 
ATOM     75  C   UNL A   1      43.562  23.712  25.092  1.00  0.00     0.041 A 
ATOM     76  F   UNL A   1      43.974  25.816  26.040  1.00  0.00    -0.206 F 
ATOM     77  C   UNL A   1      42.967  22.456  25.153  1.00  0.00     0.022 A 
BRANCH  74  78
ATOM     78  S   UNL A   1      41.462  20.475  26.413  1.00  0.00     0.124 S 
ATOM     79  O   UNL A   1      40.043  20.699  26.161  1.00  0.00    -0.237 OA
ATOM     80  O   UNL A   1      42.191  19.742  25.382  1.00  0.00    -0.237 OA
ATOM     81  O   UNL A   1      41.804  20.116  27.788  1.00  0.00    -0.744 OA
ENDBRANCH  74  78
ENDBRANCH  47  71
BRANCH  59  82
ATOM     82  C   UNL A   1      45.989  25.487  33.141  1.00  0.00     0.023 A 
ATOM     83  C   UNL A   1      45.817  24.393  34.007  1.00  0.00     0.031 A 
ATOM     84  C   UNL A   1      47.302  25.932  32.896  1.00  0.00     0.131 A 
ATOM     85  C   UNL A   1      46.928  23.833  34.656  1.00  0.00     0.055 A 
ATOM     86  C   UNL A   1      48.409  25.320  33.483  1.00  0.00     0.041 A 
ATOM     87  F   UNL A   1      47.530  26.975  32.081  1.00  0.00    -0.206 F 
ATOM     88  C   UNL A   1      48.224  24.275  34.383  1.00  0.00     0.022 A 
BRANCH  85  89
ATOM     89  S   UNL A   1      46.643  22.603  35.959  1.00  0.00     0.124 S 
ATOM     90  O   UNL A   1      45.474  21.891  35.453  1.00  0.00    -0.237 OA
ATOM     91  O   UNL A   1      47.896  21.854  35.959  1.00  0.00    -0.237 OA
ATOM     92  O   UNL A   1      46.406  23.416  37.150  1.00  0.00    -0.744 OA
ENDBRANCH  85  89
ENDBRANCH  59  82
ENDBRANCH  33  34
ENDBRANCH  25  28
ENDBRANCH  23  24
ENDBRANCH   1  23
TORSDOF 17
ENDMDL
MODEL 3
REMARK VINA RESULT:     -11.1      5.154      7.949
REMARK SMILES CC[C@@](O)(C(=O)NCCCCNC(=O)c1ccc(-c2c3nc(c(-c4cc(S(=O)(=O)[O-])ccc4F)c4ccc([nH]4)c(-c4cc(S(=O)(=O)[O-])ccc4F)c4nc(c(-c5cc(S(=O)(=O)[O-])ccc5F)c5ccc2[nH]5)C=C4)C=C3)cc1)[C@@H]1CCOc2ccccc21
REMARK SMILES IDX 10 1 9 2 8 3 7 4 5 5 6 6 3 8 2 9 1 10 4 11 78 13 79 14 87 15
REMARK SMILES IDX 80 16 82 17 86 18 81 19 83 20 85 21 84 22 11 23 12 24 13 25
REMARK SMILES IDX 14 27 15 28 16 29 77 30 17 31 76 32 18 33 19 34 20 35 70 36
REMARK SMILES IDX 21 37 75 38 69 39 71 40 22 41 74 42 68 43 67 44 23 46 55 47
REMARK SMILES IDX 35 48 54 49 36 50 39 51 53 52 72 53 37 54 38 55 52 57 73 58
REMARK SMILES IDX 40 59 24 60 25 61 33 62 26 63 32 64 34 65 31 66 27 67 28 68
REMARK SMILES IDX 29 69 30 70 56 71 57 72 65 73 58 74 64 75 66 76 63 77 59 78
REMARK SMILES IDX 60 79 61 80 62 81 41 82 42 83 50 84 43 85 49 86 51 87 48 88
REMARK SMILES IDX 44 89 45 90 46 91 47 92
REMARK H PARENT 7 7 4 12 12 26 71 45 39 56
REMARK Flexibility Score: inf
ROOT
ATOM      1  C   UNL A   1      34.996  21.435  25.145  1.00  0.00     0.023 C 
ENDROOT
BRANCH   1   2
ATOM      2  C   UNL A   1      33.848  21.226  26.136  1.00  0.00     0.023 C 
BRANCH   2   3
ATOM      3  C   UNL A   1      33.730  22.323  27.193  1.00  0.00     0.116 C 
BRANCH   3   4
ATOM      4  N   UNL A   1      32.342  22.672  27.403  1.00  0.00    -0.354 N 
ATOM      5  C   UNL A   1      31.560  23.612  26.802  1.00  0.00     0.252 C 
ATOM      6  O   UNL A   1      30.411  23.708  27.245  1.00  0.00    -0.272 OA
ATOM      7  H   UNL A   1      31.887  22.141  28.095  1.00  0.00     0.163 HD
BRANCH   5   8
ATOM      8  C   UNL A   1      32.090  24.511  25.625  1.00  0.00     0.149 C 
BRANCH   8   9
ATOM      9  C   UNL A   1      33.528  25.028  25.931  1.00  0.00     0.043 C 
ATOM     10  C   UNL A   1      34.480  25.173  24.751  1.00  0.00     0.007 C 
ENDBRANCH   8   9
BRANCH   8  11
ATOM     11  O   UNL A   1      32.138  23.634  24.473  1.00  0.00    -0.379 OA
ATOM     12  H   UNL A   1      31.590  24.004  23.763  1.00  0.00     0.212 HD
ENDBRANCH   8  11
BRANCH   8  13
ATOM     13  C   UNL A   1      31.022  25.637  25.321  1.00  0.00     0.068 C 
ATOM     14  C   UNL A   1      30.643  25.654  23.824  1.00  0.00     0.053 C 
ATOM     15  C   UNL A   1      31.347  27.053  25.789  1.00  0.00     0.001 A 
ATOM     16  C   UNL A   1      29.751  26.844  23.544  1.00  0.00     0.230 C 
ATOM     17  C   UNL A   1      31.079  28.154  24.962  1.00  0.00     0.122 A 
ATOM     18  C   UNL A   1      31.911  27.306  27.052  1.00  0.00     0.008 A 
ATOM     19  O   UNL A   1      30.463  28.064  23.741  1.00  0.00    -0.493 OA
ATOM     20  C   UNL A   1      31.473  29.442  25.333  1.00  0.00     0.047 A 
ATOM     21  C   UNL A   1      32.304  28.594  27.423  1.00  0.00     0.001 A 
ATOM     22  C   UNL A   1      32.101  29.660  26.555  1.00  0.00     0.004 A 
ENDBRANCH   8  13
ENDBRANCH   5   8
ENDBRANCH   3   4
ENDBRANCH   2   3
ENDBRANCH   1   2
BRANCH   1  23
ATOM     23  C   UNL A   1      36.325  21.810  25.787  1.00  0.00     0.116 C 
BRANCH  23  24
ATOM     24  N   UNL A   1      37.287  20.721  25.755  1.00  0.00    -0.352 N 
ATOM     25  C   UNL A   1      38.652  20.780  25.875  1.00  0.00     0.251 C 
ATOM     26  H   UNL A   1      36.909  19.820  25.631  1.00  0.00     0.163 HD
ATOM     27  O   UNL A   1      39.326  19.779  25.652  1.00  0.00    -0.269 OA
BRANCH  25  28
ATOM     28  C   UNL A   1      39.294  22.059  26.240  1.00  0.00     0.039 A 
ATOM     29  C   UNL A   1      40.461  22.034  27.005  1.00  0.00     0.014 A 
ATOM     30  C   UNL A   1      38.752  23.277  25.819  1.00  0.00     0.014 A 
ATOM     31  C   UNL A   1      41.102  23.231  27.318  1.00  0.00     0.010 A 
ATOM     32  C   UNL A   1      39.443  24.461  26.051  1.00  0.00     0.010 A 
ATOM     33  C   UNL A   1      40.612  24.454  26.826  1.00  0.00    -0.014 A 
BRANCH  33  34
ATOM     34  C   UNL A   1      41.285  25.734  27.159  1.00  0.00     0.031 A 
ATOM     35  C   UNL A   1      40.577  26.752  28.015  1.00  0.00     0.074 A 
ATOM     36  C   UNL A   1      42.515  25.988  26.674  1.00  0.00     0.049 A 
ATOM     37  N   UNL A   1      40.991  27.926  28.418  1.00  0.00    -0.248 NA
ATOM     38  C   UNL A   1      39.212  26.418  28.449  1.00  0.00     0.031 C 
ATOM     39  C   UNL A   1      43.279  25.095  25.798  1.00  0.00     0.029 A 
ATOM     40  N   UNL A   1      43.345  27.066  26.852  1.00  0.00    -0.354 N 
ATOM     41  C   UNL A   1      39.933  28.474  29.137  1.00  0.00     0.074 A 
ATOM     42  C   UNL A   1      38.837  27.536  29.050  1.00  0.00     0.031 C 
ATOM     43  C   UNL A   1      44.483  25.640  25.559  1.00  0.00     0.029 A 
ATOM     44  C   UNL A   1      44.561  26.938  26.220  1.00  0.00     0.049 A 
ATOM     45  H   UNL A   1      43.094  27.857  27.382  1.00  0.00     0.167 HD
ATOM     46  C   UNL A   1      39.891  29.639  29.830  1.00  0.00     0.034 A 
ATOM     47  C   UNL A   1      45.617  27.774  26.181  1.00  0.00     0.034 A 
ATOM     48  C   UNL A   1      41.003  30.554  29.915  1.00  0.00     0.049 A 
ATOM     49  C   UNL A   1      45.539  29.073  26.944  1.00  0.00     0.074 A 
ATOM     50  C   UNL A   1      41.095  31.732  30.635  1.00  0.00     0.029 A 
ATOM     51  N   UNL A   1      42.214  30.400  29.251  1.00  0.00    -0.354 N 
ATOM     52  N   UNL A   1      44.556  29.549  27.674  1.00  0.00    -0.248 NA
ATOM     53  C   UNL A   1      46.723  29.939  26.891  1.00  0.00     0.031 C 
ATOM     54  C   UNL A   1      42.326  32.331  30.340  1.00  0.00     0.029 A 
ATOM     55  C   UNL A   1      43.044  31.480  29.513  1.00  0.00     0.049 A 
ATOM     56  H   UNL A   1      42.448  29.636  28.676  1.00  0.00     0.167 HD
ATOM     57  C   UNL A   1      45.023  30.752  28.201  1.00  0.00     0.074 A 
ATOM     58  C   UNL A   1      46.377  30.915  27.717  1.00  0.00     0.031 C 
ATOM     59  C   UNL A   1      44.391  31.636  29.017  1.00  0.00     0.034 A 
BRANCH  46  60
ATOM     60  C   UNL A   1      38.592  29.996  30.515  1.00  0.00     0.023 A 
ATOM     61  C   UNL A   1      37.569  30.701  29.853  1.00  0.00     0.031 A 
ATOM     62  C   UNL A   1      38.384  29.659  31.865  1.00  0.00     0.131 A 
ATOM     63  C   UNL A   1      36.431  31.117  30.560  1.00  0.00     0.055 A 
ATOM     64  C   UNL A   1      37.207  29.995  32.538  1.00  0.00     0.041 A 
ATOM     65  F   UNL A   1      39.331  29.008  32.561  1.00  0.00    -0.206 F 
ATOM     66  C   UNL A   1      36.229  30.744  31.890  1.00  0.00     0.022 A 
BRANCH  63  67
ATOM     67  S   UNL A   1      35.299  32.291  29.765  1.00  0.00     0.124 S 
ATOM     68  O   UNL A   1      34.795  31.501  28.645  1.00  0.00    -0.237 OA
ATOM     69  O   UNL A   1      34.343  32.577  30.828  1.00  0.00    -0.237 OA
ATOM     70  O   UNL A   1      36.168  33.406  29.390  1.00  0.00    -0.744 OA
ENDBRANCH  63  67
ENDBRANCH  46  60
BRANCH  47  71
ATOM     71  C   UNL A   1      46.844  27.414  25.413  1.00  0.00     0.023 A 
ATOM     72  C   UNL A   1      47.018  27.846  24.088  1.00  0.00     0.031 A 
ATOM     73  C   UNL A   1      47.836  26.588  25.970  1.00  0.00     0.131 A 
ATOM     74  C   UNL A   1      48.128  27.409  23.347  1.00  0.00     0.055 A 
ATOM     75  C   UNL A   1      48.969  26.205  25.250  1.00  0.00     0.041 A 
ATOM     76  F   UNL A   1      47.722  26.149  27.234  1.00  0.00    -0.206 F 
ATOM     77  C   UNL A   1      49.112  26.603  23.925  1.00  0.00     0.022 A 
BRANCH  74  78
ATOM     78  S   UNL A   1      48.215  27.827  21.585  1.00  0.00     0.124 S 
ATOM     79  O   UNL A   1      48.568  26.543  20.991  1.00  0.00    -0.237 OA
ATOM     80  O   UNL A   1      46.863  28.308  21.321  1.00  0.00    -0.237 OA
ATOM     81  O   UNL A   1      49.259  28.850  21.530  1.00  0.00    -0.744 OA
ENDBRANCH  74  78
ENDBRANCH  47  71
BRANCH  59  82
ATOM     82  C   UNL A   1      45.191  32.831  29.482  1.00  0.00     0.023 A 
ATOM     83  C   UNL A   1      45.192  34.048  28.778  1.00  0.00     0.031 A 
ATOM     84  C   UNL A   1      45.990  32.737  30.637  1.00  0.00     0.131 A 
ATOM     85  C   UNL A   1      46.033  35.093  29.190  1.00  0.00     0.055 A 
ATOM     86  C   UNL A   1      46.764  33.808  31.086  1.00  0.00     0.041 A 
ATOM     87  F   UNL A   1      46.034  31.599  31.349  1.00  0.00    -0.206 F 
ATOM     88  C   UNL A   1      46.802  34.988  30.350  1.00  0.00     0.022 A 
BRANCH  85  89
ATOM     89  S   UNL A   1      46.204  36.544  28.115  1.00  0.00     0.124 S 
ATOM     90  O   UNL A   1      47.233  37.313  28.808  1.00  0.00    -0.237 OA
ATOM     91  O   UNL A   1      46.601  35.947  26.845  1.00  0.00    -0.237 OA
ATOM     92  O   UNL A   1      44.869  37.140  28.130  1.00  0.00    -0.744 OA
ENDBRANCH  85  89
ENDBRANCH  59  82
ENDBRANCH  33  34
ENDBRANCH  25  28
ENDBRANCH  23  24
ENDBRANCH   1  23
TORSDOF 17
ENDMDL
