MODEL 1
REMARK VINA RESULT:     -10.4      0.000      0.000
REMARK SMILES O=C(CCC(=O)Nc1nncs1)NCCCCNC(=O)c1ccc(-c2c3nc(c(-c4cc(S(=O)(=O)[O-])ccc4F)c4ccc([nH]4)c(-c4cc(S(=O)(=O)[O-])ccc4F)c4nc(c(-c5cc(S(=O)(=O)[O-])ccc5F)c5ccc2[nH]5)C=C4)C=C3)cc1
REMARK SMILES IDX 15 1 14 2 13 3 1 4 2 5 3 7 4 8 5 9 6 10 7 11 8 13 9 14 12 15
REMARK SMILES IDX 10 16 11 17 16 18 17 19 18 20 19 21 20 23 21 24 22 25 83 26
REMARK SMILES IDX 23 27 82 28 24 29 25 30 26 31 76 32 27 33 81 34 75 35 77 36
REMARK SMILES IDX 28 37 80 38 74 39 73 40 29 42 61 43 41 44 60 45 42 46 45 47
REMARK SMILES IDX 59 48 78 49 43 50 44 51 58 53 79 54 46 55 30 56 31 57 39 58
REMARK SMILES IDX 32 59 38 60 40 61 37 62 33 63 34 64 35 65 36 66 62 67 63 68
REMARK SMILES IDX 71 69 64 70 70 71 72 72 69 73 65 74 66 75 67 76 68 77 47 78
REMARK SMILES IDX 48 79 56 80 49 81 55 82 57 83 54 84 50 85 51 86 52 87 53 88
REMARK H PARENT 13 6 7 12 18 22 77 41 45 52
REMARK Flexibility Score: inf
ROOT
ATOM      1  C   UNL A   1      30.870  29.737  24.831  1.00  0.00     0.023 C 
ENDROOT
BRANCH   1   2
ATOM      2  C   UNL A   1      32.244  29.081  24.750  1.00  0.00     0.116 C 
BRANCH   2   3
ATOM      3  N   UNL A   1      32.354  28.092  23.692  1.00  0.00    -0.356 N 
ATOM      4  O   UNL A   1      34.289  28.927  22.770  1.00  0.00    -0.275 OA
ATOM      5  C   UNL A   1      33.417  28.065  22.817  1.00  0.00     0.220 C 
ATOM      6  H   UNL A   1      31.643  27.417  23.596  1.00  0.00     0.163 HD
BRANCH   5   7
ATOM      7  C   UNL A   1      33.474  26.826  21.948  1.00  0.00     0.110 C 
BRANCH   7   8
ATOM      8  C   UNL A   1      33.829  25.559  22.723  1.00  0.00     0.110 C 
BRANCH   8   9
ATOM      9  C   UNL A   1      32.965  24.378  22.343  1.00  0.00     0.226 C 
ATOM     10  O   UNL A   1      33.325  23.676  21.389  1.00  0.00    -0.275 OA
ATOM     11  N   UNL A   1      31.768  24.072  22.897  1.00  0.00    -0.301 N 
ATOM     12  H   UNL A   1      31.402  23.214  22.579  1.00  0.00     0.172 HD
BRANCH  11  13
ATOM     13  C   UNL A   1      30.956  24.697  23.805  1.00  0.00     0.212 A 
ATOM     14  N   UNL A   1      30.201  25.717  23.456  1.00  0.00    -0.120 NA
ATOM     15  S   UNL A   1      30.824  24.285  25.447  1.00  0.00    -0.083 S 
ATOM     16  N   UNL A   1      29.669  26.370  24.551  1.00  0.00    -0.145 NA
ATOM     17  C   UNL A   1      29.966  25.748  25.670  1.00  0.00     0.204 A 
ENDBRANCH  11  13
ENDBRANCH   8   9
ENDBRANCH   7   8
ENDBRANCH   5   7
ENDBRANCH   2   3
ENDBRANCH   1   2
BRANCH   1  18
ATOM     18  C   UNL A   1      30.815  31.065  25.592  1.00  0.00     0.023 C 
BRANCH  18  19
ATOM     19  C   UNL A   1      32.053  31.408  26.418  1.00  0.00     0.116 C 
BRANCH  19  20
ATOM     20  N   UNL A   1      32.108  32.811  26.795  1.00  0.00    -0.352 N 
ATOM     21  C   UNL A   1      32.979  33.470  27.634  1.00  0.00     0.251 C 
ATOM     22  H   UNL A   1      31.415  33.378  26.388  1.00  0.00     0.163 HD
ATOM     23  O   UNL A   1      32.739  34.625  27.967  1.00  0.00    -0.269 OA
BRANCH  21  24
ATOM     24  C   UNL A   1      34.184  32.784  28.162  1.00  0.00     0.039 A 
ATOM     25  C   UNL A   1      35.355  33.524  28.349  1.00  0.00     0.014 A 
ATOM     26  C   UNL A   1      34.174  31.419  28.458  1.00  0.00     0.014 A 
ATOM     27  C   UNL A   1      36.484  32.916  28.911  1.00  0.00     0.010 A 
ATOM     28  C   UNL A   1      35.272  30.835  29.093  1.00  0.00     0.010 A 
ATOM     29  C   UNL A   1      36.437  31.578  29.335  1.00  0.00    -0.014 A 
BRANCH  29  30
ATOM     30  C   UNL A   1      37.590  30.950  30.041  1.00  0.00     0.031 A 
ATOM     31  C   UNL A   1      37.928  31.344  31.455  1.00  0.00     0.074 A 
ATOM     32  C   UNL A   1      38.373  30.065  29.389  1.00  0.00     0.049 A 
ATOM     33  N   UNL A   1      38.935  30.966  32.202  1.00  0.00    -0.248 NA
ATOM     34  C   UNL A   1      37.030  32.312  32.101  1.00  0.00     0.031 C 
ATOM     35  C   UNL A   1      38.176  29.625  28.005  1.00  0.00     0.029 A 
ATOM     36  N   UNL A   1      39.494  29.384  29.793  1.00  0.00    -0.354 N 
ATOM     37  C   UNL A   1      38.795  31.653  33.404  1.00  0.00     0.074 A 
ATOM     38  C   UNL A   1      37.645  32.520  33.256  1.00  0.00     0.031 C 
ATOM     39  C   UNL A   1      39.126  28.732  27.688  1.00  0.00     0.029 A 
ATOM     40  C   UNL A   1      40.033  28.574  28.819  1.00  0.00     0.049 A 
ATOM     41  H   UNL A   1      39.877  29.466  30.697  1.00  0.00     0.167 HD
ATOM     42  C   UNL A   1      39.541  31.552  34.535  1.00  0.00     0.034 A 
ATOM     43  C   UNL A   1      41.142  27.805  28.825  1.00  0.00     0.034 A 
ATOM     44  C   UNL A   1      40.685  30.683  34.669  1.00  0.00     0.049 A 
ATOM     45  C   UNL A   1      41.983  27.744  30.076  1.00  0.00     0.074 A 
ATOM     46  C   UNL A   1      41.483  30.474  35.781  1.00  0.00     0.029 A 
ATOM     47  N   UNL A   1      41.207  29.886  33.656  1.00  0.00    -0.354 N 
ATOM     48  N   UNL A   1      41.810  28.367  31.219  1.00  0.00    -0.248 NA
ATOM     49  C   UNL A   1      43.162  26.870  30.040  1.00  0.00     0.031 C 
ATOM     50  C   UNL A   1      42.529  29.617  35.421  1.00  0.00     0.029 A 
ATOM     51  C   UNL A   1      42.334  29.215  34.110  1.00  0.00     0.049 A 
ATOM     52  H   UNL A   1      40.832  29.810  32.750  1.00  0.00     0.167 HD
ATOM     53  C   UNL A   1      42.841  27.932  32.048  1.00  0.00     0.074 A 
ATOM     54  C   UNL A   1      43.620  26.984  31.278  1.00  0.00     0.031 C 
ATOM     55  C   UNL A   1      43.114  28.280  33.332  1.00  0.00     0.034 A 
BRANCH  42  56
ATOM     56  C   UNL A   1      39.151  32.428  35.705  1.00  0.00     0.023 A 
ATOM     57  C   UNL A   1      39.571  33.768  35.794  1.00  0.00     0.031 A 
ATOM     58  C   UNL A   1      38.371  31.915  36.756  1.00  0.00     0.131 A 
ATOM     59  C   UNL A   1      39.280  34.519  36.942  1.00  0.00     0.055 A 
ATOM     60  C   UNL A   1      38.009  32.696  37.856  1.00  0.00     0.041 A 
ATOM     61  F   UNL A   1      37.957  30.638  36.740  1.00  0.00    -0.206 F 
ATOM     62  C   UNL A   1      38.478  34.002  37.962  1.00  0.00     0.022 A 
BRANCH  59  63
ATOM     63  S   UNL A   1      40.097  36.124  37.155  1.00  0.00     0.124 S 
ATOM     64  O   UNL A   1      39.883  36.739  35.846  1.00  0.00    -0.237 OA
ATOM     65  O   UNL A   1      39.358  36.711  38.265  1.00  0.00    -0.237 OA
ATOM     66  O   UNL A   1      41.484  35.767  37.447  1.00  0.00    -0.744 OA
ENDBRANCH  59  63
ENDBRANCH  42  56
BRANCH  43  67
ATOM     67  C   UNL A   1      41.540  27.044  27.604  1.00  0.00     0.023 A 
ATOM     68  C   UNL A   1      41.372  25.653  27.526  1.00  0.00     0.031 A 
ATOM     69  C   UNL A   1      42.138  27.697  26.509  1.00  0.00     0.131 A 
ATOM     70  C   UNL A   1      41.840  24.952  26.403  1.00  0.00     0.055 A 
ATOM     71  C   UNL A   1      42.546  27.004  25.369  1.00  0.00     0.041 A 
ATOM     72  F   UNL A   1      42.323  29.027  26.530  1.00  0.00    -0.206 F 
ATOM     73  C   UNL A   1      42.410  25.620  25.317  1.00  0.00     0.022 A 
BRANCH  70  74
ATOM     74  S   UNL A   1      41.777  23.139  26.419  1.00  0.00     0.124 S 
ATOM     75  O   UNL A   1      42.523  22.829  27.634  1.00  0.00    -0.237 OA
ATOM     76  O   UNL A   1      40.341  22.887  26.465  1.00  0.00    -0.237 OA
ATOM     77  O   UNL A   1      42.435  22.765  25.169  1.00  0.00    -0.744 OA
ENDBRANCH  70  74
ENDBRANCH  43  67
BRANCH  55  78
ATOM     78  C   UNL A   1      44.282  27.592  34.000  1.00  0.00     0.023 A 
ATOM     79  C   UNL A   1      44.132  26.383  34.704  1.00  0.00     0.031 A 
ATOM     80  C   UNL A   1      45.567  28.162  33.939  1.00  0.00     0.131 A 
ATOM     81  C   UNL A   1      45.233  25.817  35.366  1.00  0.00     0.055 A 
ATOM     82  C   UNL A   1      46.671  27.559  34.541  1.00  0.00     0.041 A 
ATOM     83  F   UNL A   1      45.771  29.317  33.285  1.00  0.00    -0.206 F 
ATOM     84  C   UNL A   1      46.505  26.387  35.272  1.00  0.00     0.022 A 
BRANCH  81  85
ATOM     85  S   UNL A   1      44.961  24.378  36.437  1.00  0.00     0.124 S 
ATOM     86  O   UNL A   1      43.948  24.876  37.362  1.00  0.00    -0.237 OA
ATOM     87  O   UNL A   1      44.516  23.363  35.489  1.00  0.00    -0.237 OA
ATOM     88  O   UNL A   1      46.276  24.137  37.029  1.00  0.00    -0.744 OA
ENDBRANCH  81  85
ENDBRANCH  55  78
ENDBRANCH  29  30
ENDBRANCH  21  24
ENDBRANCH  19  20
ENDBRANCH  18  19
ENDBRANCH   1  18
TORSDOF 17
ENDMDL
MODEL 2
REMARK VINA RESULT:     -10.3      5.189      8.015
REMARK SMILES O=C(CCC(=O)Nc1nncs1)NCCCCNC(=O)c1ccc(-c2c3nc(c(-c4cc(S(=O)(=O)[O-])ccc4F)c4ccc([nH]4)c(-c4cc(S(=O)(=O)[O-])ccc4F)c4nc(c(-c5cc(S(=O)(=O)[O-])ccc5F)c5ccc2[nH]5)C=C4)C=C3)cc1
REMARK SMILES IDX 15 1 14 2 13 3 1 4 2 5 3 7 4 8 5 9 6 10 7 11 8 13 9 14 12 15
REMARK SMILES IDX 10 16 11 17 16 18 17 19 18 20 19 21 20 23 21 24 22 25 83 26
REMARK SMILES IDX 23 27 82 28 24 29 25 30 26 31 76 32 27 33 81 34 75 35 77 36
REMARK SMILES IDX 28 37 80 38 74 39 73 40 29 42 61 43 41 44 60 45 42 46 45 47
REMARK SMILES IDX 59 48 78 49 43 50 44 51 58 53 79 54 46 55 30 56 31 57 39 58
REMARK SMILES IDX 32 59 38 60 40 61 37 62 33 63 34 64 35 65 36 66 62 67 63 68
REMARK SMILES IDX 71 69 64 70 70 71 72 72 69 73 65 74 66 75 67 76 68 77 47 78
REMARK SMILES IDX 48 79 56 80 49 81 55 82 57 83 54 84 50 85 51 86 52 87 53 88
REMARK H PARENT 13 6 7 12 18 22 77 41 45 52
REMARK Flexibility Score: inf
ROOT
ATOM      1  C   UNL A   1      35.136  23.687  23.916  1.00  0.00     0.023 C 
ENDROOT
BRANCH   1   2
ATOM      2  C   UNL A   1      33.630  23.624  24.147  1.00  0.00     0.116 C 
BRANCH   2   3
ATOM      3  N   UNL A   1      32.897  24.696  23.496  1.00  0.00    -0.356 N 
ATOM      4  O   UNL A   1      30.808  24.025  24.185  1.00  0.00    -0.275 OA
ATOM      5  C   UNL A   1      31.533  24.840  23.624  1.00  0.00     0.220 C 
ATOM      6  H   UNL A   1      33.393  25.343  22.943  1.00  0.00     0.163 HD
BRANCH   5   7
ATOM      7  C   UNL A   1      30.993  26.144  23.075  1.00  0.00     0.110 C 
BRANCH   7   8
ATOM      8  C   UNL A   1      30.396  27.051  24.149  1.00  0.00     0.110 C 
BRANCH   8   9
ATOM      9  C   UNL A   1      31.130  28.366  24.279  1.00  0.00     0.226 C 
ATOM     10  O   UNL A   1      32.070  28.430  25.082  1.00  0.00    -0.275 OA
ATOM     11  N   UNL A   1      30.787  29.521  23.661  1.00  0.00    -0.301 N 
ATOM     12  H   UNL A   1      31.441  30.243  23.800  1.00  0.00     0.172 HD
BRANCH  11  13
ATOM     13  C   UNL A   1      29.727  29.899  22.881  1.00  0.00     0.212 A 
ATOM     14  N   UNL A   1      29.704  29.642  21.590  1.00  0.00    -0.120 NA
ATOM     15  S   UNL A   1      28.357  30.738  23.431  1.00  0.00    -0.083 S 
ATOM     16  N   UNL A   1      28.695  30.328  20.941  1.00  0.00    -0.145 NA
ATOM     17  C   UNL A   1      27.942  30.989  21.791  1.00  0.00     0.204 A 
ENDBRANCH  11  13
ENDBRANCH   8   9
ENDBRANCH   7   8
ENDBRANCH   5   7
ENDBRANCH   2   3
ENDBRANCH   1   2
BRANCH   1  18
ATOM     18  C   UNL A   1      35.898  22.382  24.167  1.00  0.00     0.023 C 
BRANCH  18  19
ATOM     19  C   UNL A   1      36.451  22.197  25.578  1.00  0.00     0.116 C 
BRANCH  19  20
ATOM     20  N   UNL A   1      37.497  21.191  25.646  1.00  0.00    -0.352 N 
ATOM     21  C   UNL A   1      38.829  21.316  25.974  1.00  0.00     0.251 C 
ATOM     22  H   UNL A   1      37.209  20.276  25.425  1.00  0.00     0.163 HD
ATOM     23  O   UNL A   1      39.588  20.370  25.790  1.00  0.00    -0.269 OA
BRANCH  21  24
ATOM     24  C   UNL A   1      39.357  22.593  26.516  1.00  0.00     0.039 A 
ATOM     25  C   UNL A   1      40.352  22.549  27.497  1.00  0.00     0.014 A 
ATOM     26  C   UNL A   1      38.869  23.826  26.079  1.00  0.00     0.014 A 
ATOM     27  C   UNL A   1      40.915  23.739  27.974  1.00  0.00     0.010 A 
ATOM     28  C   UNL A   1      39.487  25.007  26.494  1.00  0.00     0.010 A 
ATOM     29  C   UNL A   1      40.523  24.978  27.440  1.00  0.00    -0.014 A 
BRANCH  29  30
ATOM     30  C   UNL A   1      41.195  26.244  27.851  1.00  0.00     0.031 A 
ATOM     31  C   UNL A   1      40.422  27.325  28.559  1.00  0.00     0.074 A 
ATOM     32  C   UNL A   1      42.490  26.448  27.534  1.00  0.00     0.049 A 
ATOM     33  N   UNL A   1      40.813  28.520  28.924  1.00  0.00    -0.248 NA
ATOM     34  C   UNL A   1      39.016  27.032  28.873  1.00  0.00     0.031 C 
ATOM     35  C   UNL A   1      43.342  25.496  26.817  1.00  0.00     0.029 A 
ATOM     36  N   UNL A   1      43.317  27.520  27.761  1.00  0.00    -0.354 N 
ATOM     37  C   UNL A   1      39.703  29.124  29.506  1.00  0.00     0.074 A 
ATOM     38  C   UNL A   1      38.607  28.186  29.380  1.00  0.00     0.031 C 
ATOM     39  C   UNL A   1      44.573  26.016  26.687  1.00  0.00     0.029 A 
ATOM     40  C   UNL A   1      44.589  27.358  27.259  1.00  0.00     0.049 A 
ATOM     41  H   UNL A   1      43.027  28.331  28.240  1.00  0.00     0.167 HD
ATOM     42  C   UNL A   1      39.610  30.337  30.110  1.00  0.00     0.034 A 
ATOM     43  C   UNL A   1      45.644  28.198  27.242  1.00  0.00     0.034 A 
ATOM     44  C   UNL A   1      40.711  31.263  30.227  1.00  0.00     0.049 A 
ATOM     45  C   UNL A   1      45.505  29.560  27.876  1.00  0.00     0.074 A 
ATOM     46  C   UNL A   1      40.736  32.497  30.855  1.00  0.00     0.029 A 
ATOM     47  N   UNL A   1      41.981  31.067  29.696  1.00  0.00    -0.354 N 
ATOM     48  N   UNL A   1      44.459  30.096  28.461  1.00  0.00    -0.248 NA
ATOM     49  C   UNL A   1      46.692  30.424  27.856  1.00  0.00     0.031 C 
ATOM     50  C   UNL A   1      41.989  33.079  30.637  1.00  0.00     0.029 A 
ATOM     51  C   UNL A   1      42.780  32.172  29.952  1.00  0.00     0.049 A 
ATOM     52  H   UNL A   1      42.269  30.262  29.209  1.00  0.00     0.167 HD
ATOM     53  C   UNL A   1      44.875  31.348  28.907  1.00  0.00     0.074 A 
ATOM     54  C   UNL A   1      46.269  31.478  28.538  1.00  0.00     0.031 C 
ATOM     55  C   UNL A   1      44.168  32.300  29.569  1.00  0.00     0.034 A 
BRANCH  42  56
ATOM     56  C   UNL A   1      38.261  30.737  30.663  1.00  0.00     0.023 A 
ATOM     57  C   UNL A   1      37.306  31.399  29.869  1.00  0.00     0.031 A 
ATOM     58  C   UNL A   1      37.929  30.475  32.004  1.00  0.00     0.131 A 
ATOM     59  C   UNL A   1      36.107  31.849  30.443  1.00  0.00     0.055 A 
ATOM     60  C   UNL A   1      36.697  30.847  32.545  1.00  0.00     0.041 A 
ATOM     61  F   UNL A   1      38.805  29.865  32.818  1.00  0.00    -0.206 F 
ATOM     62  C   UNL A   1      35.783  31.553  31.769  1.00  0.00     0.022 A 
BRANCH  59  63
ATOM     63  S   UNL A   1      35.050  32.962  29.477  1.00  0.00     0.124 S 
ATOM     64  O   UNL A   1      34.126  33.450  30.498  1.00  0.00    -0.237 OA
ATOM     65  O   UNL A   1      36.004  33.934  28.959  1.00  0.00    -0.237 OA
ATOM     66  O   UNL A   1      34.450  32.081  28.476  1.00  0.00    -0.744 OA
ENDBRANCH  59  63
ENDBRANCH  42  56
BRANCH  43  67
ATOM     67  C   UNL A   1      46.921  27.792  26.585  1.00  0.00     0.023 A 
ATOM     68  C   UNL A   1      47.111  27.948  25.203  1.00  0.00     0.031 A 
ATOM     69  C   UNL A   1      47.958  27.197  27.328  1.00  0.00     0.131 A 
ATOM     70  C   UNL A   1      48.286  27.473  24.598  1.00  0.00     0.055 A 
ATOM     71  C   UNL A   1      49.150  26.781  26.732  1.00  0.00     0.041 A 
ATOM     72  F   UNL A   1      47.831  27.022  28.653  1.00  0.00    -0.206 F 
ATOM     73  C   UNL A   1      49.313  26.906  25.355  1.00  0.00     0.022 A 
BRANCH  70  74
ATOM     74  S   UNL A   1      48.415  27.522  22.789  1.00  0.00     0.124 S 
ATOM     75  O   UNL A   1      48.373  26.104  22.452  1.00  0.00    -0.237 OA
ATOM     76  O   UNL A   1      47.239  28.305  22.423  1.00  0.00    -0.237 OA
ATOM     77  O   UNL A   1      49.698  28.182  22.558  1.00  0.00    -0.744 OA
ENDBRANCH  70  74
ENDBRANCH  43  67
BRANCH  55  78
ATOM     78  C   UNL A   1      44.911  33.551  29.979  1.00  0.00     0.023 A 
ATOM     79  C   UNL A   1      44.953  34.695  29.160  1.00  0.00     0.031 A 
ATOM     80  C   UNL A   1      45.596  33.595  31.207  1.00  0.00     0.131 A 
ATOM     81  C   UNL A   1      45.713  35.809  29.553  1.00  0.00     0.055 A 
ATOM     82  C   UNL A   1      46.293  34.730  31.623  1.00  0.00     0.041 A 
ATOM     83  F   UNL A   1      45.595  32.532  32.028  1.00  0.00    -0.206 F 
ATOM     84  C   UNL A   1      46.366  35.840  30.788  1.00  0.00     0.022 A 
BRANCH  81  85
ATOM     85  S   UNL A   1      45.921  37.179  28.383  1.00  0.00     0.124 S 
ATOM     86  O   UNL A   1      46.955  37.978  29.032  1.00  0.00    -0.237 OA
ATOM     87  O   UNL A   1      46.321  36.488  27.162  1.00  0.00    -0.237 OA
ATOM     88  O   UNL A   1      44.597  37.797  28.338  1.00  0.00    -0.744 OA
ENDBRANCH  81  85
ENDBRANCH  55  78
ENDBRANCH  29  30
ENDBRANCH  21  24
ENDBRANCH  19  20
ENDBRANCH  18  19
ENDBRANCH   1  18
TORSDOF 17
ENDMDL
MODEL 3
REMARK VINA RESULT:     -10.3      2.572      8.159
REMARK SMILES O=C(CCC(=O)Nc1nncs1)NCCCCNC(=O)c1ccc(-c2c3nc(c(-c4cc(S(=O)(=O)[O-])ccc4F)c4ccc([nH]4)c(-c4cc(S(=O)(=O)[O-])ccc4F)c4nc(c(-c5cc(S(=O)(=O)[O-])ccc5F)c5ccc2[nH]5)C=C4)C=C3)cc1
REMARK SMILES IDX 15 1 14 2 13 3 1 4 2 5 3 7 4 8 5 9 6 10 7 11 8 13 9 14 12 15
REMARK SMILES IDX 10 16 11 17 16 18 17 19 18 20 19 21 20 23 21 24 22 25 83 26
REMARK SMILES IDX 23 27 82 28 24 29 25 30 26 31 76 32 27 33 81 34 75 35 77 36
REMARK SMILES IDX 28 37 80 38 74 39 73 40 29 42 61 43 41 44 60 45 42 46 45 47
REMARK SMILES IDX 59 48 78 49 43 50 44 51 58 53 79 54 46 55 30 56 31 57 39 58
REMARK SMILES IDX 32 59 38 60 40 61 37 62 33 63 34 64 35 65 36 66 62 67 63 68
REMARK SMILES IDX 71 69 64 70 70 71 72 72 69 73 65 74 66 75 67 76 68 77 47 78
REMARK SMILES IDX 48 79 56 80 49 81 55 82 57 83 54 84 50 85 51 86 52 87 53 88
REMARK H PARENT 13 6 7 12 18 22 77 41 45 52
REMARK Flexibility Score: inf
ROOT
ATOM      1  C   UNL A   1      31.678  29.644  26.327  1.00  0.00     0.023 C 
ENDROOT
BRANCH   1   2
ATOM      2  C   UNL A   1      32.335  28.959  25.133  1.00  0.00     0.116 C 
BRANCH   2   3
ATOM      3  N   UNL A   1      32.386  27.512  25.250  1.00  0.00    -0.356 N 
ATOM      4  O   UNL A   1      30.408  27.103  24.150  1.00  0.00    -0.275 OA
ATOM      5  C   UNL A   1      31.433  26.693  24.686  1.00  0.00     0.220 C 
ATOM      6  H   UNL A   1      33.128  27.101  25.751  1.00  0.00     0.163 HD
BRANCH   5   7
ATOM      7  C   UNL A   1      31.787  25.221  24.709  1.00  0.00     0.110 C 
BRANCH   7   8
ATOM      8  C   UNL A   1      32.096  24.695  26.109  1.00  0.00     0.110 C 
BRANCH   8   9
ATOM      9  C   UNL A   1      31.171  23.577  26.532  1.00  0.00     0.226 C 
ATOM     10  O   UNL A   1      30.227  23.855  27.282  1.00  0.00    -0.275 OA
ATOM     11  N   UNL A   1      31.341  22.265  26.239  1.00  0.00    -0.301 N 
ATOM     12  H   UNL A   1      30.585  21.704  26.526  1.00  0.00     0.172 HD
BRANCH  11  13
ATOM     13  C   UNL A   1      32.337  21.552  25.628  1.00  0.00     0.212 A 
ATOM     14  N   UNL A   1      32.106  20.855  24.535  1.00  0.00    -0.120 NA
ATOM     15  S   UNL A   1      33.942  21.445  26.175  1.00  0.00    -0.083 S 
ATOM     16  N   UNL A   1      33.151  20.005  24.229  1.00  0.00    -0.145 NA
ATOM     17  C   UNL A   1      34.164  20.177  25.049  1.00  0.00     0.204 A 
ENDBRANCH  11  13
ENDBRANCH   8   9
ENDBRANCH   7   8
ENDBRANCH   5   7
ENDBRANCH   2   3
ENDBRANCH   1   2
BRANCH   1  18
ATOM     18  C   UNL A   1      31.741  31.174  26.328  1.00  0.00     0.023 C 
BRANCH  18  19
ATOM     19  C   UNL A   1      32.788  31.795  27.250  1.00  0.00     0.116 C 
BRANCH  19  20
ATOM     20  N   UNL A   1      32.586  33.221  27.452  1.00  0.00    -0.352 N 
ATOM     21  C   UNL A   1      33.194  34.086  28.335  1.00  0.00     0.251 C 
ATOM     22  H   UNL A   1      31.911  33.632  26.866  1.00  0.00     0.163 HD
ATOM     23  O   UNL A   1      32.746  35.219  28.475  1.00  0.00    -0.269 OA
BRANCH  21  24
ATOM     24  C   UNL A   1      34.362  33.648  29.139  1.00  0.00     0.039 A 
ATOM     25  C   UNL A   1      34.152  32.785  30.219  1.00  0.00     0.014 A 
ATOM     26  C   UNL A   1      35.654  34.092  28.849  1.00  0.00     0.014 A 
ATOM     27  C   UNL A   1      35.244  32.303  30.949  1.00  0.00     0.010 A 
ATOM     28  C   UNL A   1      36.747  33.547  29.524  1.00  0.00     0.010 A 
ATOM     29  C   UNL A   1      36.556  32.639  30.578  1.00  0.00    -0.014 A 
BRANCH  29  30
ATOM     30  C   UNL A   1      37.733  32.042  31.270  1.00  0.00     0.031 A 
ATOM     31  C   UNL A   1      38.496  30.905  30.642  1.00  0.00     0.074 A 
ATOM     32  C   UNL A   1      38.082  32.482  32.497  1.00  0.00     0.049 A 
ATOM     33  N   UNL A   1      39.494  30.209  31.125  1.00  0.00    -0.248 NA
ATOM     34  C   UNL A   1      38.059  30.480  29.304  1.00  0.00     0.031 C 
ATOM     35  C   UNL A   1      37.404  33.551  33.234  1.00  0.00     0.029 A 
ATOM     36  N   UNL A   1      39.084  32.083  33.348  1.00  0.00    -0.354 N 
ATOM     37  C   UNL A   1      39.802  29.260  30.155  1.00  0.00     0.074 A 
ATOM     38  C   UNL A   1      38.838  29.430  29.088  1.00  0.00     0.031 C 
ATOM     39  C   UNL A   1      38.023  33.739  34.409  1.00  0.00     0.029 A 
ATOM     40  C   UNL A   1      39.107  32.772  34.540  1.00  0.00     0.049 A 
ATOM     41  H   UNL A   1      39.727  31.372  33.125  1.00  0.00     0.167 HD
ATOM     42  C   UNL A   1      40.809  28.349  30.143  1.00  0.00     0.034 A 
ATOM     43  C   UNL A   1      39.896  32.630  35.625  1.00  0.00     0.034 A 
ATOM     44  C   UNL A   1      41.762  28.190  31.215  1.00  0.00     0.049 A 
ATOM     45  C   UNL A   1      40.978  31.578  35.610  1.00  0.00     0.074 A 
ATOM     46  C   UNL A   1      42.844  27.328  31.285  1.00  0.00     0.029 A 
ATOM     47  N   UNL A   1      41.746  28.898  32.411  1.00  0.00    -0.354 N 
ATOM     48  N   UNL A   1      41.283  30.720  34.665  1.00  0.00    -0.248 NA
ATOM     49  C   UNL A   1      41.828  31.485  36.804  1.00  0.00     0.031 C 
ATOM     50  C   UNL A   1      43.431  27.458  32.549  1.00  0.00     0.029 A 
ATOM     51  C   UNL A   1      42.775  28.465  33.236  1.00  0.00     0.049 A 
ATOM     52  H   UNL A   1      41.098  29.603  32.640  1.00  0.00     0.167 HD
ATOM     53  C   UNL A   1      42.381  30.007  35.140  1.00  0.00     0.074 A 
ATOM     54  C   UNL A   1      42.693  30.548  36.446  1.00  0.00     0.031 C 
ATOM     55  C   UNL A   1      43.073  29.001  34.544  1.00  0.00     0.034 A 
BRANCH  42  56
ATOM     56  C   UNL A   1      40.906  27.436  28.941  1.00  0.00     0.023 A 
ATOM     57  C   UNL A   1      41.883  27.629  27.947  1.00  0.00     0.031 A 
ATOM     58  C   UNL A   1      40.000  26.375  28.772  1.00  0.00     0.131 A 
ATOM     59  C   UNL A   1      41.878  26.828  26.795  1.00  0.00     0.055 A 
ATOM     60  C   UNL A   1      40.056  25.526  27.665  1.00  0.00     0.041 A 
ATOM     61  F   UNL A   1      39.032  26.152  29.675  1.00  0.00    -0.206 F 
ATOM     62  C   UNL A   1      40.989  25.760  26.659  1.00  0.00     0.022 A 
BRANCH  59  63
ATOM     63  S   UNL A   1      42.944  27.304  25.407  1.00  0.00     0.124 S 
ATOM     64  O   UNL A   1      44.140  27.774  26.103  1.00  0.00    -0.237 OA
ATOM     65  O   UNL A   1      43.082  26.055  24.671  1.00  0.00    -0.237 OA
ATOM     66  O   UNL A   1      42.179  28.348  24.729  1.00  0.00    -0.744 OA
ENDBRANCH  59  63
ENDBRANCH  42  56
BRANCH  43  67
ATOM     67  C   UNL A   1      39.685  33.486  36.829  1.00  0.00     0.023 A 
ATOM     68  C   UNL A   1      39.061  32.982  37.981  1.00  0.00     0.031 A 
ATOM     69  C   UNL A   1      40.065  34.842  36.827  1.00  0.00     0.131 A 
ATOM     70  C   UNL A   1      38.793  33.835  39.064  1.00  0.00     0.055 A 
ATOM     71  C   UNL A   1      39.851  35.671  37.929  1.00  0.00     0.041 A 
ATOM     72  F   UNL A   1      40.665  35.377  35.752  1.00  0.00    -0.206 F 
ATOM     73  C   UNL A   1      39.198  35.171  39.052  1.00  0.00     0.022 A 
BRANCH  70  74
ATOM     74  S   UNL A   1      37.820  33.196  40.455  1.00  0.00     0.124 S 
ATOM     75  O   UNL A   1      37.812  34.340  41.360  1.00  0.00    -0.237 OA
ATOM     76  O   UNL A   1      36.550  32.874  39.814  1.00  0.00    -0.237 OA
ATOM     77  O   UNL A   1      38.596  32.044  40.912  1.00  0.00    -0.744 OA
ENDBRANCH  70  74
ENDBRANCH  43  67
BRANCH  55  78
ATOM     78  C   UNL A   1      44.270  28.453  35.287  1.00  0.00     0.023 A 
ATOM     79  C   UNL A   1      44.146  27.441  36.256  1.00  0.00     0.031 A 
ATOM     80  C   UNL A   1      45.556  28.960  35.026  1.00  0.00     0.131 A 
ATOM     81  C   UNL A   1      45.277  27.012  36.968  1.00  0.00     0.055 A 
ATOM     82  C   UNL A   1      46.686  28.481  35.688  1.00  0.00     0.041 A 
ATOM     83  F   UNL A   1      45.735  29.930  34.114  1.00  0.00    -0.206 F 
ATOM     84  C   UNL A   1      46.549  27.511  36.676  1.00  0.00     0.022 A 
BRANCH  81  85
ATOM     85  S   UNL A   1      45.052  25.863  38.354  1.00  0.00     0.124 S 
ATOM     86  O   UNL A   1      46.428  25.635  38.786  1.00  0.00    -0.237 OA
ATOM     87  O   UNL A   1      44.218  26.637  39.268  1.00  0.00    -0.237 OA
ATOM     88  O   UNL A   1      44.394  24.710  37.742  1.00  0.00    -0.744 OA
ENDBRANCH  81  85
ENDBRANCH  55  78
ENDBRANCH  29  30
ENDBRANCH  21  24
ENDBRANCH  19  20
ENDBRANCH  18  19
ENDBRANCH   1  18
TORSDOF 17
ENDMDL
