MODEL 1
REMARK VINA RESULT:     -10.9      0.000      0.000
REMARK SMILES C[N@H+](CC(=O)NCCCCNC(=O)c1ccc(-c2c3nc(c(-c4cc(S(=O)(=O)[O-])ccc4F)c4ccc([nH]4)c(-c4cc(S(=O)(=O)[O-])ccc4F)c4nc(c(-c5cc(S(=O)(=O)[O-])ccc5F)c5ccc2[nH]5)C=C4)C=C3)cc1)Cc1cccc2c1OCCO2
REMARK SMILES IDX 8 1 7 2 6 3 4 4 5 5 3 7 2 8 1 9 77 11 78 12 79 13 83 14
REMARK SMILES IDX 80 15 82 16 84 17 81 18 87 19 85 20 86 21 9 22 10 23 11 24
REMARK SMILES IDX 12 25 13 27 14 28 15 29 76 30 16 31 75 32 17 33 18 34 19 35
REMARK SMILES IDX 69 36 20 37 74 38 68 39 70 40 21 41 73 42 67 43 66 44 22 46
REMARK SMILES IDX 54 47 34 48 53 49 35 50 38 51 52 52 71 53 36 54 37 55 51 57
REMARK SMILES IDX 72 58 39 59 23 60 24 61 32 62 25 63 31 64 33 65 30 66 26 67
REMARK SMILES IDX 27 68 28 69 29 70 55 71 56 72 64 73 57 74 63 75 65 76 62 77
REMARK SMILES IDX 58 78 59 79 60 80 61 81 40 82 41 83 49 84 42 85 48 86 50 87
REMARK SMILES IDX 47 88 43 89 44 90 45 91 46 92
REMARK H PARENT 6 6 2 10 11 26 70 45 38 56
REMARK Flexibility Score: inf
ROOT
ATOM      1  C   UNL A   1      31.671  28.177  27.249  1.00  0.00     0.023 C 
ENDROOT
BRANCH   1   2
ATOM      2  C   UNL A   1      31.036  27.136  26.321  1.00  0.00     0.116 C 
BRANCH   2   3
ATOM      3  N   UNL A   1      31.334  25.736  26.540  1.00  0.00    -0.351 N 
ATOM      4  C   UNL A   1      32.387  25.007  26.032  1.00  0.00     0.275 C 
ATOM      5  O   UNL A   1      32.785  24.020  26.658  1.00  0.00    -0.269 OA
ATOM      6  H   UNL A   1      30.710  25.246  27.122  1.00  0.00     0.163 HD
BRANCH   4   7
ATOM      7  C   UNL A   1      33.070  25.452  24.735  1.00  0.00     0.363 C 
BRANCH   7   8
ATOM      8  N   UNL A   1      32.569  24.656  23.604  1.00  0.00    -0.326 N 
ATOM      9  C   UNL A   1      31.507  25.326  22.871  1.00  0.00     0.333 C 
ATOM     10  H   UNL A   1      32.123  23.835  24.013  1.00  0.00     0.348 HD
BRANCH   8  11
ATOM     11  C   UNL A   1      33.638  24.093  22.761  1.00  0.00     0.303 C 
BRANCH  11  12
ATOM     12  C   UNL A   1      34.505  23.072  23.477  1.00  0.00     0.052 A 
ATOM     13  C   UNL A   1      35.893  23.278  23.561  1.00  0.00     0.014 A 
ATOM     14  C   UNL A   1      33.975  21.927  24.102  1.00  0.00     0.170 A 
ATOM     15  C   UNL A   1      36.724  22.347  24.192  1.00  0.00     0.005 A 
ATOM     16  C   UNL A   1      34.822  20.944  24.632  1.00  0.00     0.161 A 
ATOM     17  O   UNL A   1      32.613  21.824  24.205  1.00  0.00    -0.486 OA
ATOM     18  C   UNL A   1      36.191  21.163  24.698  1.00  0.00     0.050 A 
ATOM     19  O   UNL A   1      34.372  19.737  25.110  1.00  0.00    -0.486 OA
ATOM     20  C   UNL A   1      32.172  20.706  24.983  1.00  0.00     0.271 C 
ATOM     21  C   UNL A   1      33.026  19.488  24.697  1.00  0.00     0.271 C 
ENDBRANCH  11  12
ENDBRANCH   8  11
ENDBRANCH   7   8
ENDBRANCH   4   7
ENDBRANCH   2   3
ENDBRANCH   1   2
BRANCH   1  22
ATOM     22  C   UNL A   1      33.185  28.387  27.264  1.00  0.00     0.023 C 
BRANCH  22  23
ATOM     23  C   UNL A   1      33.757  29.535  26.448  1.00  0.00     0.116 C 
BRANCH  23  24
ATOM     24  N   UNL A   1      33.593  30.824  27.091  1.00  0.00    -0.352 N 
ATOM     25  C   UNL A   1      34.367  31.429  28.049  1.00  0.00     0.251 C 
ATOM     26  H   UNL A   1      32.811  31.343  26.795  1.00  0.00     0.163 HD
ATOM     27  O   UNL A   1      33.964  32.479  28.554  1.00  0.00    -0.269 OA
BRANCH  25  28
ATOM     28  C   UNL A   1      35.645  30.831  28.512  1.00  0.00     0.039 A 
ATOM     29  C   UNL A   1      36.836  31.345  27.992  1.00  0.00     0.014 A 
ATOM     30  C   UNL A   1      35.695  29.759  29.409  1.00  0.00     0.014 A 
ATOM     31  C   UNL A   1      38.065  30.815  28.396  1.00  0.00     0.010 A 
ATOM     32  C   UNL A   1      36.928  29.279  29.869  1.00  0.00     0.010 A 
ATOM     33  C   UNL A   1      38.129  29.794  29.360  1.00  0.00    -0.014 A 
BRANCH  33  34
ATOM     34  C   UNL A   1      39.457  29.293  29.817  1.00  0.00     0.031 A 
ATOM     35  C   UNL A   1      40.146  29.896  31.014  1.00  0.00     0.074 A 
ATOM     36  C   UNL A   1      40.033  28.266  29.161  1.00  0.00     0.049 A 
ATOM     37  N   UNL A   1      41.239  29.505  31.621  1.00  0.00    -0.248 NA
ATOM     38  C   UNL A   1      39.543  31.105  31.590  1.00  0.00     0.031 C 
ATOM     39  C   UNL A   1      39.496  27.636  27.953  1.00  0.00     0.029 A 
ATOM     40  N   UNL A   1      41.177  27.553  29.424  1.00  0.00    -0.354 N 
ATOM     41  C   UNL A   1      41.451  30.414  32.653  1.00  0.00     0.074 A 
ATOM     42  C   UNL A   1      40.410  31.415  32.542  1.00  0.00     0.031 C 
ATOM     43  C   UNL A   1      40.278  26.599  27.612  1.00  0.00     0.029 A 
ATOM     44  C   UNL A   1      41.392  26.510  28.551  1.00  0.00     0.049 A 
ATOM     45  H   UNL A   1      41.787  27.767  30.167  1.00  0.00     0.167 HD
ATOM     46  C   UNL A   1      42.408  30.403  33.616  1.00  0.00     0.034 A 
ATOM     47  C   UNL A   1      42.368  25.581  28.511  1.00  0.00     0.034 A 
ATOM     48  C   UNL A   1      43.445  29.401  33.706  1.00  0.00     0.049 A 
ATOM     49  C   UNL A   1      43.422  25.589  29.590  1.00  0.00     0.074 A 
ATOM     50  C   UNL A   1      44.433  29.263  34.668  1.00  0.00     0.029 A 
ATOM     51  N   UNL A   1      43.645  28.371  32.792  1.00  0.00    -0.354 N 
ATOM     52  N   UNL A   1      43.561  26.410  30.606  1.00  0.00    -0.248 NA
ATOM     53  C   UNL A   1      44.434  24.529  29.528  1.00  0.00     0.031 C 
ATOM     54  C   UNL A   1      45.274  28.211  34.291  1.00  0.00     0.029 A 
ATOM     55  C   UNL A   1      44.759  27.623  33.148  1.00  0.00     0.049 A 
ATOM     56  H   UNL A   1      43.078  28.199  32.006  1.00  0.00     0.167 HD
ATOM     57  C   UNL A   1      44.662  25.946  31.321  1.00  0.00     0.074 A 
ATOM     58  C   UNL A   1      45.127  24.758  30.634  1.00  0.00     0.031 C 
ATOM     59  C   UNL A   1      45.235  26.453  32.444  1.00  0.00     0.034 A 
BRANCH  46  60
ATOM     60  C   UNL A   1      42.395  31.529  34.628  1.00  0.00     0.023 A 
ATOM     61  C   UNL A   1      41.486  31.553  35.702  1.00  0.00     0.031 A 
ATOM     62  C   UNL A   1      43.292  32.605  34.509  1.00  0.00     0.131 A 
ATOM     63  C   UNL A   1      41.443  32.661  36.563  1.00  0.00     0.055 A 
ATOM     64  C   UNL A   1      43.303  33.663  35.421  1.00  0.00     0.041 A 
ATOM     65  F   UNL A   1      44.170  32.655  33.495  1.00  0.00    -0.206 F 
ATOM     66  C   UNL A   1      42.363  33.704  36.447  1.00  0.00     0.022 A 
BRANCH  63  67
ATOM     67  S   UNL A   1      40.066  32.794  37.738  1.00  0.00     0.124 S 
ATOM     68  O   UNL A   1      39.153  31.767  37.240  1.00  0.00    -0.237 OA
ATOM     69  O   UNL A   1      40.711  32.512  39.015  1.00  0.00    -0.237 OA
ATOM     70  O   UNL A   1      39.599  34.168  37.564  1.00  0.00    -0.744 OA
ENDBRANCH  63  67
ENDBRANCH  46  60
BRANCH  47  71
ATOM     71  C   UNL A   1      42.398  24.564  27.419  1.00  0.00     0.023 A 
ATOM     72  C   UNL A   1      41.581  23.422  27.453  1.00  0.00     0.031 A 
ATOM     73  C   UNL A   1      43.281  24.707  26.332  1.00  0.00     0.131 A 
ATOM     74  C   UNL A   1      41.696  22.448  26.449  1.00  0.00     0.055 A 
ATOM     75  C   UNL A   1      43.350  23.765  25.305  1.00  0.00     0.041 A 
ATOM     76  F   UNL A   1      44.085  25.779  26.247  1.00  0.00    -0.206 F 
ATOM     77  C   UNL A   1      42.562  22.619  25.367  1.00  0.00     0.022 A 
BRANCH  74  78
ATOM     78  S   UNL A   1      40.758  20.903  26.620  1.00  0.00     0.124 S 
ATOM     79  O   UNL A   1      41.465  20.023  25.697  1.00  0.00    -0.237 OA
ATOM     80  O   UNL A   1      40.919  20.607  28.040  1.00  0.00    -0.237 OA
ATOM     81  O   UNL A   1      39.406  21.279  26.212  1.00  0.00    -0.744 OA
ENDBRANCH  74  78
ENDBRANCH  47  71
BRANCH  59  82
ATOM     82  C   UNL A   1      46.411  25.690  33.015  1.00  0.00     0.023 A 
ATOM     83  C   UNL A   1      46.240  24.651  33.948  1.00  0.00     0.031 A 
ATOM     84  C   UNL A   1      47.725  26.046  32.664  1.00  0.00     0.131 A 
ATOM     85  C   UNL A   1      47.358  24.069  34.563  1.00  0.00     0.055 A 
ATOM     86  C   UNL A   1      48.835  25.406  33.218  1.00  0.00     0.041 A 
ATOM     87  F   UNL A   1      47.957  27.033  31.783  1.00  0.00    -0.206 F 
ATOM     88  C   UNL A   1      48.656  24.426  34.190  1.00  0.00     0.022 A 
BRANCH  85  89
ATOM     89  S   UNL A   1      47.094  22.952  35.968  1.00  0.00     0.124 S 
ATOM     90  O   UNL A   1      48.271  23.216  36.789  1.00  0.00    -0.237 OA
ATOM     91  O   UNL A   1      45.822  23.423  36.506  1.00  0.00    -0.237 OA
ATOM     92  O   UNL A   1      47.053  21.627  35.350  1.00  0.00    -0.744 OA
ENDBRANCH  85  89
ENDBRANCH  59  82
ENDBRANCH  33  34
ENDBRANCH  25  28
ENDBRANCH  23  24
ENDBRANCH  22  23
ENDBRANCH   1  22
TORSDOF 17
ENDMDL
MODEL 2
REMARK VINA RESULT:     -10.6      2.102      2.940
REMARK SMILES C[N@H+](CC(=O)NCCCCNC(=O)c1ccc(-c2c3nc(c(-c4cc(S(=O)(=O)[O-])ccc4F)c4ccc([nH]4)c(-c4cc(S(=O)(=O)[O-])ccc4F)c4nc(c(-c5cc(S(=O)(=O)[O-])ccc5F)c5ccc2[nH]5)C=C4)C=C3)cc1)Cc1cccc2c1OCCO2
REMARK SMILES IDX 8 1 7 2 6 3 4 4 5 5 3 7 2 8 1 9 77 11 78 12 79 13 83 14
REMARK SMILES IDX 80 15 82 16 84 17 81 18 87 19 85 20 86 21 9 22 10 23 11 24
REMARK SMILES IDX 12 25 13 27 14 28 15 29 76 30 16 31 75 32 17 33 18 34 19 35
REMARK SMILES IDX 69 36 20 37 74 38 68 39 70 40 21 41 73 42 67 43 66 44 22 46
REMARK SMILES IDX 54 47 34 48 53 49 35 50 38 51 52 52 71 53 36 54 37 55 51 57
REMARK SMILES IDX 72 58 39 59 23 60 24 61 32 62 25 63 31 64 33 65 30 66 26 67
REMARK SMILES IDX 27 68 28 69 29 70 55 71 56 72 64 73 57 74 63 75 65 76 62 77
REMARK SMILES IDX 58 78 59 79 60 80 61 81 40 82 41 83 49 84 42 85 48 86 50 87
REMARK SMILES IDX 47 88 43 89 44 90 45 91 46 92
REMARK H PARENT 6 6 2 10 11 26 70 45 38 56
REMARK Flexibility Score: inf
ROOT
ATOM      1  C   UNL A   1      32.082  26.836  25.323  1.00  0.00     0.023 C 
ENDROOT
BRANCH   1   2
ATOM      2  C   UNL A   1      32.417  26.714  23.832  1.00  0.00     0.116 C 
BRANCH   2   3
ATOM      3  N   UNL A   1      33.378  25.712  23.416  1.00  0.00    -0.351 N 
ATOM      4  C   UNL A   1      33.130  24.412  23.033  1.00  0.00     0.275 C 
ATOM      5  O   UNL A   1      33.924  23.856  22.268  1.00  0.00    -0.269 OA
ATOM      6  H   UNL A   1      34.321  25.995  23.405  1.00  0.00     0.163 HD
BRANCH   4   7
ATOM      7  C   UNL A   1      31.865  23.698  23.520  1.00  0.00     0.363 C 
BRANCH   7   8
ATOM      8  N   UNL A   1      32.171  22.888  24.709  1.00  0.00    -0.326 N 
ATOM      9  C   UNL A   1      31.488  23.358  25.902  1.00  0.00     0.333 C 
ATOM     10  H   UNL A   1      33.162  23.035  24.902  1.00  0.00     0.348 HD
BRANCH   8  11
ATOM     11  C   UNL A   1      32.070  21.438  24.474  1.00  0.00     0.303 C 
BRANCH  11  12
ATOM     12  C   UNL A   1      33.389  20.700  24.637  1.00  0.00     0.052 A 
ATOM     13  C   UNL A   1      34.569  21.430  24.863  1.00  0.00     0.014 A 
ATOM     14  C   UNL A   1      33.484  19.296  24.608  1.00  0.00     0.170 A 
ATOM     15  C   UNL A   1      35.802  20.785  24.995  1.00  0.00     0.005 A 
ATOM     16  C   UNL A   1      34.734  18.663  24.627  1.00  0.00     0.161 A 
ATOM     17  O   UNL A   1      32.321  18.573  24.597  1.00  0.00    -0.486 OA
ATOM     18  C   UNL A   1      35.889  19.403  24.843  1.00  0.00     0.050 A 
ATOM     19  O   UNL A   1      34.899  17.311  24.444  1.00  0.00    -0.486 OA
ATOM     20  C   UNL A   1      32.513  17.160  24.718  1.00  0.00     0.271 C 
ATOM     21  C   UNL A   1      33.715  16.714  23.911  1.00  0.00     0.271 C 
ENDBRANCH  11  12
ENDBRANCH   8  11
ENDBRANCH   7   8
ENDBRANCH   4   7
ENDBRANCH   2   3
ENDBRANCH   1   2
BRANCH   1  22
ATOM     22  C   UNL A   1      32.676  27.965  26.165  1.00  0.00     0.023 C 
BRANCH  22  23
ATOM     23  C   UNL A   1      33.262  29.165  25.440  1.00  0.00     0.116 C 
BRANCH  23  24
ATOM     24  N   UNL A   1      32.686  30.424  25.871  1.00  0.00    -0.352 N 
ATOM     25  C   UNL A   1      33.092  31.278  26.866  1.00  0.00     0.251 C 
ATOM     26  H   UNL A   1      31.885  30.710  25.375  1.00  0.00     0.163 HD
ATOM     27  O   UNL A   1      32.370  32.236  27.151  1.00  0.00    -0.269 OA
BRANCH  25  28
ATOM     28  C   UNL A   1      34.349  31.051  27.624  1.00  0.00     0.039 A 
ATOM     29  C   UNL A   1      34.522  29.814  28.252  1.00  0.00     0.014 A 
ATOM     30  C   UNL A   1      35.335  32.033  27.762  1.00  0.00     0.014 A 
ATOM     31  C   UNL A   1      35.688  29.552  28.977  1.00  0.00     0.010 A 
ATOM     32  C   UNL A   1      36.534  31.744  28.427  1.00  0.00     0.010 A 
ATOM     33  C   UNL A   1      36.720  30.503  29.052  1.00  0.00    -0.014 A 
BRANCH  33  34
ATOM     34  C   UNL A   1      37.978  30.170  29.781  1.00  0.00     0.031 A 
ATOM     35  C   UNL A   1      38.221  30.667  31.183  1.00  0.00     0.074 A 
ATOM     36  C   UNL A   1      38.898  29.389  29.181  1.00  0.00     0.049 A 
ATOM     37  N   UNL A   1      39.196  30.374  32.005  1.00  0.00    -0.248 NA
ATOM     38  C   UNL A   1      37.255  31.633  31.722  1.00  0.00     0.031 C 
ATOM     39  C   UNL A   1      38.809  28.894  27.804  1.00  0.00     0.029 A 
ATOM     40  N   UNL A   1      40.073  28.852  29.648  1.00  0.00    -0.354 N 
ATOM     41  C   UNL A   1      38.960  31.113  33.161  1.00  0.00     0.074 A 
ATOM     42  C   UNL A   1      37.786  31.920  32.902  1.00  0.00     0.031 C 
ATOM     43  C   UNL A   1      39.852  28.085  27.559  1.00  0.00     0.029 A 
ATOM     44  C   UNL A   1      40.706  28.031  28.742  1.00  0.00     0.049 A 
ATOM     45  H   UNL A   1      40.430  29.038  30.547  1.00  0.00     0.167 HD
ATOM     46  C   UNL A   1      39.642  31.101  34.335  1.00  0.00     0.034 A 
ATOM     47  C   UNL A   1      41.838  27.308  28.849  1.00  0.00     0.034 A 
ATOM     48  C   UNL A   1      40.818  30.296  34.573  1.00  0.00     0.049 A 
ATOM     49  C   UNL A   1      42.580  27.312  30.161  1.00  0.00     0.074 A 
ATOM     50  C   UNL A   1      41.556  30.168  35.738  1.00  0.00     0.029 A 
ATOM     51  N   UNL A   1      41.442  29.492  33.625  1.00  0.00    -0.354 N 
ATOM     52  N   UNL A   1      42.298  27.956  31.271  1.00  0.00    -0.248 NA
ATOM     53  C   UNL A   1      43.781  26.473  30.240  1.00  0.00     0.031 C 
ATOM     54  C   UNL A   1      42.667  29.360  35.472  1.00  0.00     0.029 A 
ATOM     55  C   UNL A   1      42.574  28.900  34.169  1.00  0.00     0.049 A 
ATOM     56  H   UNL A   1      41.127  29.362  32.702  1.00  0.00     0.167 HD
ATOM     57  C   UNL A   1      43.272  27.574  32.190  1.00  0.00     0.074 A 
ATOM     58  C   UNL A   1      44.128  26.623  31.510  1.00  0.00     0.031 C 
ATOM     59  C   UNL A   1      43.441  27.971  33.479  1.00  0.00     0.034 A 
BRANCH  46  60
ATOM     60  C   UNL A   1      39.151  32.015  35.438  1.00  0.00     0.023 A 
ATOM     61  C   UNL A   1      39.576  33.353  35.539  1.00  0.00     0.031 A 
ATOM     62  C   UNL A   1      38.259  31.538  36.414  1.00  0.00     0.131 A 
ATOM     63  C   UNL A   1      39.171  34.138  36.630  1.00  0.00     0.055 A 
ATOM     64  C   UNL A   1      37.791  32.352  37.449  1.00  0.00     0.041 A 
ATOM     65  F   UNL A   1      37.833  30.265  36.389  1.00  0.00    -0.206 F 
ATOM     66  C   UNL A   1      38.260  33.656  37.571  1.00  0.00     0.022 A 
BRANCH  63  67
ATOM     67  S   UNL A   1      39.976  35.744  36.888  1.00  0.00     0.124 S 
ATOM     68  O   UNL A   1      41.374  35.351  37.056  1.00  0.00    -0.237 OA
ATOM     69  O   UNL A   1      39.655  36.460  35.659  1.00  0.00    -0.237 OA
ATOM     70  O   UNL A   1      39.334  36.259  38.097  1.00  0.00    -0.744 OA
ENDBRANCH  63  67
ENDBRANCH  46  60
BRANCH  47  71
ATOM     71  C   UNL A   1      42.341  26.517  27.687  1.00  0.00     0.023 A 
ATOM     72  C   UNL A   1      41.966  25.178  27.490  1.00  0.00     0.031 A 
ATOM     73  C   UNL A   1      43.243  27.088  26.769  1.00  0.00     0.131 A 
ATOM     74  C   UNL A   1      42.524  24.443  26.431  1.00  0.00     0.055 A 
ATOM     75  C   UNL A   1      43.749  26.371  25.684  1.00  0.00     0.041 A 
ATOM     76  F   UNL A   1      43.635  28.365  26.908  1.00  0.00    -0.206 F 
ATOM     77  C   UNL A   1      43.399  25.035  25.518  1.00  0.00     0.022 A 
BRANCH  74  78
ATOM     78  S   UNL A   1      42.158  22.669  26.313  1.00  0.00     0.124 S 
ATOM     79  O   UNL A   1      40.704  22.657  26.418  1.00  0.00    -0.237 OA
ATOM     80  O   UNL A   1      42.711  22.333  25.005  1.00  0.00    -0.237 OA
ATOM     81  O   UNL A   1      42.872  22.098  27.454  1.00  0.00    -0.744 OA
ENDBRANCH  74  78
ENDBRANCH  47  71
BRANCH  59  82
ATOM     82  C   UNL A   1      44.584  27.338  34.243  1.00  0.00     0.023 A 
ATOM     83  C   UNL A   1      44.452  26.090  34.879  1.00  0.00     0.031 A 
ATOM     84  C   UNL A   1      45.806  28.020  34.386  1.00  0.00     0.131 A 
ATOM     85  C   UNL A   1      45.482  25.607  35.699  1.00  0.00     0.055 A 
ATOM     86  C   UNL A   1      46.860  27.494  35.136  1.00  0.00     0.041 A 
ATOM     87  F   UNL A   1      45.994  29.217  33.809  1.00  0.00    -0.206 F 
ATOM     88  C   UNL A   1      46.693  26.292  35.815  1.00  0.00     0.022 A 
BRANCH  85  89
ATOM     89  S   UNL A   1      45.160  24.151  36.732  1.00  0.00     0.124 S 
ATOM     90  O   UNL A   1      44.584  24.753  37.930  1.00  0.00    -0.237 OA
ATOM     91  O   UNL A   1      44.242  23.377  35.904  1.00  0.00    -0.237 OA
ATOM     92  O   UNL A   1      46.485  23.558  36.911  1.00  0.00    -0.744 OA
ENDBRANCH  85  89
ENDBRANCH  59  82
ENDBRANCH  33  34
ENDBRANCH  25  28
ENDBRANCH  23  24
ENDBRANCH  22  23
ENDBRANCH   1  22
TORSDOF 17
ENDMDL
MODEL 3
REMARK VINA RESULT:     -10.6      2.839      3.778
REMARK SMILES C[N@H+](CC(=O)NCCCCNC(=O)c1ccc(-c2c3nc(c(-c4cc(S(=O)(=O)[O-])ccc4F)c4ccc([nH]4)c(-c4cc(S(=O)(=O)[O-])ccc4F)c4nc(c(-c5cc(S(=O)(=O)[O-])ccc5F)c5ccc2[nH]5)C=C4)C=C3)cc1)Cc1cccc2c1OCCO2
REMARK SMILES IDX 8 1 7 2 6 3 4 4 5 5 3 7 2 8 1 9 77 11 78 12 79 13 83 14
REMARK SMILES IDX 80 15 82 16 84 17 81 18 87 19 85 20 86 21 9 22 10 23 11 24
REMARK SMILES IDX 12 25 13 27 14 28 15 29 76 30 16 31 75 32 17 33 18 34 19 35
REMARK SMILES IDX 69 36 20 37 74 38 68 39 70 40 21 41 73 42 67 43 66 44 22 46
REMARK SMILES IDX 54 47 34 48 53 49 35 50 38 51 52 52 71 53 36 54 37 55 51 57
REMARK SMILES IDX 72 58 39 59 23 60 24 61 32 62 25 63 31 64 33 65 30 66 26 67
REMARK SMILES IDX 27 68 28 69 29 70 55 71 56 72 64 73 57 74 63 75 65 76 62 77
REMARK SMILES IDX 58 78 59 79 60 80 61 81 40 82 41 83 49 84 42 85 48 86 50 87
REMARK SMILES IDX 47 88 43 89 44 90 45 91 46 92
REMARK H PARENT 6 6 2 10 11 26 70 45 38 56
REMARK Flexibility Score: inf
ROOT
ATOM      1  C   UNL A   1      32.108  28.524  23.638  1.00  0.00     0.023 C 
ENDROOT
BRANCH   1   2
ATOM      2  C   UNL A   1      31.491  27.420  22.773  1.00  0.00     0.116 C 
BRANCH   2   3
ATOM      3  N   UNL A   1      32.229  26.947  21.619  1.00  0.00    -0.351 N 
ATOM      4  C   UNL A   1      32.973  25.793  21.508  1.00  0.00     0.275 C 
ATOM      5  O   UNL A   1      33.123  25.288  20.391  1.00  0.00    -0.269 OA
ATOM      6  H   UNL A   1      32.194  27.519  20.819  1.00  0.00     0.163 HD
BRANCH   4   7
ATOM      7  C   UNL A   1      33.559  25.136  22.761  1.00  0.00     0.363 C 
BRANCH   7   8
ATOM      8  N   UNL A   1      33.746  23.695  22.533  1.00  0.00    -0.326 N 
ATOM      9  C   UNL A   1      35.014  23.203  23.046  1.00  0.00     0.333 C 
ATOM     10  H   UNL A   1      33.812  23.576  21.521  1.00  0.00     0.348 HD
BRANCH   8  11
ATOM     11  C   UNL A   1      32.575  22.883  22.907  1.00  0.00     0.303 C 
BRANCH  11  12
ATOM     12  C   UNL A   1      31.972  23.265  24.248  1.00  0.00     0.052 A 
ATOM     13  C   UNL A   1      30.907  24.183  24.294  1.00  0.00     0.014 A 
ATOM     14  C   UNL A   1      32.410  22.710  25.465  1.00  0.00     0.170 A 
ATOM     15  C   UNL A   1      30.344  24.573  25.513  1.00  0.00     0.005 A 
ATOM     16  C   UNL A   1      31.920  23.190  26.687  1.00  0.00     0.161 A 
ATOM     17  O   UNL A   1      33.299  21.670  25.415  1.00  0.00    -0.486 OA
ATOM     18  C   UNL A   1      30.873  24.102  26.712  1.00  0.00     0.050 A 
ATOM     19  O   UNL A   1      32.421  22.801  27.907  1.00  0.00    -0.486 OA
ATOM     20  C   UNL A   1      33.571  21.075  26.687  1.00  0.00     0.271 C 
ATOM     21  C   UNL A   1      33.678  22.138  27.760  1.00  0.00     0.271 C 
ENDBRANCH  11  12
ENDBRANCH   8  11
ENDBRANCH   7   8
ENDBRANCH   4   7
ENDBRANCH   2   3
ENDBRANCH   1   2
BRANCH   1  22
ATOM     22  C   UNL A   1      33.591  28.488  24.007  1.00  0.00     0.023 C 
BRANCH  22  23
ATOM     23  C   UNL A   1      33.991  28.914  25.410  1.00  0.00     0.116 C 
BRANCH  23  24
ATOM     24  N   UNL A   1      33.285  30.096  25.865  1.00  0.00    -0.352 N 
ATOM     25  C   UNL A   1      33.567  30.933  26.916  1.00  0.00     0.251 C 
ATOM     26  H   UNL A   1      32.486  30.335  25.342  1.00  0.00     0.163 HD
ATOM     27  O   UNL A   1      32.750  31.810  27.205  1.00  0.00    -0.269 OA
BRANCH  25  28
ATOM     28  C   UNL A   1      34.802  30.781  27.726  1.00  0.00     0.039 A 
ATOM     29  C   UNL A   1      34.980  29.587  28.432  1.00  0.00     0.014 A 
ATOM     30  C   UNL A   1      35.762  31.792  27.837  1.00  0.00     0.014 A 
ATOM     31  C   UNL A   1      36.127  29.395  29.208  1.00  0.00     0.010 A 
ATOM     32  C   UNL A   1      36.944  31.569  28.555  1.00  0.00     0.010 A 
ATOM     33  C   UNL A   1      37.136  30.372  29.259  1.00  0.00    -0.014 A 
BRANCH  33  34
ATOM     34  C   UNL A   1      38.375  30.112  30.046  1.00  0.00     0.031 A 
ATOM     35  C   UNL A   1      38.558  30.690  31.425  1.00  0.00     0.074 A 
ATOM     36  C   UNL A   1      39.334  29.323  29.521  1.00  0.00     0.049 A 
ATOM     37  N   UNL A   1      39.511  30.468  32.295  1.00  0.00    -0.248 NA
ATOM     38  C   UNL A   1      37.552  31.660  31.878  1.00  0.00     0.031 C 
ATOM     39  C   UNL A   1      39.304  28.752  28.172  1.00  0.00     0.029 A 
ATOM     40  N   UNL A   1      40.504  28.843  30.056  1.00  0.00    -0.354 N 
ATOM     41  C   UNL A   1      39.218  31.262  33.399  1.00  0.00     0.074 A 
ATOM     42  C   UNL A   1      38.034  32.024  33.057  1.00  0.00     0.031 C 
ATOM     43  C   UNL A   1      40.373  27.958  28.006  1.00  0.00     0.029 A 
ATOM     44  C   UNL A   1      41.187  27.990  29.218  1.00  0.00     0.049 A 
ATOM     45  H   UNL A   1      40.826  29.086  30.955  1.00  0.00     0.167 HD
ATOM     46  C   UNL A   1      39.860  31.333  34.594  1.00  0.00     0.034 A 
ATOM     47  C   UNL A   1      42.332  27.303  29.402  1.00  0.00     0.034 A 
ATOM     48  C   UNL A   1      41.045  30.572  34.915  1.00  0.00     0.049 A 
ATOM     49  C   UNL A   1      43.028  27.398  30.736  1.00  0.00     0.074 A 
ATOM     50  C   UNL A   1      41.746  30.527  36.109  1.00  0.00     0.029 A 
ATOM     51  N   UNL A   1      41.721  29.733  34.034  1.00  0.00    -0.354 N 
ATOM     52  N   UNL A   1      42.692  28.093  31.798  1.00  0.00    -0.248 NA
ATOM     53  C   UNL A   1      44.245  26.595  30.901  1.00  0.00     0.031 C 
ATOM     54  C   UNL A   1      42.884  29.734  35.925  1.00  0.00     0.029 A 
ATOM     55  C   UNL A   1      42.847  29.201  34.647  1.00  0.00     0.049 A 
ATOM     56  H   UNL A   1      41.440  29.546  33.109  1.00  0.00     0.167 HD
ATOM     57  C   UNL A   1      43.643  27.788  32.768  1.00  0.00     0.074 A 
ATOM     58  C   UNL A   1      44.545  26.823  32.171  1.00  0.00     0.031 C 
ATOM     59  C   UNL A   1      43.759  28.259  34.038  1.00  0.00     0.034 A 
BRANCH  46  60
ATOM     60  C   UNL A   1      39.309  32.292  35.628  1.00  0.00     0.023 A 
ATOM     61  C   UNL A   1      39.745  33.628  35.709  1.00  0.00     0.031 A 
ATOM     62  C   UNL A   1      38.347  31.862  36.558  1.00  0.00     0.131 A 
ATOM     63  C   UNL A   1      39.281  34.458  36.741  1.00  0.00     0.055 A 
ATOM     64  C   UNL A   1      37.824  32.719  37.530  1.00  0.00     0.041 A 
ATOM     65  F   UNL A   1      37.905  30.595  36.551  1.00  0.00    -0.206 F 
ATOM     66  C   UNL A   1      38.302  34.021  37.636  1.00  0.00     0.022 A 
BRANCH  63  67
ATOM     67  S   UNL A   1      40.089  36.062  36.995  1.00  0.00     0.124 S 
ATOM     68  O   UNL A   1      41.477  35.662  37.221  1.00  0.00    -0.237 OA
ATOM     69  O   UNL A   1      39.819  36.754  35.740  1.00  0.00    -0.237 OA
ATOM     70  O   UNL A   1      39.409  36.608  38.168  1.00  0.00    -0.744 OA
ENDBRANCH  63  67
ENDBRANCH  46  60
BRANCH  47  71
ATOM     71  C   UNL A   1      42.893  26.463  28.303  1.00  0.00     0.023 A 
ATOM     72  C   UNL A   1      44.000  26.884  27.547  1.00  0.00     0.031 A 
ATOM     73  C   UNL A   1      42.299  25.232  27.968  1.00  0.00     0.131 A 
ATOM     74  C   UNL A   1      44.449  26.105  26.469  1.00  0.00     0.055 A 
ATOM     75  C   UNL A   1      42.786  24.433  26.933  1.00  0.00     0.041 A 
ATOM     76  F   UNL A   1      41.239  24.781  28.657  1.00  0.00    -0.206 F 
ATOM     77  C   UNL A   1      43.860  24.875  26.167  1.00  0.00     0.022 A 
BRANCH  74  78
ATOM     78  S   UNL A   1      45.763  26.762  25.403  1.00  0.00     0.124 S 
ATOM     79  O   UNL A   1      45.076  27.856  24.725  1.00  0.00    -0.237 OA
ATOM     80  O   UNL A   1      46.778  27.148  26.377  1.00  0.00    -0.237 OA
ATOM     81  O   UNL A   1      46.114  25.625  24.555  1.00  0.00    -0.744 OA
ENDBRANCH  74  78
ENDBRANCH  47  71
BRANCH  59  82
ATOM     82  C   UNL A   1      44.889  27.698  34.874  1.00  0.00     0.023 A 
ATOM     83  C   UNL A   1      44.712  26.579  35.708  1.00  0.00     0.031 A 
ATOM     84  C   UNL A   1      46.147  28.326  34.879  1.00  0.00     0.131 A 
ATOM     85  C   UNL A   1      45.740  26.181  36.576  1.00  0.00     0.055 A 
ATOM     86  C   UNL A   1      47.194  27.874  35.684  1.00  0.00     0.041 A 
ATOM     87  F   UNL A   1      46.380  29.402  34.109  1.00  0.00    -0.206 F 
ATOM     88  C   UNL A   1      46.987  26.809  36.555  1.00  0.00     0.022 A 
BRANCH  85  89
ATOM     89  S   UNL A   1      45.374  24.932  37.841  1.00  0.00     0.124 S 
ATOM     90  O   UNL A   1      45.481  23.692  37.080  1.00  0.00    -0.237 OA
ATOM     91  O   UNL A   1      46.424  25.169  38.826  1.00  0.00    -0.237 OA
ATOM     92  O   UNL A   1      44.022  25.276  38.280  1.00  0.00    -0.744 OA
ENDBRANCH  85  89
ENDBRANCH  59  82
ENDBRANCH  33  34
ENDBRANCH  25  28
ENDBRANCH  23  24
ENDBRANCH  22  23
ENDBRANCH   1  22
TORSDOF 17
ENDMDL
