MODEL 1
REMARK VINA RESULT:     -11.4      0.000      0.000
REMARK SMILES O=C(NCCCCNC(=O)[C@H]1c2[nH]cnc2CC[N@H+]1Cc1ccoc1)c1ccc(-c2c3nc(c(-c4cc(S(=O)(=O)[O-])ccc4F)c4ccc([nH]4)c(-c4cc(S(=O)(=O)[O-])ccc4F)c4nc(c(-c5cc(S(=O)(=O)[O-])ccc5F)c5ccc2[nH]5)C=C4)C=C3)cc1
REMARK SMILES IDX 5 1 4 2 3 3 1 4 2 5 26 7 27 8 88 9 28 10 87 11 29 12 30 13
REMARK SMILES IDX 31 14 81 15 32 16 86 17 80 18 82 19 33 20 85 21 79 22 78 23
REMARK SMILES IDX 34 25 66 26 46 27 65 28 47 29 50 30 64 31 83 32 48 33 49 34
REMARK SMILES IDX 63 36 84 37 51 38 35 39 36 40 44 41 37 42 43 43 45 44 42 45
REMARK SMILES IDX 38 46 39 47 40 48 41 49 67 50 68 51 76 52 69 53 75 54 77 55
REMARK SMILES IDX 74 56 70 57 71 58 72 59 73 60 52 61 53 62 61 63 54 64 60 65
REMARK SMILES IDX 62 66 59 67 55 68 56 69 57 70 58 71 6 72 7 73 8 74 9 75
REMARK SMILES IDX 10 77 11 78 12 79 19 80 13 81 16 82 18 83 14 85 15 87 17 88
REMARK SMILES IDX 20 89 21 90 22 91 25 92 23 93 24 94
REMARK H PARENT 3 6 82 24 50 35 8 76 19 84 13 86
REMARK Flexibility Score: inf
ROOT
ATOM      1  C   UNL A   1      36.490  33.067  28.801  1.00  0.00     0.023 C 
ENDROOT
BRANCH   1   2
ATOM      2  C   UNL A   1      35.914  31.878  29.575  1.00  0.00     0.116 C 
BRANCH   2   3
ATOM      3  N   UNL A   1      35.384  30.826  28.734  1.00  0.00    -0.352 N 
ATOM      4  O   UNL A   1      35.135  28.901  27.662  1.00  0.00    -0.269 OA
ATOM      5  C   UNL A   1      35.907  29.657  28.255  1.00  0.00     0.251 C 
ATOM      6  H   UNL A   1      34.455  30.985  28.449  1.00  0.00     0.163 HD
BRANCH   5   7
ATOM      7  C   UNL A   1      37.349  29.319  28.324  1.00  0.00     0.039 A 
ATOM      8  C   UNL A   1      38.297  29.631  27.347  1.00  0.00     0.014 A 
ATOM      9  C   UNL A   1      37.747  28.573  29.445  1.00  0.00     0.014 A 
ATOM     10  C   UNL A   1      39.562  29.075  27.389  1.00  0.00     0.010 A 
ATOM     11  C   UNL A   1      39.029  28.058  29.523  1.00  0.00     0.010 A 
ATOM     12  C   UNL A   1      39.910  28.262  28.461  1.00  0.00    -0.014 A 
BRANCH  12  13
ATOM     13  C   UNL A   1      41.281  27.773  28.524  1.00  0.00     0.031 A 
ATOM     14  C   UNL A   1      41.484  26.434  27.887  1.00  0.00     0.074 A 
ATOM     15  C   UNL A   1      42.271  28.580  28.955  1.00  0.00     0.049 A 
ATOM     16  N   UNL A   1      42.097  25.391  28.348  1.00  0.00    -0.248 NA
ATOM     17  C   UNL A   1      40.799  26.187  26.601  1.00  0.00     0.031 C 
ATOM     18  C   UNL A   1      42.167  29.990  29.350  1.00  0.00     0.029 A 
ATOM     19  N   UNL A   1      43.612  28.363  28.979  1.00  0.00    -0.354 N 
ATOM     20  C   UNL A   1      42.055  24.436  27.330  1.00  0.00     0.074 A 
ATOM     21  C   UNL A   1      41.113  24.915  26.361  1.00  0.00     0.031 C 
ATOM     22  C   UNL A   1      43.391  30.559  29.290  1.00  0.00     0.029 A 
ATOM     23  C   UNL A   1      44.370  29.531  28.976  1.00  0.00     0.049 A 
ATOM     24  H   UNL A   1      44.010  27.462  28.996  1.00  0.00     0.167 HD
ATOM     25  C   UNL A   1      42.963  23.424  27.251  1.00  0.00     0.034 A 
ATOM     26  C   UNL A   1      45.678  29.658  28.620  1.00  0.00     0.034 A 
ATOM     27  C   UNL A   1      43.558  23.152  28.534  1.00  0.00     0.049 A 
ATOM     28  C   UNL A   1      46.272  28.297  28.690  1.00  0.00     0.074 A 
ATOM     29  C   UNL A   1      43.064  22.741  29.756  1.00  0.00     0.029 A 
ATOM     30  N   UNL A   1      44.811  23.654  28.799  1.00  0.00    -0.354 N 
ATOM     31  N   UNL A   1      46.374  27.620  29.803  1.00  0.00    -0.248 NA
ATOM     32  C   UNL A   1      46.272  27.492  27.476  1.00  0.00     0.031 C 
ATOM     33  C   UNL A   1      43.794  23.502  30.717  1.00  0.00     0.029 A 
ATOM     34  C   UNL A   1      44.737  24.267  30.027  1.00  0.00     0.049 A 
ATOM     35  H   UNL A   1      45.606  23.590  28.222  1.00  0.00     0.167 HD
ATOM     36  C   UNL A   1      46.026  26.319  29.468  1.00  0.00     0.074 A 
ATOM     37  C   UNL A   1      46.055  26.284  28.005  1.00  0.00     0.031 C 
ATOM     38  C   UNL A   1      45.466  25.470  30.379  1.00  0.00     0.034 A 
BRANCH  25  39
ATOM     39  C   UNL A   1      43.567  22.929  25.952  1.00  0.00     0.023 A 
ATOM     40  C   UNL A   1      43.643  21.536  25.759  1.00  0.00     0.031 A 
ATOM     41  C   UNL A   1      44.333  23.714  25.058  1.00  0.00     0.131 A 
ATOM     42  C   UNL A   1      44.522  20.984  24.810  1.00  0.00     0.055 A 
ATOM     43  C   UNL A   1      45.155  23.162  24.072  1.00  0.00     0.041 A 
ATOM     44  F   UNL A   1      44.409  25.046  25.142  1.00  0.00    -0.206 F 
ATOM     45  C   UNL A   1      45.282  21.790  23.966  1.00  0.00     0.022 A 
BRANCH  42  46
ATOM     46  S   UNL A   1      44.805  19.195  24.834  1.00  0.00     0.124 S 
ATOM     47  O   UNL A   1      43.602  18.713  25.502  1.00  0.00    -0.237 OA
ATOM     48  O   UNL A   1      44.917  18.892  23.411  1.00  0.00    -0.237 OA
ATOM     49  O   UNL A   1      46.041  19.058  25.602  1.00  0.00    -0.744 OA
ENDBRANCH  42  46
ENDBRANCH  25  39
BRANCH  26  50
ATOM     50  C   UNL A   1      46.257  30.786  27.828  1.00  0.00     0.023 A 
ATOM     51  C   UNL A   1      45.486  31.654  27.024  1.00  0.00     0.031 A 
ATOM     52  C   UNL A   1      47.610  31.150  28.026  1.00  0.00     0.131 A 
ATOM     53  C   UNL A   1      46.079  32.804  26.445  1.00  0.00     0.055 A 
ATOM     54  C   UNL A   1      48.191  32.280  27.445  1.00  0.00     0.041 A 
ATOM     55  F   UNL A   1      48.402  30.457  28.860  1.00  0.00    -0.206 F 
ATOM     56  C   UNL A   1      47.425  33.116  26.654  1.00  0.00     0.022 A 
BRANCH  53  57
ATOM     57  S   UNL A   1      45.082  33.967  25.453  1.00  0.00     0.124 S 
ATOM     58  O   UNL A   1      44.443  33.078  24.484  1.00  0.00    -0.237 OA
ATOM     59  O   UNL A   1      44.213  34.568  26.452  1.00  0.00    -0.237 OA
ATOM     60  O   UNL A   1      46.080  34.874  24.881  1.00  0.00    -0.744 OA
ENDBRANCH  53  57
ENDBRANCH  26  50
BRANCH  38  61
ATOM     61  C   UNL A   1      45.397  25.905  31.832  1.00  0.00     0.023 A 
ATOM     62  C   UNL A   1      44.234  26.398  32.469  1.00  0.00     0.031 A 
ATOM     63  C   UNL A   1      46.522  25.654  32.634  1.00  0.00     0.131 A 
ATOM     64  C   UNL A   1      44.233  26.627  33.861  1.00  0.00     0.055 A 
ATOM     65  C   UNL A   1      46.513  25.864  34.012  1.00  0.00     0.041 A 
ATOM     66  F   UNL A   1      47.644  25.148  32.094  1.00  0.00    -0.206 F 
ATOM     67  C   UNL A   1      45.368  26.356  34.631  1.00  0.00     0.022 A 
BRANCH  64  68
ATOM     68  S   UNL A   1      42.750  27.279  34.700  1.00  0.00     0.124 S 
ATOM     69  O   UNL A   1      43.290  28.260  35.634  1.00  0.00    -0.237 OA
ATOM     70  O   UNL A   1      41.961  27.812  33.592  1.00  0.00    -0.237 OA
ATOM     71  O   UNL A   1      42.170  26.094  35.337  1.00  0.00    -0.744 OA
ENDBRANCH  64  68
ENDBRANCH  38  61
ENDBRANCH  12  13
ENDBRANCH   5   7
ENDBRANCH   2   3
ENDBRANCH   1   2
BRANCH   1  72
ATOM     72  C   UNL A   1      37.885  33.466  29.282  1.00  0.00     0.023 C 
BRANCH  72  73
ATOM     73  C   UNL A   1      38.643  32.296  29.901  1.00  0.00     0.116 C 
BRANCH  73  74
ATOM     74  N   UNL A   1      39.591  32.781  30.880  1.00  0.00    -0.351 N 
ATOM     75  C   UNL A   1      39.452  33.045  32.208  1.00  0.00     0.284 C 
ATOM     76  H   UNL A   1      40.493  32.950  30.524  1.00  0.00     0.163 HD
ATOM     77  O   UNL A   1      40.381  33.664  32.746  1.00  0.00    -0.268 OA
BRANCH  75  78
ATOM     78  C   UNL A   1      38.265  32.561  33.067  1.00  0.00     0.324 C 
ATOM     79  C   UNL A   1      38.683  31.693  34.200  1.00  0.00     0.106 A 
ATOM     80  N   UNL A   1      37.389  33.663  33.544  1.00  0.00    -0.315 N 
ATOM     81  N   UNL A   1      39.503  30.597  34.172  1.00  0.00    -0.343 N 
ATOM     82  C   UNL A   1      38.445  31.937  35.532  1.00  0.00     0.074 A 
ATOM     83  C   UNL A   1      37.663  34.208  34.881  1.00  0.00     0.270 C 
ATOM     84  H   UNL A   1      36.536  33.146  33.758  1.00  0.00     0.349 HD
ATOM     85  C   UNL A   1      39.771  30.275  35.480  1.00  0.00     0.197 A 
ATOM     86  H   UNL A   1      39.835  30.132  33.372  1.00  0.00     0.167 HD
ATOM     87  N   UNL A   1      39.124  31.055  36.324  1.00  0.00    -0.241 NA
ATOM     88  C   UNL A   1      37.701  33.129  36.002  1.00  0.00     0.120 C 
BRANCH  80  89
ATOM     89  C   UNL A   1      36.884  34.584  32.529  1.00  0.00     0.303 C 
BRANCH  89  90
ATOM     90  C   UNL A   1      35.406  34.828  32.556  1.00  0.00     0.044 A 
ATOM     91  C   UNL A   1      34.703  36.001  32.965  1.00  0.00     0.051 A 
ATOM     92  C   UNL A   1      34.419  33.989  32.068  1.00  0.00     0.204 A 
ATOM     93  C   UNL A   1      33.365  35.759  32.771  1.00  0.00     0.195 A 
ATOM     94  O   UNL A   1      33.186  34.538  32.211  1.00  0.00    -0.472 OA
ENDBRANCH  89  90
ENDBRANCH  80  89
ENDBRANCH  75  78
ENDBRANCH  73  74
ENDBRANCH  72  73
ENDBRANCH   1  72
TORSDOF 16
ENDMDL
MODEL 2
REMARK VINA RESULT:     -11.4      4.009      9.657
REMARK SMILES O=C(NCCCCNC(=O)[C@H]1c2[nH]cnc2CC[N@H+]1Cc1ccoc1)c1ccc(-c2c3nc(c(-c4cc(S(=O)(=O)[O-])ccc4F)c4ccc([nH]4)c(-c4cc(S(=O)(=O)[O-])ccc4F)c4nc(c(-c5cc(S(=O)(=O)[O-])ccc5F)c5ccc2[nH]5)C=C4)C=C3)cc1
REMARK SMILES IDX 5 1 4 2 3 3 1 4 2 5 26 7 27 8 88 9 28 10 87 11 29 12 30 13
REMARK SMILES IDX 31 14 81 15 32 16 86 17 80 18 82 19 33 20 85 21 79 22 78 23
REMARK SMILES IDX 34 25 66 26 46 27 65 28 47 29 50 30 64 31 83 32 48 33 49 34
REMARK SMILES IDX 63 36 84 37 51 38 35 39 36 40 44 41 37 42 43 43 45 44 42 45
REMARK SMILES IDX 38 46 39 47 40 48 41 49 67 50 68 51 76 52 69 53 75 54 77 55
REMARK SMILES IDX 74 56 70 57 71 58 72 59 73 60 52 61 53 62 61 63 54 64 60 65
REMARK SMILES IDX 62 66 59 67 55 68 56 69 57 70 58 71 6 72 7 73 8 74 9 75
REMARK SMILES IDX 10 77 11 78 12 79 19 80 13 81 16 82 18 83 14 85 15 87 17 88
REMARK SMILES IDX 20 89 21 90 22 91 25 92 23 93 24 94
REMARK H PARENT 3 6 82 24 50 35 8 76 19 84 13 86
REMARK Flexibility Score: inf
ROOT
ATOM      1  C   UNL A   1      33.969  28.424  26.968  1.00  0.00     0.023 C 
ENDROOT
BRANCH   1   2
ATOM      2  C   UNL A   1      34.799  29.707  26.872  1.00  0.00     0.116 C 
BRANCH   2   3
ATOM      3  N   UNL A   1      34.527  30.667  27.921  1.00  0.00    -0.352 N 
ATOM      4  O   UNL A   1      34.788  32.128  29.569  1.00  0.00    -0.269 OA
ATOM      5  C   UNL A   1      35.295  31.219  28.908  1.00  0.00     0.251 C 
ATOM      6  H   UNL A   1      33.596  30.990  27.923  1.00  0.00     0.163 HD
BRANCH   5   7
ATOM      7  C   UNL A   1      36.640  30.713  29.276  1.00  0.00     0.039 A 
ATOM      8  C   UNL A   1      37.807  31.479  29.310  1.00  0.00     0.014 A 
ATOM      9  C   UNL A   1      36.720  29.338  29.549  1.00  0.00     0.014 A 
ATOM     10  C   UNL A   1      39.043  30.875  29.438  1.00  0.00     0.010 A 
ATOM     11  C   UNL A   1      37.949  28.732  29.734  1.00  0.00     0.010 A 
ATOM     12  C   UNL A   1      39.109  29.498  29.614  1.00  0.00    -0.014 A 
BRANCH  12  13
ATOM     13  C   UNL A   1      40.421  28.906  29.844  1.00  0.00     0.031 A 
ATOM     14  C   UNL A   1      40.796  28.791  31.289  1.00  0.00     0.074 A 
ATOM     15  C   UNL A   1      41.107  28.353  28.823  1.00  0.00     0.049 A 
ATOM     16  N   UNL A   1      41.896  29.129  31.880  1.00  0.00    -0.248 NA
ATOM     17  C   UNL A   1      39.744  28.345  32.226  1.00  0.00     0.031 C 
ATOM     18  C   UNL A   1      40.672  28.209  27.429  1.00  0.00     0.029 A 
ATOM     19  N   UNL A   1      42.272  27.656  28.845  1.00  0.00    -0.354 N 
ATOM     20  C   UNL A   1      41.752  28.747  33.215  1.00  0.00     0.074 A 
ATOM     21  C   UNL A   1      40.365  28.430  33.400  1.00  0.00     0.031 C 
ATOM     22  C   UNL A   1      41.407  27.245  26.833  1.00  0.00     0.029 A 
ATOM     23  C   UNL A   1      42.434  26.799  27.759  1.00  0.00     0.049 A 
ATOM     24  H   UNL A   1      42.941  27.749  29.562  1.00  0.00     0.167 HD
ATOM     25  C   UNL A   1      42.825  28.508  34.019  1.00  0.00     0.034 A 
ATOM     26  C   UNL A   1      43.265  25.724  27.681  1.00  0.00     0.034 A 
ATOM     27  C   UNL A   1      44.001  29.186  33.538  1.00  0.00     0.049 A 
ATOM     28  C   UNL A   1      44.290  25.901  28.744  1.00  0.00     0.074 A 
ATOM     29  C   UNL A   1      44.331  30.512  33.331  1.00  0.00     0.029 A 
ATOM     30  N   UNL A   1      44.936  28.465  32.831  1.00  0.00    -0.354 N 
ATOM     31  N   UNL A   1      45.147  26.887  28.752  1.00  0.00    -0.248 NA
ATOM     32  C   UNL A   1      44.031  25.298  30.045  1.00  0.00     0.031 C 
ATOM     33  C   UNL A   1      45.072  30.514  32.113  1.00  0.00     0.029 A 
ATOM     34  C   UNL A   1      45.215  29.189  31.697  1.00  0.00     0.049 A 
ATOM     35  H   UNL A   1      45.327  27.599  33.087  1.00  0.00     0.167 HD
ATOM     36  C   UNL A   1      45.207  27.304  30.074  1.00  0.00     0.074 A 
ATOM     37  C   UNL A   1      44.563  26.233  30.838  1.00  0.00     0.031 C 
ATOM     38  C   UNL A   1      45.505  28.595  30.407  1.00  0.00     0.034 A 
BRANCH  25  39
ATOM     39  C   UNL A   1      42.892  27.380  35.028  1.00  0.00     0.023 A 
ATOM     40  C   UNL A   1      43.626  26.232  34.672  1.00  0.00     0.031 A 
ATOM     41  C   UNL A   1      42.047  27.241  36.153  1.00  0.00     0.131 A 
ATOM     42  C   UNL A   1      43.424  25.009  35.336  1.00  0.00     0.055 A 
ATOM     43  C   UNL A   1      41.899  26.039  36.852  1.00  0.00     0.041 A 
ATOM     44  F   UNL A   1      41.246  28.220  36.587  1.00  0.00    -0.206 F 
ATOM     45  C   UNL A   1      42.561  24.905  36.423  1.00  0.00     0.022 A 
BRANCH  42  46
ATOM     46  S   UNL A   1      44.157  23.511  34.626  1.00  0.00     0.124 S 
ATOM     47  O   UNL A   1      45.229  24.063  33.808  1.00  0.00    -0.237 OA
ATOM     48  O   UNL A   1      44.568  22.785  35.824  1.00  0.00    -0.237 OA
ATOM     49  O   UNL A   1      43.050  22.913  33.883  1.00  0.00    -0.744 OA
ENDBRANCH  42  46
ENDBRANCH  25  39
BRANCH  26  50
ATOM     50  C   UNL A   1      42.932  24.411  27.048  1.00  0.00     0.023 A 
ATOM     51  C   UNL A   1      43.808  23.714  26.188  1.00  0.00     0.031 A 
ATOM     52  C   UNL A   1      41.773  23.714  27.466  1.00  0.00     0.131 A 
ATOM     53  C   UNL A   1      43.494  22.396  25.767  1.00  0.00     0.055 A 
ATOM     54  C   UNL A   1      41.467  22.419  27.042  1.00  0.00     0.041 A 
ATOM     55  F   UNL A   1      40.932  24.241  28.370  1.00  0.00    -0.206 F 
ATOM     56  C   UNL A   1      42.330  21.751  26.193  1.00  0.00     0.022 A 
BRANCH  53  57
ATOM     57  S   UNL A   1      44.643  21.460  24.703  1.00  0.00     0.124 S 
ATOM     58  O   UNL A   1      45.899  21.553  25.447  1.00  0.00    -0.237 OA
ATOM     59  O   UNL A   1      44.020  20.147  24.646  1.00  0.00    -0.237 OA
ATOM     60  O   UNL A   1      44.626  22.203  23.441  1.00  0.00    -0.744 OA
ENDBRANCH  53  57
ENDBRANCH  26  50
BRANCH  38  61
ATOM     61  C   UNL A   1      45.961  29.540  29.310  1.00  0.00     0.023 A 
ATOM     62  C   UNL A   1      45.091  30.259  28.457  1.00  0.00     0.031 A 
ATOM     63  C   UNL A   1      47.331  29.838  29.244  1.00  0.00     0.131 A 
ATOM     64  C   UNL A   1      45.609  31.232  27.575  1.00  0.00     0.055 A 
ATOM     65  C   UNL A   1      47.838  30.812  28.384  1.00  0.00     0.041 A 
ATOM     66  F   UNL A   1      48.202  29.217  30.057  1.00  0.00    -0.206 F 
ATOM     67  C   UNL A   1      46.979  31.510  27.543  1.00  0.00     0.022 A 
BRANCH  64  68
ATOM     68  S   UNL A   1      44.508  32.159  26.454  1.00  0.00     0.124 S 
ATOM     69  O   UNL A   1      43.504  31.174  26.070  1.00  0.00    -0.237 OA
ATOM     70  O   UNL A   1      44.042  33.257  27.297  1.00  0.00    -0.237 OA
ATOM     71  O   UNL A   1      45.398  32.571  25.365  1.00  0.00    -0.744 OA
ENDBRANCH  64  68
ENDBRANCH  38  61
ENDBRANCH  12  13
ENDBRANCH   5   7
ENDBRANCH   2   3
ENDBRANCH   1   2
BRANCH   1  72
ATOM     72  C   UNL A   1      32.504  28.692  27.316  1.00  0.00     0.023 C 
BRANCH  72  73
ATOM     73  C   UNL A   1      31.548  28.142  26.263  1.00  0.00     0.116 C 
BRANCH  73  74
ATOM     74  N   UNL A   1      31.027  26.860  26.687  1.00  0.00    -0.351 N 
ATOM     75  C   UNL A   1      30.621  25.776  25.970  1.00  0.00     0.284 C 
ATOM     76  H   UNL A   1      30.953  26.753  27.662  1.00  0.00     0.163 HD
ATOM     77  O   UNL A   1      30.011  24.899  26.598  1.00  0.00    -0.268 OA
BRANCH  75  78
ATOM     78  C   UNL A   1      30.939  25.558  24.476  1.00  0.00     0.324 C 
ATOM     79  C   UNL A   1      30.422  26.646  23.605  1.00  0.00     0.106 A 
ATOM     80  N   UNL A   1      32.380  25.309  24.206  1.00  0.00    -0.315 N 
ATOM     81  N   UNL A   1      29.161  27.178  23.570  1.00  0.00    -0.343 N 
ATOM     82  C   UNL A   1      31.176  27.440  22.773  1.00  0.00     0.074 A 
ATOM     83  C   UNL A   1      33.205  26.469  23.838  1.00  0.00     0.270 C 
ATOM     84  H   UNL A   1      32.326  24.859  23.293  1.00  0.00     0.349 HD
ATOM     85  C   UNL A   1      29.230  28.296  22.777  1.00  0.00     0.197 A 
ATOM     86  H   UNL A   1      28.362  26.827  24.025  1.00  0.00     0.167 HD
ATOM     87  N   UNL A   1      30.432  28.465  22.263  1.00  0.00    -0.241 NA
ATOM     88  C   UNL A   1      32.642  27.280  22.635  1.00  0.00     0.120 C 
BRANCH  80  89
ATOM     89  C   UNL A   1      33.017  24.245  24.980  1.00  0.00     0.303 C 
BRANCH  89  90
ATOM     90  C   UNL A   1      34.377  23.829  24.507  1.00  0.00     0.044 A 
ATOM     91  C   UNL A   1      35.643  24.053  25.126  1.00  0.00     0.051 A 
ATOM     92  C   UNL A   1      34.665  23.026  23.417  1.00  0.00     0.204 A 
ATOM     93  C   UNL A   1      36.592  23.448  24.339  1.00  0.00     0.195 A 
ATOM     94  O   UNL A   1      35.999  22.808  23.301  1.00  0.00    -0.472 OA
ENDBRANCH  89  90
ENDBRANCH  80  89
ENDBRANCH  75  78
ENDBRANCH  73  74
ENDBRANCH  72  73
ENDBRANCH   1  72
TORSDOF 16
ENDMDL
MODEL 3
REMARK VINA RESULT:     -11.4      4.178      9.436
REMARK SMILES O=C(NCCCCNC(=O)[C@H]1c2[nH]cnc2CC[N@H+]1Cc1ccoc1)c1ccc(-c2c3nc(c(-c4cc(S(=O)(=O)[O-])ccc4F)c4ccc([nH]4)c(-c4cc(S(=O)(=O)[O-])ccc4F)c4nc(c(-c5cc(S(=O)(=O)[O-])ccc5F)c5ccc2[nH]5)C=C4)C=C3)cc1
REMARK SMILES IDX 5 1 4 2 3 3 1 4 2 5 26 7 27 8 88 9 28 10 87 11 29 12 30 13
REMARK SMILES IDX 31 14 81 15 32 16 86 17 80 18 82 19 33 20 85 21 79 22 78 23
REMARK SMILES IDX 34 25 66 26 46 27 65 28 47 29 50 30 64 31 83 32 48 33 49 34
REMARK SMILES IDX 63 36 84 37 51 38 35 39 36 40 44 41 37 42 43 43 45 44 42 45
REMARK SMILES IDX 38 46 39 47 40 48 41 49 67 50 68 51 76 52 69 53 75 54 77 55
REMARK SMILES IDX 74 56 70 57 71 58 72 59 73 60 52 61 53 62 61 63 54 64 60 65
REMARK SMILES IDX 62 66 59 67 55 68 56 69 57 70 58 71 6 72 7 73 8 74 9 75
REMARK SMILES IDX 10 77 11 78 12 79 19 80 13 81 16 82 18 83 14 85 15 87 17 88
REMARK SMILES IDX 20 89 21 90 22 91 25 92 23 93 24 94
REMARK H PARENT 3 6 82 24 50 35 8 76 19 84 13 86
REMARK Flexibility Score: inf
ROOT
ATOM      1  C   UNL A   1      32.723  29.518  26.753  1.00  0.00     0.023 C 
ENDROOT
BRANCH   1   2
ATOM      2  C   UNL A   1      34.156  29.930  27.101  1.00  0.00     0.116 C 
BRANCH   2   3
ATOM      3  N   UNL A   1      34.247  30.922  28.152  1.00  0.00    -0.352 N 
ATOM      4  O   UNL A   1      35.051  32.340  29.656  1.00  0.00    -0.269 OA
ATOM      5  C   UNL A   1      35.278  31.369  28.930  1.00  0.00     0.251 C 
ATOM      6  H   UNL A   1      33.389  31.366  28.346  1.00  0.00     0.163 HD
BRANCH   5   7
ATOM      7  C   UNL A   1      36.594  30.690  29.014  1.00  0.00     0.039 A 
ATOM      8  C   UNL A   1      36.788  29.307  28.988  1.00  0.00     0.014 A 
ATOM      9  C   UNL A   1      37.704  31.530  29.194  1.00  0.00     0.014 A 
ATOM     10  C   UNL A   1      38.019  28.762  29.303  1.00  0.00     0.010 A 
ATOM     11  C   UNL A   1      38.952  30.994  29.455  1.00  0.00     0.010 A 
ATOM     12  C   UNL A   1      39.087  29.610  29.571  1.00  0.00    -0.014 A 
BRANCH  12  13
ATOM     13  C   UNL A   1      40.391  29.005  29.802  1.00  0.00     0.031 A 
ATOM     14  C   UNL A   1      40.759  28.875  31.248  1.00  0.00     0.074 A 
ATOM     15  C   UNL A   1      41.076  28.452  28.781  1.00  0.00     0.049 A 
ATOM     16  N   UNL A   1      41.860  29.199  31.846  1.00  0.00    -0.248 NA
ATOM     17  C   UNL A   1      39.699  28.433  32.178  1.00  0.00     0.031 C 
ATOM     18  C   UNL A   1      40.646  28.322  27.383  1.00  0.00     0.029 A 
ATOM     19  N   UNL A   1      42.235  27.744  28.802  1.00  0.00    -0.354 N 
ATOM     20  C   UNL A   1      41.707  28.809  33.178  1.00  0.00     0.074 A 
ATOM     21  C   UNL A   1      40.316  28.504  33.355  1.00  0.00     0.031 C 
ATOM     22  C   UNL A   1      41.374  27.355  26.784  1.00  0.00     0.029 A 
ATOM     23  C   UNL A   1      42.393  26.892  27.711  1.00  0.00     0.049 A 
ATOM     24  H   UNL A   1      42.902  27.825  29.522  1.00  0.00     0.167 HD
ATOM     25  C   UNL A   1      42.774  28.554  33.984  1.00  0.00     0.034 A 
ATOM     26  C   UNL A   1      43.214  25.810  27.629  1.00  0.00     0.034 A 
ATOM     27  C   UNL A   1      43.959  29.224  33.512  1.00  0.00     0.049 A 
ATOM     28  C   UNL A   1      44.236  25.970  28.697  1.00  0.00     0.074 A 
ATOM     29  C   UNL A   1      44.302  30.548  33.316  1.00  0.00     0.029 A 
ATOM     30  N   UNL A   1      44.889  28.499  32.805  1.00  0.00    -0.354 N 
ATOM     31  N   UNL A   1      45.102  26.948  28.716  1.00  0.00    -0.248 NA
ATOM     32  C   UNL A   1      43.966  25.360  29.992  1.00  0.00     0.031 C 
ATOM     33  C   UNL A   1      45.048  30.552  32.101  1.00  0.00     0.029 A 
ATOM     34  C   UNL A   1      45.180  29.228  31.677  1.00  0.00     0.049 A 
ATOM     35  H   UNL A   1      45.271  27.627  33.056  1.00  0.00     0.167 HD
ATOM     36  C   UNL A   1      45.161  27.354  30.041  1.00  0.00     0.074 A 
ATOM     37  C   UNL A   1      44.503  26.285  30.794  1.00  0.00     0.031 C 
ATOM     38  C   UNL A   1      45.470  28.640  30.384  1.00  0.00     0.034 A 
BRANCH  25  39
ATOM     39  C   UNL A   1      42.826  27.418  34.985  1.00  0.00     0.023 A 
ATOM     40  C   UNL A   1      43.574  26.277  34.636  1.00  0.00     0.031 A 
ATOM     41  C   UNL A   1      41.958  27.266  36.092  1.00  0.00     0.131 A 
ATOM     42  C   UNL A   1      43.365  25.048  35.286  1.00  0.00     0.055 A 
ATOM     43  C   UNL A   1      41.802  26.058  36.777  1.00  0.00     0.041 A 
ATOM     44  F   UNL A   1      41.143  28.237  36.516  1.00  0.00    -0.206 F 
ATOM     45  C   UNL A   1      42.479  24.930  36.354  1.00  0.00     0.022 A 
BRANCH  42  46
ATOM     46  S   UNL A   1      44.120  23.559  34.580  1.00  0.00     0.124 S 
ATOM     47  O   UNL A   1      44.539  22.842  35.779  1.00  0.00    -0.237 OA
ATOM     48  O   UNL A   1      43.003  22.982  33.840  1.00  0.00    -0.237 OA
ATOM     49  O   UNL A   1      45.207  24.088  33.759  1.00  0.00    -0.744 OA
ENDBRANCH  42  46
ENDBRANCH  25  39
BRANCH  26  50
ATOM     50  C   UNL A   1      42.871  24.505  26.985  1.00  0.00     0.023 A 
ATOM     51  C   UNL A   1      43.744  23.805  26.125  1.00  0.00     0.031 A 
ATOM     52  C   UNL A   1      41.703  23.817  27.392  1.00  0.00     0.131 A 
ATOM     53  C   UNL A   1      43.420  22.493  25.694  1.00  0.00     0.055 A 
ATOM     54  C   UNL A   1      41.385  22.528  26.957  1.00  0.00     0.041 A 
ATOM     55  F   UNL A   1      40.861  24.347  28.294  1.00  0.00    -0.206 F 
ATOM     56  C   UNL A   1      42.246  21.857  26.108  1.00  0.00     0.022 A 
BRANCH  53  57
ATOM     57  S   UNL A   1      44.565  21.552  24.631  1.00  0.00     0.124 S 
ATOM     58  O   UNL A   1      44.446  22.251  23.353  1.00  0.00    -0.237 OA
ATOM     59  O   UNL A   1      45.832  21.693  25.331  1.00  0.00    -0.237 OA
ATOM     60  O   UNL A   1      44.007  20.197  24.639  1.00  0.00    -0.744 OA
ENDBRANCH  53  57
ENDBRANCH  26  50
BRANCH  38  61
ATOM     61  C   UNL A   1      45.939  29.589  29.296  1.00  0.00     0.023 A 
ATOM     62  C   UNL A   1      45.080  30.328  28.448  1.00  0.00     0.031 A 
ATOM     63  C   UNL A   1      47.314  29.868  29.232  1.00  0.00     0.131 A 
ATOM     64  C   UNL A   1      45.612  31.301  27.575  1.00  0.00     0.055 A 
ATOM     65  C   UNL A   1      47.835  30.842  28.382  1.00  0.00     0.041 A 
ATOM     66  F   UNL A   1      48.176  29.227  30.040  1.00  0.00    -0.206 F 
ATOM     67  C   UNL A   1      46.986  31.560  27.546  1.00  0.00     0.022 A 
BRANCH  64  68
ATOM     68  S   UNL A   1      44.525  32.253  26.463  1.00  0.00     0.124 S 
ATOM     69  O   UNL A   1      44.044  33.342  27.305  1.00  0.00    -0.237 OA
ATOM     70  O   UNL A   1      45.427  32.631  25.377  1.00  0.00    -0.237 OA
ATOM     71  O   UNL A   1      43.495  31.284  26.079  1.00  0.00    -0.744 OA
ENDBRANCH  64  68
ENDBRANCH  38  61
ENDBRANCH  12  13
ENDBRANCH   5   7
ENDBRANCH   2   3
ENDBRANCH   1   2
BRANCH   1  72
ATOM     72  C   UNL A   1      32.366  28.124  27.270  1.00  0.00     0.023 C 
BRANCH  72  73
ATOM     73  C   UNL A   1      31.474  27.356  26.300  1.00  0.00     0.116 C 
BRANCH  73  74
ATOM     74  N   UNL A   1      31.078  26.093  26.884  1.00  0.00    -0.351 N 
ATOM     75  C   UNL A   1      31.393  24.812  26.549  1.00  0.00     0.284 C 
ATOM     76  H   UNL A   1      30.476  26.174  27.658  1.00  0.00     0.163 HD
ATOM     77  O   UNL A   1      30.726  23.921  27.093  1.00  0.00    -0.268 OA
BRANCH  75  78
ATOM     78  C   UNL A   1      32.555  24.424  25.610  1.00  0.00     0.324 C 
ATOM     79  C   UNL A   1      33.315  23.237  26.084  1.00  0.00     0.106 A 
ATOM     80  N   UNL A   1      32.141  24.251  24.193  1.00  0.00    -0.315 N 
ATOM     81  N   UNL A   1      33.841  23.008  27.327  1.00  0.00    -0.343 N 
ATOM     82  C   UNL A   1      33.489  22.063  25.391  1.00  0.00     0.074 A 
ATOM     83  C   UNL A   1      31.810  22.889  23.751  1.00  0.00     0.270 C 
ATOM     84  H   UNL A   1      33.038  24.355  23.720  1.00  0.00     0.349 HD
ATOM     85  C   UNL A   1      34.245  21.696  27.344  1.00  0.00     0.197 A 
ATOM     86  H   UNL A   1      33.915  23.656  28.063  1.00  0.00     0.167 HD
ATOM     87  N   UNL A   1      34.066  21.107  26.178  1.00  0.00    -0.241 NA
ATOM     88  C   UNL A   1      32.932  21.849  24.035  1.00  0.00     0.120 C 
BRANCH  80  89
ATOM     89  C   UNL A   1      31.401  25.357  23.587  1.00  0.00     0.303 C 
BRANCH  89  90
ATOM     90  C   UNL A   1      32.237  26.394  22.902  1.00  0.00     0.044 A 
ATOM     91  C   UNL A   1      32.027  27.804  22.831  1.00  0.00     0.051 A 
ATOM     92  C   UNL A   1      33.465  26.199  22.294  1.00  0.00     0.204 A 
ATOM     93  C   UNL A   1      33.083  28.336  22.131  1.00  0.00     0.195 A 
ATOM     94  O   UNL A   1      33.971  27.362  21.812  1.00  0.00    -0.472 OA
ENDBRANCH  89  90
ENDBRANCH  80  89
ENDBRANCH  75  78
ENDBRANCH  73  74
ENDBRANCH  72  73
ENDBRANCH   1  72
TORSDOF 16
ENDMDL
