MODEL 1
REMARK VINA RESULT:     -12.2      0.000      0.000
REMARK SMILES Cc1cc(C)c(C(=O)N[C@@H]2C=C[C@@H](C(=O)NCCCCNC(=O)c3ccc(-c4c5nc(c(-c6cc(S(=O)(=O)[O-])ccc6F)c6ccc([nH]6)c(-c6cc(S(=O)(=O)[O-])ccc6F)c6nc(c(-c7cc(S(=O)(=O)[O-])ccc7F)c7ccc4[nH]7)C=C6)C=C5)cc3)C2)c(C)c1
REMARK SMILES IDX 19 1 18 2 17 3 16 4 14 5 15 6 13 8 10 9 11 10 87 11 12 12
REMARK SMILES IDX 9 13 7 14 8 15 6 17 1 18 2 19 3 20 90 21 4 22 88 23 5 24
REMARK SMILES IDX 89 25 20 26 21 27 22 28 23 30 24 31 25 32 86 33 26 34 85 35
REMARK SMILES IDX 27 36 28 37 29 38 79 39 30 40 84 41 78 42 80 43 31 44 83 45
REMARK SMILES IDX 77 46 76 47 32 49 64 50 44 51 63 52 45 53 48 54 62 55 81 56
REMARK SMILES IDX 46 57 47 58 61 60 82 61 49 62 33 63 34 64 42 65 35 66 41 67
REMARK SMILES IDX 43 68 40 69 36 70 37 71 38 72 39 73 65 74 66 75 74 76 67 77
REMARK SMILES IDX 73 78 75 79 72 80 68 81 69 82 70 83 71 84 50 85 51 86 59 87
REMARK SMILES IDX 52 88 58 89 60 90 57 91 53 92 54 93 55 94 56 95
REMARK H PARENT 16 7 9 16 21 29 80 48 48 59
REMARK Flexibility Score: inf
ROOT
ATOM      1  C   UNL A   1      31.550  31.639  26.802  1.00  0.00     0.023 C 
ENDROOT
BRANCH   1   2
ATOM      2  C   UNL A   1      30.667  32.310  25.752  1.00  0.00     0.023 C 
BRANCH   2   3
ATOM      3  C   UNL A   1      29.900  31.385  24.805  1.00  0.00     0.116 C 
BRANCH   3   4
ATOM      4  N   UNL A   1      29.247  32.117  23.740  1.00  0.00    -0.356 N 
ATOM      5  C   UNL A   1      28.564  31.734  22.632  1.00  0.00     0.227 C 
ATOM      6  O   UNL A   1      28.023  32.647  21.996  1.00  0.00    -0.274 OA
ATOM      7  H   UNL A   1      29.312  33.095  23.840  1.00  0.00     0.163 HD
BRANCH   5   8
ATOM      8  C   UNL A   1      28.501  30.300  22.069  1.00  0.00     0.103 C 
ATOM      9  C   UNL A   1      29.825  28.494  23.029  1.00  0.00     0.106 C 
ATOM     10  C   UNL A   1      28.361  28.201  23.124  1.00  0.00    -0.006 C 
ATOM     11  C   UNL A   1      29.876  29.626  22.005  1.00  0.00     0.047 C 
ATOM     12  C   UNL A   1      27.639  29.249  22.700  1.00  0.00    -0.016 C 
BRANCH   9  13
ATOM     13  N   UNL A   1      30.624  27.323  22.752  1.00  0.00    -0.346 N 
ATOM     14  C   UNL A   1      31.657  26.802  23.517  1.00  0.00     0.252 C 
ATOM     15  O   UNL A   1      32.078  25.671  23.299  1.00  0.00    -0.269 OA
ATOM     16  H   UNL A   1      30.410  26.838  21.923  1.00  0.00     0.164 HD
BRANCH  14  17
ATOM     17  C   UNL A   1      32.312  27.664  24.544  1.00  0.00     0.045 A 
ATOM     18  C   UNL A   1      34.901  29.187  27.625  1.00  0.00     0.044 C 
ATOM     19  C   UNL A   1      33.960  28.725  26.552  1.00  0.00    -0.051 A 
ATOM     20  C   UNL A   1      32.792  28.038  26.891  1.00  0.00     0.007 A 
ATOM     21  C   UNL A   1      34.190  29.040  25.209  1.00  0.00     0.007 A 
ATOM     22  C   UNL A   1      31.955  27.498  25.899  1.00  0.00    -0.038 A 
ATOM     23  C   UNL A   1      33.337  28.565  24.197  1.00  0.00    -0.038 A 
ATOM     24  C   UNL A   1      30.652  26.888  26.338  1.00  0.00     0.045 C 
ATOM     25  C   UNL A   1      33.537  29.059  22.792  1.00  0.00     0.045 C 
ENDBRANCH  14  17
ENDBRANCH   9  13
ENDBRANCH   5   8
ENDBRANCH   3   4
ENDBRANCH   2   3
ENDBRANCH   1   2
BRANCH   1  26
ATOM     26  C   UNL A   1      32.842  32.367  27.141  1.00  0.00     0.116 C 
BRANCH  26  27
ATOM     27  N   UNL A   1      32.639  33.755  27.517  1.00  0.00    -0.352 N 
ATOM     28  C   UNL A   1      33.249  34.491  28.506  1.00  0.00     0.251 C 
ATOM     29  H   UNL A   1      31.965  34.240  26.988  1.00  0.00     0.163 HD
ATOM     30  O   UNL A   1      32.835  35.626  28.748  1.00  0.00    -0.269 OA
BRANCH  28  31
ATOM     31  C   UNL A   1      34.363  33.917  29.296  1.00  0.00     0.039 A 
ATOM     32  C   UNL A   1      34.069  33.003  30.312  1.00  0.00     0.014 A 
ATOM     33  C   UNL A   1      35.691  34.269  29.045  1.00  0.00     0.014 A 
ATOM     34  C   UNL A   1      35.107  32.407  31.031  1.00  0.00     0.010 A 
ATOM     35  C   UNL A   1      36.726  33.595  29.687  1.00  0.00     0.010 A 
ATOM     36  C   UNL A   1      36.448  32.671  30.703  1.00  0.00    -0.014 A 
BRANCH  36  37
ATOM     37  C   UNL A   1      37.560  32.012  31.439  1.00  0.00     0.031 A 
ATOM     38  C   UNL A   1      38.349  30.905  30.789  1.00  0.00     0.074 A 
ATOM     39  C   UNL A   1      37.833  32.381  32.707  1.00  0.00     0.049 A 
ATOM     40  N   UNL A   1      39.347  30.206  31.266  1.00  0.00    -0.248 NA
ATOM     41  C   UNL A   1      37.932  30.504  29.438  1.00  0.00     0.031 C 
ATOM     42  C   UNL A   1      37.092  33.388  33.470  1.00  0.00     0.029 A 
ATOM     43  N   UNL A   1      38.802  31.953  33.578  1.00  0.00    -0.354 N 
ATOM     44  C   UNL A   1      39.663  29.273  30.282  1.00  0.00     0.074 A 
ATOM     45  C   UNL A   1      38.697  29.447  29.220  1.00  0.00     0.031 C 
ATOM     46  C   UNL A   1      37.654  33.523  34.681  1.00  0.00     0.029 A 
ATOM     47  C   UNL A   1      38.767  32.586  34.799  1.00  0.00     0.049 A 
ATOM     48  H   UNL A   1      39.461  31.257  33.353  1.00  0.00     0.167 HD
ATOM     49  C   UNL A   1      40.681  28.376  30.255  1.00  0.00     0.034 A 
ATOM     50  C   UNL A   1      39.539  32.429  35.892  1.00  0.00     0.034 A 
ATOM     51  C   UNL A   1      41.640  28.229  31.325  1.00  0.00     0.049 A 
ATOM     52  C   UNL A   1      40.677  31.444  35.838  1.00  0.00     0.074 A 
ATOM     53  C   UNL A   1      42.754  27.411  31.378  1.00  0.00     0.029 A 
ATOM     54  N   UNL A   1      41.588  28.905  32.539  1.00  0.00    -0.354 N 
ATOM     55  N   UNL A   1      41.020  30.629  34.866  1.00  0.00    -0.248 NA
ATOM     56  C   UNL A   1      41.546  31.375  37.018  1.00  0.00     0.031 C 
ATOM     57  C   UNL A   1      43.323  27.528  32.651  1.00  0.00     0.029 A 
ATOM     58  C   UNL A   1      42.627  28.493  33.362  1.00  0.00     0.049 A 
ATOM     59  H   UNL A   1      40.912  29.579  32.780  1.00  0.00     0.167 HD
ATOM     60  C   UNL A   1      42.162  29.968  35.309  1.00  0.00     0.074 A 
ATOM     61  C   UNL A   1      42.459  30.500  36.625  1.00  0.00     0.031 C 
ATOM     62  C   UNL A   1      42.900  29.011  34.684  1.00  0.00     0.034 A 
BRANCH  49  63
ATOM     63  C   UNL A   1      40.776  27.471  29.044  1.00  0.00     0.023 A 
ATOM     64  C   UNL A   1      41.737  27.673  28.036  1.00  0.00     0.031 A 
ATOM     65  C   UNL A   1      39.854  26.425  28.865  1.00  0.00     0.131 A 
ATOM     66  C   UNL A   1      41.687  26.918  26.854  1.00  0.00     0.055 A 
ATOM     67  C   UNL A   1      39.874  25.609  27.731  1.00  0.00     0.041 A 
ATOM     68  F   UNL A   1      38.899  26.190  29.777  1.00  0.00    -0.206 F 
ATOM     69  C   UNL A   1      40.779  25.867  26.706  1.00  0.00     0.022 A 
BRANCH  66  70
ATOM     70  S   UNL A   1      42.691  27.456  25.441  1.00  0.00     0.124 S 
ATOM     71  O   UNL A   1      42.729  26.243  24.627  1.00  0.00    -0.237 OA
ATOM     72  O   UNL A   1      41.910  28.563  24.903  1.00  0.00    -0.237 OA
ATOM     73  O   UNL A   1      43.968  27.827  26.049  1.00  0.00    -0.744 OA
ENDBRANCH  66  70
ENDBRANCH  49  63
BRANCH  50  74
ATOM     74  C   UNL A   1      39.257  33.220  37.125  1.00  0.00     0.023 A 
ATOM     75  C   UNL A   1      39.856  34.469  37.352  1.00  0.00     0.031 A 
ATOM     76  C   UNL A   1      38.379  32.722  38.107  1.00  0.00     0.131 A 
ATOM     77  C   UNL A   1      39.595  35.164  38.545  1.00  0.00     0.055 A 
ATOM     78  C   UNL A   1      38.083  33.440  39.266  1.00  0.00     0.041 A 
ATOM     79  F   UNL A   1      37.774  31.536  37.936  1.00  0.00    -0.206 F 
ATOM     80  C   UNL A   1      38.701  34.665  39.495  1.00  0.00     0.022 A 
BRANCH  77  81
ATOM     81  S   UNL A   1      40.491  36.708  38.871  1.00  0.00     0.124 S 
ATOM     82  O   UNL A   1      39.403  37.678  38.924  1.00  0.00    -0.237 OA
ATOM     83  O   UNL A   1      41.152  36.413  40.138  1.00  0.00    -0.237 OA
ATOM     84  O   UNL A   1      41.384  36.832  37.720  1.00  0.00    -0.744 OA
ENDBRANCH  77  81
ENDBRANCH  50  74
BRANCH  62  85
ATOM     85  C   UNL A   1      44.126  28.511  35.413  1.00  0.00     0.023 A 
ATOM     86  C   UNL A   1      44.053  27.492  36.380  1.00  0.00     0.031 A 
ATOM     87  C   UNL A   1      45.384  29.089  35.162  1.00  0.00     0.131 A 
ATOM     88  C   UNL A   1      45.195  27.143  37.118  1.00  0.00     0.055 A 
ATOM     89  C   UNL A   1      46.532  28.680  35.842  1.00  0.00     0.041 A 
ATOM     90  F   UNL A   1      45.518  30.069  34.254  1.00  0.00    -0.206 F 
ATOM     91  C   UNL A   1      46.438  27.716  36.841  1.00  0.00     0.022 A 
BRANCH  88  92
ATOM     92  S   UNL A   1      45.003  26.036  38.542  1.00  0.00     0.124 S 
ATOM     93  O   UNL A   1      43.883  26.646  39.249  1.00  0.00    -0.237 OA
ATOM     94  O   UNL A   1      44.732  24.752  37.903  1.00  0.00    -0.237 OA
ATOM     95  O   UNL A   1      46.293  26.130  39.224  1.00  0.00    -0.744 OA
ENDBRANCH  88  92
ENDBRANCH  62  85
ENDBRANCH  36  37
ENDBRANCH  28  31
ENDBRANCH  26  27
ENDBRANCH   1  26
TORSDOF 16
ENDMDL
MODEL 2
REMARK VINA RESULT:     -12.0      5.520      8.704
REMARK SMILES Cc1cc(C)c(C(=O)N[C@@H]2C=C[C@@H](C(=O)NCCCCNC(=O)c3ccc(-c4c5nc(c(-c6cc(S(=O)(=O)[O-])ccc6F)c6ccc([nH]6)c(-c6cc(S(=O)(=O)[O-])ccc6F)c6nc(c(-c7cc(S(=O)(=O)[O-])ccc7F)c7ccc4[nH]7)C=C6)C=C5)cc3)C2)c(C)c1
REMARK SMILES IDX 19 1 18 2 17 3 16 4 14 5 15 6 13 8 10 9 11 10 87 11 12 12
REMARK SMILES IDX 9 13 7 14 8 15 6 17 1 18 2 19 3 20 90 21 4 22 88 23 5 24
REMARK SMILES IDX 89 25 20 26 21 27 22 28 23 30 24 31 25 32 86 33 26 34 85 35
REMARK SMILES IDX 27 36 28 37 29 38 79 39 30 40 84 41 78 42 80 43 31 44 83 45
REMARK SMILES IDX 77 46 76 47 32 49 64 50 44 51 63 52 45 53 48 54 62 55 81 56
REMARK SMILES IDX 46 57 47 58 61 60 82 61 49 62 33 63 34 64 42 65 35 66 41 67
REMARK SMILES IDX 43 68 40 69 36 70 37 71 38 72 39 73 65 74 66 75 74 76 67 77
REMARK SMILES IDX 73 78 75 79 72 80 68 81 69 82 70 83 71 84 50 85 51 86 59 87
REMARK SMILES IDX 52 88 58 89 60 90 57 91 53 92 54 93 55 94 56 95
REMARK H PARENT 16 7 9 16 21 29 80 48 48 59
REMARK Flexibility Score: inf
ROOT
ATOM      1  C   UNL A   1      35.387  21.938  24.859  1.00  0.00     0.023 C 
ENDROOT
BRANCH   1   2
ATOM      2  C   UNL A   1      34.364  20.981  25.469  1.00  0.00     0.023 C 
BRANCH   2   3
ATOM      3  C   UNL A   1      32.889  21.314  25.239  1.00  0.00     0.116 C 
BRANCH   3   4
ATOM      4  N   UNL A   1      32.308  22.018  26.364  1.00  0.00    -0.356 N 
ATOM      5  C   UNL A   1      31.903  23.299  26.549  1.00  0.00     0.227 C 
ATOM      6  O   UNL A   1      31.326  23.528  27.620  1.00  0.00    -0.274 OA
ATOM      7  H   UNL A   1      32.182  21.450  27.159  1.00  0.00     0.163 HD
BRANCH   5   8
ATOM      8  C   UNL A   1      32.190  24.478  25.598  1.00  0.00     0.103 C 
ATOM      9  C   UNL A   1      32.339  26.768  26.416  1.00  0.00     0.106 C 
ATOM     10  C   UNL A   1      33.624  26.336  25.783  1.00  0.00    -0.006 C 
ATOM     11  C   UNL A   1      31.349  25.718  25.918  1.00  0.00     0.047 C 
ATOM     12  C   UNL A   1      33.571  25.039  25.441  1.00  0.00    -0.016 C 
BRANCH   9  13
ATOM     13  N   UNL A   1      32.014  28.152  26.155  1.00  0.00    -0.346 N 
ATOM     14  C   UNL A   1      31.584  28.710  24.961  1.00  0.00     0.252 C 
ATOM     15  O   UNL A   1      31.105  29.839  24.944  1.00  0.00    -0.269 OA
ATOM     16  H   UNL A   1      32.111  28.771  26.914  1.00  0.00     0.164 HD
BRANCH  14  17
ATOM     17  C   UNL A   1      31.793  27.962  23.687  1.00  0.00     0.045 A 
ATOM     18  C   UNL A   1      32.813  24.972  20.765  1.00  0.00     0.044 C 
ATOM     19  C   UNL A   1      32.432  26.060  21.725  1.00  0.00    -0.051 A 
ATOM     20  C   UNL A   1      33.374  27.017  22.110  1.00  0.00     0.007 A 
ATOM     21  C   UNL A   1      31.118  26.185  22.186  1.00  0.00     0.007 A 
ATOM     22  C   UNL A   1      33.072  27.976  23.092  1.00  0.00    -0.038 A 
ATOM     23  C   UNL A   1      30.770  27.173  23.125  1.00  0.00    -0.038 A 
ATOM     24  C   UNL A   1      34.091  29.052  23.357  1.00  0.00     0.045 C 
ATOM     25  C   UNL A   1      29.321  27.366  23.470  1.00  0.00     0.045 C 
ENDBRANCH  14  17
ENDBRANCH   9  13
ENDBRANCH   5   8
ENDBRANCH   3   4
ENDBRANCH   2   3
ENDBRANCH   1   2
BRANCH   1  26
ATOM     26  C   UNL A   1      36.542  22.334  25.766  1.00  0.00     0.116 C 
BRANCH  26  27
ATOM     27  N   UNL A   1      37.583  21.323  25.847  1.00  0.00    -0.352 N 
ATOM     28  C   UNL A   1      38.912  21.461  26.173  1.00  0.00     0.251 C 
ATOM     29  H   UNL A   1      37.296  20.405  25.636  1.00  0.00     0.163 HD
ATOM     30  O   UNL A   1      39.661  20.490  26.054  1.00  0.00    -0.269 OA
BRANCH  28  31
ATOM     31  C   UNL A   1      39.447  22.767  26.625  1.00  0.00     0.039 A 
ATOM     32  C   UNL A   1      40.420  22.786  27.628  1.00  0.00     0.014 A 
ATOM     33  C   UNL A   1      39.002  23.968  26.068  1.00  0.00     0.014 A 
ATOM     34  C   UNL A   1      40.979  24.002  28.029  1.00  0.00     0.010 A 
ATOM     35  C   UNL A   1      39.636  25.164  26.391  1.00  0.00     0.010 A 
ATOM     36  C   UNL A   1      40.618  25.200  27.391  1.00  0.00    -0.014 A 
BRANCH  36  37
ATOM     37  C   UNL A   1      41.235  26.495  27.785  1.00  0.00     0.031 A 
ATOM     38  C   UNL A   1      42.654  26.810  27.390  1.00  0.00     0.074 A 
ATOM     39  C   UNL A   1      40.533  27.368  28.535  1.00  0.00     0.049 A 
ATOM     40  N   UNL A   1      43.369  27.877  27.643  1.00  0.00    -0.248 NA
ATOM     41  C   UNL A   1      43.379  25.769  26.648  1.00  0.00     0.031 C 
ATOM     42  C   UNL A   1      39.178  27.145  29.043  1.00  0.00     0.029 A 
ATOM     43  N   UNL A   1      40.860  28.616  29.004  1.00  0.00    -0.354 N 
ATOM     44  C   UNL A   1      44.629  27.627  27.106  1.00  0.00     0.074 A 
ATOM     45  C   UNL A   1      44.599  26.276  26.589  1.00  0.00     0.031 C 
ATOM     46  C   UNL A   1      38.778  28.231  29.723  1.00  0.00     0.029 A 
ATOM     47  C   UNL A   1      39.859  29.211  29.736  1.00  0.00     0.049 A 
ATOM     48  H   UNL A   1      41.729  29.045  28.834  1.00  0.00     0.167 HD
ATOM     49  C   UNL A   1      45.700  28.456  27.026  1.00  0.00     0.034 A 
ATOM     50  C   UNL A   1      39.816  30.408  30.353  1.00  0.00     0.034 A 
ATOM     51  C   UNL A   1      45.702  29.805  27.541  1.00  0.00     0.049 A 
ATOM     52  C   UNL A   1      41.006  31.324  30.238  1.00  0.00     0.074 A 
ATOM     53  C   UNL A   1      46.698  30.761  27.453  1.00  0.00     0.029 A 
ATOM     54  N   UNL A   1      44.660  30.384  28.258  1.00  0.00    -0.354 N 
ATOM     55  N   UNL A   1      42.162  31.109  29.651  1.00  0.00    -0.248 NA
ATOM     56  C   UNL A   1      40.876  32.652  30.847  1.00  0.00     0.031 C 
ATOM     57  C   UNL A   1      46.295  31.883  28.187  1.00  0.00     0.029 A 
ATOM     58  C   UNL A   1      45.006  31.670  28.651  1.00  0.00     0.049 A 
ATOM     59  H   UNL A   1      43.802  29.947  28.458  1.00  0.00     0.167 HD
ATOM     60  C   UNL A   1      42.889  32.287  29.799  1.00  0.00     0.074 A 
ATOM     61  C   UNL A   1      42.028  33.213  30.509  1.00  0.00     0.031 C 
ATOM     62  C   UNL A   1      44.150  32.578  29.383  1.00  0.00     0.034 A 
BRANCH  49  63
ATOM     63  C   UNL A   1      46.959  27.903  26.390  1.00  0.00     0.023 A 
ATOM     64  C   UNL A   1      47.273  28.134  25.038  1.00  0.00     0.031 A 
ATOM     65  C   UNL A   1      47.829  27.085  27.131  1.00  0.00     0.131 A 
ATOM     66  C   UNL A   1      48.358  27.470  24.444  1.00  0.00     0.055 A 
ATOM     67  C   UNL A   1      48.967  26.509  26.559  1.00  0.00     0.041 A 
ATOM     68  F   UNL A   1      47.579  26.807  28.419  1.00  0.00    -0.206 F 
ATOM     69  C   UNL A   1      49.225  26.681  25.203  1.00  0.00     0.022 A 
BRANCH  66  70
ATOM     70  S   UNL A   1      48.504  27.497  22.636  1.00  0.00     0.124 S 
ATOM     71  O   UNL A   1      47.311  28.251  22.254  1.00  0.00    -0.237 OA
ATOM     72  O   UNL A   1      49.780  28.175  22.432  1.00  0.00    -0.237 OA
ATOM     73  O   UNL A   1      48.480  26.083  22.268  1.00  0.00    -0.744 OA
ENDBRANCH  66  70
ENDBRANCH  49  63
BRANCH  50  74
ATOM     74  C   UNL A   1      38.608  30.803  31.135  1.00  0.00     0.023 A 
ATOM     75  C   UNL A   1      37.518  31.448  30.530  1.00  0.00     0.031 A 
ATOM     76  C   UNL A   1      38.534  30.540  32.515  1.00  0.00     0.131 A 
ATOM     77  C   UNL A   1      36.416  31.839  31.309  1.00  0.00     0.055 A 
ATOM     78  C   UNL A   1      37.415  30.883  33.275  1.00  0.00     0.041 A 
ATOM     79  F   UNL A   1      39.546  29.918  33.142  1.00  0.00    -0.206 F 
ATOM     80  C   UNL A   1      36.351  31.546  32.673  1.00  0.00     0.022 A 
BRANCH  77  81
ATOM     81  S   UNL A   1      35.086  32.794  30.525  1.00  0.00     0.124 S 
ATOM     82  O   UNL A   1      34.122  32.910  31.612  1.00  0.00    -0.237 OA
ATOM     83  O   UNL A   1      35.779  34.021  30.146  1.00  0.00    -0.237 OA
ATOM     84  O   UNL A   1      34.672  31.946  29.408  1.00  0.00    -0.744 OA
ENDBRANCH  77  81
ENDBRANCH  50  74
BRANCH  62  85
ATOM     85  C   UNL A   1      44.654  33.976  29.657  1.00  0.00     0.023 A 
ATOM     86  C   UNL A   1      44.438  35.034  28.756  1.00  0.00     0.031 A 
ATOM     87  C   UNL A   1      45.395  34.247  30.822  1.00  0.00     0.131 A 
ATOM     88  C   UNL A   1      45.027  36.286  28.992  1.00  0.00     0.055 A 
ATOM     89  C   UNL A   1      45.909  35.516  31.091  1.00  0.00     0.041 A 
ATOM     90  F   UNL A   1      45.639  33.277  31.718  1.00  0.00    -0.206 F 
ATOM     91  C   UNL A   1      45.744  36.540  30.163  1.00  0.00     0.022 A 
BRANCH  88  92
ATOM     92  S   UNL A   1      44.965  37.536  27.678  1.00  0.00     0.124 S 
ATOM     93  O   UNL A   1      44.908  38.776  28.445  1.00  0.00    -0.237 OA
ATOM     94  O   UNL A   1      46.208  37.289  26.955  1.00  0.00    -0.237 OA
ATOM     95  O   UNL A   1      43.744  37.203  26.947  1.00  0.00    -0.744 OA
ENDBRANCH  88  92
ENDBRANCH  62  85
ENDBRANCH  36  37
ENDBRANCH  28  31
ENDBRANCH  26  27
ENDBRANCH   1  26
TORSDOF 16
ENDMDL
MODEL 3
REMARK VINA RESULT:     -12.0      4.888      8.203
REMARK SMILES Cc1cc(C)c(C(=O)N[C@@H]2C=C[C@@H](C(=O)NCCCCNC(=O)c3ccc(-c4c5nc(c(-c6cc(S(=O)(=O)[O-])ccc6F)c6ccc([nH]6)c(-c6cc(S(=O)(=O)[O-])ccc6F)c6nc(c(-c7cc(S(=O)(=O)[O-])ccc7F)c7ccc4[nH]7)C=C6)C=C5)cc3)C2)c(C)c1
REMARK SMILES IDX 19 1 18 2 17 3 16 4 14 5 15 6 13 8 10 9 11 10 87 11 12 12
REMARK SMILES IDX 9 13 7 14 8 15 6 17 1 18 2 19 3 20 90 21 4 22 88 23 5 24
REMARK SMILES IDX 89 25 20 26 21 27 22 28 23 30 24 31 25 32 86 33 26 34 85 35
REMARK SMILES IDX 27 36 28 37 29 38 79 39 30 40 84 41 78 42 80 43 31 44 83 45
REMARK SMILES IDX 77 46 76 47 32 49 64 50 44 51 63 52 45 53 48 54 62 55 81 56
REMARK SMILES IDX 46 57 47 58 61 60 82 61 49 62 33 63 34 64 42 65 35 66 41 67
REMARK SMILES IDX 43 68 40 69 36 70 37 71 38 72 39 73 65 74 66 75 74 76 67 77
REMARK SMILES IDX 73 78 75 79 72 80 68 81 69 82 70 83 71 84 50 85 51 86 59 87
REMARK SMILES IDX 52 88 58 89 60 90 57 91 53 92 54 93 55 94 56 95
REMARK H PARENT 16 7 9 16 21 29 80 48 48 59
REMARK Flexibility Score: inf
ROOT
ATOM      1  C   UNL A   1      35.497  22.662  25.136  1.00  0.00     0.023 C 
ENDROOT
BRANCH   1   2
ATOM      2  C   UNL A   1      34.547  22.185  26.233  1.00  0.00     0.023 C 
BRANCH   2   3
ATOM      3  C   UNL A   1      33.193  21.635  25.778  1.00  0.00     0.116 C 
BRANCH   3   4
ATOM      4  N   UNL A   1      32.115  22.060  26.645  1.00  0.00    -0.356 N 
ATOM      5  C   UNL A   1      31.401  23.210  26.745  1.00  0.00     0.227 C 
ATOM      6  O   UNL A   1      30.448  23.181  27.534  1.00  0.00    -0.274 OA
ATOM      7  H   UNL A   1      31.842  21.375  27.297  1.00  0.00     0.163 HD
BRANCH   5   8
ATOM      8  C   UNL A   1      31.743  24.541  26.046  1.00  0.00     0.103 C 
ATOM      9  C   UNL A   1      30.067  25.788  24.792  1.00  0.00     0.106 C 
ATOM     10  C   UNL A   1      30.600  26.596  25.932  1.00  0.00    -0.006 C 
ATOM     11  C   UNL A   1      31.097  24.668  24.662  1.00  0.00     0.047 C 
ATOM     12  C   UNL A   1      31.435  25.862  26.684  1.00  0.00    -0.016 C 
BRANCH   9  13
ATOM     13  N   UNL A   1      29.803  26.577  23.610  1.00  0.00    -0.346 N 
ATOM     14  C   UNL A   1      30.652  27.478  22.987  1.00  0.00     0.252 C 
ATOM     15  O   UNL A   1      30.399  27.886  21.858  1.00  0.00    -0.269 OA
ATOM     16  H   UNL A   1      28.915  26.461  23.201  1.00  0.00     0.164 HD
BRANCH  14  17
ATOM     17  C   UNL A   1      31.824  28.017  23.738  1.00  0.00     0.045 A 
ATOM     18  C   UNL A   1      34.731  28.912  26.781  1.00  0.00     0.044 C 
ATOM     19  C   UNL A   1      33.758  28.646  25.670  1.00  0.00    -0.051 A 
ATOM     20  C   UNL A   1      32.621  29.445  25.527  1.00  0.00     0.007 A 
ATOM     21  C   UNL A   1      34.009  27.654  24.717  1.00  0.00     0.007 A 
ATOM     22  C   UNL A   1      31.641  29.144  24.566  1.00  0.00    -0.038 A 
ATOM     23  C   UNL A   1      33.074  27.369  23.706  1.00  0.00    -0.038 A 
ATOM     24  C   UNL A   1      30.514  30.124  24.385  1.00  0.00     0.045 C 
ATOM     25  C   UNL A   1      33.457  26.406  22.617  1.00  0.00     0.045 C 
ENDBRANCH  14  17
ENDBRANCH   9  13
ENDBRANCH   5   8
ENDBRANCH   3   4
ENDBRANCH   2   3
ENDBRANCH   1   2
BRANCH   1  26
ATOM     26  C   UNL A   1      36.761  23.358  25.616  1.00  0.00     0.116 C 
BRANCH  26  27
ATOM     27  N   UNL A   1      37.847  22.438  25.914  1.00  0.00    -0.352 N 
ATOM     28  C   UNL A   1      39.092  22.697  26.437  1.00  0.00     0.251 C 
ATOM     29  H   UNL A   1      37.664  21.492  25.712  1.00  0.00     0.163 HD
ATOM     30  O   UNL A   1      39.919  21.785  26.490  1.00  0.00    -0.269 OA
BRANCH  28  31
ATOM     31  C   UNL A   1      39.452  24.059  26.894  1.00  0.00     0.039 A 
ATOM     32  C   UNL A   1      39.279  24.386  28.242  1.00  0.00     0.014 A 
ATOM     33  C   UNL A   1      39.959  25.014  26.010  1.00  0.00     0.014 A 
ATOM     34  C   UNL A   1      39.665  25.646  28.706  1.00  0.00     0.010 A 
ATOM     35  C   UNL A   1      40.442  26.227  26.493  1.00  0.00     0.010 A 
ATOM     36  C   UNL A   1      40.282  26.568  27.843  1.00  0.00    -0.014 A 
BRANCH  36  37
ATOM     37  C   UNL A   1      40.730  27.898  28.336  1.00  0.00     0.031 A 
ATOM     38  C   UNL A   1      42.198  28.233  28.386  1.00  0.00     0.074 A 
ATOM     39  C   UNL A   1      39.818  28.787  28.779  1.00  0.00     0.049 A 
ATOM     40  N   UNL A   1      42.785  29.331  28.787  1.00  0.00    -0.248 NA
ATOM     41  C   UNL A   1      43.130  27.177  27.967  1.00  0.00     0.031 C 
ATOM     42  C   UNL A   1      38.375  28.550  28.852  1.00  0.00     0.029 A 
ATOM     43  N   UNL A   1      39.968  30.065  29.255  1.00  0.00    -0.354 N 
ATOM     44  C   UNL A   1      44.152  29.091  28.686  1.00  0.00     0.074 A 
ATOM     45  C   UNL A   1      44.301  27.716  28.263  1.00  0.00     0.031 C 
ATOM     46  C   UNL A   1      37.770  29.657  29.310  1.00  0.00     0.029 A 
ATOM     47  C   UNL A   1      38.781  30.668  29.603  1.00  0.00     0.049 A 
ATOM     48  H   UNL A   1      40.842  30.510  29.340  1.00  0.00     0.167 HD
ATOM     49  C   UNL A   1      45.186  29.945  28.897  1.00  0.00     0.034 A 
ATOM     50  C   UNL A   1      38.533  31.892  30.108  1.00  0.00     0.034 A 
ATOM     51  C   UNL A   1      45.010  31.318  29.309  1.00  0.00     0.049 A 
ATOM     52  C   UNL A   1      39.689  32.835  30.318  1.00  0.00     0.074 A 
ATOM     53  C   UNL A   1      45.972  32.296  29.482  1.00  0.00     0.029 A 
ATOM     54  N   UNL A   1      43.790  31.902  29.631  1.00  0.00    -0.354 N 
ATOM     55  N   UNL A   1      40.973  32.624  30.133  1.00  0.00    -0.248 NA
ATOM     56  C   UNL A   1      39.360  34.188  30.779  1.00  0.00     0.031 C 
ATOM     57  C   UNL A   1      45.347  33.442  29.988  1.00  0.00     0.029 A 
ATOM     58  C   UNL A   1      43.981  33.215  30.039  1.00  0.00     0.049 A 
ATOM     59  H   UNL A   1      42.917  31.451  29.578  1.00  0.00     0.167 HD
ATOM     60  C   UNL A   1      41.604  33.828  30.433  1.00  0.00     0.074 A 
ATOM     61  C   UNL A   1      40.553  34.764  30.786  1.00  0.00     0.031 C 
ATOM     62  C   UNL A   1      42.929  34.134  30.415  1.00  0.00     0.034 A 
BRANCH  49  63
ATOM     63  C   UNL A   1      46.586  29.398  28.717  1.00  0.00     0.023 A 
ATOM     64  C   UNL A   1      47.145  29.184  27.443  1.00  0.00     0.031 A 
ATOM     65  C   UNL A   1      47.354  29.029  29.835  1.00  0.00     0.131 A 
ATOM     66  C   UNL A   1      48.376  28.523  27.316  1.00  0.00     0.055 A 
ATOM     67  C   UNL A   1      48.626  28.464  29.704  1.00  0.00     0.041 A 
ATOM     68  F   UNL A   1      46.875  29.186  31.078  1.00  0.00    -0.206 F 
ATOM     69  C   UNL A   1      49.135  28.187  28.439  1.00  0.00     0.022 A 
BRANCH  66  70
ATOM     70  S   UNL A   1      48.877  27.936  25.673  1.00  0.00     0.124 S 
ATOM     71  O   UNL A   1      49.104  26.514  25.923  1.00  0.00    -0.237 OA
ATOM     72  O   UNL A   1      47.716  28.264  24.854  1.00  0.00    -0.237 OA
ATOM     73  O   UNL A   1      50.084  28.709  25.386  1.00  0.00    -0.744 OA
ENDBRANCH  66  70
ENDBRANCH  49  63
BRANCH  50  74
ATOM     74  C   UNL A   1      37.137  32.291  30.450  1.00  0.00     0.023 A 
ATOM     75  C   UNL A   1      36.261  32.809  29.484  1.00  0.00     0.031 A 
ATOM     76  C   UNL A   1      36.662  32.163  31.769  1.00  0.00     0.131 A 
ATOM     77  C   UNL A   1      34.966  33.209  29.855  1.00  0.00     0.055 A 
ATOM     78  C   UNL A   1      35.358  32.513  32.122  1.00  0.00     0.041 A 
ATOM     79  F   UNL A   1      37.456  31.666  32.730  1.00  0.00    -0.206 F 
ATOM     80  C   UNL A   1      34.505  33.050  31.164  1.00  0.00     0.022 A 
BRANCH  77  81
ATOM     81  S   UNL A   1      33.907  34.002  28.613  1.00  0.00     0.124 S 
ATOM     82  O   UNL A   1      34.836  34.928  27.976  1.00  0.00    -0.237 OA
ATOM     83  O   UNL A   1      33.481  32.862  27.807  1.00  0.00    -0.237 OA
ATOM     84  O   UNL A   1      32.853  34.623  29.413  1.00  0.00    -0.744 OA
ENDBRANCH  77  81
ENDBRANCH  50  74
BRANCH  62  85
ATOM     85  C   UNL A   1      43.305  35.558  30.753  1.00  0.00     0.023 A 
ATOM     86  C   UNL A   1      43.420  36.001  32.083  1.00  0.00     0.031 A 
ATOM     87  C   UNL A   1      43.516  36.498  29.727  1.00  0.00     0.131 A 
ATOM     88  C   UNL A   1      43.652  37.360  32.351  1.00  0.00     0.055 A 
ATOM     89  C   UNL A   1      43.827  37.831  30.000  1.00  0.00     0.041 A 
ATOM     90  F   UNL A   1      43.415  36.137  28.437  1.00  0.00    -0.206 F 
ATOM     91  C   UNL A   1      43.877  38.273  31.318  1.00  0.00     0.022 A 
BRANCH  88  92
ATOM     92  S   UNL A   1      43.513  37.943  34.063  1.00  0.00     0.124 S 
ATOM     93  O   UNL A   1      42.952  39.277  33.882  1.00  0.00    -0.237 OA
ATOM     94  O   UNL A   1      42.623  36.951  34.658  1.00  0.00    -0.237 OA
ATOM     95  O   UNL A   1      44.891  37.910  34.548  1.00  0.00    -0.744 OA
ENDBRANCH  88  92
ENDBRANCH  62  85
ENDBRANCH  36  37
ENDBRANCH  28  31
ENDBRANCH  26  27
ENDBRANCH   1  26
TORSDOF 16
ENDMDL
