MODEL 1
REMARK VINA RESULT:     -11.0      0.000      0.000
REMARK SMILES C[C@@H](C(=O)NCCCCNC(=O)c1ccc(-c2c3nc(c(-c4cc(S(=O)(=O)[O-])ccc4F)c4ccc([nH]4)c(-c4cc(S(=O)(=O)[O-])ccc4F)c4nc(c(-c5cc(S(=O)(=O)[O-])ccc5F)c5ccc2[nH]5)C=C4)C=C3)cc1)c1ccc(Cc2ccsc2)cc1F
REMARK SMILES IDX 7 1 6 2 5 3 3 4 4 5 2 7 1 8 76 9 77 10 87 11 78 12 86 13
REMARK SMILES IDX 88 14 79 15 80 16 81 17 82 18 85 19 83 20 84 21 8 22 9 23
REMARK SMILES IDX 10 24 11 25 12 27 13 28 14 29 75 30 15 31 74 32 16 33 17 34
REMARK SMILES IDX 18 35 68 36 19 37 73 38 67 39 69 40 20 41 72 42 66 43 65 44
REMARK SMILES IDX 21 46 53 47 33 48 52 49 34 50 37 51 51 52 70 53 35 54 36 55
REMARK SMILES IDX 50 57 71 58 38 59 22 60 23 61 31 62 24 63 30 64 32 65 29 66
REMARK SMILES IDX 25 67 26 68 27 69 28 70 54 71 55 72 63 73 56 74 62 75 64 76
REMARK SMILES IDX 61 77 57 78 58 79 59 80 60 81 39 82 40 83 48 84 41 85 47 86
REMARK SMILES IDX 49 87 46 88 42 89 43 90 44 91 45 92
REMARK H PARENT 5 6 10 26 69 45 37 56
REMARK Flexibility Score: inf
ROOT
ATOM      1  C   UNL A   1      36.917  19.819  24.970  1.00  0.00     0.023 C 
ENDROOT
BRANCH   1   2
ATOM      2  C   UNL A   1      36.391  21.257  24.975  1.00  0.00     0.116 C 
BRANCH   2   3
ATOM      3  N   UNL A   1      35.018  21.304  24.520  1.00  0.00    -0.356 N 
ATOM      4  C   UNL A   1      33.911  21.836  25.113  1.00  0.00     0.227 C 
ATOM      5  O   UNL A   1      32.832  21.621  24.555  1.00  0.00    -0.274 OA
ATOM      6  H   UNL A   1      34.858  20.885  23.643  1.00  0.00     0.163 HD
BRANCH   4   7
ATOM      7  C   UNL A   1      34.041  22.682  26.392  1.00  0.00     0.108 C 
ATOM      8  C   UNL A   1      33.375  22.032  27.609  1.00  0.00     0.023 C 
BRANCH   7   9
ATOM      9  C   UNL A   1      33.464  24.081  26.205  1.00  0.00    -0.000 A 
ATOM     10  C   UNL A   1      32.152  24.375  26.601  1.00  0.00     0.008 A 
ATOM     11  C   UNL A   1      34.226  25.109  25.650  1.00  0.00     0.127 A 
ATOM     12  C   UNL A   1      31.640  25.666  26.479  1.00  0.00     0.004 A 
ATOM     13  C   UNL A   1      33.712  26.400  25.500  1.00  0.00     0.043 A 
ATOM     14  F   UNL A   1      35.495  24.879  25.277  1.00  0.00    -0.207 F 
ATOM     15  C   UNL A   1      32.407  26.698  25.919  1.00  0.00    -0.041 A 
BRANCH  15  16
ATOM     16  C   UNL A   1      31.862  28.104  25.840  1.00  0.00     0.072 C 
BRANCH  16  17
ATOM     17  C   UNL A   1      31.242  28.307  24.485  1.00  0.00    -0.033 A 
ATOM     18  C   UNL A   1      31.127  27.313  23.450  1.00  0.00     0.015 A 
ATOM     19  C   UNL A   1      30.614  29.476  24.086  1.00  0.00     0.068 A 
ATOM     20  C   UNL A   1      30.462  27.768  22.333  1.00  0.00     0.065 A 
ATOM     21  S   UNL A   1      29.934  29.379  22.520  1.00  0.00    -0.152 S 
ENDBRANCH  16  17
ENDBRANCH  15  16
ENDBRANCH   7   9
ENDBRANCH   4   7
ENDBRANCH   2   3
ENDBRANCH   1   2
BRANCH   1  22
ATOM     22  C   UNL A   1      38.426  19.693  24.735  1.00  0.00     0.023 C 
BRANCH  22  23
ATOM     23  C   UNL A   1      39.299  20.070  25.926  1.00  0.00     0.116 C 
BRANCH  23  24
ATOM     24  N   UNL A   1      40.521  19.288  25.990  1.00  0.00    -0.352 N 
ATOM     25  C   UNL A   1      41.811  19.711  26.191  1.00  0.00     0.251 C 
ATOM     26  H   UNL A   1      40.408  18.317  25.872  1.00  0.00     0.163 HD
ATOM     27  O   UNL A   1      42.734  18.911  26.044  1.00  0.00    -0.269 OA
BRANCH  25  28
ATOM     28  C   UNL A   1      42.089  21.118  26.550  1.00  0.00     0.039 A 
ATOM     29  C   UNL A   1      42.215  21.454  27.901  1.00  0.00     0.014 A 
ATOM     30  C   UNL A   1      42.206  22.110  25.572  1.00  0.00     0.014 A 
ATOM     31  C   UNL A   1      42.490  22.774  28.265  1.00  0.00     0.010 A 
ATOM     32  C   UNL A   1      42.565  23.406  25.932  1.00  0.00     0.010 A 
ATOM     33  C   UNL A   1      42.689  23.758  27.283  1.00  0.00    -0.014 A 
BRANCH  33  34
ATOM     34  C   UNL A   1      42.975  25.167  27.664  1.00  0.00     0.031 A 
ATOM     35  C   UNL A   1      44.360  25.731  27.480  1.00  0.00     0.074 A 
ATOM     36  C   UNL A   1      41.999  25.927  28.197  1.00  0.00     0.049 A 
ATOM     37  N   UNL A   1      44.811  26.927  27.754  1.00  0.00    -0.248 NA
ATOM     38  C   UNL A   1      45.380  24.816  26.944  1.00  0.00     0.031 C 
ATOM     39  C   UNL A   1      40.630  25.480  28.463  1.00  0.00     0.029 A 
ATOM     40  N   UNL A   1      42.004  27.238  28.606  1.00  0.00    -0.354 N 
ATOM     41  C   UNL A   1      46.167  26.905  27.441  1.00  0.00     0.074 A 
ATOM     42  C   UNL A   1      46.476  25.555  27.023  1.00  0.00     0.031 C 
ATOM     43  C   UNL A   1      39.917  26.510  28.949  1.00  0.00     0.029 A 
ATOM     44  C   UNL A   1      40.785  27.677  29.070  1.00  0.00     0.049 A 
ATOM     45  H   UNL A   1      42.804  27.810  28.571  1.00  0.00     0.167 HD
ATOM     46  C   UNL A   1      47.064  27.922  27.471  1.00  0.00     0.034 A 
ATOM     47  C   UNL A   1      40.410  28.884  29.540  1.00  0.00     0.034 A 
ATOM     48  C   UNL A   1      46.733  29.267  27.875  1.00  0.00     0.049 A 
ATOM     49  C   UNL A   1      41.429  29.996  29.577  1.00  0.00     0.074 A 
ATOM     50  C   UNL A   1      47.545  30.388  27.889  1.00  0.00     0.029 A 
ATOM     51  N   UNL A   1      45.490  29.673  28.347  1.00  0.00    -0.354 N 
ATOM     52  N   UNL A   1      42.693  29.975  29.217  1.00  0.00    -0.248 NA
ATOM     53  C   UNL A   1      40.965  31.299  30.067  1.00  0.00     0.031 C 
ATOM     54  C   UNL A   1      46.818  31.449  28.440  1.00  0.00     0.029 A 
ATOM     55  C   UNL A   1      45.525  31.018  28.685  1.00  0.00     0.049 A 
ATOM     56  H   UNL A   1      44.700  29.091  28.429  1.00  0.00     0.167 HD
ATOM     57  C   UNL A   1      43.160  31.275  29.398  1.00  0.00     0.074 A 
ATOM     58  C   UNL A   1      42.038  32.052  29.884  1.00  0.00     0.031 C 
ATOM     59  C   UNL A   1      44.400  31.782  29.176  1.00  0.00     0.034 A 
BRANCH  46  60
ATOM     60  C   UNL A   1      48.492  27.603  27.086  1.00  0.00     0.023 A 
ATOM     61  C   UNL A   1      48.978  27.823  25.784  1.00  0.00     0.031 A 
ATOM     62  C   UNL A   1      49.373  27.038  28.026  1.00  0.00     0.131 A 
ATOM     63  C   UNL A   1      50.271  27.404  25.437  1.00  0.00     0.055 A 
ATOM     64  C   UNL A   1      50.689  26.707  27.698  1.00  0.00     0.041 A 
ATOM     65  F   UNL A   1      48.964  26.782  29.278  1.00  0.00    -0.206 F 
ATOM     66  C   UNL A   1      51.140  26.873  26.392  1.00  0.00     0.022 A 
BRANCH  63  67
ATOM     67  S   UNL A   1      50.743  27.412  23.685  1.00  0.00     0.124 S 
ATOM     68  O   UNL A   1      50.901  28.842  23.428  1.00  0.00    -0.237 OA
ATOM     69  O   UNL A   1      51.971  26.624  23.685  1.00  0.00    -0.237 OA
ATOM     70  O   UNL A   1      49.601  26.790  23.018  1.00  0.00    -0.744 OA
ENDBRANCH  63  67
ENDBRANCH  46  60
BRANCH  47  71
ATOM     71  C   UNL A   1      39.010  29.120  29.998  1.00  0.00     0.023 A 
ATOM     72  C   UNL A   1      38.065  29.725  29.155  1.00  0.00     0.031 A 
ATOM     73  C   UNL A   1      38.610  28.792  31.306  1.00  0.00     0.131 A 
ATOM     74  C   UNL A   1      36.786  30.033  29.642  1.00  0.00     0.055 A 
ATOM     75  C   UNL A   1      37.317  29.047  31.768  1.00  0.00     0.041 A 
ATOM     76  F   UNL A   1      39.471  28.207  32.154  1.00  0.00    -0.206 F 
ATOM     77  C   UNL A   1      36.401  29.686  30.938  1.00  0.00     0.022 A 
BRANCH  74  78
ATOM     78  S   UNL A   1      35.659  30.984  28.584  1.00  0.00     0.124 S 
ATOM     79  O   UNL A   1      34.905  31.751  29.569  1.00  0.00    -0.237 OA
ATOM     80  O   UNL A   1      36.591  31.743  27.756  1.00  0.00    -0.237 OA
ATOM     81  O   UNL A   1      34.901  29.951  27.882  1.00  0.00    -0.744 OA
ENDBRANCH  74  78
ENDBRANCH  47  71
BRANCH  59  82
ATOM     82  C   UNL A   1      44.586  33.265  29.403  1.00  0.00     0.023 A 
ATOM     83  C   UNL A   1      44.355  34.209  28.387  1.00  0.00     0.031 A 
ATOM     84  C   UNL A   1      45.032  33.736  30.651  1.00  0.00     0.131 A 
ATOM     85  C   UNL A   1      44.643  35.564  28.613  1.00  0.00     0.055 A 
ATOM     86  C   UNL A   1      45.244  35.093  30.894  1.00  0.00     0.041 A 
ATOM     87  F   UNL A   1      45.272  32.881  31.659  1.00  0.00    -0.206 F 
ATOM     88  C   UNL A   1      45.067  36.014  29.866  1.00  0.00     0.022 A 
BRANCH  85  89
ATOM     89  S   UNL A   1      44.575  36.713  27.211  1.00  0.00     0.124 S 
ATOM     90  O   UNL A   1      43.260  36.427  26.647  1.00  0.00    -0.237 OA
ATOM     91  O   UNL A   1      44.721  38.010  27.864  1.00  0.00    -0.237 OA
ATOM     92  O   UNL A   1      45.707  36.307  26.380  1.00  0.00    -0.744 OA
ENDBRANCH  85  89
ENDBRANCH  59  82
ENDBRANCH  33  34
ENDBRANCH  25  28
ENDBRANCH  23  24
ENDBRANCH  22  23
ENDBRANCH   1  22
TORSDOF 17
ENDMDL
MODEL 2
REMARK VINA RESULT:     -11.0      6.375      9.859
REMARK SMILES C[C@@H](C(=O)NCCCCNC(=O)c1ccc(-c2c3nc(c(-c4cc(S(=O)(=O)[O-])ccc4F)c4ccc([nH]4)c(-c4cc(S(=O)(=O)[O-])ccc4F)c4nc(c(-c5cc(S(=O)(=O)[O-])ccc5F)c5ccc2[nH]5)C=C4)C=C3)cc1)c1ccc(Cc2ccsc2)cc1F
REMARK SMILES IDX 7 1 6 2 5 3 3 4 4 5 2 7 1 8 76 9 77 10 87 11 78 12 86 13
REMARK SMILES IDX 88 14 79 15 80 16 81 17 82 18 85 19 83 20 84 21 8 22 9 23
REMARK SMILES IDX 10 24 11 25 12 27 13 28 14 29 75 30 15 31 74 32 16 33 17 34
REMARK SMILES IDX 18 35 68 36 19 37 73 38 67 39 69 40 20 41 72 42 66 43 65 44
REMARK SMILES IDX 21 46 53 47 33 48 52 49 34 50 37 51 51 52 70 53 35 54 36 55
REMARK SMILES IDX 50 57 71 58 38 59 22 60 23 61 31 62 24 63 30 64 32 65 29 66
REMARK SMILES IDX 25 67 26 68 27 69 28 70 54 71 55 72 63 73 56 74 62 75 64 76
REMARK SMILES IDX 61 77 57 78 58 79 59 80 60 81 39 82 40 83 48 84 41 85 47 86
REMARK SMILES IDX 49 87 46 88 42 89 43 90 44 91 45 92
REMARK H PARENT 5 6 10 26 69 45 37 56
REMARK Flexibility Score: inf
ROOT
ATOM      1  C   UNL A   1      31.645  30.485  26.762  1.00  0.00     0.023 C 
ENDROOT
BRANCH   1   2
ATOM      2  C   UNL A   1      32.529  29.985  25.616  1.00  0.00     0.116 C 
BRANCH   2   3
ATOM      3  N   UNL A   1      31.735  29.703  24.439  1.00  0.00    -0.356 N 
ATOM      4  C   UNL A   1      31.956  28.831  23.415  1.00  0.00     0.227 C 
ATOM      5  O   UNL A   1      31.170  28.886  22.467  1.00  0.00    -0.274 OA
ATOM      6  H   UNL A   1      30.903  30.226  24.367  1.00  0.00     0.163 HD
BRANCH   4   7
ATOM      7  C   UNL A   1      33.115  27.820  23.488  1.00  0.00     0.108 C 
ATOM      8  C   UNL A   1      33.679  27.457  22.110  1.00  0.00     0.023 C 
BRANCH   7   9
ATOM      9  C   UNL A   1      32.701  26.537  24.202  1.00  0.00    -0.000 A 
ATOM     10  C   UNL A   1      31.743  25.681  23.643  1.00  0.00     0.008 A 
ATOM     11  C   UNL A   1      33.275  26.172  25.421  1.00  0.00     0.127 A 
ATOM     12  C   UNL A   1      31.403  24.482  24.269  1.00  0.00     0.004 A 
ATOM     13  C   UNL A   1      32.919  24.985  26.068  1.00  0.00     0.043 A 
ATOM     14  F   UNL A   1      34.213  26.950  25.981  1.00  0.00    -0.207 F 
ATOM     15  C   UNL A   1      31.977  24.118  25.495  1.00  0.00    -0.041 A 
BRANCH  15  16
ATOM     16  C   UNL A   1      31.642  22.793  26.138  1.00  0.00     0.072 C 
BRANCH  16  17
ATOM     17  C   UNL A   1      32.572  21.744  25.596  1.00  0.00    -0.033 A 
ATOM     18  C   UNL A   1      33.999  21.699  25.785  1.00  0.00     0.015 A 
ATOM     19  C   UNL A   1      32.155  20.618  24.905  1.00  0.00     0.068 A 
ATOM     20  C   UNL A   1      34.586  20.589  25.220  1.00  0.00     0.065 A 
ATOM     21  S   UNL A   1      33.436  19.566  24.486  1.00  0.00    -0.152 S 
ENDBRANCH  16  17
ENDBRANCH  15  16
ENDBRANCH   7   9
ENDBRANCH   4   7
ENDBRANCH   2   3
ENDBRANCH   1   2
BRANCH   1  22
ATOM     22  C   UNL A   1      31.530  32.009  26.861  1.00  0.00     0.023 C 
BRANCH  22  23
ATOM     23  C   UNL A   1      32.843  32.742  27.105  1.00  0.00     0.116 C 
BRANCH  23  24
ATOM     24  N   UNL A   1      32.644  34.087  27.616  1.00  0.00    -0.352 N 
ATOM     25  C   UNL A   1      33.232  34.699  28.695  1.00  0.00     0.251 C 
ATOM     26  H   UNL A   1      31.996  34.637  27.119  1.00  0.00     0.163 HD
ATOM     27  O   UNL A   1      32.805  35.790  29.071  1.00  0.00    -0.269 OA
BRANCH  25  28
ATOM     28  C   UNL A   1      34.343  34.041  29.414  1.00  0.00     0.039 A 
ATOM     29  C   UNL A   1      35.656  34.362  29.060  1.00  0.00     0.014 A 
ATOM     30  C   UNL A   1      34.103  33.097  30.419  1.00  0.00     0.014 A 
ATOM     31  C   UNL A   1      36.723  33.763  29.734  1.00  0.00     0.010 A 
ATOM     32  C   UNL A   1      35.165  32.567  31.146  1.00  0.00     0.010 A 
ATOM     33  C   UNL A   1      36.488  32.876  30.797  1.00  0.00    -0.014 A 
BRANCH  33  34
ATOM     34  C   UNL A   1      37.619  32.229  31.514  1.00  0.00     0.031 A 
ATOM     35  C   UNL A   1      38.407  31.133  30.845  1.00  0.00     0.074 A 
ATOM     36  C   UNL A   1      37.919  32.609  32.771  1.00  0.00     0.049 A 
ATOM     37  N   UNL A   1      39.420  30.443  31.302  1.00  0.00    -0.248 NA
ATOM     38  C   UNL A   1      37.977  30.741  29.494  1.00  0.00     0.031 C 
ATOM     39  C   UNL A   1      37.201  33.629  33.540  1.00  0.00     0.029 A 
ATOM     40  N   UNL A   1      38.907  32.187  33.625  1.00  0.00    -0.354 N 
ATOM     41  C   UNL A   1      39.738  29.527  30.304  1.00  0.00     0.074 A 
ATOM     42  C   UNL A   1      38.764  29.705  29.248  1.00  0.00     0.031 C 
ATOM     43  C   UNL A   1      37.800  33.784  34.731  1.00  0.00     0.029 A 
ATOM     44  C   UNL A   1      38.915  32.848  34.832  1.00  0.00     0.049 A 
ATOM     45  H   UNL A   1      39.551  31.479  33.395  1.00  0.00     0.167 HD
ATOM     46  C   UNL A   1      40.763  28.640  30.258  1.00  0.00     0.034 A 
ATOM     47  C   UNL A   1      39.729  32.714  35.898  1.00  0.00     0.034 A 
ATOM     48  C   UNL A   1      41.735  28.488  31.314  1.00  0.00     0.049 A 
ATOM     49  C   UNL A   1      40.854  31.712  35.830  1.00  0.00     0.074 A 
ATOM     50  C   UNL A   1      42.847  27.665  31.351  1.00  0.00     0.029 A 
ATOM     51  N   UNL A   1      41.706  29.169  32.526  1.00  0.00    -0.354 N 
ATOM     52  N   UNL A   1      41.180  30.896  34.853  1.00  0.00    -0.248 NA
ATOM     53  C   UNL A   1      41.731  31.625  37.003  1.00  0.00     0.031 C 
ATOM     54  C   UNL A   1      43.444  27.790  32.611  1.00  0.00     0.029 A 
ATOM     55  C   UNL A   1      42.761  28.759  33.328  1.00  0.00     0.049 A 
ATOM     56  H   UNL A   1      41.035  29.844  32.779  1.00  0.00     0.167 HD
ATOM     57  C   UNL A   1      42.328  30.232  35.280  1.00  0.00     0.074 A 
ATOM     58  C   UNL A   1      42.641  30.754  36.594  1.00  0.00     0.031 C 
ATOM     59  C   UNL A   1      43.060  29.282  34.642  1.00  0.00     0.034 A 
BRANCH  46  60
ATOM     60  C   UNL A   1      40.860  27.747  29.040  1.00  0.00     0.023 A 
ATOM     61  C   UNL A   1      41.801  27.980  28.021  1.00  0.00     0.031 A 
ATOM     62  C   UNL A   1      39.974  26.667  28.879  1.00  0.00     0.131 A 
ATOM     63  C   UNL A   1      41.779  27.202  26.854  1.00  0.00     0.055 A 
ATOM     64  C   UNL A   1      40.018  25.839  27.755  1.00  0.00     0.041 A 
ATOM     65  F   UNL A   1      39.038  26.405  29.804  1.00  0.00    -0.206 F 
ATOM     66  C   UNL A   1      40.913  26.115  26.725  1.00  0.00     0.022 A 
BRANCH  63  67
ATOM     67  S   UNL A   1      42.785  27.732  25.440  1.00  0.00     0.124 S 
ATOM     68  O   UNL A   1      41.894  28.687  24.784  1.00  0.00    -0.237 OA
ATOM     69  O   UNL A   1      43.964  28.299  26.086  1.00  0.00    -0.237 OA
ATOM     70  O   UNL A   1      43.015  26.494  24.698  1.00  0.00    -0.744 OA
ENDBRANCH  63  67
ENDBRANCH  46  60
BRANCH  47  71
ATOM     71  C   UNL A   1      39.532  33.553  37.116  1.00  0.00     0.023 A 
ATOM     72  C   UNL A   1      38.944  33.020  38.274  1.00  0.00     0.031 A 
ATOM     73  C   UNL A   1      39.879  34.916  37.123  1.00  0.00     0.131 A 
ATOM     74  C   UNL A   1      38.672  33.854  39.369  1.00  0.00     0.055 A 
ATOM     75  C   UNL A   1      39.660  35.729  38.237  1.00  0.00     0.041 A 
ATOM     76  F   UNL A   1      40.448  35.478  36.044  1.00  0.00    -0.206 F 
ATOM     77  C   UNL A   1      39.038  35.200  39.364  1.00  0.00     0.022 A 
BRANCH  74  78
ATOM     78  S   UNL A   1      37.741  33.171  40.770  1.00  0.00     0.124 S 
ATOM     79  O   UNL A   1      38.000  34.163  41.809  1.00  0.00    -0.237 OA
ATOM     80  O   UNL A   1      36.382  33.133  40.241  1.00  0.00    -0.237 OA
ATOM     81  O   UNL A   1      38.362  31.865  40.985  1.00  0.00    -0.744 OA
ENDBRANCH  74  78
ENDBRANCH  47  71
BRANCH  59  82
ATOM     82  C   UNL A   1      44.309  28.794  35.341  1.00  0.00     0.023 A 
ATOM     83  C   UNL A   1      44.273  27.765  36.298  1.00  0.00     0.031 A 
ATOM     84  C   UNL A   1      45.550  29.392  35.063  1.00  0.00     0.131 A 
ATOM     85  C   UNL A   1      45.440  27.419  36.996  1.00  0.00     0.055 A 
ATOM     86  C   UNL A   1      46.722  28.992  35.706  1.00  0.00     0.041 A 
ATOM     87  F   UNL A   1      45.646  30.382  34.160  1.00  0.00    -0.206 F 
ATOM     88  C   UNL A   1      46.667  28.012  36.693  1.00  0.00     0.022 A 
BRANCH  85  89
ATOM     89  S   UNL A   1      45.308  26.271  38.395  1.00  0.00     0.124 S 
ATOM     90  O   UNL A   1      44.302  25.327  37.919  1.00  0.00    -0.237 OA
ATOM     91  O   UNL A   1      46.668  25.754  38.502  1.00  0.00    -0.237 OA
ATOM     92  O   UNL A   1      44.881  27.126  39.502  1.00  0.00    -0.744 OA
ENDBRANCH  85  89
ENDBRANCH  59  82
ENDBRANCH  33  34
ENDBRANCH  25  28
ENDBRANCH  23  24
ENDBRANCH  22  23
ENDBRANCH   1  22
TORSDOF 17
ENDMDL
MODEL 3
REMARK VINA RESULT:     -10.9      5.468     10.435
REMARK SMILES C[C@@H](C(=O)NCCCCNC(=O)c1ccc(-c2c3nc(c(-c4cc(S(=O)(=O)[O-])ccc4F)c4ccc([nH]4)c(-c4cc(S(=O)(=O)[O-])ccc4F)c4nc(c(-c5cc(S(=O)(=O)[O-])ccc5F)c5ccc2[nH]5)C=C4)C=C3)cc1)c1ccc(Cc2ccsc2)cc1F
REMARK SMILES IDX 7 1 6 2 5 3 3 4 4 5 2 7 1 8 76 9 77 10 87 11 78 12 86 13
REMARK SMILES IDX 88 14 79 15 80 16 81 17 82 18 85 19 83 20 84 21 8 22 9 23
REMARK SMILES IDX 10 24 11 25 12 27 13 28 14 29 75 30 15 31 74 32 16 33 17 34
REMARK SMILES IDX 18 35 68 36 19 37 73 38 67 39 69 40 20 41 72 42 66 43 65 44
REMARK SMILES IDX 21 46 53 47 33 48 52 49 34 50 37 51 51 52 70 53 35 54 36 55
REMARK SMILES IDX 50 57 71 58 38 59 22 60 23 61 31 62 24 63 30 64 32 65 29 66
REMARK SMILES IDX 25 67 26 68 27 69 28 70 54 71 55 72 63 73 56 74 62 75 64 76
REMARK SMILES IDX 61 77 57 78 58 79 59 80 60 81 39 82 40 83 48 84 41 85 47 86
REMARK SMILES IDX 49 87 46 88 42 89 43 90 44 91 45 92
REMARK H PARENT 5 6 10 26 69 45 37 56
REMARK Flexibility Score: inf
ROOT
ATOM      1  C   UNL A   1      32.734  28.637  25.784  1.00  0.00     0.023 C 
ENDROOT
BRANCH   1   2
ATOM      2  C   UNL A   1      33.571  27.817  24.798  1.00  0.00     0.116 C 
BRANCH   2   3
ATOM      3  N   UNL A   1      33.606  26.424  25.187  1.00  0.00    -0.356 N 
ATOM      4  C   UNL A   1      33.075  25.326  24.578  1.00  0.00     0.227 C 
ATOM      5  O   UNL A   1      33.148  24.263  25.200  1.00  0.00    -0.274 OA
ATOM      6  H   UNL A   1      34.091  26.240  26.024  1.00  0.00     0.163 HD
BRANCH   4   7
ATOM      7  C   UNL A   1      32.455  25.435  23.173  1.00  0.00     0.108 C 
ATOM      8  C   UNL A   1      33.434  25.985  22.130  1.00  0.00     0.023 C 
BRANCH   7   9
ATOM      9  C   UNL A   1      31.201  26.304  23.176  1.00  0.00    -0.000 A 
ATOM     10  C   UNL A   1      31.140  27.480  22.415  1.00  0.00     0.008 A 
ATOM     11  C   UNL A   1      30.077  25.947  23.921  1.00  0.00     0.127 A 
ATOM     12  C   UNL A   1      29.977  28.246  22.375  1.00  0.00     0.004 A 
ATOM     13  C   UNL A   1      28.915  26.724  23.907  1.00  0.00     0.043 A 
ATOM     14  F   UNL A   1      30.082  24.817  24.645  1.00  0.00    -0.207 F 
ATOM     15  C   UNL A   1      28.848  27.888  23.127  1.00  0.00    -0.041 A 
BRANCH  15  16
ATOM     16  C   UNL A   1      27.575  28.695  23.035  1.00  0.00     0.072 C 
BRANCH  16  17
ATOM     17  C   UNL A   1      27.931  30.127  22.746  1.00  0.00    -0.033 A 
ATOM     18  C   UNL A   1      28.489  31.066  23.684  1.00  0.00     0.015 A 
ATOM     19  C   UNL A   1      27.847  30.710  21.492  1.00  0.00     0.068 A 
ATOM     20  C   UNL A   1      28.766  32.293  23.124  1.00  0.00     0.065 A 
ATOM     21  S   UNL A   1      28.399  32.329  21.458  1.00  0.00    -0.152 S 
ENDBRANCH  16  17
ENDBRANCH  15  16
ENDBRANCH   7   9
ENDBRANCH   4   7
ENDBRANCH   2   3
ENDBRANCH   1   2
BRANCH   1  22
ATOM     22  C   UNL A   1      33.221  30.073  25.996  1.00  0.00     0.023 C 
BRANCH  22  23
ATOM     23  C   UNL A   1      32.699  30.755  27.255  1.00  0.00     0.116 C 
BRANCH  23  24
ATOM     24  N   UNL A   1      32.842  32.200  27.206  1.00  0.00    -0.352 N 
ATOM     25  C   UNL A   1      33.817  32.992  27.757  1.00  0.00     0.251 C 
ATOM     26  H   UNL A   1      32.139  32.677  26.708  1.00  0.00     0.163 HD
ATOM     27  O   UNL A   1      33.671  34.215  27.749  1.00  0.00    -0.269 OA
BRANCH  25  28
ATOM     28  C   UNL A   1      35.012  32.385  28.378  1.00  0.00     0.039 A 
ATOM     29  C   UNL A   1      34.870  31.180  29.072  1.00  0.00     0.014 A 
ATOM     30  C   UNL A   1      36.266  33.001  28.302  1.00  0.00     0.014 A 
ATOM     31  C   UNL A   1      35.987  30.580  29.656  1.00  0.00     0.010 A 
ATOM     32  C   UNL A   1      37.391  32.359  28.811  1.00  0.00     0.010 A 
ATOM     33  C   UNL A   1      37.262  31.152  29.514  1.00  0.00    -0.014 A 
BRANCH  33  34
ATOM     34  C   UNL A   1      38.454  30.523  30.141  1.00  0.00     0.031 A 
ATOM     35  C   UNL A   1      38.868  30.914  31.535  1.00  0.00     0.074 A 
ATOM     36  C   UNL A   1      39.177  29.622  29.447  1.00  0.00     0.049 A 
ATOM     37  N   UNL A   1      39.876  30.488  32.252  1.00  0.00    -0.248 NA
ATOM     38  C   UNL A   1      38.057  31.947  32.200  1.00  0.00     0.031 C 
ATOM     39  C   UNL A   1      38.900  29.193  28.074  1.00  0.00     0.029 A 
ATOM     40  N   UNL A   1      40.289  28.898  29.801  1.00  0.00    -0.354 N 
ATOM     41  C   UNL A   1      39.830  31.208  33.442  1.00  0.00     0.074 A 
ATOM     42  C   UNL A   1      38.736  32.148  33.318  1.00  0.00     0.031 C 
ATOM     43  C   UNL A   1      39.790  28.252  27.720  1.00  0.00     0.029 A 
ATOM     44  C   UNL A   1      40.725  28.039  28.819  1.00  0.00     0.049 A 
ATOM     45  H   UNL A   1      40.731  28.986  30.676  1.00  0.00     0.167 HD
ATOM     46  C   UNL A   1      40.607  31.079  34.545  1.00  0.00     0.034 A 
ATOM     47  C   UNL A   1      41.762  27.177  28.808  1.00  0.00     0.034 A 
ATOM     48  C   UNL A   1      41.684  30.124  34.656  1.00  0.00     0.049 A 
ATOM     49  C   UNL A   1      42.622  27.061  30.042  1.00  0.00     0.074 A 
ATOM     50  C   UNL A   1      42.498  29.865  35.745  1.00  0.00     0.029 A 
ATOM     51  N   UNL A   1      42.102  29.275  33.639  1.00  0.00    -0.354 N 
ATOM     52  N   UNL A   1      42.526  27.705  31.183  1.00  0.00    -0.248 NA
ATOM     53  C   UNL A   1      43.719  26.087  29.991  1.00  0.00     0.031 C 
ATOM     54  C   UNL A   1      43.456  28.919  35.361  1.00  0.00     0.029 A 
ATOM     55  C   UNL A   1      43.184  28.518  34.064  1.00  0.00     0.049 A 
ATOM     56  H   UNL A   1      41.692  29.220  32.745  1.00  0.00     0.167 HD
ATOM     57  C   UNL A   1      43.526  27.179  31.999  1.00  0.00     0.074 A 
ATOM     58  C   UNL A   1      44.199  26.159  31.223  1.00  0.00     0.031 C 
ATOM     59  C   UNL A   1      43.853  27.506  33.277  1.00  0.00     0.034 A 
BRANCH  46  60
ATOM     60  C   UNL A   1      40.338  32.016  35.702  1.00  0.00     0.023 A 
ATOM     61  C   UNL A   1      39.286  31.796  36.609  1.00  0.00     0.031 A 
ATOM     62  C   UNL A   1      41.125  33.169  35.881  1.00  0.00     0.131 A 
ATOM     63  C   UNL A   1      38.996  32.750  37.595  1.00  0.00     0.055 A 
ATOM     64  C   UNL A   1      40.888  34.069  36.922  1.00  0.00     0.041 A 
ATOM     65  F   UNL A   1      42.130  33.449  35.037  1.00  0.00    -0.206 F 
ATOM     66  C   UNL A   1      39.807  33.872  37.776  1.00  0.00     0.022 A 
BRANCH  63  67
ATOM     67  S   UNL A   1      37.450  32.588  38.531  1.00  0.00     0.124 S 
ATOM     68  O   UNL A   1      36.467  33.075  37.564  1.00  0.00    -0.237 OA
ATOM     69  O   UNL A   1      37.405  31.160  38.823  1.00  0.00    -0.237 OA
ATOM     70  O   UNL A   1      37.656  33.456  39.688  1.00  0.00    -0.744 OA
ENDBRANCH  63  67
ENDBRANCH  46  60
BRANCH  47  71
ATOM     71  C   UNL A   1      42.043  26.343  27.604  1.00  0.00     0.023 A 
ATOM     72  C   UNL A   1      41.677  24.988  27.560  1.00  0.00     0.031 A 
ATOM     73  C   UNL A   1      42.731  26.873  26.497  1.00  0.00     0.131 A 
ATOM     74  C   UNL A   1      42.046  24.197  26.462  1.00  0.00     0.055 A 
ATOM     75  C   UNL A   1      43.043  26.096  25.380  1.00  0.00     0.041 A 
ATOM     76  F   UNL A   1      43.101  28.164  26.483  1.00  0.00    -0.206 F 
ATOM     77  C   UNL A   1      42.714  24.744  25.366  1.00  0.00     0.022 A 
BRANCH  74  78
ATOM     78  S   UNL A   1      41.721  22.412  26.529  1.00  0.00     0.124 S 
ATOM     79  O   UNL A   1      42.278  22.059  27.831  1.00  0.00    -0.237 OA
ATOM     80  O   UNL A   1      40.267  22.365  26.419  1.00  0.00    -0.237 OA
ATOM     81  O   UNL A   1      42.450  21.891  25.375  1.00  0.00    -0.744 OA
ENDBRANCH  74  78
ENDBRANCH  47  71
BRANCH  59  82
ATOM     82  C   UNL A   1      44.954  26.703  33.930  1.00  0.00     0.023 A 
ATOM     83  C   UNL A   1      44.727  25.422  34.462  1.00  0.00     0.031 A 
ATOM     84  C   UNL A   1      46.246  27.245  34.046  1.00  0.00     0.131 A 
ATOM     85  C   UNL A   1      45.754  24.759  35.152  1.00  0.00     0.055 A 
ATOM     86  C   UNL A   1      47.284  26.550  34.667  1.00  0.00     0.041 A 
ATOM     87  F   UNL A   1      46.523  28.466  33.560  1.00  0.00    -0.206 F 
ATOM     88  C   UNL A   1      47.036  25.307  35.241  1.00  0.00     0.022 A 
BRANCH  85  89
ATOM     89  S   UNL A   1      45.357  23.228  36.041  1.00  0.00     0.124 S 
ATOM     90  O   UNL A   1      44.051  22.885  35.487  1.00  0.00    -0.237 OA
ATOM     91  O   UNL A   1      46.461  22.353  35.662  1.00  0.00    -0.237 OA
ATOM     92  O   UNL A   1      45.346  23.639  37.444  1.00  0.00    -0.744 OA
ENDBRANCH  85  89
ENDBRANCH  59  82
ENDBRANCH  33  34
ENDBRANCH  25  28
ENDBRANCH  23  24
ENDBRANCH  22  23
ENDBRANCH   1  22
TORSDOF 17
ENDMDL
