MODEL 1
REMARK VINA RESULT:     -13.5      0.000      0.000
REMARK SMILES O=C(CN1C(=O)/C(=C2\SC(N3CCN(c4ccccc4F)CC3)=[NH+]C2=O)c2ccccc21)NCCCCNC(=O)c1ccc(-c2c3nc(c(-c4cc(S(=O)(=O)[O-])ccc4F)c4ccc([nH]4)c(-c4cc(S(=O)(=O)[O-])ccc4F)c4nc(c(-c5cc(S(=O)(=O)[O-])ccc5F)c5ccc2[nH]5)C=C4)C=C3)cc1
REMARK SMILES IDX 36 1 35 2 34 3 33 4 1 5 2 6 3 8 4 9 5 10 32 11 6 12 7 13
REMARK SMILES IDX 27 14 31 15 8 16 28 17 30 18 9 19 25 20 29 21 10 22 24 23
REMARK SMILES IDX 26 24 11 25 12 27 23 28 13 29 22 30 14 31 15 32 16 33 20 34
REMARK SMILES IDX 17 35 19 36 21 37 18 38 37 39 38 40 39 41 40 43 41 44 42 45
REMARK SMILES IDX 103 46 43 47 102 48 44 49 45 50 46 51 96 52 47 53 101 54
REMARK SMILES IDX 95 55 97 56 48 57 100 58 94 59 93 60 49 62 81 63 61 64 80 65
REMARK SMILES IDX 62 66 65 67 79 68 98 69 63 70 64 71 78 73 99 74 66 75 50 76
REMARK SMILES IDX 51 77 59 78 52 79 58 80 60 81 57 82 53 83 54 84 55 85 56 86
REMARK SMILES IDX 82 87 83 88 91 89 84 90 90 91 92 92 89 93 85 94 86 95 87 96
REMARK SMILES IDX 88 97 67 98 68 99 76 100 69 101 75 102 77 103 74 104 70 105
REMARK SMILES IDX 71 106 72 107 73 108
REMARK H PARENT 33 7 24 26 38 42 97 61 65 72
REMARK Flexibility Score: inf
ROOT
ATOM      1  C   UNL A   1      45.752  29.590  26.484  1.00  0.00     0.023 C 
ENDROOT
BRANCH   1   2
ATOM      2  C   UNL A   1      46.745  28.631  25.829  1.00  0.00     0.023 C 
BRANCH   2   3
ATOM      3  C   UNL A   1      46.121  27.503  25.012  1.00  0.00     0.116 C 
BRANCH   3   4
ATOM      4  N   UNL A   1      45.544  26.451  25.827  1.00  0.00    -0.355 N 
ATOM      5  O   UNL A   1      46.081  24.737  24.415  1.00  0.00    -0.273 OA
ATOM      6  C   UNL A   1      45.697  25.119  25.523  1.00  0.00     0.240 C 
ATOM      7  H   UNL A   1      45.022  26.699  26.624  1.00  0.00     0.163 HD
BRANCH   6   8
ATOM      8  C   UNL A   1      45.160  24.101  26.550  1.00  0.00     0.225 C 
BRANCH   8   9
ATOM      9  N   UNL A   1      44.184  23.076  26.188  1.00  0.00    -0.298 N 
ATOM     10  C   UNL A   1      42.835  23.076  26.503  1.00  0.00     0.260 C 
ATOM     11  C   UNL A   1      44.569  21.806  25.708  1.00  0.00     0.053 A 
ATOM     12  O   UNL A   1      42.215  23.980  27.032  1.00  0.00    -0.269 OA
ATOM     13  C   UNL A   1      42.299  21.719  26.092  1.00  0.00     0.071 C 
ATOM     14  C   UNL A   1      43.464  20.939  25.643  1.00  0.00     0.012 A 
ATOM     15  C   UNL A   1      45.846  21.403  25.344  1.00  0.00     0.027 A 
ATOM     16  C   UNL A   1      40.985  21.439  26.134  1.00  0.00     0.122 C 
ATOM     17  C   UNL A   1      43.639  19.652  25.161  1.00  0.00     0.011 A 
ATOM     18  C   UNL A   1      46.017  20.099  24.881  1.00  0.00     0.002 A 
ATOM     19  S   UNL A   1      39.739  22.621  26.344  1.00  0.00     0.007 SA
ATOM     20  C   UNL A   1      40.288  20.131  25.919  1.00  0.00     0.347 C 
ATOM     21  C   UNL A   1      44.921  19.232  24.786  1.00  0.00     0.001 A 
ATOM     22  C   UNL A   1      38.545  21.507  25.724  1.00  0.00     0.319 C 
ATOM     23  N   UNL A   1      38.950  20.286  25.619  1.00  0.00    -0.200 N 
ATOM     24  O   UNL A   1      40.828  19.044  26.066  1.00  0.00    -0.240 OA
ATOM     25  N   UNL A   1      37.301  21.987  25.410  1.00  0.00    -0.252 N 
ATOM     26  H   UNL A   1      38.364  19.542  25.352  1.00  0.00     0.316 HD
ATOM     27  C   UNL A   1      37.089  23.390  25.000  1.00  0.00     0.258 C 
ATOM     28  C   UNL A   1      36.095  21.265  25.868  1.00  0.00     0.258 C 
ATOM     29  C   UNL A   1      35.887  23.545  24.059  1.00  0.00     0.162 C 
ATOM     30  C   UNL A   1      34.844  21.531  25.000  1.00  0.00     0.162 C 
ATOM     31  N   UNL A   1      34.718  22.967  24.722  1.00  0.00    -0.361 N 
BRANCH  31  32
ATOM     32  C   UNL A   1      33.468  23.526  24.506  1.00  0.00     0.073 A 
ATOM     33  C   UNL A   1      32.648  22.982  23.504  1.00  0.00     0.029 A 
ATOM     34  C   UNL A   1      32.930  24.567  25.283  1.00  0.00     0.146 A 
ATOM     35  C   UNL A   1      31.339  23.435  23.311  1.00  0.00     0.002 A 
ATOM     36  C   UNL A   1      31.635  25.041  25.083  1.00  0.00     0.041 A 
ATOM     37  F   UNL A   1      33.668  25.128  26.256  1.00  0.00    -0.205 F 
ATOM     38  C   UNL A   1      30.834  24.465  24.100  1.00  0.00     0.003 A 
ENDBRANCH  31  32
ENDBRANCH   8   9
ENDBRANCH   6   8
ENDBRANCH   3   4
ENDBRANCH   2   3
ENDBRANCH   1   2
BRANCH   1  39
ATOM     39  C   UNL A   1      46.194  31.047  26.570  1.00  0.00     0.116 C 
BRANCH  39  40
ATOM     40  N   UNL A   1      45.375  31.954  25.777  1.00  0.00    -0.352 N 
ATOM     41  C   UNL A   1      44.323  32.754  26.170  1.00  0.00     0.251 C 
ATOM     42  H   UNL A   1      45.607  32.003  24.821  1.00  0.00     0.163 HD
ATOM     43  O   UNL A   1      43.682  33.378  25.329  1.00  0.00    -0.269 OA
BRANCH  41  44
ATOM     44  C   UNL A   1      43.936  32.817  27.599  1.00  0.00     0.039 A 
ATOM     45  C   UNL A   1      43.559  31.665  28.290  1.00  0.00     0.014 A 
ATOM     46  C   UNL A   1      43.905  34.058  28.242  1.00  0.00     0.014 A 
ATOM     47  C   UNL A   1      42.959  31.778  29.540  1.00  0.00     0.010 A 
ATOM     48  C   UNL A   1      43.388  34.157  29.539  1.00  0.00     0.010 A 
ATOM     49  C   UNL A   1      42.849  33.028  30.173  1.00  0.00    -0.014 A 
BRANCH  49  50
ATOM     50  C   UNL A   1      42.153  33.126  31.487  1.00  0.00     0.031 A 
ATOM     51  C   UNL A   1      40.670  33.388  31.561  1.00  0.00     0.074 A 
ATOM     52  C   UNL A   1      42.855  32.925  32.619  1.00  0.00     0.049 A 
ATOM     53  N   UNL A   1      39.897  33.439  32.616  1.00  0.00    -0.248 NA
ATOM     54  C   UNL A   1      39.964  33.626  30.293  1.00  0.00     0.031 C 
ATOM     55  C   UNL A   1      44.294  32.668  32.673  1.00  0.00     0.029 A 
ATOM     56  N   UNL A   1      42.458  32.880  33.933  1.00  0.00    -0.354 N 
ATOM     57  C   UNL A   1      38.624  33.743  32.145  1.00  0.00     0.074 A 
ATOM     58  C   UNL A   1      38.733  33.894  30.711  1.00  0.00     0.031 C 
ATOM     59  C   UNL A   1      44.650  32.432  33.942  1.00  0.00     0.029 A 
ATOM     60  C   UNL A   1      43.481  32.591  34.805  1.00  0.00     0.049 A 
ATOM     61  H   UNL A   1      41.531  33.041  34.222  1.00  0.00     0.167 HD
ATOM     62  C   UNL A   1      37.468  33.869  32.842  1.00  0.00     0.034 A 
ATOM     63  C   UNL A   1      43.487  32.471  36.149  1.00  0.00     0.034 A 
ATOM     64  C   UNL A   1      37.368  33.685  34.269  1.00  0.00     0.049 A 
ATOM     65  C   UNL A   1      42.195  32.632  36.905  1.00  0.00     0.074 A 
ATOM     66  C   UNL A   1      36.229  33.724  35.054  1.00  0.00     0.029 A 
ATOM     67  N   UNL A   1      38.432  33.436  35.124  1.00  0.00    -0.354 N 
ATOM     68  N   UNL A   1      40.988  32.847  36.436  1.00  0.00    -0.248 NA
ATOM     69  C   UNL A   1      42.259  32.533  38.370  1.00  0.00     0.031 C 
ATOM     70  C   UNL A   1      36.612  33.575  36.386  1.00  0.00     0.029 A 
ATOM     71  C   UNL A   1      37.980  33.360  36.432  1.00  0.00     0.049 A 
ATOM     72  H   UNL A   1      39.369  33.329  34.843  1.00  0.00     0.167 HD
ATOM     73  C   UNL A   1      40.147  32.898  37.545  1.00  0.00     0.074 A 
ATOM     74  C   UNL A   1      40.981  32.663  38.707  1.00  0.00     0.031 C 
ATOM     75  C   UNL A   1      38.810  33.123  37.591  1.00  0.00     0.034 A 
BRANCH  62  76
ATOM     76  C   UNL A   1      36.202  34.220  32.097  1.00  0.00     0.023 A 
ATOM     77  C   UNL A   1      35.540  35.433  32.373  1.00  0.00     0.031 A 
ATOM     78  C   UNL A   1      35.582  33.313  31.220  1.00  0.00     0.131 A 
ATOM     79  C   UNL A   1      34.288  35.692  31.802  1.00  0.00     0.055 A 
ATOM     80  C   UNL A   1      34.353  33.594  30.620  1.00  0.00     0.041 A 
ATOM     81  F   UNL A   1      36.167  32.141  30.927  1.00  0.00    -0.206 F 
ATOM     82  C   UNL A   1      33.695  34.783  30.920  1.00  0.00     0.022 A 
BRANCH  79  83
ATOM     83  S   UNL A   1      33.346  37.181  32.235  1.00  0.00     0.124 S 
ATOM     84  O   UNL A   1      34.328  37.939  33.009  1.00  0.00    -0.237 OA
ATOM     85  O   UNL A   1      33.029  37.734  30.920  1.00  0.00    -0.237 OA
ATOM     86  O   UNL A   1      32.212  36.672  32.995  1.00  0.00    -0.744 OA
ENDBRANCH  79  83
ENDBRANCH  62  76
BRANCH  63  87
ATOM     87  C   UNL A   1      44.769  32.123  36.829  1.00  0.00     0.023 A 
ATOM     88  C   UNL A   1      45.039  30.801  37.229  1.00  0.00     0.031 A 
ATOM     89  C   UNL A   1      45.669  33.129  37.215  1.00  0.00     0.131 A 
ATOM     90  C   UNL A   1      46.137  30.533  38.057  1.00  0.00     0.055 A 
ATOM     91  C   UNL A   1      46.798  32.848  37.986  1.00  0.00     0.041 A 
ATOM     92  F   UNL A   1      45.447  34.405  36.863  1.00  0.00    -0.206 F 
ATOM     93  C   UNL A   1      47.023  31.548  38.431  1.00  0.00     0.022 A 
BRANCH  90  94
ATOM     94  S   UNL A   1      46.358  28.891  38.799  1.00  0.00     0.124 S 
ATOM     95  O   UNL A   1      46.489  28.042  37.619  1.00  0.00    -0.237 OA
ATOM     96  O   UNL A   1      47.577  29.066  39.586  1.00  0.00    -0.237 OA
ATOM     97  O   UNL A   1      45.144  28.701  39.586  1.00  0.00    -0.744 OA
ENDBRANCH  90  94
ENDBRANCH  63  87
BRANCH  75  98
ATOM     98  C   UNL A   1      38.121  33.142  38.936  1.00  0.00     0.023 A 
ATOM     99  C   UNL A   1      38.406  34.166  39.860  1.00  0.00     0.031 A 
ATOM    100  C   UNL A   1      37.322  32.067  39.364  1.00  0.00     0.131 A 
ATOM    101  C   UNL A   1      37.940  34.071  41.177  1.00  0.00     0.055 A 
ATOM    102  C   UNL A   1      36.816  32.002  40.663  1.00  0.00     0.041 A 
ATOM    103  F   UNL A   1      37.029  31.060  38.527  1.00  0.00    -0.206 F 
ATOM    104  C   UNL A   1      37.139  32.997  41.582  1.00  0.00     0.022 A 
BRANCH 101 105
ATOM    105  S   UNL A   1      38.435  35.279  42.437  1.00  0.00     0.124 S 
ATOM    106  O   UNL A   1      39.630  34.657  43.000  1.00  0.00    -0.237 OA
ATOM    107  O   UNL A   1      38.674  36.477  41.636  1.00  0.00    -0.237 OA
ATOM    108  O   UNL A   1      37.287  35.344  43.334  1.00  0.00    -0.744 OA
ENDBRANCH 101 105
ENDBRANCH  75  98
ENDBRANCH  49  50
ENDBRANCH  41  44
ENDBRANCH  39  40
ENDBRANCH   1  39
TORSDOF 16
ENDMDL
MODEL 2
REMARK VINA RESULT:     -13.1      5.552     12.031
REMARK SMILES O=C(CN1C(=O)/C(=C2\SC(N3CCN(c4ccccc4F)CC3)=[NH+]C2=O)c2ccccc21)NCCCCNC(=O)c1ccc(-c2c3nc(c(-c4cc(S(=O)(=O)[O-])ccc4F)c4ccc([nH]4)c(-c4cc(S(=O)(=O)[O-])ccc4F)c4nc(c(-c5cc(S(=O)(=O)[O-])ccc5F)c5ccc2[nH]5)C=C4)C=C3)cc1
REMARK SMILES IDX 36 1 35 2 34 3 33 4 1 5 2 6 3 8 4 9 5 10 32 11 6 12 7 13
REMARK SMILES IDX 27 14 31 15 8 16 28 17 30 18 9 19 25 20 29 21 10 22 24 23
REMARK SMILES IDX 26 24 11 25 12 27 23 28 13 29 22 30 14 31 15 32 16 33 20 34
REMARK SMILES IDX 17 35 19 36 21 37 18 38 37 39 38 40 39 41 40 43 41 44 42 45
REMARK SMILES IDX 103 46 43 47 102 48 44 49 45 50 46 51 96 52 47 53 101 54
REMARK SMILES IDX 95 55 97 56 48 57 100 58 94 59 93 60 49 62 81 63 61 64 80 65
REMARK SMILES IDX 62 66 65 67 79 68 98 69 63 70 64 71 78 73 99 74 66 75 50 76
REMARK SMILES IDX 51 77 59 78 52 79 58 80 60 81 57 82 53 83 54 84 55 85 56 86
REMARK SMILES IDX 82 87 83 88 91 89 84 90 90 91 92 92 89 93 85 94 86 95 87 96
REMARK SMILES IDX 88 97 67 98 68 99 76 100 69 101 75 102 77 103 74 104 70 105
REMARK SMILES IDX 71 106 72 107 73 108
REMARK H PARENT 33 7 24 26 38 42 97 61 65 72
REMARK Flexibility Score: inf
ROOT
ATOM      1  C   UNL A   1      39.308  21.807  25.779  1.00  0.00     0.023 C 
ENDROOT
BRANCH   1   2
ATOM      2  C   UNL A   1      37.782  21.759  25.732  1.00  0.00     0.023 C 
BRANCH   2   3
ATOM      3  C   UNL A   1      37.173  21.710  24.334  1.00  0.00     0.116 C 
BRANCH   3   4
ATOM      4  N   UNL A   1      35.831  22.256  24.268  1.00  0.00    -0.355 N 
ATOM      5  O   UNL A   1      34.751  20.276  24.628  1.00  0.00    -0.273 OA
ATOM      6  C   UNL A   1      34.717  21.507  24.565  1.00  0.00     0.240 C 
ATOM      7  H   UNL A   1      35.714  23.197  24.001  1.00  0.00     0.163 HD
BRANCH   6   8
ATOM      8  C   UNL A   1      33.365  22.248  24.600  1.00  0.00     0.225 C 
BRANCH   8   9
ATOM      9  N   UNL A   1      33.245  23.660  24.245  1.00  0.00    -0.298 N 
ATOM     10  C   UNL A   1      33.030  24.712  25.119  1.00  0.00     0.260 C 
ATOM     11  C   UNL A   1      33.051  24.087  22.914  1.00  0.00     0.053 A 
ATOM     12  O   UNL A   1      33.019  24.654  26.334  1.00  0.00    -0.269 OA
ATOM     13  C   UNL A   1      32.776  25.937  24.261  1.00  0.00     0.071 C 
ATOM     14  C   UNL A   1      32.750  25.460  22.868  1.00  0.00     0.012 A 
ATOM     15  C   UNL A   1      33.122  23.309  21.768  1.00  0.00     0.027 A 
ATOM     16  C   UNL A   1      32.668  27.164  24.799  1.00  0.00     0.122 C 
ATOM     17  C   UNL A   1      32.559  26.072  21.640  1.00  0.00     0.011 A 
ATOM     18  C   UNL A   1      32.907  23.928  20.537  1.00  0.00     0.002 A 
ATOM     19  S   UNL A   1      33.098  27.558  26.427  1.00  0.00     0.007 SA
ATOM     20  C   UNL A   1      32.272  28.452  24.146  1.00  0.00     0.347 C 
ATOM     21  C   UNL A   1      32.632  25.300  20.474  1.00  0.00     0.001 A 
ATOM     22  C   UNL A   1      33.173  29.256  26.020  1.00  0.00     0.319 C 
ATOM     23  N   UNL A   1      32.671  29.557  24.870  1.00  0.00    -0.200 N 
ATOM     24  O   UNL A   1      31.605  28.517  23.123  1.00  0.00    -0.240 OA
ATOM     25  N   UNL A   1      33.733  30.122  26.921  1.00  0.00    -0.252 N 
ATOM     26  H   UNL A   1      32.582  30.481  24.543  1.00  0.00     0.316 HD
ATOM     27  C   UNL A   1      34.766  29.685  27.883  1.00  0.00     0.258 C 
ATOM     28  C   UNL A   1      33.045  31.387  27.254  1.00  0.00     0.258 C 
ATOM     29  C   UNL A   1      35.723  30.821  28.265  1.00  0.00     0.162 C 
ATOM     30  C   UNL A   1      33.993  32.493  27.774  1.00  0.00     0.162 C 
ATOM     31  N   UNL A   1      34.921  31.937  28.766  1.00  0.00    -0.361 N 
BRANCH  31  32
ATOM     32  C   UNL A   1      35.432  32.747  29.769  1.00  0.00     0.073 A 
ATOM     33  C   UNL A   1      34.728  32.853  30.979  1.00  0.00     0.029 A 
ATOM     34  C   UNL A   1      36.664  33.420  29.679  1.00  0.00     0.146 A 
ATOM     35  C   UNL A   1      35.248  33.570  32.061  1.00  0.00     0.002 A 
ATOM     36  C   UNL A   1      37.179  34.156  30.743  1.00  0.00     0.041 A 
ATOM     37  F   UNL A   1      37.382  33.357  28.545  1.00  0.00    -0.205 F 
ATOM     38  C   UNL A   1      36.472  34.221  31.943  1.00  0.00     0.003 A 
ENDBRANCH  31  32
ENDBRANCH   8   9
ENDBRANCH   6   8
ENDBRANCH   3   4
ENDBRANCH   2   3
ENDBRANCH   1   2
BRANCH   1  39
ATOM     39  C   UNL A   1      39.971  20.888  26.799  1.00  0.00     0.116 C 
BRANCH  39  40
ATOM     40  N   UNL A   1      40.859  19.898  26.205  1.00  0.00    -0.352 N 
ATOM     41  C   UNL A   1      42.167  20.031  25.789  1.00  0.00     0.251 C 
ATOM     42  H   UNL A   1      40.467  19.002  26.082  1.00  0.00     0.163 HD
ATOM     43  O   UNL A   1      42.722  19.101  25.211  1.00  0.00    -0.269 OA
BRANCH  41  44
ATOM     44  C   UNL A   1      42.881  21.312  25.997  1.00  0.00     0.039 A 
ATOM     45  C   UNL A   1      43.391  21.653  27.251  1.00  0.00     0.014 A 
ATOM     46  C   UNL A   1      43.000  22.206  24.930  1.00  0.00     0.014 A 
ATOM     47  C   UNL A   1      43.824  22.953  27.487  1.00  0.00     0.010 A 
ATOM     48  C   UNL A   1      43.526  23.485  25.148  1.00  0.00     0.010 A 
ATOM     49  C   UNL A   1      43.880  23.893  26.443  1.00  0.00    -0.014 A 
BRANCH  49  50
ATOM     50  C   UNL A   1      44.297  25.292  26.737  1.00  0.00     0.031 A 
ATOM     51  C   UNL A   1      43.360  26.251  27.427  1.00  0.00     0.074 A 
ATOM     52  C   UNL A   1      45.546  25.685  26.426  1.00  0.00     0.049 A 
ATOM     53  N   UNL A   1      43.582  27.482  27.815  1.00  0.00    -0.248 NA
ATOM     54  C   UNL A   1      41.999  25.773  27.716  1.00  0.00     0.031 C 
ATOM     55  C   UNL A   1      46.540  24.848  25.754  1.00  0.00     0.029 A 
ATOM     56  N   UNL A   1      46.205  26.869  26.652  1.00  0.00    -0.354 N 
ATOM     57  C   UNL A   1      42.388  27.933  28.366  1.00  0.00     0.074 A 
ATOM     58  C   UNL A   1      41.433  26.855  28.235  1.00  0.00     0.031 C 
ATOM     59  C   UNL A   1      47.697  25.519  25.675  1.00  0.00     0.029 A 
ATOM     60  C   UNL A   1      47.512  26.860  26.225  1.00  0.00     0.049 A 
ATOM     61  H   UNL A   1      45.781  27.649  27.076  1.00  0.00     0.167 HD
ATOM     62  C   UNL A   1      42.117  29.130  28.941  1.00  0.00     0.034 A 
ATOM     63  C   UNL A   1      48.461  27.819  26.265  1.00  0.00     0.034 A 
ATOM     64  C   UNL A   1      43.088  30.185  29.092  1.00  0.00     0.049 A 
ATOM     65  C   UNL A   1      48.132  29.148  26.893  1.00  0.00     0.074 A 
ATOM     66  C   UNL A   1      42.927  31.406  29.723  1.00  0.00     0.029 A 
ATOM     67  N   UNL A   1      44.389  30.156  28.610  1.00  0.00    -0.354 N 
ATOM     68  N   UNL A   1      47.020  29.531  27.474  1.00  0.00    -0.248 NA
ATOM     69  C   UNL A   1      49.184  30.174  26.876  1.00  0.00     0.031 C 
ATOM     70  C   UNL A   1      44.100  32.142  29.557  1.00  0.00     0.029 A 
ATOM     71  C   UNL A   1      45.027  31.353  28.895  1.00  0.00     0.049 A 
ATOM     72  H   UNL A   1      44.798  29.396  28.137  1.00  0.00     0.167 HD
ATOM     73  C   UNL A   1      47.239  30.839  27.901  1.00  0.00     0.074 A 
ATOM     74  C   UNL A   1      48.602  31.169  27.536  1.00  0.00     0.031 C 
ATOM     75  C   UNL A   1      46.386  31.683  28.534  1.00  0.00     0.034 A 
BRANCH  62  76
ATOM     76  C   UNL A   1      40.722  29.391  29.461  1.00  0.00     0.023 A 
ATOM     77  C   UNL A   1      40.460  29.293  30.842  1.00  0.00     0.031 A 
ATOM     78  C   UNL A   1      39.636  29.604  28.594  1.00  0.00     0.131 A 
ATOM     79  C   UNL A   1      39.143  29.379  31.310  1.00  0.00     0.055 A 
ATOM     80  C   UNL A   1      38.330  29.732  29.071  1.00  0.00     0.041 A 
ATOM     81  F   UNL A   1      39.830  29.700  27.269  1.00  0.00    -0.206 F 
ATOM     82  C   UNL A   1      38.078  29.607  30.434  1.00  0.00     0.022 A 
BRANCH  79  83
ATOM     83  S   UNL A   1      38.751  29.129  33.064  1.00  0.00     0.124 S 
ATOM     84  O   UNL A   1      39.803  28.200  33.474  1.00  0.00    -0.237 OA
ATOM     85  O   UNL A   1      38.872  30.482  33.600  1.00  0.00    -0.237 OA
ATOM     86  O   UNL A   1      37.403  28.574  33.048  1.00  0.00    -0.744 OA
ENDBRANCH  79  83
ENDBRANCH  62  76
BRANCH  63  87
ATOM     87  C   UNL A   1      49.819  27.503  25.736  1.00  0.00     0.023 A 
ATOM     88  C   UNL A   1      50.139  27.724  24.384  1.00  0.00     0.031 A 
ATOM     89  C   UNL A   1      50.762  26.843  26.540  1.00  0.00     0.131 A 
ATOM     90  C   UNL A   1      51.334  27.219  23.858  1.00  0.00     0.055 A 
ATOM     91  C   UNL A   1      51.981  26.398  26.027  1.00  0.00     0.041 A 
ATOM     92  F   UNL A   1      50.497  26.602  27.834  1.00  0.00    -0.206 F 
ATOM     93  C   UNL A   1      52.262  26.564  24.674  1.00  0.00     0.022 A 
BRANCH  90  94
ATOM     94  S   UNL A   1      51.650  27.259  22.070  1.00  0.00     0.124 S 
ATOM     95  O   UNL A   1      50.364  26.832  21.527  1.00  0.00    -0.237 OA
ATOM     96  O   UNL A   1      51.993  28.662  21.846  1.00  0.00    -0.237 OA
ATOM     97  O   UNL A   1      52.755  26.323  21.893  1.00  0.00    -0.744 OA
ENDBRANCH  90  94
ENDBRANCH  63  87
BRANCH  75  98
ATOM     98  C   UNL A   1      46.865  33.073  28.885  1.00  0.00     0.023 A 
ATOM     99  C   UNL A   1      46.739  34.119  27.950  1.00  0.00     0.031 A 
ATOM    100  C   UNL A   1      47.590  33.321  30.063  1.00  0.00     0.131 A 
ATOM    101  C   UNL A   1      47.371  35.347  28.185  1.00  0.00     0.055 A 
ATOM    102  C   UNL A   1      48.176  34.562  30.316  1.00  0.00     0.041 A 
ATOM    103  F   UNL A   1      47.749  32.355  30.982  1.00  0.00    -0.206 F 
ATOM    104  C   UNL A   1      48.082  35.577  29.368  1.00  0.00     0.022 A 
BRANCH 101 105
ATOM    105  S   UNL A   1      47.379  36.653  26.925  1.00  0.00     0.124 S 
ATOM    106  O   UNL A   1      46.806  35.964  25.772  1.00  0.00    -0.237 OA
ATOM    107  O   UNL A   1      46.526  37.671  27.532  1.00  0.00    -0.237 OA
ATOM    108  O   UNL A   1      48.788  37.011  26.797  1.00  0.00    -0.744 OA
ENDBRANCH 101 105
ENDBRANCH  75  98
ENDBRANCH  49  50
ENDBRANCH  41  44
ENDBRANCH  39  40
ENDBRANCH   1  39
TORSDOF 16
ENDMDL
MODEL 3
REMARK VINA RESULT:     -13.1      7.805     13.872
REMARK SMILES O=C(CN1C(=O)/C(=C2\SC(N3CCN(c4ccccc4F)CC3)=[NH+]C2=O)c2ccccc21)NCCCCNC(=O)c1ccc(-c2c3nc(c(-c4cc(S(=O)(=O)[O-])ccc4F)c4ccc([nH]4)c(-c4cc(S(=O)(=O)[O-])ccc4F)c4nc(c(-c5cc(S(=O)(=O)[O-])ccc5F)c5ccc2[nH]5)C=C4)C=C3)cc1
REMARK SMILES IDX 36 1 35 2 34 3 33 4 1 5 2 6 3 8 4 9 5 10 32 11 6 12 7 13
REMARK SMILES IDX 27 14 31 15 8 16 28 17 30 18 9 19 25 20 29 21 10 22 24 23
REMARK SMILES IDX 26 24 11 25 12 27 23 28 13 29 22 30 14 31 15 32 16 33 20 34
REMARK SMILES IDX 17 35 19 36 21 37 18 38 37 39 38 40 39 41 40 43 41 44 42 45
REMARK SMILES IDX 103 46 43 47 102 48 44 49 45 50 46 51 96 52 47 53 101 54
REMARK SMILES IDX 95 55 97 56 48 57 100 58 94 59 93 60 49 62 81 63 61 64 80 65
REMARK SMILES IDX 62 66 65 67 79 68 98 69 63 70 64 71 78 73 99 74 66 75 50 76
REMARK SMILES IDX 51 77 59 78 52 79 58 80 60 81 57 82 53 83 54 84 55 85 56 86
REMARK SMILES IDX 82 87 83 88 91 89 84 90 90 91 92 92 89 93 85 94 86 95 87 96
REMARK SMILES IDX 88 97 67 98 68 99 76 100 69 101 75 102 77 103 74 104 70 105
REMARK SMILES IDX 71 106 72 107 73 108
REMARK H PARENT 33 7 24 26 38 42 97 61 65 72
REMARK Flexibility Score: inf
ROOT
ATOM      1  C   UNL A   1      41.439  25.335  27.381  1.00  0.00     0.023 C 
ENDROOT
BRANCH   1   2
ATOM      2  C   UNL A   1      40.328  25.240  26.337  1.00  0.00     0.023 C 
BRANCH   2   3
ATOM      3  C   UNL A   1      39.044  24.565  26.810  1.00  0.00     0.116 C 
BRANCH   3   4
ATOM      4  N   UNL A   1      38.477  23.653  25.835  1.00  0.00    -0.355 N 
ATOM      5  O   UNL A   1      39.232  21.742  26.832  1.00  0.00    -0.273 OA
ATOM      6  C   UNL A   1      38.499  22.289  26.005  1.00  0.00     0.240 C 
ATOM      7  H   UNL A   1      38.063  24.024  25.022  1.00  0.00     0.163 HD
BRANCH   6   8
ATOM      8  C   UNL A   1      37.732  21.442  24.968  1.00  0.00     0.225 C 
BRANCH   8   9
ATOM      9  N   UNL A   1      36.275  21.465  24.873  1.00  0.00    -0.298 N 
ATOM     10  C   UNL A   1      35.451  22.547  25.135  1.00  0.00     0.260 C 
ATOM     11  C   UNL A   1      35.509  20.285  24.775  1.00  0.00     0.053 A 
ATOM     12  O   UNL A   1      35.805  23.687  25.374  1.00  0.00    -0.269 OA
ATOM     13  C   UNL A   1      34.029  22.021  25.098  1.00  0.00     0.071 C 
ATOM     14  C   UNL A   1      34.138  20.564  24.918  1.00  0.00     0.012 A 
ATOM     15  C   UNL A   1      35.982  18.996  24.576  1.00  0.00     0.027 A 
ATOM     16  C   UNL A   1      32.971  22.847  25.175  1.00  0.00     0.122 C 
ATOM     17  C   UNL A   1      33.220  19.531  24.816  1.00  0.00     0.011 A 
ATOM     18  C   UNL A   1      35.054  17.959  24.496  1.00  0.00     0.002 A 
ATOM     19  S   UNL A   1      33.058  24.567  25.012  1.00  0.00     0.007 SA
ATOM     20  C   UNL A   1      31.517  22.512  25.308  1.00  0.00     0.347 C 
ATOM     21  C   UNL A   1      33.683  18.225  24.611  1.00  0.00     0.001 A 
ATOM     22  C   UNL A   1      31.343  24.646  24.687  1.00  0.00     0.319 C 
ATOM     23  N   UNL A   1      30.697  23.557  24.936  1.00  0.00    -0.200 N 
ATOM     24  O   UNL A   1      31.104  21.456  25.766  1.00  0.00    -0.240 OA
ATOM     25  N   UNL A   1      30.819  25.820  24.215  1.00  0.00    -0.252 N 
ATOM     26  H   UNL A   1      29.718  23.480  24.867  1.00  0.00     0.316 HD
ATOM     27  C   UNL A   1      31.628  26.773  23.427  1.00  0.00     0.258 C 
ATOM     28  C   UNL A   1      29.588  26.373  24.817  1.00  0.00     0.258 C 
ATOM     29  C   UNL A   1      30.776  27.584  22.443  1.00  0.00     0.162 C 
ATOM     30  C   UNL A   1      28.798  27.306  23.871  1.00  0.00     0.162 C 
ATOM     31  N   UNL A   1      29.712  28.241  23.204  1.00  0.00    -0.361 N 
BRANCH  31  32
ATOM     32  C   UNL A   1      29.260  29.489  22.803  1.00  0.00     0.073 A 
ATOM     33  C   UNL A   1      28.489  29.585  21.634  1.00  0.00     0.029 A 
ATOM     34  C   UNL A   1      29.463  30.669  23.540  1.00  0.00     0.146 A 
ATOM     35  C   UNL A   1      27.918  30.799  21.238  1.00  0.00     0.002 A 
ATOM     36  C   UNL A   1      28.918  31.888  23.142  1.00  0.00     0.041 A 
ATOM     37  F   UNL A   1      30.194  30.639  24.667  1.00  0.00    -0.205 F 
ATOM     38  C   UNL A   1      28.133  31.950  21.992  1.00  0.00     0.003 A 
ENDBRANCH  31  32
ENDBRANCH   8   9
ENDBRANCH   6   8
ENDBRANCH   3   4
ENDBRANCH   2   3
ENDBRANCH   1   2
BRANCH   1  39
ATOM     39  C   UNL A   1      41.805  24.032  28.083  1.00  0.00     0.116 C 
BRANCH  39  40
ATOM     40  N   UNL A   1      42.586  23.121  27.257  1.00  0.00    -0.352 N 
ATOM     41  C   UNL A   1      43.723  23.367  26.517  1.00  0.00     0.251 C 
ATOM     42  H   UNL A   1      42.253  22.195  27.221  1.00  0.00     0.163 HD
ATOM     43  O   UNL A   1      44.184  22.488  25.794  1.00  0.00    -0.269 OA
BRANCH  41  44
ATOM     44  C   UNL A   1      44.357  24.706  26.557  1.00  0.00     0.039 A 
ATOM     45  C   UNL A   1      44.365  25.527  25.429  1.00  0.00     0.014 A 
ATOM     46  C   UNL A   1      44.992  25.124  27.729  1.00  0.00     0.014 A 
ATOM     47  C   UNL A   1      45.177  26.657  25.407  1.00  0.00     0.010 A 
ATOM     48  C   UNL A   1      45.733  26.311  27.733  1.00  0.00     0.010 A 
ATOM     49  C   UNL A   1      45.887  27.053  26.553  1.00  0.00    -0.014 A 
BRANCH  49  50
ATOM     50  C   UNL A   1      46.791  28.235  26.483  1.00  0.00     0.031 A 
ATOM     51  C   UNL A   1      48.268  28.068  26.230  1.00  0.00     0.074 A 
ATOM     52  C   UNL A   1      46.268  29.471  26.598  1.00  0.00     0.049 A 
ATOM     53  N   UNL A   1      49.185  28.990  26.076  1.00  0.00    -0.248 NA
ATOM     54  C   UNL A   1      48.785  26.694  26.142  1.00  0.00     0.031 C 
ATOM     55  C   UNL A   1      44.855  29.758  26.848  1.00  0.00     0.029 A 
ATOM     56  N   UNL A   1      46.847  30.712  26.496  1.00  0.00    -0.354 N 
ATOM     57  C   UNL A   1      50.387  28.311  25.902  1.00  0.00     0.074 A 
ATOM     58  C   UNL A   1      50.088  26.899  25.999  1.00  0.00     0.031 C 
ATOM     59  C   UNL A   1      44.665  31.083  26.820  1.00  0.00     0.029 A 
ATOM     60  C   UNL A   1      45.952  31.748  26.622  1.00  0.00     0.049 A 
ATOM     61  H   UNL A   1      47.811  30.846  26.348  1.00  0.00     0.167 HD
ATOM     62  C   UNL A   1      51.622  28.818  25.668  1.00  0.00     0.034 A 
ATOM     63  C   UNL A   1      46.137  33.084  26.588  1.00  0.00     0.034 A 
ATOM     64  C   UNL A   1      51.900  30.227  25.542  1.00  0.00     0.049 A 
ATOM     65  C   UNL A   1      47.521  33.625  26.343  1.00  0.00     0.074 A 
ATOM     66  C   UNL A   1      53.106  30.833  25.236  1.00  0.00     0.029 A 
ATOM     67  N   UNL A   1      50.976  31.248  25.718  1.00  0.00    -0.354 N 
ATOM     68  N   UNL A   1      48.632  32.968  26.108  1.00  0.00    -0.248 NA
ATOM     69  C   UNL A   1      47.680  35.086  26.355  1.00  0.00     0.031 C 
ATOM     70  C   UNL A   1      52.930  32.215  25.302  1.00  0.00     0.029 A 
ATOM     71  C   UNL A   1      51.595  32.479  25.568  1.00  0.00     0.049 A 
ATOM     72  H   UNL A   1      50.021  31.117  25.920  1.00  0.00     0.167 HD
ATOM     73  C   UNL A   1      49.621  33.934  25.934  1.00  0.00     0.074 A 
ATOM     74  C   UNL A   1      48.969  35.221  26.063  1.00  0.00     0.031 C 
ATOM     75  C   UNL A   1      50.946  33.763  25.693  1.00  0.00     0.034 A 
BRANCH  62  76
ATOM     76  C   UNL A   1      52.786  27.866  25.525  1.00  0.00     0.023 A 
ATOM     77  C   UNL A   1      53.561  27.533  26.653  1.00  0.00     0.031 A 
ATOM     78  C   UNL A   1      53.208  27.394  24.270  1.00  0.00     0.131 A 
ATOM     79  C   UNL A   1      54.730  26.778  26.499  1.00  0.00     0.055 A 
ATOM     80  C   UNL A   1      54.351  26.605  24.127  1.00  0.00     0.041 A 
ATOM     81  F   UNL A   1      52.508  27.686  23.161  1.00  0.00    -0.206 F 
ATOM     82  C   UNL A   1      55.125  26.305  25.244  1.00  0.00     0.022 A 
BRANCH  79  83
ATOM     83  S   UNL A   1      55.823  26.439  27.908  1.00  0.00     0.124 S 
ATOM     84  O   UNL A   1      55.263  27.315  28.936  1.00  0.00    -0.237 OA
ATOM     85  O   UNL A   1      55.610  25.010  28.123  1.00  0.00    -0.237 OA
ATOM     86  O   UNL A   1      57.147  26.814  27.424  1.00  0.00    -0.744 OA
ENDBRANCH  79  83
ENDBRANCH  62  76
BRANCH  63  87
ATOM     87  C   UNL A   1      44.949  33.974  26.735  1.00  0.00     0.023 A 
ATOM     88  C   UNL A   1      44.400  34.245  28.002  1.00  0.00     0.031 A 
ATOM     89  C   UNL A   1      44.265  34.444  25.603  1.00  0.00     0.131 A 
ATOM     90  C   UNL A   1      43.163  34.894  28.103  1.00  0.00     0.055 A 
ATOM     91  C   UNL A   1      43.064  35.148  25.710  1.00  0.00     0.041 A 
ATOM     92  F   UNL A   1      44.746  34.202  24.374  1.00  0.00    -0.206 F 
ATOM     93  C   UNL A   1      42.496  35.356  26.964  1.00  0.00     0.022 A 
BRANCH  90  94
ATOM     94  S   UNL A   1      42.312  35.022  29.701  1.00  0.00     0.124 S 
ATOM     95  O   UNL A   1      42.557  33.704  30.280  1.00  0.00    -0.237 OA
ATOM     96  O   UNL A   1      43.015  36.131  30.341  1.00  0.00    -0.237 OA
ATOM     97  O   UNL A   1      40.929  35.306  29.333  1.00  0.00    -0.744 OA
ENDBRANCH  90  94
ENDBRANCH  63  87
BRANCH  75  98
ATOM     98  C   UNL A   1      51.823  34.986  25.554  1.00  0.00     0.023 A 
ATOM     99  C   UNL A   1      52.116  35.775  26.683  1.00  0.00     0.031 A 
ATOM    100  C   UNL A   1      52.223  35.459  24.292  1.00  0.00     0.131 A 
ATOM    101  C   UNL A   1      52.743  37.018  26.524  1.00  0.00     0.055 A 
ATOM    102  C   UNL A   1      52.894  36.674  24.144  1.00  0.00     0.041 A 
ATOM    103  F   UNL A   1      51.959  34.750  23.183  1.00  0.00    -0.206 F 
ATOM    104  C   UNL A   1      53.141  37.467  25.261  1.00  0.00     0.022 A 
BRANCH 101 105
ATOM    105  S   UNL A   1      52.975  38.137  27.933  1.00  0.00     0.124 S 
ATOM    106  O   UNL A   1      54.427  38.123  28.095  1.00  0.00    -0.237 OA
ATOM    107  O   UNL A   1      52.416  39.388  27.427  1.00  0.00    -0.237 OA
ATOM    108  O   UNL A   1      52.223  37.506  29.013  1.00  0.00    -0.744 OA
ENDBRANCH 101 105
ENDBRANCH  75  98
ENDBRANCH  49  50
ENDBRANCH  41  44
ENDBRANCH  39  40
ENDBRANCH   1  39
TORSDOF 16
ENDMDL
