MODEL 1
REMARK VINA RESULT:     -12.3      0.000      0.000
REMARK SMILES C#Cc1cc(Cl)cc2c1O[C@H](C(F)(F)F)C(C(=O)NCCCCNC(=O)c1ccc(-c3c4nc(c(-c5cc(S(=O)(=O)[O-])ccc5F)c5ccc([nH]5)c(-c5cc(S(=O)(=O)[O-])ccc5F)c5nc(c(-c6cc(S(=O)(=O)[O-])ccc6F)c6ccc3[nH]6)C=C5)C=C4)cc1)=C2
REMARK SMILES IDX 22 1 21 2 20 3 19 4 17 5 18 6 16 8 3 9 4 10 9 11 5 12 8 13
REMARK SMILES IDX 10 14 6 15 7 16 90 17 11 18 2 19 1 20 12 21 13 22 14 23
REMARK SMILES IDX 15 24 23 25 24 26 25 27 26 29 27 30 28 31 89 32 29 33 88 34
REMARK SMILES IDX 30 35 31 36 32 37 82 38 33 39 87 40 81 41 83 42 34 43 86 44
REMARK SMILES IDX 80 45 79 46 35 48 67 49 47 50 66 51 48 52 51 53 65 54 84 55
REMARK SMILES IDX 49 56 50 57 64 59 85 60 52 61 36 62 37 63 45 64 38 65 44 66
REMARK SMILES IDX 46 67 43 68 39 69 40 70 41 71 42 72 68 73 69 74 77 75 70 76
REMARK SMILES IDX 76 77 78 78 75 79 71 80 72 81 73 82 74 83 53 84 54 85 62 86
REMARK SMILES IDX 55 87 61 88 63 89 60 90 56 91 57 92 58 93 59 94
REMARK H PARENT 19 7 24 28 83 47 51 58
REMARK Flexibility Score: inf
ROOT
ATOM      1  C   UNL A   1      31.696  28.364  24.918  1.00  0.00     0.023 C 
ENDROOT
BRANCH   1   2
ATOM      2  C   UNL A   1      31.145  27.250  25.798  1.00  0.00     0.023 C 
BRANCH   2   3
ATOM      3  C   UNL A   1      30.703  26.027  25.006  1.00  0.00     0.116 C 
BRANCH   3   4
ATOM      4  N   UNL A   1      31.234  26.029  23.651  1.00  0.00    -0.352 N 
ATOM      5  C   UNL A   1      32.098  25.277  22.927  1.00  0.00     0.251 C 
ATOM      6  O   UNL A   1      32.246  25.609  21.747  1.00  0.00    -0.270 OA
ATOM      7  H   UNL A   1      30.869  26.774  23.121  1.00  0.00     0.163 HD
BRANCH   5   8
ATOM      8  C   UNL A   1      32.861  24.111  23.463  1.00  0.00     0.067 C 
ATOM      9  C   UNL A   1      35.018  20.715  24.681  1.00  0.00     0.068 A 
ATOM     10  C   UNL A   1      34.352  19.514  24.912  1.00  0.00     0.041 A 
ATOM     11  C   UNL A   1      34.293  21.836  24.250  1.00  0.00     0.143 A 
ATOM     12  C   UNL A   1      32.974  19.443  24.707  1.00  0.00     0.043 A 
ATOM     13  C   UNL A   1      32.913  21.766  24.038  1.00  0.00     0.020 A 
ATOM     14  O   UNL A   1      35.009  22.970  24.000  1.00  0.00    -0.474 OA
ATOM     15  Cl  UNL A   1      32.154  17.955  24.982  1.00  0.00    -0.084 Cl
ATOM     16  C   UNL A   1      32.251  20.558  24.271  1.00  0.00     0.032 A 
ATOM     17  C   UNL A   1      32.205  22.937  23.531  1.00  0.00     0.025 C 
ATOM     18  C   UNL A   1      34.279  24.212  23.935  1.00  0.00     0.314 C 
BRANCH   9  19
ATOM     19  C   UNL A   1      36.434  20.808  24.883  1.00  0.00    -0.067 C 
ATOM     20  C   UNL A   1      37.630  20.825  25.001  1.00  0.00     0.010 C 
ENDBRANCH   9  19
BRANCH  18  21
ATOM     21  C   UNL A   1      34.402  24.947  25.285  1.00  0.00     0.429 C 
ATOM     22  F   UNL A   1      35.604  24.687  25.858  1.00  0.00    -0.167 F 
ATOM     23  F   UNL A   1      34.319  26.292  25.161  1.00  0.00    -0.167 F 
ATOM     24  F   UNL A   1      33.442  24.575  26.163  1.00  0.00    -0.167 F 
ENDBRANCH  18  21
ENDBRANCH   5   8
ENDBRANCH   3   4
ENDBRANCH   2   3
ENDBRANCH   1   2
BRANCH   1  25
ATOM     25  C   UNL A   1      32.794  29.198  25.571  1.00  0.00     0.116 C 
BRANCH  25  26
ATOM     26  N   UNL A   1      32.345  30.523  25.981  1.00  0.00    -0.352 N 
ATOM     27  C   UNL A   1      32.926  31.361  26.903  1.00  0.00     0.251 C 
ATOM     28  H   UNL A   1      31.528  30.857  25.545  1.00  0.00     0.163 HD
ATOM     29  O   UNL A   1      32.366  32.392  27.255  1.00  0.00    -0.269 OA
BRANCH  27  30
ATOM     30  C   UNL A   1      34.220  30.955  27.482  1.00  0.00     0.039 A 
ATOM     31  C   UNL A   1      35.195  31.925  27.706  1.00  0.00     0.014 A 
ATOM     32  C   UNL A   1      34.399  29.638  27.916  1.00  0.00     0.014 A 
ATOM     33  C   UNL A   1      36.333  31.584  28.434  1.00  0.00     0.010 A 
ATOM     34  C   UNL A   1      35.484  29.328  28.723  1.00  0.00     0.010 A 
ATOM     35  C   UNL A   1      36.466  30.296  28.982  1.00  0.00    -0.014 A 
BRANCH  35  36
ATOM     36  C   UNL A   1      37.648  29.934  29.803  1.00  0.00     0.031 A 
ATOM     37  C   UNL A   1      38.703  29.035  29.223  1.00  0.00     0.074 A 
ATOM     38  C   UNL A   1      37.757  30.393  31.064  1.00  0.00     0.049 A 
ATOM     39  N   UNL A   1      39.794  28.581  29.780  1.00  0.00    -0.248 NA
ATOM     40  C   UNL A   1      38.493  28.565  27.843  1.00  0.00     0.031 C 
ATOM     41  C   UNL A   1      36.782  31.254  31.739  1.00  0.00     0.029 A 
ATOM     42  N   UNL A   1      38.742  30.211  32.003  1.00  0.00    -0.354 N 
ATOM     43  C   UNL A   1      40.402  27.781  28.820  1.00  0.00     0.074 A 
ATOM     44  C   UNL A   1      39.519  27.747  27.675  1.00  0.00     0.031 C 
ATOM     45  C   UNL A   1      37.244  31.568  32.960  1.00  0.00     0.029 A 
ATOM     46  C   UNL A   1      38.520  30.890  33.178  1.00  0.00     0.049 A 
ATOM     47  H   UNL A   1      39.534  29.647  31.848  1.00  0.00     0.167 HD
ATOM     48  C   UNL A   1      41.604  27.162  28.874  1.00  0.00     0.034 A 
ATOM     49  C   UNL A   1      39.258  30.959  34.303  1.00  0.00     0.034 A 
ATOM     50  C   UNL A   1      42.479  27.215  30.015  1.00  0.00     0.049 A 
ATOM     51  C   UNL A   1      40.562  30.206  34.366  1.00  0.00     0.074 A 
ATOM     52  C   UNL A   1      43.731  26.649  30.161  1.00  0.00     0.029 A 
ATOM     53  N   UNL A   1      42.193  27.868  31.207  1.00  0.00    -0.354 N 
ATOM     54  N   UNL A   1      41.133  29.472  33.440  1.00  0.00    -0.248 NA
ATOM     55  C   UNL A   1      41.318  30.289  35.622  1.00  0.00     0.031 C 
ATOM     56  C   UNL A   1      44.169  26.893  31.465  1.00  0.00     0.029 A 
ATOM     57  C   UNL A   1      43.229  27.683  32.107  1.00  0.00     0.049 A 
ATOM     58  H   UNL A   1      41.375  28.386  31.386  1.00  0.00     0.167 HD
ATOM     59  C   UNL A   1      42.327  29.022  33.994  1.00  0.00     0.074 A 
ATOM     60  C   UNL A   1      42.398  29.575  35.332  1.00  0.00     0.031 C 
ATOM     61  C   UNL A   1      43.279  28.227  33.443  1.00  0.00     0.034 A 
BRANCH  48  62
ATOM     62  C   UNL A   1      42.034  26.369  27.667  1.00  0.00     0.023 A 
ATOM     63  C   UNL A   1      41.749  24.998  27.552  1.00  0.00     0.031 A 
ATOM     64  C   UNL A   1      42.728  26.992  26.615  1.00  0.00     0.131 A 
ATOM     65  C   UNL A   1      42.197  24.282  26.433  1.00  0.00     0.055 A 
ATOM     66  C   UNL A   1      43.110  26.289  25.471  1.00  0.00     0.041 A 
ATOM     67  F   UNL A   1      43.046  28.294  26.683  1.00  0.00    -0.206 F 
ATOM     68  C   UNL A   1      42.853  24.924  25.379  1.00  0.00     0.022 A 
BRANCH  65  69
ATOM     69  S   UNL A   1      41.996  22.481  26.419  1.00  0.00     0.124 S 
ATOM     70  O   UNL A   1      42.556  22.112  27.718  1.00  0.00    -0.237 OA
ATOM     71  O   UNL A   1      40.554  22.324  26.277  1.00  0.00    -0.237 OA
ATOM     72  O   UNL A   1      42.786  22.057  25.265  1.00  0.00    -0.744 OA
ENDBRANCH  65  69
ENDBRANCH  48  62
BRANCH  49  73
ATOM     73  C   UNL A   1      38.783  31.779  35.453  1.00  0.00     0.023 A 
ATOM     74  C   UNL A   1      38.150  31.180  36.554  1.00  0.00     0.031 A 
ATOM     75  C   UNL A   1      38.982  33.171  35.480  1.00  0.00     0.131 A 
ATOM     76  C   UNL A   1      37.727  31.973  37.632  1.00  0.00     0.055 A 
ATOM     77  C   UNL A   1      38.595  33.950  36.572  1.00  0.00     0.041 A 
ATOM     78  F   UNL A   1      39.591  33.789  34.456  1.00  0.00    -0.206 F 
ATOM     79  C   UNL A   1      37.959  33.351  37.655  1.00  0.00     0.022 A 
BRANCH  76  80
ATOM     80  S   UNL A   1      36.850  31.179  39.006  1.00  0.00     0.124 S 
ATOM     81  O   UNL A   1      35.653  32.007  39.112  1.00  0.00    -0.237 OA
ATOM     82  O   UNL A   1      36.653  29.825  38.501  1.00  0.00    -0.237 OA
ATOM     83  O   UNL A   1      37.789  31.294  40.121  1.00  0.00    -0.744 OA
ENDBRANCH  76  80
ENDBRANCH  49  73
BRANCH  61  84
ATOM     84  C   UNL A   1      44.495  27.913  34.275  1.00  0.00     0.023 A 
ATOM     85  C   UNL A   1      44.571  26.741  35.047  1.00  0.00     0.031 A 
ATOM     86  C   UNL A   1      45.617  28.760  34.240  1.00  0.00     0.131 A 
ATOM     87  C   UNL A   1      45.736  26.462  35.773  1.00  0.00     0.055 A 
ATOM     88  C   UNL A   1      46.793  28.450  34.922  1.00  0.00     0.041 A 
ATOM     89  F   UNL A   1      45.597  29.890  33.514  1.00  0.00    -0.206 F 
ATOM     90  C   UNL A   1      46.855  27.296  35.700  1.00  0.00     0.022 A 
BRANCH  87  91
ATOM     91  S   UNL A   1      45.759  25.005  36.853  1.00  0.00     0.124 S 
ATOM     92  O   UNL A   1      44.540  25.191  37.635  1.00  0.00    -0.237 OA
ATOM     93  O   UNL A   1      45.740  23.903  35.896  1.00  0.00    -0.237 OA
ATOM     94  O   UNL A   1      47.005  25.153  37.602  1.00  0.00    -0.744 OA
ENDBRANCH  87  91
ENDBRANCH  61  84
ENDBRANCH  35  36
ENDBRANCH  27  30
ENDBRANCH  25  26
ENDBRANCH   1  25
TORSDOF 16
ENDMDL
MODEL 2
REMARK VINA RESULT:     -12.0      1.779      7.739
REMARK SMILES C#Cc1cc(Cl)cc2c1O[C@H](C(F)(F)F)C(C(=O)NCCCCNC(=O)c1ccc(-c3c4nc(c(-c5cc(S(=O)(=O)[O-])ccc5F)c5ccc([nH]5)c(-c5cc(S(=O)(=O)[O-])ccc5F)c5nc(c(-c6cc(S(=O)(=O)[O-])ccc6F)c6ccc3[nH]6)C=C5)C=C4)cc1)=C2
REMARK SMILES IDX 22 1 21 2 20 3 19 4 17 5 18 6 16 8 3 9 4 10 9 11 5 12 8 13
REMARK SMILES IDX 10 14 6 15 7 16 90 17 11 18 2 19 1 20 12 21 13 22 14 23
REMARK SMILES IDX 15 24 23 25 24 26 25 27 26 29 27 30 28 31 89 32 29 33 88 34
REMARK SMILES IDX 30 35 31 36 32 37 82 38 33 39 87 40 81 41 83 42 34 43 86 44
REMARK SMILES IDX 80 45 79 46 35 48 67 49 47 50 66 51 48 52 51 53 65 54 84 55
REMARK SMILES IDX 49 56 50 57 64 59 85 60 52 61 36 62 37 63 45 64 38 65 44 66
REMARK SMILES IDX 46 67 43 68 39 69 40 70 41 71 42 72 68 73 69 74 77 75 70 76
REMARK SMILES IDX 76 77 78 78 75 79 71 80 72 81 73 82 74 83 53 84 54 85 62 86
REMARK SMILES IDX 55 87 61 88 63 89 60 90 56 91 57 92 58 93 59 94
REMARK H PARENT 19 7 24 28 83 47 51 58
REMARK Flexibility Score: inf
ROOT
ATOM      1  C   UNL A   1      31.939  29.173  25.557  1.00  0.00     0.023 C 
ENDROOT
BRANCH   1   2
ATOM      2  C   UNL A   1      32.176  28.754  24.112  1.00  0.00     0.023 C 
BRANCH   2   3
ATOM      3  C   UNL A   1      31.326  27.564  23.688  1.00  0.00     0.116 C 
BRANCH   3   4
ATOM      4  N   UNL A   1      30.612  26.972  24.808  1.00  0.00    -0.352 N 
ATOM      5  C   UNL A   1      30.737  25.872  25.591  1.00  0.00     0.251 C 
ATOM      6  O   UNL A   1      29.908  25.757  26.497  1.00  0.00    -0.270 OA
ATOM      7  H   UNL A   1      29.831  27.513  25.066  1.00  0.00     0.163 HD
BRANCH   5   8
ATOM      8  C   UNL A   1      31.787  24.824  25.416  1.00  0.00     0.067 C 
ATOM      9  C   UNL A   1      34.748  21.846  25.239  1.00  0.00     0.068 A 
ATOM     10  C   UNL A   1      36.085  22.181  25.441  1.00  0.00     0.041 A 
ATOM     11  C   UNL A   1      33.765  22.842  25.326  1.00  0.00     0.143 A 
ATOM     12  C   UNL A   1      36.424  23.503  25.732  1.00  0.00     0.043 A 
ATOM     13  C   UNL A   1      34.102  24.166  25.622  1.00  0.00     0.020 A 
ATOM     14  O   UNL A   1      32.471  22.443  25.160  1.00  0.00    -0.474 OA
ATOM     15  Cl  UNL A   1      38.075  23.913  25.993  1.00  0.00    -0.084 Cl
ATOM     16  C   UNL A   1      35.444  24.495  25.825  1.00  0.00     0.032 A 
ATOM     17  C   UNL A   1      33.043  25.162  25.764  1.00  0.00     0.025 C 
ATOM     18  C   UNL A   1      31.496  23.464  24.863  1.00  0.00     0.314 C 
BRANCH   9  19
ATOM     19  C   UNL A   1      34.377  20.494  24.942  1.00  0.00    -0.067 C 
ATOM     20  C   UNL A   1      34.066  19.379  24.615  1.00  0.00     0.010 C 
ENDBRANCH   9  19
BRANCH  18  21
ATOM     21  C   UNL A   1      31.232  23.488  23.344  1.00  0.00     0.429 C 
ATOM     22  F   UNL A   1      31.498  22.275  22.797  1.00  0.00    -0.167 F 
ATOM     23  F   UNL A   1      29.944  23.772  23.038  1.00  0.00    -0.167 F 
ATOM     24  F   UNL A   1      31.996  24.401  22.702  1.00  0.00    -0.167 F 
ENDBRANCH  18  21
ENDBRANCH   5   8
ENDBRANCH   3   4
ENDBRANCH   2   3
ENDBRANCH   1   2
BRANCH   1  25
ATOM     25  C   UNL A   1      33.152  29.796  26.239  1.00  0.00     0.116 C 
BRANCH  25  26
ATOM     26  N   UNL A   1      32.916  31.159  26.701  1.00  0.00    -0.352 N 
ATOM     27  C   UNL A   1      33.707  31.914  27.534  1.00  0.00     0.251 C 
ATOM     28  H   UNL A   1      32.092  31.589  26.376  1.00  0.00     0.163 HD
ATOM     29  O   UNL A   1      33.321  32.998  27.954  1.00  0.00    -0.269 OA
BRANCH  27  30
ATOM     30  C   UNL A   1      35.012  31.356  27.936  1.00  0.00     0.039 A 
ATOM     31  C   UNL A   1      36.129  32.190  27.950  1.00  0.00     0.014 A 
ATOM     32  C   UNL A   1      35.083  30.046  28.418  1.00  0.00     0.014 A 
ATOM     33  C   UNL A   1      37.312  31.724  28.519  1.00  0.00     0.010 A 
ATOM     34  C   UNL A   1      36.231  29.622  29.071  1.00  0.00     0.010 A 
ATOM     35  C   UNL A   1      37.360  30.453  29.119  1.00  0.00    -0.014 A 
BRANCH  35  36
ATOM     36  C   UNL A   1      38.598  29.965  29.774  1.00  0.00     0.031 A 
ATOM     37  C   UNL A   1      38.973  30.489  31.131  1.00  0.00     0.074 A 
ATOM     38  C   UNL A   1      39.388  29.075  29.142  1.00  0.00     0.049 A 
ATOM     39  N   UNL A   1      40.021  30.211  31.860  1.00  0.00    -0.248 NA
ATOM     40  C   UNL A   1      38.062  31.473  31.740  1.00  0.00     0.031 C 
ATOM     41  C   UNL A   1      39.134  28.514  27.812  1.00  0.00     0.029 A 
ATOM     42  N   UNL A   1      40.557  28.474  29.537  1.00  0.00    -0.354 N 
ATOM     43  C   UNL A   1      39.892  30.977  33.012  1.00  0.00     0.074 A 
ATOM     44  C   UNL A   1      38.708  31.791  32.850  1.00  0.00     0.031 C 
ATOM     45  C   UNL A   1      40.089  27.614  27.527  1.00  0.00     0.029 A 
ATOM     46  C   UNL A   1      41.050  27.570  28.625  1.00  0.00     0.049 A 
ATOM     47  H   UNL A   1      41.001  28.673  30.393  1.00  0.00     0.167 HD
ATOM     48  C   UNL A   1      40.669  30.975  34.120  1.00  0.00     0.034 A 
ATOM     49  C   UNL A   1      42.151  26.794  28.668  1.00  0.00     0.034 A 
ATOM     50  C   UNL A   1      41.838  30.151  34.273  1.00  0.00     0.049 A 
ATOM     51  C   UNL A   1      43.040  26.859  29.883  1.00  0.00     0.074 A 
ATOM     52  C   UNL A   1      42.678  30.050  35.366  1.00  0.00     0.029 A 
ATOM     53  N   UNL A   1      42.336  29.288  33.305  1.00  0.00    -0.354 N 
ATOM     54  N   UNL A   1      42.891  27.573  30.974  1.00  0.00    -0.248 NA
ATOM     55  C   UNL A   1      44.242  26.016  29.873  1.00  0.00     0.031 C 
ATOM     56  C   UNL A   1      43.725  29.187  35.033  1.00  0.00     0.029 A 
ATOM     57  C   UNL A   1      43.496  28.684  33.762  1.00  0.00     0.049 A 
ATOM     58  H   UNL A   1      41.926  29.130  32.424  1.00  0.00     0.167 HD
ATOM     59  C   UNL A   1      43.970  27.250  31.791  1.00  0.00     0.074 A 
ATOM     60  C   UNL A   1      44.758  26.270  31.069  1.00  0.00     0.031 C 
ATOM     61  C   UNL A   1      44.278  27.720  33.026  1.00  0.00     0.034 A 
BRANCH  48  62
ATOM     62  C   UNL A   1      40.282  31.900  35.245  1.00  0.00     0.023 A 
ATOM     63  C   UNL A   1      39.324  31.526  36.203  1.00  0.00     0.031 A 
ATOM     64  C   UNL A   1      40.882  33.165  35.366  1.00  0.00     0.131 A 
ATOM     65  C   UNL A   1      38.960  32.427  37.214  1.00  0.00     0.055 A 
ATOM     66  C   UNL A   1      40.567  34.029  36.416  1.00  0.00     0.041 A 
ATOM     67  F   UNL A   1      41.786  33.582  34.465  1.00  0.00    -0.206 F 
ATOM     68  C   UNL A   1      39.593  33.665  37.343  1.00  0.00     0.022 A 
BRANCH  65  69
ATOM     69  S   UNL A   1      37.576  31.994  38.302  1.00  0.00     0.124 S 
ATOM     70  O   UNL A   1      38.176  32.165  39.624  1.00  0.00    -0.237 OA
ATOM     71  O   UNL A   1      36.563  32.974  37.930  1.00  0.00    -0.237 OA
ATOM     72  O   UNL A   1      37.272  30.613  37.937  1.00  0.00    -0.744 OA
ENDBRANCH  65  69
ENDBRANCH  48  62
BRANCH  49  73
ATOM     73  C   UNL A   1      42.465  25.887  27.529  1.00  0.00     0.023 A 
ATOM     74  C   UNL A   1      42.082  24.536  27.556  1.00  0.00     0.031 A 
ATOM     75  C   UNL A   1      43.127  26.365  26.384  1.00  0.00     0.131 A 
ATOM     76  C   UNL A   1      42.374  23.706  26.463  1.00  0.00     0.055 A 
ATOM     77  C   UNL A   1      43.380  25.545  25.283  1.00  0.00     0.041 A 
ATOM     78  F   UNL A   1      43.504  27.650  26.306  1.00  0.00    -0.206 F 
ATOM     79  C   UNL A   1      43.007  24.205  25.320  1.00  0.00     0.022 A 
BRANCH  76  80
ATOM     80  S   UNL A   1      41.931  21.951  26.557  1.00  0.00     0.124 S 
ATOM     81  O   UNL A   1      42.543  21.423  25.343  1.00  0.00    -0.237 OA
ATOM     82  O   UNL A   1      42.547  21.547  27.817  1.00  0.00    -0.237 OA
ATOM     83  O   UNL A   1      40.468  21.969  26.563  1.00  0.00    -0.744 OA
ENDBRANCH  76  80
ENDBRANCH  49  73
BRANCH  61  84
ATOM     84  C   UNL A   1      45.512  27.173  33.695  1.00  0.00     0.023 A 
ATOM     85  C   UNL A   1      45.479  25.975  34.427  1.00  0.00     0.031 A 
ATOM     86  C   UNL A   1      46.750  27.823  33.538  1.00  0.00     0.131 A 
ATOM     87  C   UNL A   1      46.657  25.475  34.998  1.00  0.00     0.055 A 
ATOM     88  C   UNL A   1      47.928  27.293  34.063  1.00  0.00     0.041 A 
ATOM     89  F   UNL A   1      46.837  28.969  32.844  1.00  0.00    -0.206 F 
ATOM     90  C   UNL A   1      47.885  26.114  34.803  1.00  0.00     0.022 A 
BRANCH  87  91
ATOM     91  S   UNL A   1      46.559  23.992  36.036  1.00  0.00     0.124 S 
ATOM     92  O   UNL A   1      45.222  24.112  36.609  1.00  0.00    -0.237 OA
ATOM     93  O   UNL A   1      46.743  22.916  35.068  1.00  0.00    -0.237 OA
ATOM     94  O   UNL A   1      47.658  24.164  36.985  1.00  0.00    -0.744 OA
ENDBRANCH  87  91
ENDBRANCH  61  84
ENDBRANCH  35  36
ENDBRANCH  27  30
ENDBRANCH  25  26
ENDBRANCH   1  25
TORSDOF 16
ENDMDL
MODEL 3
REMARK VINA RESULT:     -12.0      5.328      7.906
REMARK SMILES C#Cc1cc(Cl)cc2c1O[C@H](C(F)(F)F)C(C(=O)NCCCCNC(=O)c1ccc(-c3c4nc(c(-c5cc(S(=O)(=O)[O-])ccc5F)c5ccc([nH]5)c(-c5cc(S(=O)(=O)[O-])ccc5F)c5nc(c(-c6cc(S(=O)(=O)[O-])ccc6F)c6ccc3[nH]6)C=C5)C=C4)cc1)=C2
REMARK SMILES IDX 22 1 21 2 20 3 19 4 17 5 18 6 16 8 3 9 4 10 9 11 5 12 8 13
REMARK SMILES IDX 10 14 6 15 7 16 90 17 11 18 2 19 1 20 12 21 13 22 14 23
REMARK SMILES IDX 15 24 23 25 24 26 25 27 26 29 27 30 28 31 89 32 29 33 88 34
REMARK SMILES IDX 30 35 31 36 32 37 82 38 33 39 87 40 81 41 83 42 34 43 86 44
REMARK SMILES IDX 80 45 79 46 35 48 67 49 47 50 66 51 48 52 51 53 65 54 84 55
REMARK SMILES IDX 49 56 50 57 64 59 85 60 52 61 36 62 37 63 45 64 38 65 44 66
REMARK SMILES IDX 46 67 43 68 39 69 40 70 41 71 42 72 68 73 69 74 77 75 70 76
REMARK SMILES IDX 76 77 78 78 75 79 71 80 72 81 73 82 74 83 53 84 54 85 62 86
REMARK SMILES IDX 55 87 61 88 63 89 60 90 56 91 57 92 58 93 59 94
REMARK H PARENT 19 7 24 28 83 47 51 58
REMARK Flexibility Score: inf
ROOT
ATOM      1  C   UNL A   1      35.788  21.573  24.727  1.00  0.00     0.023 C 
ENDROOT
BRANCH   1   2
ATOM      2  C   UNL A   1      34.633  21.886  25.669  1.00  0.00     0.023 C 
BRANCH   2   3
ATOM      3  C   UNL A   1      33.307  22.079  24.946  1.00  0.00     0.116 C 
BRANCH   3   4
ATOM      4  N   UNL A   1      33.492  22.456  23.553  1.00  0.00    -0.352 N 
ATOM      5  C   UNL A   1      33.373  23.583  22.809  1.00  0.00     0.251 C 
ATOM      6  O   UNL A   1      33.678  23.480  21.618  1.00  0.00    -0.270 OA
ATOM      7  H   UNL A   1      33.778  21.690  23.005  1.00  0.00     0.163 HD
BRANCH   5   8
ATOM      8  C   UNL A   1      32.902  24.899  23.336  1.00  0.00     0.067 C 
ATOM      9  C   UNL A   1      31.797  28.739  24.640  1.00  0.00     0.068 A 
ATOM     10  C   UNL A   1      32.523  29.367  25.649  1.00  0.00     0.041 A 
ATOM     11  C   UNL A   1      32.189  27.469  24.194  1.00  0.00     0.143 A 
ATOM     12  C   UNL A   1      33.632  28.724  26.199  1.00  0.00     0.043 A 
ATOM     13  C   UNL A   1      33.304  26.824  24.739  1.00  0.00     0.020 A 
ATOM     14  O   UNL A   1      31.464  26.926  23.174  1.00  0.00    -0.474 OA
ATOM     15  Cl  UNL A   1      34.535  29.506  27.438  1.00  0.00    -0.084 Cl
ATOM     16  C   UNL A   1      34.028  27.460  25.750  1.00  0.00     0.032 A 
ATOM     17  C   UNL A   1      33.716  25.530  24.205  1.00  0.00     0.025 C 
ATOM     18  C   UNL A   1      31.586  25.504  22.958  1.00  0.00     0.314 C 
BRANCH   9  19
ATOM     19  C   UNL A   1      30.655  29.384  24.060  1.00  0.00    -0.067 C 
ATOM     20  C   UNL A   1      29.734  29.918  23.502  1.00  0.00     0.010 C 
ENDBRANCH   9  19
BRANCH  18  21
ATOM     21  C   UNL A   1      30.393  24.785  23.618  1.00  0.00     0.429 C 
ATOM     22  F   UNL A   1      30.715  24.385  24.873  1.00  0.00    -0.167 F 
ATOM     23  F   UNL A   1      29.301  25.576  23.735  1.00  0.00    -0.167 F 
ATOM     24  F   UNL A   1      30.007  23.688  22.926  1.00  0.00    -0.167 F 
ENDBRANCH  18  21
ENDBRANCH   5   8
ENDBRANCH   3   4
ENDBRANCH   2   3
ENDBRANCH   1   2
BRANCH   1  25
ATOM     25  C   UNL A   1      37.152  22.038  25.225  1.00  0.00     0.116 C 
BRANCH  25  26
ATOM     26  N   UNL A   1      38.061  20.939  25.527  1.00  0.00    -0.352 N 
ATOM     27  C   UNL A   1      39.297  21.009  26.126  1.00  0.00     0.251 C 
ATOM     28  H   UNL A   1      37.753  20.040  25.271  1.00  0.00     0.163 HD
ATOM     29  O   UNL A   1      40.018  20.021  26.194  1.00  0.00    -0.269 OA
BRANCH  27  30
ATOM     30  C   UNL A   1      39.737  22.318  26.643  1.00  0.00     0.039 A 
ATOM     31  C   UNL A   1      40.784  22.365  27.561  1.00  0.00     0.014 A 
ATOM     32  C   UNL A   1      39.193  23.490  26.109  1.00  0.00     0.014 A 
ATOM     33  C   UNL A   1      41.335  23.600  27.895  1.00  0.00     0.010 A 
ATOM     34  C   UNL A   1      39.808  24.705  26.367  1.00  0.00     0.010 A 
ATOM     35  C   UNL A   1      40.879  24.774  27.270  1.00  0.00    -0.014 A 
BRANCH  35  36
ATOM     36  C   UNL A   1      41.491  26.090  27.578  1.00  0.00     0.031 A 
ATOM     37  C   UNL A   1      42.861  26.409  27.049  1.00  0.00     0.074 A 
ATOM     38  C   UNL A   1      40.829  26.977  28.344  1.00  0.00     0.049 A 
ATOM     39  N   UNL A   1      43.579  27.486  27.223  1.00  0.00    -0.248 NA
ATOM     40  C   UNL A   1      43.519  25.373  26.236  1.00  0.00     0.031 C 
ATOM     41  C   UNL A   1      39.503  26.765  28.931  1.00  0.00     0.029 A 
ATOM     42  N   UNL A   1      41.172  28.242  28.752  1.00  0.00    -0.354 N 
ATOM     43  C   UNL A   1      44.767  27.261  26.538  1.00  0.00     0.074 A 
ATOM     44  C   UNL A   1      44.705  25.915  26.014  1.00  0.00     0.031 C 
ATOM     45  C   UNL A   1      39.125  27.881  29.576  1.00  0.00     0.029 A 
ATOM     46  C   UNL A   1      40.199  28.867  29.497  1.00  0.00     0.049 A 
ATOM     47  H   UNL A   1      42.035  28.662  28.532  1.00  0.00     0.167 HD
ATOM     48  C   UNL A   1      45.799  28.112  26.333  1.00  0.00     0.034 A 
ATOM     49  C   UNL A   1      40.175  30.095  30.053  1.00  0.00     0.034 A 
ATOM     50  C   UNL A   1      45.842  29.454  26.851  1.00  0.00     0.049 A 
ATOM     51  C   UNL A   1      41.364  31.001  29.869  1.00  0.00     0.074 A 
ATOM     52  C   UNL A   1      46.826  30.408  26.676  1.00  0.00     0.029 A 
ATOM     53  N   UNL A   1      44.861  30.031  27.647  1.00  0.00    -0.354 N 
ATOM     54  N   UNL A   1      42.471  30.780  29.199  1.00  0.00    -0.248 NA
ATOM     55  C   UNL A   1      41.303  32.318  30.516  1.00  0.00     0.031 C 
ATOM     56  C   UNL A   1      46.479  31.534  27.428  1.00  0.00     0.029 A 
ATOM     57  C   UNL A   1      45.238  31.315  28.005  1.00  0.00     0.049 A 
ATOM     58  H   UNL A   1      44.022  29.593  27.917  1.00  0.00     0.167 HD
ATOM     59  C   UNL A   1      43.230  31.939  29.326  1.00  0.00     0.074 A 
ATOM     60  C   UNL A   1      42.451  32.859  30.129  1.00  0.00     0.031 C 
ATOM     61  C   UNL A   1      44.458  32.216  28.819  1.00  0.00     0.034 A 
BRANCH  48  62
ATOM     62  C   UNL A   1      46.966  27.610  25.524  1.00  0.00     0.023 A 
ATOM     63  C   UNL A   1      47.131  27.970  24.175  1.00  0.00     0.031 A 
ATOM     64  C   UNL A   1      47.930  26.770  26.108  1.00  0.00     0.131 A 
ATOM     65  C   UNL A   1      48.208  27.453  23.441  1.00  0.00     0.055 A 
ATOM     66  C   UNL A   1      49.038  26.316  25.392  1.00  0.00     0.041 A 
ATOM     67  F   UNL A   1      47.809  26.377  27.386  1.00  0.00    -0.206 F 
ATOM     68  C   UNL A   1      49.178  26.650  24.047  1.00  0.00     0.022 A 
BRANCH  65  69
ATOM     69  S   UNL A   1      48.271  27.768  21.657  1.00  0.00     0.124 S 
ATOM     70  O   UNL A   1      48.635  26.451  21.139  1.00  0.00    -0.237 OA
ATOM     71  O   UNL A   1      46.915  28.217  21.367  1.00  0.00    -0.237 OA
ATOM     72  O   UNL A   1      49.308  28.789  21.526  1.00  0.00    -0.744 OA
ENDBRANCH  65  69
ENDBRANCH  48  62
BRANCH  49  73
ATOM     73  C   UNL A   1      38.979  30.536  30.824  1.00  0.00     0.023 A 
ATOM     74  C   UNL A   1      38.001  31.353  30.235  1.00  0.00     0.031 A 
ATOM     75  C   UNL A   1      38.783  30.123  32.154  1.00  0.00     0.131 A 
ATOM     76  C   UNL A   1      36.875  31.740  30.979  1.00  0.00     0.055 A 
ATOM     77  C   UNL A   1      37.643  30.479  32.877  1.00  0.00     0.041 A 
ATOM     78  F   UNL A   1      39.685  29.333  32.759  1.00  0.00    -0.206 F 
ATOM     79  C   UNL A   1      36.682  31.297  32.290  1.00  0.00     0.022 A 
BRANCH  76  80
ATOM     80  S   UNL A   1      35.666  32.853  30.213  1.00  0.00     0.124 S 
ATOM     81  O   UNL A   1      35.925  32.642  28.793  1.00  0.00    -0.237 OA
ATOM     82  O   UNL A   1      34.403  32.328  30.721  1.00  0.00    -0.237 OA
ATOM     83  O   UNL A   1      36.041  34.169  30.727  1.00  0.00    -0.744 OA
ENDBRANCH  76  80
ENDBRANCH  49  73
BRANCH  61  84
ATOM     84  C   UNL A   1      45.040  33.577  29.100  1.00  0.00     0.023 A 
ATOM     85  C   UNL A   1      44.724  34.688  28.301  1.00  0.00     0.031 A 
ATOM     86  C   UNL A   1      45.865  33.777  30.222  1.00  0.00     0.131 A 
ATOM     87  C   UNL A   1      45.251  35.947  28.621  1.00  0.00     0.055 A 
ATOM     88  C   UNL A   1      46.342  35.041  30.566  1.00  0.00     0.041 A 
ATOM     89  F   UNL A   1      46.193  32.748  31.021  1.00  0.00    -0.206 F 
ATOM     90  C   UNL A   1      46.040  36.136  29.759  1.00  0.00     0.022 A 
BRANCH  87  91
ATOM     91  S   UNL A   1      44.922  37.336  27.503  1.00  0.00     0.124 S 
ATOM     92  O   UNL A   1      43.664  36.933  26.882  1.00  0.00    -0.237 OA
ATOM     93  O   UNL A   1      44.846  38.468  28.421  1.00  0.00    -0.237 OA
ATOM     94  O   UNL A   1      46.081  37.340  26.611  1.00  0.00    -0.744 OA
ENDBRANCH  87  91
ENDBRANCH  61  84
ENDBRANCH  35  36
ENDBRANCH  27  30
ENDBRANCH  25  26
ENDBRANCH   1  25
TORSDOF 16
ENDMDL
