MODEL 1
REMARK VINA RESULT:     -12.0      0.000      0.000
REMARK SMILES O=C(NCCCCNC(=O)c1cn(-c2ncnc3ccccc23)cn1)c1ccc(-c2c3nc(c(-c4cc(S(=O)(=O)[O-])ccc4F)c4ccc([nH]4)c(-c4cc(S(=O)(=O)[O-])ccc4F)c4nc(c(-c5cc(S(=O)(=O)[O-])ccc5F)c5ccc2[nH]5)C=C4)C=C3)cc1
REMARK SMILES IDX 4 1 3 2 1 3 2 4 26 6 27 7 88 8 28 9 87 10 29 11 30 12 31 13
REMARK SMILES IDX 81 14 32 15 86 16 80 17 82 18 33 19 85 20 79 21 78 22 34 24
REMARK SMILES IDX 66 25 46 26 65 27 47 28 50 29 64 30 83 31 48 32 49 33 63 35
REMARK SMILES IDX 84 36 51 37 35 38 36 39 44 40 37 41 43 42 45 43 42 44 38 45
REMARK SMILES IDX 39 46 40 47 41 48 67 49 68 50 76 51 69 52 75 53 77 54 74 55
REMARK SMILES IDX 70 56 71 57 72 58 73 59 52 60 53 61 61 62 54 63 60 64 62 65
REMARK SMILES IDX 59 66 55 67 56 68 57 69 58 70 5 71 6 72 7 73 8 74 9 75 10 77
REMARK SMILES IDX 11 78 12 79 25 80 13 81 24 82 14 83 15 84 23 85 16 86 18 87
REMARK SMILES IDX 22 88 17 89 19 90 21 91 20 92
REMARK H PARENT 3 5 82 23 50 34 8 76
REMARK Flexibility Score: inf
ROOT
ATOM      1  C   UNL A   1      34.746  33.214  29.483  1.00  0.00     0.116 C 
ENDROOT
BRANCH   1   2
ATOM      2  N   UNL A   1      34.461  32.248  28.443  1.00  0.00    -0.352 N 
ATOM      3  O   UNL A   1      34.389  30.394  27.249  1.00  0.00    -0.269 OA
ATOM      4  C   UNL A   1      35.055  31.088  28.024  1.00  0.00     0.251 C 
ATOM      5  H   UNL A   1      33.659  32.477  27.919  1.00  0.00     0.163 HD
BRANCH   4   6
ATOM      6  C   UNL A   1      36.440  30.659  28.367  1.00  0.00     0.039 A 
ATOM      7  C   UNL A   1      37.417  31.444  28.979  1.00  0.00     0.014 A 
ATOM      8  C   UNL A   1      36.768  29.336  28.011  1.00  0.00     0.014 A 
ATOM      9  C   UNL A   1      38.713  30.951  29.149  1.00  0.00     0.010 A 
ATOM     10  C   UNL A   1      38.056  28.838  28.181  1.00  0.00     0.010 A 
ATOM     11  C   UNL A   1      39.041  29.658  28.724  1.00  0.00    -0.014 A 
BRANCH  11  12
ATOM     12  C   UNL A   1      40.354  29.107  29.073  1.00  0.00     0.031 A 
ATOM     13  C   UNL A   1      40.569  28.980  30.542  1.00  0.00     0.074 A 
ATOM     14  C   UNL A   1      41.236  28.589  28.190  1.00  0.00     0.049 A 
ATOM     15  N   UNL A   1      41.433  29.599  31.277  1.00  0.00    -0.248 NA
ATOM     16  C   UNL A   1      39.606  28.177  31.315  1.00  0.00     0.031 C 
ATOM     17  C   UNL A   1      41.052  28.399  26.751  1.00  0.00     0.029 A 
ATOM     18  N   UNL A   1      42.463  28.024  28.414  1.00  0.00    -0.354 N 
ATOM     19  C   UNL A   1      41.284  29.085  32.563  1.00  0.00     0.074 A 
ATOM     20  C   UNL A   1      40.032  28.379  32.563  1.00  0.00     0.031 C 
ATOM     21  C   UNL A   1      42.015  27.573  26.279  1.00  0.00     0.029 A 
ATOM     22  C   UNL A   1      42.957  27.270  27.347  1.00  0.00     0.049 A 
ATOM     23  H   UNL A   1      42.957  28.140  29.257  1.00  0.00     0.167 HD
ATOM     24  C   UNL A   1      42.322  29.076  33.446  1.00  0.00     0.034 A 
ATOM     25  C   UNL A   1      44.024  26.419  27.345  1.00  0.00     0.034 A 
ATOM     26  C   UNL A   1      43.353  30.007  33.042  1.00  0.00     0.049 A 
ATOM     27  C   UNL A   1      44.891  26.809  28.483  1.00  0.00     0.074 A 
ATOM     28  C   UNL A   1      43.387  31.365  32.786  1.00  0.00     0.029 A 
ATOM     29  N   UNL A   1      44.503  29.501  32.479  1.00  0.00    -0.354 N 
ATOM     30  N   UNL A   1      45.534  27.942  28.537  1.00  0.00    -0.248 NA
ATOM     31  C   UNL A   1      44.662  26.166  29.768  1.00  0.00     0.031 C 
ATOM     32  C   UNL A   1      44.254  31.503  31.662  1.00  0.00     0.029 A 
ATOM     33  C   UNL A   1      44.765  30.241  31.354  1.00  0.00     0.049 A 
ATOM     34  H   UNL A   1      45.038  28.749  32.821  1.00  0.00     0.167 HD
ATOM     35  C   UNL A   1      45.388  28.372  29.846  1.00  0.00     0.074 A 
ATOM     36  C   UNL A   1      44.927  27.194  30.580  1.00  0.00     0.031 C 
ATOM     37  C   UNL A   1      45.381  29.701  30.159  1.00  0.00     0.034 A 
BRANCH  24  38
ATOM     38  C   UNL A   1      42.599  27.964  34.441  1.00  0.00     0.023 A 
ATOM     39  C   UNL A   1      43.386  26.886  33.987  1.00  0.00     0.031 A 
ATOM     40  C   UNL A   1      41.903  27.743  35.651  1.00  0.00     0.131 A 
ATOM     41  C   UNL A   1      43.339  25.635  34.627  1.00  0.00     0.055 A 
ATOM     42  C   UNL A   1      41.919  26.517  36.325  1.00  0.00     0.041 A 
ATOM     43  F   UNL A   1      41.097  28.654  36.205  1.00  0.00    -0.206 F 
ATOM     44  C   UNL A   1      42.606  25.441  35.792  1.00  0.00     0.022 A 
BRANCH  41  45
ATOM     45  S   UNL A   1      44.088  24.218  33.784  1.00  0.00     0.124 S 
ATOM     46  O   UNL A   1      43.364  23.107  34.391  1.00  0.00    -0.237 OA
ATOM     47  O   UNL A   1      43.779  24.504  32.387  1.00  0.00    -0.237 OA
ATOM     48  O   UNL A   1      45.500  24.319  34.144  1.00  0.00    -0.744 OA
ENDBRANCH  41  45
ENDBRANCH  24  38
BRANCH  25  49
ATOM     49  C   UNL A   1      44.167  25.112  26.629  1.00  0.00     0.023 A 
ATOM     50  C   UNL A   1      43.333  23.991  26.864  1.00  0.00     0.031 A 
ATOM     51  C   UNL A   1      44.999  25.041  25.488  1.00  0.00     0.131 A 
ATOM     52  C   UNL A   1      43.360  22.878  25.984  1.00  0.00     0.055 A 
ATOM     53  C   UNL A   1      45.021  23.942  24.626  1.00  0.00     0.041 A 
ATOM     54  F   UNL A   1      45.761  26.083  25.120  1.00  0.00    -0.206 F 
ATOM     55  C   UNL A   1      44.194  22.859  24.865  1.00  0.00     0.022 A 
BRANCH  52  56
ATOM     56  S   UNL A   1      42.239  21.452  26.224  1.00  0.00     0.124 S 
ATOM     57  O   UNL A   1      42.844  20.433  25.376  1.00  0.00    -0.237 OA
ATOM     58  O   UNL A   1      42.312  21.231  27.663  1.00  0.00    -0.237 OA
ATOM     59  O   UNL A   1      40.946  21.950  25.751  1.00  0.00    -0.744 OA
ENDBRANCH  52  56
ENDBRANCH  25  49
BRANCH  37  60
ATOM     60  C   UNL A   1      45.853  30.697  29.119  1.00  0.00     0.023 A 
ATOM     61  C   UNL A   1      45.022  31.357  28.185  1.00  0.00     0.031 A 
ATOM     62  C   UNL A   1      47.207  31.074  29.167  1.00  0.00     0.131 A 
ATOM     63  C   UNL A   1      45.564  32.345  27.337  1.00  0.00     0.055 A 
ATOM     64  C   UNL A   1      47.733  32.066  28.344  1.00  0.00     0.041 A 
ATOM     65  F   UNL A   1      48.043  30.501  30.050  1.00  0.00    -0.206 F 
ATOM     66  C   UNL A   1      46.914  32.702  27.421  1.00  0.00     0.022 A 
BRANCH  63  67
ATOM     67  S   UNL A   1      44.526  33.177  26.091  1.00  0.00     0.124 S 
ATOM     68  O   UNL A   1      43.714  34.096  26.880  1.00  0.00    -0.237 OA
ATOM     69  O   UNL A   1      45.518  33.790  25.212  1.00  0.00    -0.237 OA
ATOM     70  O   UNL A   1      43.778  32.074  25.483  1.00  0.00    -0.744 OA
ENDBRANCH  63  67
ENDBRANCH  37  60
ENDBRANCH  11  12
ENDBRANCH   4   6
ENDBRANCH   1   2
BRANCH   1  71
ATOM     71  C   UNL A   1      35.232  34.576  28.993  1.00  0.00     0.023 C 
BRANCH  71  72
ATOM     72  C   UNL A   1      34.141  35.623  28.751  1.00  0.00     0.023 C 
BRANCH  72  73
ATOM     73  C   UNL A   1      32.903  35.521  29.639  1.00  0.00     0.116 C 
BRANCH  73  74
ATOM     74  N   UNL A   1      32.812  36.599  30.612  1.00  0.00    -0.351 N 
ATOM     75  C   UNL A   1      33.152  36.589  31.943  1.00  0.00     0.271 C 
ATOM     76  H   UNL A   1      32.458  37.452  30.270  1.00  0.00     0.163 HD
ATOM     77  O   UNL A   1      32.905  37.589  32.632  1.00  0.00    -0.267 OA
BRANCH  75  78
ATOM     78  C   UNL A   1      33.839  35.423  32.485  1.00  0.00     0.146 A 
ATOM     79  C   UNL A   1      35.194  35.317  32.741  1.00  0.00     0.128 A 
ATOM     80  N   UNL A   1      33.213  34.236  32.811  1.00  0.00    -0.231 NA
ATOM     81  N   UNL A   1      35.401  34.031  33.183  1.00  0.00    -0.289 N 
ATOM     82  C   UNL A   1      34.177  33.410  33.151  1.00  0.00     0.206 A 
BRANCH  81  83
ATOM     83  C   UNL A   1      36.640  33.416  33.493  1.00  0.00     0.149 A 
ATOM     84  N   UNL A   1      36.658  32.705  34.645  1.00  0.00    -0.218 NA
ATOM     85  C   UNL A   1      37.737  33.515  32.615  1.00  0.00     0.044 A 
ATOM     86  C   UNL A   1      37.754  31.974  34.855  1.00  0.00     0.224 A 
ATOM     87  C   UNL A   1      38.830  32.717  32.980  1.00  0.00     0.076 A 
ATOM     88  C   UNL A   1      37.861  34.373  31.483  1.00  0.00     0.014 A 
ATOM     89  N   UNL A   1      38.835  31.937  34.067  1.00  0.00    -0.236 NA
ATOM     90  C   UNL A   1      39.974  32.751  32.190  1.00  0.00     0.029 A 
ATOM     91  C   UNL A   1      39.023  34.398  30.718  1.00  0.00     0.001 A 
ATOM     92  C   UNL A   1      40.082  33.577  31.068  1.00  0.00     0.002 A 
ENDBRANCH  81  83
ENDBRANCH  75  78
ENDBRANCH  73  74
ENDBRANCH  72  73
ENDBRANCH  71  72
ENDBRANCH   1  71
TORSDOF 15
ENDMDL
MODEL 2
REMARK VINA RESULT:     -11.9      1.678      2.039
REMARK SMILES O=C(NCCCCNC(=O)c1cn(-c2ncnc3ccccc23)cn1)c1ccc(-c2c3nc(c(-c4cc(S(=O)(=O)[O-])ccc4F)c4ccc([nH]4)c(-c4cc(S(=O)(=O)[O-])ccc4F)c4nc(c(-c5cc(S(=O)(=O)[O-])ccc5F)c5ccc2[nH]5)C=C4)C=C3)cc1
REMARK SMILES IDX 4 1 3 2 1 3 2 4 26 6 27 7 88 8 28 9 87 10 29 11 30 12 31 13
REMARK SMILES IDX 81 14 32 15 86 16 80 17 82 18 33 19 85 20 79 21 78 22 34 24
REMARK SMILES IDX 66 25 46 26 65 27 47 28 50 29 64 30 83 31 48 32 49 33 63 35
REMARK SMILES IDX 84 36 51 37 35 38 36 39 44 40 37 41 43 42 45 43 42 44 38 45
REMARK SMILES IDX 39 46 40 47 41 48 67 49 68 50 76 51 69 52 75 53 77 54 74 55
REMARK SMILES IDX 70 56 71 57 72 58 73 59 52 60 53 61 61 62 54 63 60 64 62 65
REMARK SMILES IDX 59 66 55 67 56 68 57 69 58 70 5 71 6 72 7 73 8 74 9 75 10 77
REMARK SMILES IDX 11 78 12 79 25 80 13 81 24 82 14 83 15 84 23 85 16 86 18 87
REMARK SMILES IDX 22 88 17 89 19 90 21 91 20 92
REMARK H PARENT 3 5 82 23 50 34 8 76
REMARK Flexibility Score: inf
ROOT
ATOM      1  C   UNL A   1      34.699  33.616  29.281  1.00  0.00     0.116 C 
ENDROOT
BRANCH   1   2
ATOM      2  N   UNL A   1      34.242  32.519  28.454  1.00  0.00    -0.352 N 
ATOM      3  O   UNL A   1      33.904  30.504  27.622  1.00  0.00    -0.269 OA
ATOM      4  C   UNL A   1      34.692  31.249  28.213  1.00  0.00     0.251 C 
ATOM      5  H   UNL A   1      33.422  32.736  27.951  1.00  0.00     0.163 HD
BRANCH   4   6
ATOM      6  C   UNL A   1      36.057  30.746  28.534  1.00  0.00     0.039 A 
ATOM      7  C   UNL A   1      37.113  31.499  29.049  1.00  0.00     0.014 A 
ATOM      8  C   UNL A   1      36.275  29.381  28.266  1.00  0.00     0.014 A 
ATOM      9  C   UNL A   1      38.376  30.925  29.206  1.00  0.00     0.010 A 
ATOM     10  C   UNL A   1      37.531  28.803  28.424  1.00  0.00     0.010 A 
ATOM     11  C   UNL A   1      38.594  29.585  28.867  1.00  0.00    -0.014 A 
BRANCH  11  12
ATOM     12  C   UNL A   1      39.879  28.965  29.206  1.00  0.00     0.031 A 
ATOM     13  C   UNL A   1      40.157  28.949  30.671  1.00  0.00     0.074 A 
ATOM     14  C   UNL A   1      40.675  28.307  28.336  1.00  0.00     0.049 A 
ATOM     15  N   UNL A   1      41.099  29.559  31.309  1.00  0.00    -0.248 NA
ATOM     16  C   UNL A   1      39.177  28.291  31.553  1.00  0.00     0.031 C 
ATOM     17  C   UNL A   1      40.406  28.010  26.929  1.00  0.00     0.029 A 
ATOM     18  N   UNL A   1      41.867  27.670  28.556  1.00  0.00    -0.354 N 
ATOM     19  C   UNL A   1      40.978  29.170  32.641  1.00  0.00     0.074 A 
ATOM     20  C   UNL A   1      39.679  28.566  32.758  1.00  0.00     0.031 C 
ATOM     21  C   UNL A   1      41.281  27.074  26.491  1.00  0.00     0.029 A 
ATOM     22  C   UNL A   1      42.250  26.791  27.540  1.00  0.00     0.049 A 
ATOM     23  H   UNL A   1      42.409  27.819  29.363  1.00  0.00     0.167 HD
ATOM     24  C   UNL A   1      42.055  29.156  33.475  1.00  0.00     0.034 A 
ATOM     25  C   UNL A   1      43.251  25.863  27.568  1.00  0.00     0.034 A 
ATOM     26  C   UNL A   1      43.130  29.966  32.946  1.00  0.00     0.049 A 
ATOM     27  C   UNL A   1      44.199  26.281  28.628  1.00  0.00     0.074 A 
ATOM     28  C   UNL A   1      43.251  31.291  32.569  1.00  0.00     0.029 A 
ATOM     29  N   UNL A   1      44.210  29.326  32.381  1.00  0.00    -0.354 N 
ATOM     30  N   UNL A   1      44.926  27.360  28.553  1.00  0.00    -0.248 NA
ATOM     31  C   UNL A   1      43.989  25.769  29.974  1.00  0.00     0.031 C 
ATOM     32  C   UNL A   1      44.068  31.264  31.401  1.00  0.00     0.029 A 
ATOM     33  C   UNL A   1      44.469  29.945  31.184  1.00  0.00     0.049 A 
ATOM     34  H   UNL A   1      44.705  28.567  32.766  1.00  0.00     0.167 HD
ATOM     35  C   UNL A   1      44.877  27.911  29.823  1.00  0.00     0.074 A 
ATOM     36  C   UNL A   1      44.368  26.839  30.679  1.00  0.00     0.031 C 
ATOM     37  C   UNL A   1      44.984  29.258  30.016  1.00  0.00     0.034 A 
BRANCH  24  38
ATOM     38  C   UNL A   1      42.299  28.115  34.552  1.00  0.00     0.023 A 
ATOM     39  C   UNL A   1      43.071  26.993  34.190  1.00  0.00     0.031 A 
ATOM     40  C   UNL A   1      41.584  27.995  35.766  1.00  0.00     0.131 A 
ATOM     41  C   UNL A   1      42.993  25.794  34.918  1.00  0.00     0.055 A 
ATOM     42  C   UNL A   1      41.568  26.822  36.527  1.00  0.00     0.041 A 
ATOM     43  F   UNL A   1      40.788  28.959  36.241  1.00  0.00    -0.206 F 
ATOM     44  C   UNL A   1      42.242  25.698  36.084  1.00  0.00     0.022 A 
BRANCH  41  45
ATOM     45  S   UNL A   1      43.725  24.306  34.192  1.00  0.00     0.124 S 
ATOM     46  O   UNL A   1      44.911  24.133  35.023  1.00  0.00    -0.237 OA
ATOM     47  O   UNL A   1      42.659  23.327  34.376  1.00  0.00    -0.237 OA
ATOM     48  O   UNL A   1      43.981  24.696  32.808  1.00  0.00    -0.744 OA
ENDBRANCH  41  45
ENDBRANCH  24  38
BRANCH  25  49
ATOM     49  C   UNL A   1      43.261  24.492  26.965  1.00  0.00     0.023 A 
ATOM     50  C   UNL A   1      44.161  24.088  25.948  1.00  0.00     0.031 A 
ATOM     51  C   UNL A   1      42.521  23.462  27.588  1.00  0.00     0.131 A 
ATOM     52  C   UNL A   1      44.284  22.717  25.600  1.00  0.00     0.055 A 
ATOM     53  C   UNL A   1      42.646  22.115  27.240  1.00  0.00     0.041 A 
ATOM     54  F   UNL A   1      41.708  23.721  28.625  1.00  0.00    -0.206 F 
ATOM     55  C   UNL A   1      43.536  21.735  26.251  1.00  0.00     0.022 A 
BRANCH  52  56
ATOM     56  S   UNL A   1      45.492  22.163  24.344  1.00  0.00     0.124 S 
ATOM     57  O   UNL A   1      46.382  21.310  25.121  1.00  0.00    -0.237 OA
ATOM     58  O   UNL A   1      44.645  21.497  23.362  1.00  0.00    -0.237 OA
ATOM     59  O   UNL A   1      46.098  23.412  23.877  1.00  0.00    -0.744 OA
ENDBRANCH  52  56
ENDBRANCH  25  49
BRANCH  37  60
ATOM     60  C   UNL A   1      45.475  30.122  28.873  1.00  0.00     0.023 A 
ATOM     61  C   UNL A   1      46.831  30.411  28.593  1.00  0.00     0.031 A 
ATOM     62  C   UNL A   1      44.510  30.578  27.958  1.00  0.00     0.131 A 
ATOM     63  C   UNL A   1      47.169  31.142  27.435  1.00  0.00     0.055 A 
ATOM     64  C   UNL A   1      44.850  31.279  26.804  1.00  0.00     0.041 A 
ATOM     65  F   UNL A   1      43.207  30.315  28.155  1.00  0.00    -0.206 F 
ATOM     66  C   UNL A   1      46.182  31.569  26.541  1.00  0.00     0.022 A 
BRANCH  63  67
ATOM     67  S   UNL A   1      48.904  31.569  27.076  1.00  0.00     0.124 S 
ATOM     68  O   UNL A   1      49.457  30.332  26.536  1.00  0.00    -0.237 OA
ATOM     69  O   UNL A   1      48.768  32.676  26.133  1.00  0.00    -0.237 OA
ATOM     70  O   UNL A   1      49.437  31.952  28.385  1.00  0.00    -0.744 OA
ENDBRANCH  63  67
ENDBRANCH  37  60
ENDBRANCH  11  12
ENDBRANCH   4   6
ENDBRANCH   1   2
BRANCH   1  71
ATOM     71  C   UNL A   1      35.036  34.903  28.531  1.00  0.00     0.023 C 
BRANCH  71  72
ATOM     72  C   UNL A   1      34.060  36.066  28.736  1.00  0.00     0.023 C 
BRANCH  72  73
ATOM     73  C   UNL A   1      32.883  35.799  29.671  1.00  0.00     0.116 C 
BRANCH  73  74
ATOM     74  N   UNL A   1      32.765  36.786  30.733  1.00  0.00    -0.351 N 
ATOM     75  C   UNL A   1      33.093  36.667  32.061  1.00  0.00     0.271 C 
ATOM     76  H   UNL A   1      32.401  37.661  30.462  1.00  0.00     0.163 HD
ATOM     77  O   UNL A   1      32.823  37.599  32.832  1.00  0.00    -0.267 OA
BRANCH  75  78
ATOM     78  C   UNL A   1      33.793  35.468  32.508  1.00  0.00     0.146 A 
ATOM     79  C   UNL A   1      35.147  35.361  32.770  1.00  0.00     0.128 A 
ATOM     80  N   UNL A   1      33.183  34.248  32.722  1.00  0.00    -0.231 NA
ATOM     81  N   UNL A   1      35.371  34.045  33.101  1.00  0.00    -0.289 N 
ATOM     82  C   UNL A   1      34.158  33.410  33.001  1.00  0.00     0.206 A 
BRANCH  81  83
ATOM     83  C   UNL A   1      36.616  33.424  33.371  1.00  0.00     0.149 A 
ATOM     84  N   UNL A   1      36.663  32.701  34.514  1.00  0.00    -0.218 NA
ATOM     85  C   UNL A   1      37.689  33.531  32.465  1.00  0.00     0.044 A 
ATOM     86  C   UNL A   1      37.763  31.966  34.687  1.00  0.00     0.224 A 
ATOM     87  C   UNL A   1      38.790  32.727  32.791  1.00  0.00     0.076 A 
ATOM     88  C   UNL A   1      37.785  34.401  31.339  1.00  0.00     0.014 A 
ATOM     89  N   UNL A   1      38.822  31.935  33.870  1.00  0.00    -0.236 NA
ATOM     90  C   UNL A   1      39.912  32.767  31.972  1.00  0.00     0.029 A 
ATOM     91  C   UNL A   1      38.925  34.431  30.543  1.00  0.00     0.001 A 
ATOM     92  C   UNL A   1      39.992  33.604  30.856  1.00  0.00     0.002 A 
ENDBRANCH  81  83
ENDBRANCH  75  78
ENDBRANCH  73  74
ENDBRANCH  72  73
ENDBRANCH  71  72
ENDBRANCH   1  71
TORSDOF 15
ENDMDL
MODEL 3
REMARK VINA RESULT:     -11.9      3.879      6.484
REMARK SMILES O=C(NCCCCNC(=O)c1cn(-c2ncnc3ccccc23)cn1)c1ccc(-c2c3nc(c(-c4cc(S(=O)(=O)[O-])ccc4F)c4ccc([nH]4)c(-c4cc(S(=O)(=O)[O-])ccc4F)c4nc(c(-c5cc(S(=O)(=O)[O-])ccc5F)c5ccc2[nH]5)C=C4)C=C3)cc1
REMARK SMILES IDX 4 1 3 2 1 3 2 4 26 6 27 7 88 8 28 9 87 10 29 11 30 12 31 13
REMARK SMILES IDX 81 14 32 15 86 16 80 17 82 18 33 19 85 20 79 21 78 22 34 24
REMARK SMILES IDX 66 25 46 26 65 27 47 28 50 29 64 30 83 31 48 32 49 33 63 35
REMARK SMILES IDX 84 36 51 37 35 38 36 39 44 40 37 41 43 42 45 43 42 44 38 45
REMARK SMILES IDX 39 46 40 47 41 48 67 49 68 50 76 51 69 52 75 53 77 54 74 55
REMARK SMILES IDX 70 56 71 57 72 58 73 59 52 60 53 61 61 62 54 63 60 64 62 65
REMARK SMILES IDX 59 66 55 67 56 68 57 69 58 70 5 71 6 72 7 73 8 74 9 75 10 77
REMARK SMILES IDX 11 78 12 79 25 80 13 81 24 82 14 83 15 84 23 85 16 86 18 87
REMARK SMILES IDX 22 88 17 89 19 90 21 91 20 92
REMARK H PARENT 3 5 82 23 50 34 8 76
REMARK Flexibility Score: inf
ROOT
ATOM      1  C   UNL A   1      34.353  31.002  27.375  1.00  0.00     0.116 C 
ENDROOT
BRANCH   1   2
ATOM      2  N   UNL A   1      34.329  31.582  28.701  1.00  0.00    -0.352 N 
ATOM      3  O   UNL A   1      34.936  32.516  30.606  1.00  0.00    -0.269 OA
ATOM      4  C   UNL A   1      35.263  31.759  29.686  1.00  0.00     0.251 C 
ATOM      5  H   UNL A   1      33.441  31.928  28.951  1.00  0.00     0.163 HD
BRANCH   4   6
ATOM      6  C   UNL A   1      36.575  31.057  29.763  1.00  0.00     0.039 A 
ATOM      7  C   UNL A   1      37.833  31.647  29.638  1.00  0.00     0.014 A 
ATOM      8  C   UNL A   1      36.503  29.664  29.962  1.00  0.00     0.014 A 
ATOM      9  C   UNL A   1      38.984  30.855  29.625  1.00  0.00     0.010 A 
ATOM     10  C   UNL A   1      37.647  28.872  29.953  1.00  0.00     0.010 A 
ATOM     11  C   UNL A   1      38.890  29.464  29.753  1.00  0.00    -0.014 A 
BRANCH  11  12
ATOM     12  C   UNL A   1      40.119  28.681  29.911  1.00  0.00     0.031 A 
ATOM     13  C   UNL A   1      40.508  28.474  31.335  1.00  0.00     0.074 A 
ATOM     14  C   UNL A   1      40.765  28.043  28.911  1.00  0.00     0.049 A 
ATOM     15  N   UNL A   1      41.560  28.909  31.944  1.00  0.00    -0.248 NA
ATOM     16  C   UNL A   1      39.532  27.829  32.231  1.00  0.00     0.031 C 
ATOM     17  C   UNL A   1      40.353  27.932  27.511  1.00  0.00     0.029 A 
ATOM     18  N   UNL A   1      41.890  27.264  28.956  1.00  0.00    -0.354 N 
ATOM     19  C   UNL A   1      41.501  28.390  33.235  1.00  0.00     0.074 A 
ATOM     20  C   UNL A   1      40.155  27.915  33.408  1.00  0.00     0.031 C 
ATOM     21  C   UNL A   1      41.080  26.964  26.903  1.00  0.00     0.029 A 
ATOM     22  C   UNL A   1      42.090  26.468  27.826  1.00  0.00     0.049 A 
ATOM     23  H   UNL A   1      42.508  27.266  29.723  1.00  0.00     0.167 HD
ATOM     24  C   UNL A   1      42.632  28.172  33.964  1.00  0.00     0.034 A 
ATOM     25  C   UNL A   1      42.978  25.443  27.670  1.00  0.00     0.034 A 
ATOM     26  C   UNL A   1      43.746  28.918  33.424  1.00  0.00     0.049 A 
ATOM     27  C   UNL A   1      44.048  25.640  28.677  1.00  0.00     0.074 A 
ATOM     28  C   UNL A   1      43.987  30.257  33.173  1.00  0.00     0.029 A 
ATOM     29  N   UNL A   1      44.699  28.235  32.702  1.00  0.00    -0.354 N 
ATOM     30  N   UNL A   1      44.884  26.639  28.646  1.00  0.00    -0.248 NA
ATOM     31  C   UNL A   1      43.887  25.008  29.978  1.00  0.00     0.031 C 
ATOM     32  C   UNL A   1      44.702  30.274  31.939  1.00  0.00     0.029 A 
ATOM     33  C   UNL A   1      44.932  28.952  31.556  1.00  0.00     0.049 A 
ATOM     34  H   UNL A   1      45.134  27.391  32.962  1.00  0.00     0.167 HD
ATOM     35  C   UNL A   1      44.998  27.048  29.965  1.00  0.00     0.074 A 
ATOM     36  C   UNL A   1      44.440  25.948  30.750  1.00  0.00     0.031 C 
ATOM     37  C   UNL A   1      45.272  28.348  30.283  1.00  0.00     0.034 A 
BRANCH  24  38
ATOM     38  C   UNL A   1      42.840  26.998  34.904  1.00  0.00     0.023 A 
ATOM     39  C   UNL A   1      43.622  25.929  34.423  1.00  0.00     0.031 A 
ATOM     40  C   UNL A   1      42.086  26.726  36.068  1.00  0.00     0.131 A 
ATOM     41  C   UNL A   1      43.520  24.646  34.987  1.00  0.00     0.055 A 
ATOM     42  C   UNL A   1      42.044  25.464  36.670  1.00  0.00     0.041 A 
ATOM     43  F   UNL A   1      41.276  27.624  36.639  1.00  0.00    -0.206 F 
ATOM     44  C   UNL A   1      42.732  24.404  36.106  1.00  0.00     0.022 A 
BRANCH  41  45
ATOM     45  S   UNL A   1      44.274  23.261  34.098  1.00  0.00     0.124 S 
ATOM     46  O   UNL A   1      45.508  23.868  33.612  1.00  0.00    -0.237 OA
ATOM     47  O   UNL A   1      44.417  22.268  35.157  1.00  0.00    -0.237 OA
ATOM     48  O   UNL A   1      43.287  22.941  33.070  1.00  0.00    -0.744 OA
ENDBRANCH  41  45
ENDBRANCH  24  38
BRANCH  25  49
ATOM     49  C   UNL A   1      42.786  24.153  26.934  1.00  0.00     0.023 A 
ATOM     50  C   UNL A   1      43.731  23.620  26.023  1.00  0.00     0.031 A 
ATOM     51  C   UNL A   1      41.741  23.286  27.328  1.00  0.00     0.131 A 
ATOM     52  C   UNL A   1      43.604  22.286  25.554  1.00  0.00     0.055 A 
ATOM     53  C   UNL A   1      41.622  21.975  26.862  1.00  0.00     0.041 A 
ATOM     54  F   UNL A   1      40.845  23.656  28.256  1.00  0.00    -0.206 F 
ATOM     55  C   UNL A   1      42.558  21.465  25.980  1.00  0.00     0.022 A 
BRANCH  52  56
ATOM     56  S   UNL A   1      44.852  21.551  24.437  1.00  0.00     0.124 S 
ATOM     57  O   UNL A   1      44.680  22.332  23.219  1.00  0.00    -0.237 OA
ATOM     58  O   UNL A   1      46.094  21.755  25.173  1.00  0.00    -0.237 OA
ATOM     59  O   UNL A   1      44.432  20.152  24.329  1.00  0.00    -0.744 OA
ENDBRANCH  52  56
ENDBRANCH  25  49
BRANCH  37  60
ATOM     60  C   UNL A   1      45.767  29.277  29.193  1.00  0.00     0.023 A 
ATOM     61  C   UNL A   1      44.950  30.124  28.410  1.00  0.00     0.031 A 
ATOM     62  C   UNL A   1      47.160  29.381  29.029  1.00  0.00     0.131 A 
ATOM     63  C   UNL A   1      45.540  31.023  27.497  1.00  0.00     0.055 A 
ATOM     64  C   UNL A   1      47.739  30.286  28.143  1.00  0.00     0.041 A 
ATOM     65  F   UNL A   1      47.991  28.620  29.761  1.00  0.00    -0.206 F 
ATOM     66  C   UNL A   1      46.931  31.108  27.369  1.00  0.00     0.022 A 
BRANCH  63  67
ATOM     67  S   UNL A   1      44.509  32.092  26.441  1.00  0.00     0.124 S 
ATOM     68  O   UNL A   1      45.419  32.506  25.380  1.00  0.00    -0.237 OA
ATOM     69  O   UNL A   1      43.427  31.195  26.045  1.00  0.00    -0.237 OA
ATOM     70  O   UNL A   1      44.101  33.169  27.346  1.00  0.00    -0.744 OA
ENDBRANCH  63  67
ENDBRANCH  37  60
ENDBRANCH  11  12
ENDBRANCH   4   6
ENDBRANCH   1   2
BRANCH   1  71
ATOM     71  C   UNL A   1      34.247  29.480  27.325  1.00  0.00     0.023 C 
BRANCH  71  72
ATOM     72  C   UNL A   1      32.831  28.917  27.171  1.00  0.00     0.023 C 
BRANCH  72  73
ATOM     73  C   UNL A   1      32.729  27.489  26.638  1.00  0.00     0.116 C 
BRANCH  73  74
ATOM     74  N   UNL A   1      31.394  26.927  26.771  1.00  0.00    -0.351 N 
ATOM     75  C   UNL A   1      30.882  25.780  26.214  1.00  0.00     0.271 C 
ATOM     76  H   UNL A   1      30.772  27.439  27.337  1.00  0.00     0.163 HD
ATOM     77  O   UNL A   1      29.680  25.524  26.370  1.00  0.00    -0.267 OA
BRANCH  75  78
ATOM     78  C   UNL A   1      31.783  24.880  25.504  1.00  0.00     0.146 A 
ATOM     79  C   UNL A   1      32.463  23.805  26.048  1.00  0.00     0.128 A 
ATOM     80  N   UNL A   1      32.094  24.992  24.163  1.00  0.00    -0.231 NA
ATOM     81  N   UNL A   1      33.235  23.287  25.035  1.00  0.00    -0.289 N 
ATOM     82  C   UNL A   1      33.012  24.079  23.936  1.00  0.00     0.206 A 
BRANCH  81  83
ATOM     83  C   UNL A   1      34.172  22.228  25.121  1.00  0.00     0.149 A 
ATOM     84  N   UNL A   1      33.665  20.990  24.914  1.00  0.00    -0.218 NA
ATOM     85  C   UNL A   1      35.537  22.488  25.355  1.00  0.00     0.044 A 
ATOM     86  C   UNL A   1      34.562  20.008  24.811  1.00  0.00     0.224 A 
ATOM     87  C   UNL A   1      36.357  21.355  25.246  1.00  0.00     0.076 A 
ATOM     88  C   UNL A   1      36.125  23.724  25.752  1.00  0.00     0.014 A 
ATOM     89  N   UNL A   1      35.886  20.138  24.953  1.00  0.00    -0.236 NA
ATOM     90  C   UNL A   1      37.721  21.495  25.473  1.00  0.00     0.029 A 
ATOM     91  C   UNL A   1      37.492  23.834  25.987  1.00  0.00     0.001 A 
ATOM     92  C   UNL A   1      38.296  22.716  25.839  1.00  0.00     0.002 A 
ENDBRANCH  81  83
ENDBRANCH  75  78
ENDBRANCH  73  74
ENDBRANCH  72  73
ENDBRANCH  71  72
ENDBRANCH   1  71
TORSDOF 15
ENDMDL
