MODEL 1
REMARK VINA RESULT:     -10.5      0.000      0.000
REMARK SMILES O=C(CSc1ccnc(C(=O)NCCCCNC(=O)c2ccc(-c3c4nc(c(-c5cc(S(=O)(=O)[O-])ccc5F)c5ccc([nH]5)c(-c5cc(S(=O)(=O)[O-])ccc5F)c5nc(c(-c6cc(S(=O)(=O)[O-])ccc6F)c6ccc3[nH]6)C=C5)C=C4)cc2)c1)NCC(F)(F)F
REMARK SMILES IDX 13 1 12 2 10 3 11 4 9 6 5 7 6 8 83 9 7 10 8 11 4 12 3 13
REMARK SMILES IDX 2 14 1 15 84 16 85 18 86 19 87 20 88 21 89 22 14 23 15 24
REMARK SMILES IDX 16 25 17 26 18 27 19 29 20 30 21 31 82 32 22 33 81 34 23 35
REMARK SMILES IDX 24 36 25 37 75 38 26 39 80 40 74 41 76 42 27 43 79 44 73 45
REMARK SMILES IDX 72 46 28 48 60 49 40 50 59 51 41 52 44 53 58 54 77 55 42 56
REMARK SMILES IDX 43 57 57 59 78 60 45 61 29 62 30 63 38 64 31 65 37 66 39 67
REMARK SMILES IDX 36 68 32 69 33 70 34 71 35 72 61 73 62 74 70 75 63 76 69 77
REMARK SMILES IDX 71 78 68 79 64 80 65 81 66 82 67 83 46 84 47 85 55 86 48 87
REMARK SMILES IDX 54 88 56 89 53 90 49 91 50 92 51 93 52 94
REMARK H PARENT 12 5 84 17 17 28 76 47 44 58
REMARK Flexibility Score: inf
ROOT
ATOM      1  C   UNL A   1      32.274  27.055  26.346  1.00  0.00     0.116 C 
ENDROOT
BRANCH   1   2
ATOM      2  N   UNL A   1      31.454  25.952  26.801  1.00  0.00    -0.351 N 
ATOM      3  C   UNL A   1      31.332  24.630  26.441  1.00  0.00     0.269 C 
ATOM      4  O   UNL A   1      30.494  23.990  27.085  1.00  0.00    -0.268 OA
ATOM      5  H   UNL A   1      30.848  26.206  27.533  1.00  0.00     0.163 HD
BRANCH   3   6
ATOM      6  C   UNL A   1      32.132  23.924  25.369  1.00  0.00     0.129 A 
ATOM      7  C   UNL A   1      33.461  22.150  24.413  1.00  0.00     0.012 A 
ATOM      8  C   UNL A   1      33.442  22.823  23.197  1.00  0.00     0.035 A 
ATOM      9  C   UNL A   1      32.818  22.728  25.516  1.00  0.00     0.049 A 
ATOM     10  C   UNL A   1      32.774  24.029  23.133  1.00  0.00     0.113 A 
ATOM     11  N   UNL A   1      32.121  24.575  24.173  1.00  0.00    -0.251 NA
BRANCH   7  12
ATOM     12  S   UNL A   1      34.164  20.519  24.661  1.00  0.00    -0.116 SA
BRANCH  12  13
ATOM     13  C   UNL A   1      35.587  20.813  25.767  1.00  0.00     0.174 C 
BRANCH  13  14
ATOM     14  C   UNL A   1      36.498  21.940  25.302  1.00  0.00     0.230 C 
ATOM     15  O   UNL A   1      37.008  21.931  24.184  1.00  0.00    -0.274 OA
ATOM     16  N   UNL A   1      36.700  22.972  26.187  1.00  0.00    -0.346 N 
ATOM     17  H   UNL A   1      36.232  22.958  27.052  1.00  0.00     0.163 HD
BRANCH  16  18
ATOM     18  C   UNL A   1      37.588  24.093  25.879  1.00  0.00     0.231 C 
BRANCH  18  19
ATOM     19  C   UNL A   1      38.904  24.116  26.655  1.00  0.00     0.405 C 
ATOM     20  F   UNL A   1      39.763  25.011  26.112  1.00  0.00    -0.169 F 
ATOM     21  F   UNL A   1      38.692  24.490  27.938  1.00  0.00    -0.169 F 
ATOM     22  F   UNL A   1      39.516  22.914  26.672  1.00  0.00    -0.169 F 
ENDBRANCH  18  19
ENDBRANCH  16  18
ENDBRANCH  13  14
ENDBRANCH  12  13
ENDBRANCH   7  12
ENDBRANCH   3   6
ENDBRANCH   1   2
BRANCH   1  23
ATOM     23  C   UNL A   1      31.472  28.012  25.463  1.00  0.00     0.023 C 
BRANCH  23  24
ATOM     24  C   UNL A   1      32.096  29.408  25.325  1.00  0.00     0.023 C 
BRANCH  24  25
ATOM     25  C   UNL A   1      33.048  29.814  26.450  1.00  0.00     0.116 C 
BRANCH  25  26
ATOM     26  N   UNL A   1      32.891  31.195  26.876  1.00  0.00    -0.352 N 
ATOM     27  C   UNL A   1      33.749  31.953  27.640  1.00  0.00     0.251 C 
ATOM     28  H   UNL A   1      32.068  31.645  26.581  1.00  0.00     0.163 HD
ATOM     29  O   UNL A   1      33.426  33.080  27.992  1.00  0.00    -0.269 OA
BRANCH  27  30
ATOM     30  C   UNL A   1      35.035  31.365  28.073  1.00  0.00     0.039 A 
ATOM     31  C   UNL A   1      36.181  32.161  28.041  1.00  0.00     0.014 A 
ATOM     32  C   UNL A   1      35.094  30.056  28.560  1.00  0.00     0.014 A 
ATOM     33  C   UNL A   1      37.375  31.671  28.573  1.00  0.00     0.010 A 
ATOM     34  C   UNL A   1      36.268  29.593  29.148  1.00  0.00     0.010 A 
ATOM     35  C   UNL A   1      37.416  30.400  29.171  1.00  0.00    -0.014 A 
BRANCH  35  36
ATOM     36  C   UNL A   1      38.645  29.910  29.847  1.00  0.00     0.031 A 
ATOM     37  C   UNL A   1      39.017  30.427  31.208  1.00  0.00     0.074 A 
ATOM     38  C   UNL A   1      39.461  29.055  29.197  1.00  0.00     0.049 A 
ATOM     39  N   UNL A   1      40.080  30.173  31.928  1.00  0.00    -0.248 NA
ATOM     40  C   UNL A   1      38.085  31.382  31.825  1.00  0.00     0.031 C 
ATOM     41  C   UNL A   1      39.231  28.529  27.849  1.00  0.00     0.029 A 
ATOM     42  N   UNL A   1      40.649  28.487  29.576  1.00  0.00    -0.354 N 
ATOM     43  C   UNL A   1      39.951  30.943  33.078  1.00  0.00     0.074 A 
ATOM     44  C   UNL A   1      38.737  31.719  32.927  1.00  0.00     0.031 C 
ATOM     45  C   UNL A   1      40.235  27.699  27.525  1.00  0.00     0.029 A 
ATOM     46  C   UNL A   1      41.197  27.662  28.621  1.00  0.00     0.049 A 
ATOM     47  H   UNL A   1      41.072  28.654  30.449  1.00  0.00     0.167 HD
ATOM     48  C   UNL A   1      40.758  30.982  34.167  1.00  0.00     0.034 A 
ATOM     49  C   UNL A   1      42.349  26.961  28.626  1.00  0.00     0.034 A 
ATOM     50  C   UNL A   1      41.959  30.193  34.305  1.00  0.00     0.049 A 
ATOM     51  C   UNL A   1      43.230  27.022  29.846  1.00  0.00     0.074 A 
ATOM     52  C   UNL A   1      42.818  30.108  35.387  1.00  0.00     0.029 A 
ATOM     53  N   UNL A   1      42.477  29.356  33.323  1.00  0.00    -0.354 N 
ATOM     54  N   UNL A   1      43.064  27.710  30.952  1.00  0.00    -0.248 NA
ATOM     55  C   UNL A   1      44.447  26.200  29.822  1.00  0.00     0.031 C 
ATOM     56  C   UNL A   1      43.883  29.270  35.038  1.00  0.00     0.029 A 
ATOM     57  C   UNL A   1      43.655  28.774  33.764  1.00  0.00     0.049 A 
ATOM     58  H   UNL A   1      42.066  29.199  32.442  1.00  0.00     0.167 HD
ATOM     59  C   UNL A   1      44.145  27.383  31.767  1.00  0.00     0.074 A 
ATOM     60  C   UNL A   1      44.943  26.423  31.031  1.00  0.00     0.031 C 
ATOM     61  C   UNL A   1      44.449  27.832  33.010  1.00  0.00     0.034 A 
BRANCH  48  62
ATOM     62  C   UNL A   1      40.372  31.927  35.280  1.00  0.00     0.023 A 
ATOM     63  C   UNL A   1      39.402  31.581  36.238  1.00  0.00     0.031 A 
ATOM     64  C   UNL A   1      40.952  33.205  35.367  1.00  0.00     0.131 A 
ATOM     65  C   UNL A   1      38.982  32.527  37.186  1.00  0.00     0.055 A 
ATOM     66  C   UNL A   1      40.590  34.112  36.364  1.00  0.00     0.041 A 
ATOM     67  F   UNL A   1      41.870  33.601  34.471  1.00  0.00    -0.206 F 
ATOM     68  C   UNL A   1      39.587  33.782  37.271  1.00  0.00     0.022 A 
BRANCH  65  69
ATOM     69  S   UNL A   1      37.532  32.143  38.205  1.00  0.00     0.124 S 
ATOM     70  O   UNL A   1      37.357  30.716  37.944  1.00  0.00    -0.237 OA
ATOM     71  O   UNL A   1      37.985  32.497  39.545  1.00  0.00    -0.237 OA
ATOM     72  O   UNL A   1      36.487  33.003  37.651  1.00  0.00    -0.744 OA
ENDBRANCH  65  69
ENDBRANCH  48  62
BRANCH  49  73
ATOM     73  C   UNL A   1      42.740  26.144  27.443  1.00  0.00     0.023 A 
ATOM     74  C   UNL A   1      42.568  24.750  27.439  1.00  0.00     0.031 A 
ATOM     75  C   UNL A   1      43.327  26.740  26.313  1.00  0.00     0.131 A 
ATOM     76  C   UNL A   1      43.020  23.993  26.349  1.00  0.00     0.055 A 
ATOM     77  C   UNL A   1      43.732  25.987  25.209  1.00  0.00     0.041 A 
ATOM     78  F   UNL A   1      43.505  28.069  26.263  1.00  0.00    -0.206 F 
ATOM     79  C   UNL A   1      43.591  24.603  25.229  1.00  0.00     0.022 A 
BRANCH  76  80
ATOM     80  S   UNL A   1      42.921  22.185  26.446  1.00  0.00     0.124 S 
ATOM     81  O   UNL A   1      42.069  21.871  25.306  1.00  0.00    -0.237 OA
ATOM     82  O   UNL A   1      44.323  21.798  26.325  1.00  0.00    -0.237 OA
ATOM     83  O   UNL A   1      42.323  21.946  27.758  1.00  0.00    -0.744 OA
ENDBRANCH  76  80
ENDBRANCH  49  73
BRANCH  61  84
ATOM     84  C   UNL A   1      45.683  27.254  33.659  1.00  0.00     0.023 A 
ATOM     85  C   UNL A   1      45.672  25.987  34.267  1.00  0.00     0.031 A 
ATOM     86  C   UNL A   1      46.878  27.994  33.690  1.00  0.00     0.131 A 
ATOM     87  C   UNL A   1      46.817  25.523  34.932  1.00  0.00     0.055 A 
ATOM     88  C   UNL A   1      48.031  27.502  34.302  1.00  0.00     0.041 A 
ATOM     89  F   UNL A   1      46.943  29.212  33.126  1.00  0.00    -0.206 F 
ATOM     90  C   UNL A   1      48.000  26.265  34.941  1.00  0.00     0.022 A 
BRANCH  87  91
ATOM     91  S   UNL A   1      46.709  23.974  35.870  1.00  0.00     0.124 S 
ATOM     92  O   UNL A   1      47.993  23.948  36.561  1.00  0.00    -0.237 OA
ATOM     93  O   UNL A   1      45.537  24.198  36.710  1.00  0.00    -0.237 OA
ATOM     94  O   UNL A   1      46.542  22.955  34.834  1.00  0.00    -0.744 OA
ENDBRANCH  87  91
ENDBRANCH  61  84
ENDBRANCH  35  36
ENDBRANCH  27  30
ENDBRANCH  25  26
ENDBRANCH  24  25
ENDBRANCH  23  24
ENDBRANCH   1  23
TORSDOF 19
ENDMDL
MODEL 2
REMARK VINA RESULT:     -10.2      5.441      8.521
REMARK SMILES O=C(CSc1ccnc(C(=O)NCCCCNC(=O)c2ccc(-c3c4nc(c(-c5cc(S(=O)(=O)[O-])ccc5F)c5ccc([nH]5)c(-c5cc(S(=O)(=O)[O-])ccc5F)c5nc(c(-c6cc(S(=O)(=O)[O-])ccc6F)c6ccc3[nH]6)C=C5)C=C4)cc2)c1)NCC(F)(F)F
REMARK SMILES IDX 13 1 12 2 10 3 11 4 9 6 5 7 6 8 83 9 7 10 8 11 4 12 3 13
REMARK SMILES IDX 2 14 1 15 84 16 85 18 86 19 87 20 88 21 89 22 14 23 15 24
REMARK SMILES IDX 16 25 17 26 18 27 19 29 20 30 21 31 82 32 22 33 81 34 23 35
REMARK SMILES IDX 24 36 25 37 75 38 26 39 80 40 74 41 76 42 27 43 79 44 73 45
REMARK SMILES IDX 72 46 28 48 60 49 40 50 59 51 41 52 44 53 58 54 77 55 42 56
REMARK SMILES IDX 43 57 57 59 78 60 45 61 29 62 30 63 38 64 31 65 37 66 39 67
REMARK SMILES IDX 36 68 32 69 33 70 34 71 35 72 61 73 62 74 70 75 63 76 69 77
REMARK SMILES IDX 71 78 68 79 64 80 65 81 66 82 67 83 46 84 47 85 55 86 48 87
REMARK SMILES IDX 54 88 56 89 53 90 49 91 50 92 51 93 52 94
REMARK H PARENT 12 5 84 17 17 28 76 47 44 58
REMARK Flexibility Score: inf
ROOT
ATOM      1  C   UNL A   1      35.641  20.514  24.983  1.00  0.00     0.116 C 
ENDROOT
BRANCH   1   2
ATOM      2  N   UNL A   1      34.344  19.870  25.015  1.00  0.00    -0.351 N 
ATOM      3  C   UNL A   1      33.045  20.317  24.963  1.00  0.00     0.269 C 
ATOM      4  O   UNL A   1      32.186  19.431  25.019  1.00  0.00    -0.268 OA
ATOM      5  H   UNL A   1      34.408  18.891  25.090  1.00  0.00     0.163 HD
BRANCH   3   6
ATOM      6  C   UNL A   1      32.607  21.759  24.826  1.00  0.00     0.129 A 
ATOM      7  C   UNL A   1      32.458  23.933  23.786  1.00  0.00     0.012 A 
ATOM      8  C   UNL A   1      31.570  24.321  24.781  1.00  0.00     0.035 A 
ATOM      9  C   UNL A   1      33.001  22.640  23.830  1.00  0.00     0.049 A 
ATOM     10  C   UNL A   1      31.253  23.405  25.764  1.00  0.00     0.113 A 
ATOM     11  N   UNL A   1      31.737  22.151  25.796  1.00  0.00    -0.251 NA
BRANCH   7  12
ATOM     12  S   UNL A   1      32.891  24.933  22.361  1.00  0.00    -0.116 SA
BRANCH  12  13
ATOM     13  C   UNL A   1      31.348  25.823  21.959  1.00  0.00     0.174 C 
BRANCH  13  14
ATOM     14  C   UNL A   1      31.349  27.277  22.407  1.00  0.00     0.230 C 
ATOM     15  O   UNL A   1      30.505  28.073  22.001  1.00  0.00    -0.274 OA
ATOM     16  N   UNL A   1      32.325  27.644  23.302  1.00  0.00    -0.346 N 
ATOM     17  H   UNL A   1      32.950  26.961  23.635  1.00  0.00     0.163 HD
BRANCH  16  18
ATOM     18  C   UNL A   1      32.463  29.021  23.776  1.00  0.00     0.231 C 
BRANCH  18  19
ATOM     19  C   UNL A   1      31.779  29.326  25.108  1.00  0.00     0.405 C 
ATOM     20  F   UNL A   1      31.124  28.235  25.570  1.00  0.00    -0.169 F 
ATOM     21  F   UNL A   1      32.695  29.670  26.043  1.00  0.00    -0.169 F 
ATOM     22  F   UNL A   1      30.888  30.334  25.013  1.00  0.00    -0.169 F 
ENDBRANCH  18  19
ENDBRANCH  16  18
ENDBRANCH  13  14
ENDBRANCH  12  13
ENDBRANCH   7  12
ENDBRANCH   3   6
ENDBRANCH   1   2
BRANCH   1  23
ATOM     23  C   UNL A   1      36.759  19.495  24.764  1.00  0.00     0.023 C 
BRANCH  23  24
ATOM     24  C   UNL A   1      38.173  20.085  24.866  1.00  0.00     0.023 C 
BRANCH  24  25
ATOM     25  C   UNL A   1      38.901  19.815  26.183  1.00  0.00     0.116 C 
BRANCH  25  26
ATOM     26  N   UNL A   1      40.147  19.084  26.020  1.00  0.00    -0.352 N 
ATOM     27  C   UNL A   1      41.435  19.560  26.125  1.00  0.00     0.251 C 
ATOM     28  H   UNL A   1      40.060  18.127  25.809  1.00  0.00     0.163 HD
ATOM     29  O   UNL A   1      42.383  18.830  25.867  1.00  0.00    -0.269 OA
BRANCH  27  30
ATOM     30  C   UNL A   1      41.648  20.974  26.497  1.00  0.00     0.039 A 
ATOM     31  C   UNL A   1      42.207  21.263  27.744  1.00  0.00     0.014 A 
ATOM     32  C   UNL A   1      41.351  22.002  25.599  1.00  0.00     0.014 A 
ATOM     33  C   UNL A   1      42.544  22.580  28.059  1.00  0.00     0.010 A 
ATOM     34  C   UNL A   1      41.746  23.306  25.889  1.00  0.00     0.010 A 
ATOM     35  C   UNL A   1      42.357  23.605  27.116  1.00  0.00    -0.014 A 
BRANCH  35  36
ATOM     36  C   UNL A   1      42.817  24.991  27.390  1.00  0.00     0.031 A 
ATOM     37  C   UNL A   1      41.894  25.981  28.043  1.00  0.00     0.074 A 
ATOM     38  C   UNL A   1      44.045  25.372  26.980  1.00  0.00     0.049 A 
ATOM     39  N   UNL A   1      42.089  27.248  28.302  1.00  0.00    -0.248 NA
ATOM     40  C   UNL A   1      40.564  25.485  28.425  1.00  0.00     0.031 C 
ATOM     41  C   UNL A   1      45.007  24.514  26.285  1.00  0.00     0.029 A 
ATOM     42  N   UNL A   1      44.688  26.579  27.079  1.00  0.00    -0.354 N 
ATOM     43  C   UNL A   1      40.904  27.706  28.867  1.00  0.00     0.074 A 
ATOM     44  C   UNL A   1      39.978  26.592  28.853  1.00  0.00     0.031 C 
ATOM     45  C   UNL A   1      46.125  25.216  26.041  1.00  0.00     0.029 A 
ATOM     46  C   UNL A   1      45.948  26.581  26.525  1.00  0.00     0.049 A 
ATOM     47  H   UNL A   1      44.287  27.370  27.505  1.00  0.00     0.167 HD
ATOM     48  C   UNL A   1      40.623  28.933  29.370  1.00  0.00     0.034 A 
ATOM     49  C   UNL A   1      46.853  27.573  26.413  1.00  0.00     0.034 A 
ATOM     50  C   UNL A   1      41.563  30.029  29.384  1.00  0.00     0.049 A 
ATOM     51  C   UNL A   1      46.517  28.929  26.977  1.00  0.00     0.074 A 
ATOM     52  C   UNL A   1      41.406  31.295  29.922  1.00  0.00     0.029 A 
ATOM     53  N   UNL A   1      42.836  29.992  28.827  1.00  0.00    -0.354 N 
ATOM     54  N   UNL A   1      45.413  29.330  27.563  1.00  0.00    -0.248 NA
ATOM     55  C   UNL A   1      47.557  29.961  26.877  1.00  0.00     0.031 C 
ATOM     56  C   UNL A   1      42.557  32.039  29.638  1.00  0.00     0.029 A 
ATOM     57  C   UNL A   1      43.463  31.218  28.985  1.00  0.00     0.049 A 
ATOM     58  H   UNL A   1      43.235  29.207  28.386  1.00  0.00     0.167 HD
ATOM     59  C   UNL A   1      45.636  30.656  27.924  1.00  0.00     0.074 A 
ATOM     60  C   UNL A   1      46.986  30.977  27.506  1.00  0.00     0.031 C 
ATOM     61  C   UNL A   1      44.803  31.528  28.546  1.00  0.00     0.034 A 
BRANCH  48  62
ATOM     62  C   UNL A   1      39.235  29.153  29.923  1.00  0.00     0.023 A 
ATOM     63  C   UNL A   1      38.230  29.781  29.165  1.00  0.00     0.031 A 
ATOM     64  C   UNL A   1      38.919  28.765  31.237  1.00  0.00     0.131 A 
ATOM     65  C   UNL A   1      36.990  30.076  29.751  1.00  0.00     0.055 A 
ATOM     66  C   UNL A   1      37.655  28.987  31.787  1.00  0.00     0.041 A 
ATOM     67  F   UNL A   1      39.841  28.178  32.016  1.00  0.00    -0.206 F 
ATOM     68  C   UNL A   1      36.686  29.661  31.049  1.00  0.00     0.022 A 
BRANCH  65  69
ATOM     69  S   UNL A   1      35.837  31.141  28.842  1.00  0.00     0.124 S 
ATOM     70  O   UNL A   1      35.160  31.839  29.932  1.00  0.00    -0.237 OA
ATOM     71  O   UNL A   1      36.732  31.949  28.022  1.00  0.00    -0.237 OA
ATOM     72  O   UNL A   1      35.002  30.192  28.106  1.00  0.00    -0.744 OA
ENDBRANCH  65  69
ENDBRANCH  48  62
BRANCH  49  73
ATOM     73  C   UNL A   1      48.160  27.330  25.741  1.00  0.00     0.023 A 
ATOM     74  C   UNL A   1      48.296  27.469  24.351  1.00  0.00     0.031 A 
ATOM     75  C   UNL A   1      49.286  26.918  26.476  1.00  0.00     0.131 A 
ATOM     76  C   UNL A   1      49.514  27.154  23.732  1.00  0.00     0.055 A 
ATOM     77  C   UNL A   1      50.511  26.652  25.861  1.00  0.00     0.041 A 
ATOM     78  F   UNL A   1      49.213  26.779  27.809  1.00  0.00    -0.206 F 
ATOM     79  C   UNL A   1      50.626  26.757  24.478  1.00  0.00     0.022 A 
BRANCH  76  80
ATOM     80  S   UNL A   1      49.604  27.198  21.920  1.00  0.00     0.124 S 
ATOM     81  O   UNL A   1      48.653  26.157  21.549  1.00  0.00    -0.237 OA
ATOM     82  O   UNL A   1      49.198  28.570  21.631  1.00  0.00    -0.237 OA
ATOM     83  O   UNL A   1      51.005  26.894  21.641  1.00  0.00    -0.744 OA
ENDBRANCH  76  80
ENDBRANCH  49  73
BRANCH  61  84
ATOM     84  C   UNL A   1      45.354  32.902  28.840  1.00  0.00     0.023 A 
ATOM     85  C   UNL A   1      45.350  33.921  27.872  1.00  0.00     0.031 A 
ATOM     86  C   UNL A   1      45.913  33.185  30.098  1.00  0.00     0.131 A 
ATOM     87  C   UNL A   1      45.948  35.157  28.158  1.00  0.00     0.055 A 
ATOM     88  C   UNL A   1      46.454  34.436  30.397  1.00  0.00     0.041 A 
ATOM     89  F   UNL A   1      45.945  32.247  31.059  1.00  0.00    -0.206 F 
ATOM     90  C   UNL A   1      46.487  35.426  29.419  1.00  0.00     0.022 A 
BRANCH  87  91
ATOM     91  S   UNL A   1      46.099  36.379  26.826  1.00  0.00     0.124 S 
ATOM     92  O   UNL A   1      45.770  35.586  25.647  1.00  0.00    -0.237 OA
ATOM     93  O   UNL A   1      45.116  37.386  27.212  1.00  0.00    -0.237 OA
ATOM     94  O   UNL A   1      47.494  36.812  26.913  1.00  0.00    -0.744 OA
ENDBRANCH  87  91
ENDBRANCH  61  84
ENDBRANCH  35  36
ENDBRANCH  27  30
ENDBRANCH  25  26
ENDBRANCH  24  25
ENDBRANCH  23  24
ENDBRANCH   1  23
TORSDOF 19
ENDMDL
MODEL 3
REMARK VINA RESULT:     -10.2      6.108      8.985
REMARK SMILES O=C(CSc1ccnc(C(=O)NCCCCNC(=O)c2ccc(-c3c4nc(c(-c5cc(S(=O)(=O)[O-])ccc5F)c5ccc([nH]5)c(-c5cc(S(=O)(=O)[O-])ccc5F)c5nc(c(-c6cc(S(=O)(=O)[O-])ccc6F)c6ccc3[nH]6)C=C5)C=C4)cc2)c1)NCC(F)(F)F
REMARK SMILES IDX 13 1 12 2 10 3 11 4 9 6 5 7 6 8 83 9 7 10 8 11 4 12 3 13
REMARK SMILES IDX 2 14 1 15 84 16 85 18 86 19 87 20 88 21 89 22 14 23 15 24
REMARK SMILES IDX 16 25 17 26 18 27 19 29 20 30 21 31 82 32 22 33 81 34 23 35
REMARK SMILES IDX 24 36 25 37 75 38 26 39 80 40 74 41 76 42 27 43 79 44 73 45
REMARK SMILES IDX 72 46 28 48 60 49 40 50 59 51 41 52 44 53 58 54 77 55 42 56
REMARK SMILES IDX 43 57 57 59 78 60 45 61 29 62 30 63 38 64 31 65 37 66 39 67
REMARK SMILES IDX 36 68 32 69 33 70 34 71 35 72 61 73 62 74 70 75 63 76 69 77
REMARK SMILES IDX 71 78 68 79 64 80 65 81 66 82 67 83 46 84 47 85 55 86 48 87
REMARK SMILES IDX 54 88 56 89 53 90 49 91 50 92 51 93 52 94
REMARK H PARENT 12 5 84 17 17 28 76 47 44 58
REMARK Flexibility Score: inf
ROOT
ATOM      1  C   UNL A   1      37.665  23.687  25.747  1.00  0.00     0.116 C 
ENDROOT
BRANCH   1   2
ATOM      2  N   UNL A   1      36.536  23.065  26.405  1.00  0.00    -0.351 N 
ATOM      3  C   UNL A   1      35.171  23.140  26.253  1.00  0.00     0.269 C 
ATOM      4  O   UNL A   1      34.520  22.435  27.030  1.00  0.00    -0.268 OA
ATOM      5  H   UNL A   1      36.806  22.448  27.122  1.00  0.00     0.163 HD
BRANCH   3   6
ATOM      6  C   UNL A   1      34.436  23.978  25.230  1.00  0.00     0.129 A 
ATOM      7  C   UNL A   1      33.644  26.012  24.199  1.00  0.00     0.012 A 
ATOM      8  C   UNL A   1      33.108  25.252  23.166  1.00  0.00     0.035 A 
ATOM      9  C   UNL A   1      34.292  25.357  25.255  1.00  0.00     0.049 A 
ATOM     10  C   UNL A   1      33.254  23.881  23.226  1.00  0.00     0.113 A 
ATOM     11  N   UNL A   1      33.906  23.243  24.214  1.00  0.00    -0.251 NA
BRANCH   7  12
ATOM     12  S   UNL A   1      33.667  27.805  24.235  1.00  0.00    -0.116 SA
BRANCH  12  13
ATOM     13  C   UNL A   1      32.040  28.256  24.931  1.00  0.00     0.174 C 
BRANCH  13  14
ATOM     14  C   UNL A   1      30.990  28.564  23.874  1.00  0.00     0.230 C 
ATOM     15  O   UNL A   1      30.674  27.735  23.023  1.00  0.00    -0.274 OA
ATOM     16  N   UNL A   1      30.401  29.805  23.936  1.00  0.00    -0.346 N 
ATOM     17  H   UNL A   1      30.653  30.417  24.663  1.00  0.00     0.163 HD
BRANCH  16  18
ATOM     18  C   UNL A   1      29.411  30.242  22.952  1.00  0.00     0.231 C 
BRANCH  18  19
ATOM     19  C   UNL A   1      28.557  31.438  23.370  1.00  0.00     0.405 C 
ATOM     20  F   UNL A   1      28.142  32.132  22.285  1.00  0.00    -0.169 F 
ATOM     21  F   UNL A   1      27.450  31.024  24.030  1.00  0.00    -0.169 F 
ATOM     22  F   UNL A   1      29.222  32.291  24.176  1.00  0.00    -0.169 F 
ENDBRANCH  18  19
ENDBRANCH  16  18
ENDBRANCH  13  14
ENDBRANCH  12  13
ENDBRANCH   7  12
ENDBRANCH   3   6
ENDBRANCH   1   2
BRANCH   1  23
ATOM     23  C   UNL A   1      38.977  23.336  26.450  1.00  0.00     0.023 C 
BRANCH  23  24
ATOM     24  C   UNL A   1      39.166  21.835  26.709  1.00  0.00     0.023 C 
BRANCH  24  25
ATOM     25  C   UNL A   1      39.369  20.976  25.461  1.00  0.00     0.116 C 
BRANCH  25  26
ATOM     26  N   UNL A   1      40.152  19.775  25.701  1.00  0.00    -0.352 N 
ATOM     27  C   UNL A   1      41.467  19.680  26.098  1.00  0.00     0.251 C 
ATOM     28  H   UNL A   1      39.683  18.921  25.562  1.00  0.00     0.163 HD
ATOM     29  O   UNL A   1      42.010  18.586  26.167  1.00  0.00    -0.269 OA
BRANCH  27  30
ATOM     30  C   UNL A   1      42.221  20.919  26.382  1.00  0.00     0.039 A 
ATOM     31  C   UNL A   1      42.603  21.732  25.312  1.00  0.00     0.014 A 
ATOM     32  C   UNL A   1      42.498  21.302  27.697  1.00  0.00     0.014 A 
ATOM     33  C   UNL A   1      43.194  22.971  25.565  1.00  0.00     0.010 A 
ATOM     34  C   UNL A   1      43.028  22.565  27.948  1.00  0.00     0.010 A 
ATOM     35  C   UNL A   1      43.369  23.416  26.886  1.00  0.00    -0.014 A 
BRANCH  35  36
ATOM     36  C   UNL A   1      43.886  24.779  27.173  1.00  0.00     0.031 A 
ATOM     37  C   UNL A   1      42.960  25.849  27.679  1.00  0.00     0.074 A 
ATOM     38  C   UNL A   1      45.176  25.067  26.905  1.00  0.00     0.049 A 
ATOM     39  N   UNL A   1      43.207  27.111  27.922  1.00  0.00    -0.248 NA
ATOM     40  C   UNL A   1      41.563  25.452  27.910  1.00  0.00     0.031 C 
ATOM     41  C   UNL A   1      46.156  24.124  26.359  1.00  0.00     0.029 A 
ATOM     42  N   UNL A   1      45.883  26.233  27.046  1.00  0.00    -0.354 N 
ATOM     43  C   UNL A   1      41.996  27.662  28.325  1.00  0.00     0.074 A 
ATOM     44  C   UNL A   1      41.005  26.609  28.231  1.00  0.00     0.031 C 
ATOM     45  C   UNL A   1      47.339  24.745  26.232  1.00  0.00     0.029 A 
ATOM     46  C   UNL A   1      47.197  26.135  26.650  1.00  0.00     0.049 A 
ATOM     47  H   UNL A   1      45.487  27.063  27.397  1.00  0.00     0.167 HD
ATOM     48  C   UNL A   1      41.740  28.923  28.753  1.00  0.00     0.034 A 
ATOM     49  C   UNL A   1      48.173  27.064  26.620  1.00  0.00     0.034 A 
ATOM     50  C   UNL A   1      42.742  29.957  28.850  1.00  0.00     0.049 A 
ATOM     51  C   UNL A   1      47.865  28.458  27.098  1.00  0.00     0.074 A 
ATOM     52  C   UNL A   1      42.607  31.250  29.327  1.00  0.00     0.029 A 
ATOM     53  N   UNL A   1      44.067  29.819  28.453  1.00  0.00    -0.354 N 
ATOM     54  N   UNL A   1      46.727  28.949  27.534  1.00  0.00    -0.248 NA
ATOM     55  C   UNL A   1      48.976  29.418  27.095  1.00  0.00     0.031 C 
ATOM     56  C   UNL A   1      43.831  31.908  29.163  1.00  0.00     0.029 A 
ATOM     57  C   UNL A   1      44.752  31.008  28.650  1.00  0.00     0.049 A 
ATOM     58  H   UNL A   1      44.463  28.995  28.087  1.00  0.00     0.167 HD
ATOM     59  C   UNL A   1      46.994  30.271  27.879  1.00  0.00     0.074 A 
ATOM     60  C   UNL A   1      48.402  30.491  27.620  1.00  0.00     0.031 C 
ATOM     61  C   UNL A   1      46.153  31.217  28.369  1.00  0.00     0.034 A 
BRANCH  48  62
ATOM     62  C   UNL A   1      40.313  29.250  29.126  1.00  0.00     0.023 A 
ATOM     63  C   UNL A   1      39.893  29.295  30.467  1.00  0.00     0.031 A 
ATOM     64  C   UNL A   1      39.349  29.485  28.130  1.00  0.00     0.131 A 
ATOM     65  C   UNL A   1      38.537  29.484  30.773  1.00  0.00     0.055 A 
ATOM     66  C   UNL A   1      38.016  29.755  28.443  1.00  0.00     0.041 A 
ATOM     67  F   UNL A   1      39.684  29.437  26.830  1.00  0.00    -0.206 F 
ATOM     68  C   UNL A   1      37.599  29.739  29.771  1.00  0.00     0.022 A 
BRANCH  65  69
ATOM     69  S   UNL A   1      37.996  29.242  32.487  1.00  0.00     0.124 S 
ATOM     70  O   UNL A   1      38.399  27.859  32.731  1.00  0.00    -0.237 OA
ATOM     71  O   UNL A   1      38.750  30.264  33.204  1.00  0.00    -0.237 OA
ATOM     72  O   UNL A   1      36.552  29.460  32.424  1.00  0.00    -0.744 OA
ENDBRANCH  65  69
ENDBRANCH  48  62
BRANCH  49  73
ATOM     73  C   UNL A   1      49.533  26.713  26.120  1.00  0.00     0.023 A 
ATOM     74  C   UNL A   1      49.958  27.111  24.843  1.00  0.00     0.031 A 
ATOM     75  C   UNL A   1      50.414  25.944  26.899  1.00  0.00     0.131 A 
ATOM     76  C   UNL A   1      51.209  26.699  24.362  1.00  0.00     0.055 A 
ATOM     77  C   UNL A   1      51.679  25.576  26.436  1.00  0.00     0.041 A 
ATOM     78  F   UNL A   1      50.061  25.546  28.132  1.00  0.00    -0.206 F 
ATOM     79  C   UNL A   1      52.077  25.944  25.153  1.00  0.00     0.022 A 
BRANCH  76  80
ATOM     80  S   UNL A   1      51.658  27.102  22.652  1.00  0.00     0.124 S 
ATOM     81  O   UNL A   1      50.396  26.888  21.953  1.00  0.00    -0.237 OA
ATOM     82  O   UNL A   1      52.096  28.489  22.774  1.00  0.00    -0.237 OA
ATOM     83  O   UNL A   1      52.715  26.143  22.341  1.00  0.00    -0.744 OA
ENDBRANCH  76  80
ENDBRANCH  49  73
BRANCH  61  84
ATOM     84  C   UNL A   1      46.755  32.563  28.687  1.00  0.00     0.023 A 
ATOM     85  C   UNL A   1      46.762  33.609  27.748  1.00  0.00     0.031 A 
ATOM     86  C   UNL A   1      47.353  32.792  29.939  1.00  0.00     0.131 A 
ATOM     87  C   UNL A   1      47.407  34.817  28.054  1.00  0.00     0.055 A 
ATOM     88  C   UNL A   1      47.942  34.016  30.259  1.00  0.00     0.041 A 
ATOM     89  F   UNL A   1      47.376  31.827  30.873  1.00  0.00    -0.206 F 
ATOM     90  C   UNL A   1      47.984  35.032  29.308  1.00  0.00     0.022 A 
BRANCH  87  91
ATOM     91  S   UNL A   1      47.568  36.071  26.752  1.00  0.00     0.124 S 
ATOM     92  O   UNL A   1      47.176  37.288  27.454  1.00  0.00    -0.237 OA
ATOM     93  O   UNL A   1      48.977  35.968  26.391  1.00  0.00    -0.237 OA
ATOM     94  O   UNL A   1      46.631  35.620  25.723  1.00  0.00    -0.744 OA
ENDBRANCH  87  91
ENDBRANCH  61  84
ENDBRANCH  35  36
ENDBRANCH  27  30
ENDBRANCH  25  26
ENDBRANCH  24  25
ENDBRANCH  23  24
ENDBRANCH   1  23
TORSDOF 19
ENDMDL
