MODEL 1
REMARK VINA RESULT:     -12.4      0.000      0.000
REMARK SMILES C[C@@H]1CN(c2ccc(N)cc2C(=O)NCCCCNC(=O)c2ccc(-c3c4nc(c(-c5cc(S(=O)(=O)[O-])ccc5F)c5ccc([nH]5)c(-c5cc(S(=O)(=O)[O-])ccc5F)c5nc(c(-c6cc(S(=O)(=O)[O-])ccc6F)c6ccc3[nH]6)C=C5)C=C4)cc2)C[C@H]1C
REMARK SMILES IDX 17 1 16 2 15 3 14 4 12 5 13 6 11 8 5 9 6 10 7 11 10 12 8 13
REMARK SMILES IDX 4 14 1 15 2 16 3 17 86 18 85 19 87 20 9 21 18 24 19 25 20 26
REMARK SMILES IDX 21 28 22 29 23 30 84 31 24 32 83 33 25 34 26 35 27 36 77 37
REMARK SMILES IDX 28 38 82 39 76 40 78 41 29 42 81 43 75 44 74 45 30 47 62 48
REMARK SMILES IDX 42 49 61 50 43 51 46 52 60 53 79 54 44 55 45 56 59 58 80 59
REMARK SMILES IDX 47 60 31 61 32 62 40 63 33 64 39 65 41 66 38 67 34 68 35 69
REMARK SMILES IDX 36 70 37 71 63 72 64 73 72 74 65 75 71 76 73 77 70 78 66 79
REMARK SMILES IDX 67 80 68 81 69 82 48 83 49 84 57 85 50 86 56 87 58 88 55 89
REMARK SMILES IDX 51 90 52 91 53 92 54 93
REMARK H PARENT 14 7 9 22 9 23 19 27 78 46 46 57
REMARK Flexibility Score: inf
ROOT
ATOM      1  C   UNL A   1      31.481  31.855  27.015  1.00  0.00     0.023 C 
ENDROOT
BRANCH   1   2
ATOM      2  C   UNL A   1      31.415  30.712  25.999  1.00  0.00     0.023 C 
BRANCH   2   3
ATOM      3  C   UNL A   1      32.640  29.819  25.856  1.00  0.00     0.116 C 
BRANCH   3   4
ATOM      4  N   UNL A   1      33.021  29.434  24.526  1.00  0.00    -0.352 N 
ATOM      5  C   UNL A   1      32.248  28.990  23.473  1.00  0.00     0.253 C 
ATOM      6  O   UNL A   1      32.789  29.073  22.362  1.00  0.00    -0.269 OA
ATOM      7  H   UNL A   1      33.985  29.498  24.335  1.00  0.00     0.163 HD
BRANCH   5   8
ATOM      8  C   UNL A   1      30.895  28.316  23.539  1.00  0.00     0.065 A 
ATOM      9  C   UNL A   1      29.598  28.787  23.226  1.00  0.00     0.050 A 
ATOM     10  C   UNL A   1      28.524  27.872  23.380  1.00  0.00     0.029 A 
ATOM     11  C   UNL A   1      28.687  26.559  23.822  1.00  0.00     0.027 A 
ATOM     12  C   UNL A   1      31.024  26.966  23.987  1.00  0.00     0.041 A 
ATOM     13  C   UNL A   1      29.951  26.080  24.102  1.00  0.00     0.032 A 
BRANCH   9  14
ATOM     14  N   UNL A   1      29.257  30.046  22.787  1.00  0.00    -0.370 N 
ATOM     15  C   UNL A   1      29.065  33.645  23.248  1.00  0.00     0.010 C 
ATOM     16  C   UNL A   1      28.473  32.287  22.890  1.00  0.00     0.010 C 
ATOM     17  C   UNL A   1      29.115  31.168  23.720  1.00  0.00     0.120 C 
ATOM     18  C   UNL A   1      28.720  31.862  21.432  1.00  0.00     0.010 C 
ATOM     19  C   UNL A   1      28.655  30.327  21.492  1.00  0.00     0.120 C 
ATOM     20  C   UNL A   1      27.753  32.472  20.434  1.00  0.00     0.010 C 
ENDBRANCH   9  14
BRANCH  13  21
ATOM     21  N   UNL A   1      30.127  24.802  24.608  1.00  0.00    -0.399 N 
ATOM     22  H   UNL A   1      29.462  24.102  24.416  1.00  0.00     0.156 HD
ATOM     23  H   UNL A   1      30.916  24.595  25.158  1.00  0.00     0.156 HD
ENDBRANCH  13  21
ENDBRANCH   5   8
ENDBRANCH   3   4
ENDBRANCH   2   3
ENDBRANCH   1   2
BRANCH   1  24
ATOM     24  C   UNL A   1      32.182  33.153  26.615  1.00  0.00     0.116 C 
BRANCH  24  25
ATOM     25  N   UNL A   1      32.201  34.207  27.626  1.00  0.00    -0.352 N 
ATOM     26  C   UNL A   1      33.179  34.509  28.550  1.00  0.00     0.251 C 
ATOM     27  H   UNL A   1      31.403  34.783  27.650  1.00  0.00     0.163 HD
ATOM     28  O   UNL A   1      33.047  35.460  29.297  1.00  0.00    -0.269 OA
BRANCH  26  29
ATOM     29  C   UNL A   1      34.349  33.605  28.696  1.00  0.00     0.039 A 
ATOM     30  C   UNL A   1      35.623  34.138  28.470  1.00  0.00     0.014 A 
ATOM     31  C   UNL A   1      34.207  32.299  29.171  1.00  0.00     0.014 A 
ATOM     32  C   UNL A   1      36.748  33.422  28.878  1.00  0.00     0.010 A 
ATOM     33  C   UNL A   1      35.324  31.623  29.651  1.00  0.00     0.010 A 
ATOM     34  C   UNL A   1      36.598  32.202  29.555  1.00  0.00    -0.014 A 
BRANCH  34  35
ATOM     35  C   UNL A   1      37.744  31.587  30.276  1.00  0.00     0.031 A 
ATOM     36  C   UNL A   1      38.584  30.530  29.625  1.00  0.00     0.074 A 
ATOM     37  C   UNL A   1      37.953  31.927  31.563  1.00  0.00     0.049 A 
ATOM     38  N   UNL A   1      39.588  29.853  30.119  1.00  0.00    -0.248 NA
ATOM     39  C   UNL A   1      38.224  30.163  28.249  1.00  0.00     0.031 C 
ATOM     40  C   UNL A   1      37.147  32.885  32.327  1.00  0.00     0.029 A 
ATOM     41  N   UNL A   1      38.900  31.506  32.464  1.00  0.00    -0.354 N 
ATOM     42  C   UNL A   1      39.980  28.972  29.117  1.00  0.00     0.074 A 
ATOM     43  C   UNL A   1      39.056  29.159  28.016  1.00  0.00     0.031 C 
ATOM     44  C   UNL A   1      37.656  33.006  33.563  1.00  0.00     0.029 A 
ATOM     45  C   UNL A   1      38.796  32.108  33.696  1.00  0.00     0.049 A 
ATOM     46  H   UNL A   1      39.587  30.835  32.248  1.00  0.00     0.167 HD
ATOM     47  C   UNL A   1      41.027  28.109  29.107  1.00  0.00     0.034 A 
ATOM     48  C   UNL A   1      39.540  31.956  34.809  1.00  0.00     0.034 A 
ATOM     49  C   UNL A   1      41.929  27.934  30.222  1.00  0.00     0.049 A 
ATOM     50  C   UNL A   1      40.697  30.997  34.778  1.00  0.00     0.074 A 
ATOM     51  C   UNL A   1      43.049  27.124  30.311  1.00  0.00     0.029 A 
ATOM     52  N   UNL A   1      41.807  28.573  31.451  1.00  0.00    -0.354 N 
ATOM     53  N   UNL A   1      41.098  30.218  33.799  1.00  0.00    -0.248 NA
ATOM     54  C   UNL A   1      41.510  30.904  35.996  1.00  0.00     0.031 C 
ATOM     55  C   UNL A   1      43.569  27.232  31.608  1.00  0.00     0.029 A 
ATOM     56  C   UNL A   1      42.814  28.157  32.310  1.00  0.00     0.049 A 
ATOM     57  H   UNL A   1      41.107  29.226  31.678  1.00  0.00     0.167 HD
ATOM     58  C   UNL A   1      42.225  29.559  34.278  1.00  0.00     0.074 A 
ATOM     59  C   UNL A   1      42.448  30.046  35.625  1.00  0.00     0.031 C 
ATOM     60  C   UNL A   1      43.006  28.636  33.660  1.00  0.00     0.034 A 
BRANCH  47  61
ATOM     61  C   UNL A   1      41.219  27.283  27.857  1.00  0.00     0.023 A 
ATOM     62  C   UNL A   1      40.876  25.919  27.822  1.00  0.00     0.031 A 
ATOM     63  C   UNL A   1      41.815  27.839  26.712  1.00  0.00     0.131 A 
ATOM     64  C   UNL A   1      41.224  25.135  26.711  1.00  0.00     0.055 A 
ATOM     65  C   UNL A   1      42.077  27.073  25.573  1.00  0.00     0.041 A 
ATOM     66  F   UNL A   1      42.183  29.129  26.689  1.00  0.00    -0.206 F 
ATOM     67  C   UNL A   1      41.801  25.708  25.576  1.00  0.00     0.022 A 
BRANCH  64  68
ATOM     68  S   UNL A   1      41.074  23.332  26.847  1.00  0.00     0.124 S 
ATOM     69  O   UNL A   1      39.668  23.127  26.504  1.00  0.00    -0.237 OA
ATOM     70  O   UNL A   1      42.047  22.861  25.868  1.00  0.00    -0.237 OA
ATOM     71  O   UNL A   1      41.412  23.065  28.243  1.00  0.00    -0.744 OA
ENDBRANCH  64  68
ENDBRANCH  47  61
BRANCH  48  72
ATOM     72  C   UNL A   1      39.226  32.740  36.036  1.00  0.00     0.023 A 
ATOM     73  C   UNL A   1      39.744  34.032  36.215  1.00  0.00     0.031 A 
ATOM     74  C   UNL A   1      38.416  32.204  37.052  1.00  0.00     0.131 A 
ATOM     75  C   UNL A   1      39.475  34.734  37.400  1.00  0.00     0.055 A 
ATOM     76  C   UNL A   1      38.118  32.923  38.212  1.00  0.00     0.041 A 
ATOM     77  F   UNL A   1      37.886  30.978  36.921  1.00  0.00    -0.206 F 
ATOM     78  C   UNL A   1      38.657  34.191  38.395  1.00  0.00     0.022 A 
BRANCH  75  79
ATOM     79  S   UNL A   1      40.253  36.353  37.646  1.00  0.00     0.124 S 
ATOM     80  O   UNL A   1      41.516  35.985  38.278  1.00  0.00    -0.237 OA
ATOM     81  O   UNL A   1      40.342  36.857  36.279  1.00  0.00    -0.237 OA
ATOM     82  O   UNL A   1      39.306  37.060  38.506  1.00  0.00    -0.744 OA
ENDBRANCH  75  79
ENDBRANCH  48  72
BRANCH  60  83
ATOM     83  C   UNL A   1      44.191  28.126  34.442  1.00  0.00     0.023 A 
ATOM     84  C   UNL A   1      44.089  26.999  35.277  1.00  0.00     0.031 A 
ATOM     85  C   UNL A   1      45.424  28.798  34.379  1.00  0.00     0.131 A 
ATOM     86  C   UNL A   1      45.186  26.613  36.063  1.00  0.00     0.055 A 
ATOM     87  C   UNL A   1      46.527  28.375  35.121  1.00  0.00     0.041 A 
ATOM     88  F   UNL A   1      45.572  29.881  33.601  1.00  0.00    -0.206 F 
ATOM     89  C   UNL A   1      46.408  27.285  35.979  1.00  0.00     0.022 A 
BRANCH  86  90
ATOM     90  S   UNL A   1      44.963  25.279  37.272  1.00  0.00     0.124 S 
ATOM     91  O   UNL A   1      45.472  25.890  38.495  1.00  0.00    -0.237 OA
ATOM     92  O   UNL A   1      43.522  25.053  37.224  1.00  0.00    -0.237 OA
ATOM     93  O   UNL A   1      45.779  24.191  36.737  1.00  0.00    -0.744 OA
ENDBRANCH  86  90
ENDBRANCH  60  83
ENDBRANCH  34  35
ENDBRANCH  26  29
ENDBRANCH  24  25
ENDBRANCH   1  24
TORSDOF 16
ENDMDL
MODEL 2
REMARK VINA RESULT:     -12.4      0.784      7.859
REMARK SMILES C[C@@H]1CN(c2ccc(N)cc2C(=O)NCCCCNC(=O)c2ccc(-c3c4nc(c(-c5cc(S(=O)(=O)[O-])ccc5F)c5ccc([nH]5)c(-c5cc(S(=O)(=O)[O-])ccc5F)c5nc(c(-c6cc(S(=O)(=O)[O-])ccc6F)c6ccc3[nH]6)C=C5)C=C4)cc2)C[C@H]1C
REMARK SMILES IDX 17 1 16 2 15 3 14 4 12 5 13 6 11 8 5 9 6 10 7 11 10 12 8 13
REMARK SMILES IDX 4 14 1 15 2 16 3 17 86 18 85 19 87 20 9 21 18 24 19 25 20 26
REMARK SMILES IDX 21 28 22 29 23 30 84 31 24 32 83 33 25 34 26 35 27 36 77 37
REMARK SMILES IDX 28 38 82 39 76 40 78 41 29 42 81 43 75 44 74 45 30 47 62 48
REMARK SMILES IDX 42 49 61 50 43 51 46 52 60 53 79 54 44 55 45 56 59 58 80 59
REMARK SMILES IDX 47 60 31 61 32 62 40 63 33 64 39 65 41 66 38 67 34 68 35 69
REMARK SMILES IDX 36 70 37 71 63 72 64 73 72 74 65 75 71 76 73 77 70 78 66 79
REMARK SMILES IDX 67 80 68 81 69 82 48 83 49 84 57 85 50 86 56 87 58 88 55 89
REMARK SMILES IDX 51 90 52 91 53 92 54 93
REMARK H PARENT 14 7 9 22 9 23 19 27 78 46 46 57
REMARK Flexibility Score: inf
ROOT
ATOM      1  C   UNL A   1      31.256  30.924  26.812  1.00  0.00     0.023 C 
ENDROOT
BRANCH   1   2
ATOM      2  C   UNL A   1      31.618  29.467  26.512  1.00  0.00     0.023 C 
BRANCH   2   3
ATOM      3  C   UNL A   1      33.033  29.171  26.034  1.00  0.00     0.116 C 
BRANCH   3   4
ATOM      4  N   UNL A   1      33.254  29.145  24.615  1.00  0.00    -0.352 N 
ATOM      5  C   UNL A   1      32.363  28.954  23.579  1.00  0.00     0.253 C 
ATOM      6  O   UNL A   1      32.769  29.330  22.471  1.00  0.00    -0.269 OA
ATOM      7  H   UNL A   1      34.189  29.287  24.337  1.00  0.00     0.163 HD
BRANCH   5   8
ATOM      8  C   UNL A   1      31.030  28.240  23.626  1.00  0.00     0.065 A 
ATOM      9  C   UNL A   1      29.726  28.669  23.283  1.00  0.00     0.050 A 
ATOM     10  C   UNL A   1      28.677  27.724  23.426  1.00  0.00     0.029 A 
ATOM     11  C   UNL A   1      28.871  26.421  23.885  1.00  0.00     0.027 A 
ATOM     12  C   UNL A   1      31.191  26.900  24.091  1.00  0.00     0.041 A 
ATOM     13  C   UNL A   1      30.142  25.983  24.195  1.00  0.00     0.032 A 
BRANCH   9  14
ATOM     14  N   UNL A   1      29.357  29.912  22.824  1.00  0.00    -0.370 N 
ATOM     15  C   UNL A   1      29.061  33.511  23.238  1.00  0.00     0.010 C 
ATOM     16  C   UNL A   1      28.511  32.133  22.890  1.00  0.00     0.010 C 
ATOM     17  C   UNL A   1      29.173  31.042  23.742  1.00  0.00     0.120 C 
ATOM     18  C   UNL A   1      28.787  31.697  21.440  1.00  0.00     0.010 C 
ATOM     19  C   UNL A   1      28.763  30.161  21.519  1.00  0.00     0.120 C 
ATOM     20  C   UNL A   1      27.817  32.268  20.423  1.00  0.00     0.010 C 
ENDBRANCH   9  14
BRANCH  13  21
ATOM     21  N   UNL A   1      30.346  24.716  24.717  1.00  0.00    -0.399 N 
ATOM     22  H   UNL A   1      29.706  23.994  24.520  1.00  0.00     0.156 HD
ATOM     23  H   UNL A   1      31.131  24.538  25.284  1.00  0.00     0.156 HD
ENDBRANCH  13  21
ENDBRANCH   5   8
ENDBRANCH   3   4
ENDBRANCH   2   3
ENDBRANCH   1   2
BRANCH   1  24
ATOM     24  C   UNL A   1      32.201  32.027  26.337  1.00  0.00     0.116 C 
BRANCH  24  25
ATOM     25  N   UNL A   1      32.263  33.221  27.176  1.00  0.00    -0.352 N 
ATOM     26  C   UNL A   1      33.301  33.685  27.955  1.00  0.00     0.251 C 
ATOM     27  H   UNL A   1      31.446  33.772  27.186  1.00  0.00     0.163 HD
ATOM     28  O   UNL A   1      33.193  34.733  28.563  1.00  0.00    -0.269 OA
BRANCH  26  29
ATOM     29  C   UNL A   1      34.515  32.846  28.128  1.00  0.00     0.039 A 
ATOM     30  C   UNL A   1      35.763  33.474  28.059  1.00  0.00     0.014 A 
ATOM     31  C   UNL A   1      34.425  31.497  28.481  1.00  0.00     0.014 A 
ATOM     32  C   UNL A   1      36.897  32.797  28.503  1.00  0.00     0.010 A 
ATOM     33  C   UNL A   1      35.543  30.852  28.999  1.00  0.00     0.010 A 
ATOM     34  C   UNL A   1      36.778  31.515  29.063  1.00  0.00    -0.014 A 
BRANCH  34  35
ATOM     35  C   UNL A   1      37.900  30.912  29.828  1.00  0.00     0.031 A 
ATOM     36  C   UNL A   1      38.166  31.310  31.248  1.00  0.00     0.074 A 
ATOM     37  C   UNL A   1      38.738  30.071  29.188  1.00  0.00     0.049 A 
ATOM     38  N   UNL A   1      39.126  30.924  32.048  1.00  0.00    -0.248 NA
ATOM     39  C   UNL A   1      37.251  32.300  31.832  1.00  0.00     0.031 C 
ATOM     40  C   UNL A   1      38.625  29.673  27.780  1.00  0.00     0.029 A 
ATOM     41  N   UNL A   1      39.851  29.400  29.628  1.00  0.00    -0.354 N 
ATOM     42  C   UNL A   1      38.936  31.627  33.233  1.00  0.00     0.074 A 
ATOM     43  C   UNL A   1      37.811  32.513  33.014  1.00  0.00     0.031 C 
ATOM     44  C   UNL A   1      39.604  28.803  27.487  1.00  0.00     0.029 A 
ATOM     45  C   UNL A   1      40.435  28.609  28.667  1.00  0.00     0.049 A 
ATOM     46  H   UNL A   1      40.199  29.480  30.546  1.00  0.00     0.167 HD
ATOM     47  C   UNL A   1      39.621  31.524  34.400  1.00  0.00     0.034 A 
ATOM     48  C   UNL A   1      41.521  27.813  28.731  1.00  0.00     0.034 A 
ATOM     49  C   UNL A   1      40.747  30.640  34.591  1.00  0.00     0.049 A 
ATOM     50  C   UNL A   1      42.265  27.710  30.033  1.00  0.00     0.074 A 
ATOM     51  C   UNL A   1      41.490  30.417  35.739  1.00  0.00     0.029 A 
ATOM     52  N   UNL A   1      41.304  29.837  33.601  1.00  0.00    -0.354 N 
ATOM     53  N   UNL A   1      42.033  28.331  31.167  1.00  0.00    -0.248 NA
ATOM     54  C   UNL A   1      43.407  26.790  30.069  1.00  0.00     0.031 C 
ATOM     55  C   UNL A   1      42.525  29.526  35.428  1.00  0.00     0.029 A 
ATOM     56  C   UNL A   1      42.393  29.139  34.104  1.00  0.00     0.049 A 
ATOM     57  H   UNL A   1      40.973  29.774  32.676  1.00  0.00     0.167 HD
ATOM     58  C   UNL A   1      42.991  27.859  32.059  1.00  0.00     0.074 A 
ATOM     59  C   UNL A   1      43.789  26.889  31.333  1.00  0.00     0.031 C 
ATOM     60  C   UNL A   1      43.192  28.194  33.359  1.00  0.00     0.034 A 
BRANCH  47  61
ATOM     61  C   UNL A   1      39.172  32.413  35.536  1.00  0.00     0.023 A 
ATOM     62  C   UNL A   1      39.591  33.753  35.625  1.00  0.00     0.031 A 
ATOM     63  C   UNL A   1      38.377  31.904  36.577  1.00  0.00     0.131 A 
ATOM     64  C   UNL A   1      39.304  34.504  36.775  1.00  0.00     0.055 A 
ATOM     65  C   UNL A   1      38.017  32.686  37.678  1.00  0.00     0.041 A 
ATOM     66  F   UNL A   1      37.960  30.629  36.559  1.00  0.00    -0.206 F 
ATOM     67  C   UNL A   1      38.499  33.987  37.792  1.00  0.00     0.022 A 
BRANCH  64  68
ATOM     68  S   UNL A   1      40.146  36.096  36.999  1.00  0.00     0.124 S 
ATOM     69  O   UNL A   1      39.903  36.740  35.710  1.00  0.00    -0.237 OA
ATOM     70  O   UNL A   1      39.443  36.666  38.142  1.00  0.00    -0.237 OA
ATOM     71  O   UNL A   1      41.536  35.716  37.244  1.00  0.00    -0.744 OA
ENDBRANCH  64  68
ENDBRANCH  47  61
BRANCH  48  72
ATOM     72  C   UNL A   1      41.957  27.039  27.535  1.00  0.00     0.023 A 
ATOM     73  C   UNL A   1      41.746  25.653  27.459  1.00  0.00     0.031 A 
ATOM     74  C   UNL A   1      42.602  27.671  26.458  1.00  0.00     0.131 A 
ATOM     75  C   UNL A   1      42.208  24.937  26.345  1.00  0.00     0.055 A 
ATOM     76  C   UNL A   1      43.024  26.959  25.333  1.00  0.00     0.041 A 
ATOM     77  F   UNL A   1      42.815  28.996  26.477  1.00  0.00    -0.206 F 
ATOM     78  C   UNL A   1      42.836  25.582  25.276  1.00  0.00     0.022 A 
BRANCH  75  79
ATOM     79  S   UNL A   1      42.019  23.133  26.333  1.00  0.00     0.124 S 
ATOM     80  O   UNL A   1      42.606  22.780  25.045  1.00  0.00    -0.237 OA
ATOM     81  O   UNL A   1      42.782  22.742  27.515  1.00  0.00    -0.237 OA
ATOM     82  O   UNL A   1      40.575  22.940  26.437  1.00  0.00    -0.744 OA
ENDBRANCH  75  79
ENDBRANCH  48  72
BRANCH  60  83
ATOM     83  C   UNL A   1      44.306  27.473  34.075  1.00  0.00     0.023 A 
ATOM     84  C   UNL A   1      44.077  26.272  34.769  1.00  0.00     0.031 A 
ATOM     85  C   UNL A   1      45.603  28.015  34.093  1.00  0.00     0.131 A 
ATOM     86  C   UNL A   1      45.118  25.683  35.504  1.00  0.00     0.055 A 
ATOM     87  C   UNL A   1      46.647  27.394  34.780  1.00  0.00     0.041 A 
ATOM     88  F   UNL A   1      45.874  29.161  33.450  1.00  0.00    -0.206 F 
ATOM     89  C   UNL A   1      46.404  26.228  35.502  1.00  0.00     0.022 A 
BRANCH  86  90
ATOM     90  S   UNL A   1      44.741  24.246  36.546  1.00  0.00     0.124 S 
ATOM     91  O   UNL A   1      46.072  23.727  36.840  1.00  0.00    -0.237 OA
ATOM     92  O   UNL A   1      44.032  24.853  37.668  1.00  0.00    -0.237 OA
ATOM     93  O   UNL A   1      43.923  23.399  35.680  1.00  0.00    -0.744 OA
ENDBRANCH  86  90
ENDBRANCH  60  83
ENDBRANCH  34  35
ENDBRANCH  26  29
ENDBRANCH  24  25
ENDBRANCH   1  24
TORSDOF 16
ENDMDL
MODEL 3
REMARK VINA RESULT:     -12.3      6.464     11.762
REMARK SMILES C[C@@H]1CN(c2ccc(N)cc2C(=O)NCCCCNC(=O)c2ccc(-c3c4nc(c(-c5cc(S(=O)(=O)[O-])ccc5F)c5ccc([nH]5)c(-c5cc(S(=O)(=O)[O-])ccc5F)c5nc(c(-c6cc(S(=O)(=O)[O-])ccc6F)c6ccc3[nH]6)C=C5)C=C4)cc2)C[C@H]1C
REMARK SMILES IDX 17 1 16 2 15 3 14 4 12 5 13 6 11 8 5 9 6 10 7 11 10 12 8 13
REMARK SMILES IDX 4 14 1 15 2 16 3 17 86 18 85 19 87 20 9 21 18 24 19 25 20 26
REMARK SMILES IDX 21 28 22 29 23 30 84 31 24 32 83 33 25 34 26 35 27 36 77 37
REMARK SMILES IDX 28 38 82 39 76 40 78 41 29 42 81 43 75 44 74 45 30 47 62 48
REMARK SMILES IDX 42 49 61 50 43 51 46 52 60 53 79 54 44 55 45 56 59 58 80 59
REMARK SMILES IDX 47 60 31 61 32 62 40 63 33 64 39 65 41 66 38 67 34 68 35 69
REMARK SMILES IDX 36 70 37 71 63 72 64 73 72 74 65 75 71 76 73 77 70 78 66 79
REMARK SMILES IDX 67 80 68 81 69 82 48 83 49 84 57 85 50 86 56 87 58 88 55 89
REMARK SMILES IDX 51 90 52 91 53 92 54 93
REMARK H PARENT 14 7 9 22 9 23 19 27 78 46 46 57
REMARK Flexibility Score: inf
ROOT
ATOM      1  C   UNL A   1      37.834  20.153  24.514  1.00  0.00     0.023 C 
ENDROOT
BRANCH   1   2
ATOM      2  C   UNL A   1      36.633  21.102  24.482  1.00  0.00     0.023 C 
BRANCH   2   3
ATOM      3  C   UNL A   1      36.468  22.078  25.638  1.00  0.00     0.116 C 
BRANCH   3   4
ATOM      4  N   UNL A   1      35.357  21.868  26.523  1.00  0.00    -0.352 N 
ATOM      5  C   UNL A   1      34.143  21.253  26.294  1.00  0.00     0.253 C 
ATOM      6  O   UNL A   1      33.536  20.909  27.317  1.00  0.00    -0.269 OA
ATOM      7  H   UNL A   1      35.480  22.215  27.436  1.00  0.00     0.163 HD
BRANCH   5   8
ATOM      8  C   UNL A   1      33.433  21.072  24.970  1.00  0.00     0.065 A 
ATOM      9  C   UNL A   1      33.098  19.907  24.240  1.00  0.00     0.050 A 
ATOM     10  C   UNL A   1      32.398  20.089  23.019  1.00  0.00     0.029 A 
ATOM     11  C   UNL A   1      32.037  21.339  22.517  1.00  0.00     0.027 A 
ATOM     12  C   UNL A   1      33.047  22.334  24.426  1.00  0.00     0.041 A 
ATOM     13  C   UNL A   1      32.333  22.480  23.235  1.00  0.00     0.032 A 
BRANCH   9  14
ATOM     14  N   UNL A   1      33.381  18.604  24.582  1.00  0.00    -0.370 N 
ATOM     15  C   UNL A   1      32.352  15.288  25.654  1.00  0.00     0.010 C 
ATOM     16  C   UNL A   1      33.220  16.537  25.744  1.00  0.00     0.010 C 
ATOM     17  C   UNL A   1      32.429  17.790  25.344  1.00  0.00     0.120 C 
ATOM     18  C   UNL A   1      34.425  16.533  24.789  1.00  0.00     0.010 C 
ATOM     19  C   UNL A   1      34.717  18.027  24.575  1.00  0.00     0.120 C 
ATOM     20  C   UNL A   1      35.619  15.747  25.297  1.00  0.00     0.010 C 
ENDBRANCH   9  14
BRANCH  13  21
ATOM     21  N   UNL A   1      32.044  23.734  22.721  1.00  0.00    -0.399 N 
ATOM     22  H   UNL A   1      32.358  23.981  21.821  1.00  0.00     0.156 HD
ATOM     23  H   UNL A   1      31.526  24.378  23.256  1.00  0.00     0.156 HD
ENDBRANCH  13  21
ENDBRANCH   5   8
ENDBRANCH   3   4
ENDBRANCH   2   3
ENDBRANCH   1   2
BRANCH   1  24
ATOM     24  C   UNL A   1      38.450  19.796  25.866  1.00  0.00     0.116 C 
BRANCH  24  25
ATOM     25  N   UNL A   1      39.814  19.276  25.829  1.00  0.00    -0.352 N 
ATOM     26  C   UNL A   1      40.974  19.838  26.319  1.00  0.00     0.251 C 
ATOM     27  H   UNL A   1      39.920  18.400  25.392  1.00  0.00     0.163 HD
ATOM     28  O   UNL A   1      42.030  19.239  26.239  1.00  0.00    -0.269 OA
BRANCH  26  29
ATOM     29  C   UNL A   1      40.944  21.224  26.854  1.00  0.00     0.039 A 
ATOM     30  C   UNL A   1      41.608  21.477  28.059  1.00  0.00     0.014 A 
ATOM     31  C   UNL A   1      40.387  22.276  26.124  1.00  0.00     0.014 A 
ATOM     32  C   UNL A   1      41.857  22.794  28.442  1.00  0.00     0.010 A 
ATOM     33  C   UNL A   1      40.706  23.586  26.464  1.00  0.00     0.010 A 
ATOM     34  C   UNL A   1      41.489  23.853  27.598  1.00  0.00    -0.014 A 
BRANCH  34  35
ATOM     35  C   UNL A   1      42.020  25.223  27.821  1.00  0.00     0.031 A 
ATOM     36  C   UNL A   1      41.174  26.283  28.460  1.00  0.00     0.074 A 
ATOM     37  C   UNL A   1      43.246  25.524  27.348  1.00  0.00     0.049 A 
ATOM     38  N   UNL A   1      41.456  27.539  28.687  1.00  0.00    -0.248 NA
ATOM     39  C   UNL A   1      39.819  25.884  28.862  1.00  0.00     0.031 C 
ATOM     40  C   UNL A   1      44.130  24.595  26.636  1.00  0.00     0.029 A 
ATOM     41  N   UNL A   1      43.965  26.693  27.386  1.00  0.00    -0.354 N 
ATOM     42  C   UNL A   1      40.312  28.087  29.257  1.00  0.00     0.074 A 
ATOM     43  C   UNL A   1      39.313  27.038  29.271  1.00  0.00     0.031 C 
ATOM     44  C   UNL A   1      45.281  25.217  26.340  1.00  0.00     0.029 A 
ATOM     45  C   UNL A   1      45.206  26.597  26.803  1.00  0.00     0.049 A 
ATOM     46  H   UNL A   1      43.623  27.522  27.791  1.00  0.00     0.167 HD
ATOM     47  C   UNL A   1      40.122  29.340  29.744  1.00  0.00     0.034 A 
ATOM     48  C   UNL A   1      46.179  27.519  26.658  1.00  0.00     0.034 A 
ATOM     49  C   UNL A   1      41.131  30.373  29.709  1.00  0.00     0.049 A 
ATOM     50  C   UNL A   1      45.951  28.900  27.207  1.00  0.00     0.074 A 
ATOM     51  C   UNL A   1      41.070  31.662  30.211  1.00  0.00     0.029 A 
ATOM     52  N   UNL A   1      42.387  30.237  29.126  1.00  0.00    -0.354 N 
ATOM     53  N   UNL A   1      44.887  29.385  27.804  1.00  0.00    -0.248 NA
ATOM     54  C   UNL A   1      47.058  29.853  27.074  1.00  0.00     0.031 C 
ATOM     55  C   UNL A   1      42.262  32.320  29.883  1.00  0.00     0.029 A 
ATOM     56  C   UNL A   1      43.097  31.425  29.234  1.00  0.00     0.049 A 
ATOM     57  H   UNL A   1      42.723  29.417  28.698  1.00  0.00     0.167 HD
ATOM     58  C   UNL A   1      45.207  30.697  28.138  1.00  0.00     0.074 A 
ATOM     59  C   UNL A   1      46.568  30.917  27.690  1.00  0.00     0.031 C 
ATOM     60  C   UNL A   1      44.446  31.634  28.759  1.00  0.00     0.034 A 
BRANCH  47  61
ATOM     61  C   UNL A   1      38.763  29.647  30.327  1.00  0.00     0.023 A 
ATOM     62  C   UNL A   1      37.769  30.290  29.566  1.00  0.00     0.031 A 
ATOM     63  C   UNL A   1      38.476  29.361  31.673  1.00  0.00     0.131 A 
ATOM     64  C   UNL A   1      36.582  30.719  30.180  1.00  0.00     0.055 A 
ATOM     65  C   UNL A   1      37.254  29.710  32.255  1.00  0.00     0.041 A 
ATOM     66  F   UNL A   1      39.389  28.765  32.456  1.00  0.00    -0.206 F 
ATOM     67  C   UNL A   1      36.308  30.412  31.514  1.00  0.00     0.022 A 
BRANCH  64  68
ATOM     68  S   UNL A   1      35.489  31.835  29.258  1.00  0.00     0.124 S 
ATOM     69  O   UNL A   1      34.803  30.903  28.365  1.00  0.00    -0.237 OA
ATOM     70  O   UNL A   1      34.676  32.424  30.315  1.00  0.00    -0.237 OA
ATOM     71  O   UNL A   1      36.415  32.751  28.595  1.00  0.00    -0.744 OA
ENDBRANCH  64  68
ENDBRANCH  47  61
BRANCH  48  72
ATOM     72  C   UNL A   1      47.458  27.162  25.984  1.00  0.00     0.023 A 
ATOM     73  C   UNL A   1      47.651  27.427  24.619  1.00  0.00     0.031 A 
ATOM     74  C   UNL A   1      48.502  26.541  26.692  1.00  0.00     0.131 A 
ATOM     75  C   UNL A   1      48.846  27.039  23.994  1.00  0.00     0.055 A 
ATOM     76  C   UNL A   1      49.705  26.193  26.074  1.00  0.00     0.041 A 
ATOM     77  F   UNL A   1      48.372  26.279  28.002  1.00  0.00    -0.206 F 
ATOM     78  C   UNL A   1      49.878  26.433  24.715  1.00  0.00     0.022 A 
BRANCH  75  79
ATOM     79  S   UNL A   1      49.013  27.294  22.206  1.00  0.00     0.124 S 
ATOM     80  O   UNL A   1      50.441  27.560  22.075  1.00  0.00    -0.237 OA
ATOM     81  O   UNL A   1      48.546  26.018  21.674  1.00  0.00    -0.237 OA
ATOM     82  O   UNL A   1      48.137  28.432  21.940  1.00  0.00    -0.744 OA
ENDBRANCH  75  79
ENDBRANCH  48  72
BRANCH  60  83
ATOM     83  C   UNL A   1      45.097  32.970  29.011  1.00  0.00     0.023 A 
ATOM     84  C   UNL A   1      45.098  33.983  28.035  1.00  0.00     0.031 A 
ATOM     85  C   UNL A   1      45.756  33.219  30.228  1.00  0.00     0.131 A 
ATOM     86  C   UNL A   1      45.798  35.176  28.270  1.00  0.00     0.055 A 
ATOM     87  C   UNL A   1      46.402  34.430  30.477  1.00  0.00     0.041 A 
ATOM     88  F   UNL A   1      45.787  32.285  31.191  1.00  0.00    -0.206 F 
ATOM     89  C   UNL A   1      46.438  35.412  29.490  1.00  0.00     0.022 A 
BRANCH  86  90
ATOM     90  S   UNL A   1      45.946  36.378  26.919  1.00  0.00     0.124 S 
ATOM     91  O   UNL A   1      46.120  35.512  25.759  1.00  0.00    -0.237 OA
ATOM     92  O   UNL A   1      44.675  37.092  26.997  1.00  0.00    -0.237 OA
ATOM     93  O   UNL A   1      47.122  37.165  27.287  1.00  0.00    -0.744 OA
ENDBRANCH  86  90
ENDBRANCH  60  83
ENDBRANCH  34  35
ENDBRANCH  26  29
ENDBRANCH  24  25
ENDBRANCH   1  24
TORSDOF 16
ENDMDL
