MODEL 1
REMARK VINA RESULT:     -11.3      0.000      0.000
REMARK SMILES C[C@@H](C(=O)NCCCCNC(=O)c1ccc(-c2c3nc(c(-c4cc(S(=O)(=O)[O-])ccc4F)c4ccc([nH]4)c(-c4cc(S(=O)(=O)[O-])ccc4F)c4nc(c(-c5cc(S(=O)(=O)[O-])ccc5F)c5ccc2[nH]5)C=C4)C=C3)cc1)c1ccc2c3cc(Cl)ccc3n(C(=O)c3cocn3)c2c1
REMARK SMILES IDX 7 1 6 2 5 3 3 4 4 5 2 7 1 8 76 9 77 10 96 11 78 12 95 13
REMARK SMILES IDX 79 14 87 15 80 16 86 17 81 18 85 19 82 20 84 21 83 22 88 23
REMARK SMILES IDX 89 24 90 25 91 26 94 27 92 28 93 29 8 30 9 31 10 32 11 33
REMARK SMILES IDX 12 35 13 36 14 37 75 38 15 39 74 40 16 41 17 42 18 43 68 44
REMARK SMILES IDX 19 45 73 46 67 47 69 48 20 49 72 50 66 51 65 52 21 54 53 55
REMARK SMILES IDX 33 56 52 57 34 58 37 59 51 60 70 61 35 62 36 63 50 65 71 66
REMARK SMILES IDX 38 67 22 68 23 69 31 70 24 71 30 72 32 73 29 74 25 75 26 76
REMARK SMILES IDX 27 77 28 78 54 79 55 80 63 81 56 82 62 83 64 84 61 85 57 86
REMARK SMILES IDX 58 87 59 88 60 89 39 90 40 91 48 92 41 93 47 94 49 95 46 96
REMARK SMILES IDX 42 97 43 98 44 99 45 100
REMARK H PARENT 5 6 10 34 69 53 37 64
REMARK Flexibility Score: inf
ROOT
ATOM      1  C   UNL A   1      34.643  34.555  28.333  1.00  0.00     0.023 C 
ENDROOT
BRANCH   1   2
ATOM      2  C   UNL A   1      35.301  33.375  29.050  1.00  0.00     0.116 C 
BRANCH   2   3
ATOM      3  N   UNL A   1      36.178  32.653  28.152  1.00  0.00    -0.356 N 
ATOM      4  C   UNL A   1      36.280  31.311  27.927  1.00  0.00     0.227 C 
ATOM      5  O   UNL A   1      37.236  30.928  27.250  1.00  0.00    -0.274 OA
ATOM      6  H   UNL A   1      36.791  33.216  27.625  1.00  0.00     0.163 HD
BRANCH   4   7
ATOM      7  C   UNL A   1      35.207  30.358  28.481  1.00  0.00     0.105 C 
ATOM      8  C   UNL A   1      35.779  28.995  28.890  1.00  0.00     0.023 C 
BRANCH   7   9
ATOM      9  C   UNL A   1      34.048  30.182  27.501  1.00  0.00    -0.034 A 
ATOM     10  C   UNL A   1      33.102  31.191  27.303  1.00  0.00     0.005 A 
ATOM     11  C   UNL A   1      33.916  28.966  26.807  1.00  0.00     0.032 A 
ATOM     12  C   UNL A   1      32.085  31.046  26.362  1.00  0.00     0.011 A 
ATOM     13  C   UNL A   1      32.851  28.798  25.896  1.00  0.00     0.058 A 
ATOM     14  C   UNL A   1      31.971  29.844  25.633  1.00  0.00     0.008 A 
ATOM     15  N   UNL A   1      32.474  27.698  25.108  1.00  0.00    -0.274 N 
ATOM     16  C   UNL A   1      31.080  29.415  24.616  1.00  0.00     0.009 A 
ATOM     17  C   UNL A   1      31.351  28.068  24.345  1.00  0.00     0.057 A 
ATOM     18  C   UNL A   1      30.029  30.074  23.941  1.00  0.00     0.031 A 
ATOM     19  C   UNL A   1      30.499  27.339  23.490  1.00  0.00     0.029 A 
ATOM     20  C   UNL A   1      29.243  29.365  23.040  1.00  0.00     0.041 A 
ATOM     21  C   UNL A   1      29.460  28.011  22.830  1.00  0.00     0.023 A 
ATOM     22  Cl  UNL A   1      27.971  30.171  22.207  1.00  0.00    -0.084 Cl
BRANCH  15  23
ATOM     23  C   UNL A   1      33.132  26.435  25.138  1.00  0.00     0.284 C 
ATOM     24  O   UNL A   1      34.051  26.284  24.332  1.00  0.00    -0.266 OA
BRANCH  23  25
ATOM     25  C   UNL A   1      32.770  25.320  26.009  1.00  0.00     0.167 A 
ATOM     26  C   UNL A   1      31.563  25.055  26.622  1.00  0.00     0.231 A 
ATOM     27  N   UNL A   1      33.620  24.246  26.237  1.00  0.00    -0.211 NA
ATOM     28  O   UNL A   1      31.652  23.848  27.251  1.00  0.00    -0.451 OA
ATOM     29  C   UNL A   1      32.908  23.416  26.960  1.00  0.00     0.308 A 
ENDBRANCH  23  25
ENDBRANCH  15  23
ENDBRANCH   7   9
ENDBRANCH   4   7
ENDBRANCH   2   3
ENDBRANCH   1   2
BRANCH   1  30
ATOM     30  C   UNL A   1      33.310  35.006  28.938  1.00  0.00     0.023 C 
BRANCH  30  31
ATOM     31  C   UNL A   1      33.368  36.309  29.725  1.00  0.00     0.116 C 
BRANCH  31  32
ATOM     32  N   UNL A   1      32.439  36.330  30.840  1.00  0.00    -0.352 N 
ATOM     33  C   UNL A   1      32.529  35.691  32.051  1.00  0.00     0.251 C 
ATOM     34  H   UNL A   1      31.632  36.880  30.710  1.00  0.00     0.163 HD
ATOM     35  O   UNL A   1      31.569  35.711  32.817  1.00  0.00    -0.269 OA
BRANCH  33  36
ATOM     36  C   UNL A   1      33.761  34.956  32.410  1.00  0.00     0.039 A 
ATOM     37  C   UNL A   1      34.989  35.610  32.292  1.00  0.00     0.014 A 
ATOM     38  C   UNL A   1      33.711  33.631  32.855  1.00  0.00     0.014 A 
ATOM     39  C   UNL A   1      36.164  34.951  32.664  1.00  0.00     0.010 A 
ATOM     40  C   UNL A   1      34.873  33.001  33.292  1.00  0.00     0.010 A 
ATOM     41  C   UNL A   1      36.112  33.650  33.189  1.00  0.00    -0.014 A 
BRANCH  41  42
ATOM     42  C   UNL A   1      37.351  32.945  33.605  1.00  0.00     0.031 A 
ATOM     43  C   UNL A   1      38.034  33.323  34.892  1.00  0.00     0.074 A 
ATOM     44  C   UNL A   1      37.884  32.002  32.804  1.00  0.00     0.049 A 
ATOM     45  N   UNL A   1      39.138  32.855  35.413  1.00  0.00    -0.248 NA
ATOM     46  C   UNL A   1      37.405  34.393  35.679  1.00  0.00     0.031 C 
ATOM     47  C   UNL A   1      37.336  31.582  31.513  1.00  0.00     0.029 A 
ATOM     48  N   UNL A   1      39.004  31.226  32.957  1.00  0.00    -0.354 N 
ATOM     49  C   UNL A   1      39.347  33.585  36.579  1.00  0.00     0.074 A 
ATOM     50  C   UNL A   1      38.287  34.569  36.650  1.00  0.00     0.031 C 
ATOM     51  C   UNL A   1      38.104  30.603  31.006  1.00  0.00     0.029 A 
ATOM     52  C   UNL A   1      39.217  30.352  31.917  1.00  0.00     0.049 A 
ATOM     53  H   UNL A   1      39.601  31.290  33.738  1.00  0.00     0.167 HD
ATOM     54  C   UNL A   1      40.317  33.432  37.515  1.00  0.00     0.034 A 
ATOM     55  C   UNL A   1      40.198  29.448  31.722  1.00  0.00     0.034 A 
ATOM     56  C   UNL A   1      41.355  32.433  37.435  1.00  0.00     0.049 A 
ATOM     57  C   UNL A   1      41.268  29.300  32.772  1.00  0.00     0.074 A 
ATOM     58  C   UNL A   1      42.349  32.144  38.354  1.00  0.00     0.029 A 
ATOM     59  N   UNL A   1      41.538  31.561  36.368  1.00  0.00    -0.354 N 
ATOM     60  N   UNL A   1      41.417  29.954  33.901  1.00  0.00    -0.248 NA
ATOM     61  C   UNL A   1      42.293  28.276  32.528  1.00  0.00     0.031 C 
ATOM     62  C   UNL A   1      43.168  31.145  37.815  1.00  0.00     0.029 A 
ATOM     63  C   UNL A   1      42.644  30.756  36.593  1.00  0.00     0.049 A 
ATOM     64  H   UNL A   1      40.965  31.521  35.569  1.00  0.00     0.167 HD
ATOM     65  C   UNL A   1      42.534  29.397  34.517  1.00  0.00     0.074 A 
ATOM     66  C   UNL A   1      43.010  28.346  33.639  1.00  0.00     0.031 C 
ATOM     67  C   UNL A   1      43.112  29.719  35.702  1.00  0.00     0.034 A 
BRANCH  54  68
ATOM     68  C   UNL A   1      40.305  34.390  38.684  1.00  0.00     0.023 A 
ATOM     69  C   UNL A   1      39.607  34.101  39.871  1.00  0.00     0.031 A 
ATOM     70  C   UNL A   1      40.960  35.630  38.597  1.00  0.00     0.131 A 
ATOM     71  C   UNL A   1      39.502  35.072  40.879  1.00  0.00     0.055 A 
ATOM     72  C   UNL A   1      40.925  36.558  39.640  1.00  0.00     0.041 A 
ATOM     73  F   UNL A   1      41.627  35.974  37.483  1.00  0.00    -0.206 F 
ATOM     74  C   UNL A   1      40.178  36.289  40.782  1.00  0.00     0.022 A 
BRANCH  71  75
ATOM     75  S   UNL A   1      38.335  34.784  42.239  1.00  0.00     0.124 S 
ATOM     76  O   UNL A   1      38.469  36.019  43.008  1.00  0.00    -0.237 OA
ATOM     77  O   UNL A   1      37.071  34.602  41.537  1.00  0.00    -0.237 OA
ATOM     78  O   UNL A   1      38.863  33.589  42.896  1.00  0.00    -0.744 OA
ENDBRANCH  71  75
ENDBRANCH  54  68
BRANCH  55  79
ATOM     79  C   UNL A   1      40.214  28.603  30.494  1.00  0.00     0.023 A 
ATOM     80  C   UNL A   1      41.053  28.922  29.415  1.00  0.00     0.031 A 
ATOM     81  C   UNL A   1      39.366  27.490  30.367  1.00  0.00     0.131 A 
ATOM     82  C   UNL A   1      40.993  28.165  28.235  1.00  0.00     0.055 A 
ATOM     83  C   UNL A   1      39.346  26.710  29.209  1.00  0.00     0.041 A 
ATOM     84  F   UNL A   1      38.552  27.138  31.374  1.00  0.00    -0.206 F 
ATOM     85  C   UNL A   1      40.154  27.054  28.129  1.00  0.00     0.022 A 
BRANCH  82  86
ATOM     86  S   UNL A   1      41.979  28.699  26.810  1.00  0.00     0.124 S 
ATOM     87  O   UNL A   1      42.709  29.836  27.362  1.00  0.00    -0.237 OA
ATOM     88  O   UNL A   1      42.770  27.506  26.524  1.00  0.00    -0.237 OA
ATOM     89  O   UNL A   1      40.971  29.032  25.806  1.00  0.00    -0.744 OA
ENDBRANCH  82  86
ENDBRANCH  55  79
BRANCH  67  90
ATOM     90  C   UNL A   1      44.293  28.883  36.134  1.00  0.00     0.023 A 
ATOM     91  C   UNL A   1      44.163  27.847  37.074  1.00  0.00     0.031 A 
ATOM     92  C   UNL A   1      45.573  29.149  35.614  1.00  0.00     0.131 A 
ATOM     93  C   UNL A   1      45.303  27.156  37.514  1.00  0.00     0.055 A 
ATOM     94  C   UNL A   1      46.693  28.419  36.011  1.00  0.00     0.041 A 
ATOM     95  F   UNL A   1      45.754  30.129  34.715  1.00  0.00    -0.206 F 
ATOM     96  C   UNL A   1      46.564  27.426  36.977  1.00  0.00     0.022 A 
BRANCH  93  97
ATOM     97  S   UNL A   1      45.131  25.970  38.877  1.00  0.00     0.124 S 
ATOM     98  O   UNL A   1      45.067  24.697  38.166  1.00  0.00    -0.237 OA
ATOM     99  O   UNL A   1      46.344  26.207  39.652  1.00  0.00    -0.237 OA
ATOM    100  O   UNL A   1      43.889  26.377  39.531  1.00  0.00    -0.744 OA
ENDBRANCH  93  97
ENDBRANCH  67  90
ENDBRANCH  41  42
ENDBRANCH  33  36
ENDBRANCH  31  32
ENDBRANCH  30  31
ENDBRANCH   1  30
TORSDOF 17
ENDMDL
MODEL 2
REMARK VINA RESULT:     -10.8      4.919     10.032
REMARK SMILES C[C@@H](C(=O)NCCCCNC(=O)c1ccc(-c2c3nc(c(-c4cc(S(=O)(=O)[O-])ccc4F)c4ccc([nH]4)c(-c4cc(S(=O)(=O)[O-])ccc4F)c4nc(c(-c5cc(S(=O)(=O)[O-])ccc5F)c5ccc2[nH]5)C=C4)C=C3)cc1)c1ccc2c3cc(Cl)ccc3n(C(=O)c3cocn3)c2c1
REMARK SMILES IDX 7 1 6 2 5 3 3 4 4 5 2 7 1 8 76 9 77 10 96 11 78 12 95 13
REMARK SMILES IDX 79 14 87 15 80 16 86 17 81 18 85 19 82 20 84 21 83 22 88 23
REMARK SMILES IDX 89 24 90 25 91 26 94 27 92 28 93 29 8 30 9 31 10 32 11 33
REMARK SMILES IDX 12 35 13 36 14 37 75 38 15 39 74 40 16 41 17 42 18 43 68 44
REMARK SMILES IDX 19 45 73 46 67 47 69 48 20 49 72 50 66 51 65 52 21 54 53 55
REMARK SMILES IDX 33 56 52 57 34 58 37 59 51 60 70 61 35 62 36 63 50 65 71 66
REMARK SMILES IDX 38 67 22 68 23 69 31 70 24 71 30 72 32 73 29 74 25 75 26 76
REMARK SMILES IDX 27 77 28 78 54 79 55 80 63 81 56 82 62 83 64 84 61 85 57 86
REMARK SMILES IDX 58 87 59 88 60 89 39 90 40 91 48 92 41 93 47 94 49 95 46 96
REMARK SMILES IDX 42 97 43 98 44 99 45 100
REMARK H PARENT 5 6 10 34 69 53 37 64
REMARK Flexibility Score: inf
ROOT
ATOM      1  C   UNL A   1      40.651  33.066  39.656  1.00  0.00     0.023 C 
ENDROOT
BRANCH   1   2
ATOM      2  C   UNL A   1      39.171  33.407  39.469  1.00  0.00     0.116 C 
BRANCH   2   3
ATOM      3  N   UNL A   1      38.415  32.228  39.104  1.00  0.00    -0.356 N 
ATOM      4  C   UNL A   1      37.721  31.959  37.960  1.00  0.00     0.227 C 
ATOM      5  O   UNL A   1      37.001  30.958  37.965  1.00  0.00    -0.274 OA
ATOM      6  H   UNL A   1      38.400  31.514  39.783  1.00  0.00     0.163 HD
BRANCH   4   7
ATOM      7  C   UNL A   1      37.886  32.869  36.732  1.00  0.00     0.105 C 
ATOM      8  C   UNL A   1      36.674  33.780  36.500  1.00  0.00     0.023 C 
BRANCH   7   9
ATOM      9  C   UNL A   1      38.201  32.064  35.472  1.00  0.00    -0.034 A 
ATOM     10  C   UNL A   1      38.858  30.833  35.540  1.00  0.00     0.005 A 
ATOM     11  C   UNL A   1      37.848  32.589  34.216  1.00  0.00     0.032 A 
ATOM     12  C   UNL A   1      39.085  30.077  34.392  1.00  0.00     0.011 A 
ATOM     13  C   UNL A   1      38.130  31.848  33.048  1.00  0.00     0.058 A 
ATOM     14  C   UNL A   1      38.697  30.579  33.133  1.00  0.00     0.008 A 
ATOM     15  N   UNL A   1      37.917  32.145  31.692  1.00  0.00    -0.274 N 
ATOM     16  C   UNL A   1      38.769  30.050  31.819  1.00  0.00     0.009 A 
ATOM     17  C   UNL A   1      38.351  31.046  30.929  1.00  0.00     0.057 A 
ATOM     18  C   UNL A   1      39.209  28.801  31.328  1.00  0.00     0.031 A 
ATOM     19  C   UNL A   1      38.484  30.846  29.539  1.00  0.00     0.029 A 
ATOM     20  C   UNL A   1      39.261  28.586  29.955  1.00  0.00     0.041 A 
ATOM     21  C   UNL A   1      38.923  29.599  29.070  1.00  0.00     0.023 A 
ATOM     22  Cl  UNL A   1      39.783  27.059  29.356  1.00  0.00    -0.084 Cl
BRANCH  15  23
ATOM     23  C   UNL A   1      37.378  33.377  31.222  1.00  0.00     0.284 C 
ATOM     24  O   UNL A   1      38.143  34.342  31.231  1.00  0.00    -0.266 OA
BRANCH  23  25
ATOM     25  C   UNL A   1      36.000  33.576  30.782  1.00  0.00     0.167 A 
ATOM     26  C   UNL A   1      34.904  33.976  31.517  1.00  0.00     0.231 A 
ATOM     27  N   UNL A   1      35.626  33.509  29.446  1.00  0.00    -0.211 NA
ATOM     28  O   UNL A   1      33.846  34.133  30.670  1.00  0.00    -0.451 OA
ATOM     29  C   UNL A   1      34.362  33.852  29.444  1.00  0.00     0.308 A 
ENDBRANCH  23  25
ENDBRANCH  15  23
ENDBRANCH   7   9
ENDBRANCH   4   7
ENDBRANCH   2   3
ENDBRANCH   1   2
BRANCH   1  30
ATOM     30  C   UNL A   1      41.328  33.782  40.828  1.00  0.00     0.023 C 
BRANCH  30  31
ATOM     31  C   UNL A   1      42.348  34.842  40.432  1.00  0.00     0.116 C 
BRANCH  31  32
ATOM     32  N   UNL A   1      41.734  36.120  40.122  1.00  0.00    -0.352 N 
ATOM     33  C   UNL A   1      41.483  36.682  38.895  1.00  0.00     0.251 C 
ATOM     34  H   UNL A   1      41.458  36.659  40.899  1.00  0.00     0.163 HD
ATOM     35  O   UNL A   1      41.086  37.843  38.833  1.00  0.00    -0.269 OA
BRANCH  33  36
ATOM     36  C   UNL A   1      41.724  35.903  37.661  1.00  0.00     0.039 A 
ATOM     37  C   UNL A   1      43.041  35.611  37.300  1.00  0.00     0.014 A 
ATOM     38  C   UNL A   1      40.663  35.465  36.862  1.00  0.00     0.014 A 
ATOM     39  C   UNL A   1      43.293  34.841  36.163  1.00  0.00     0.010 A 
ATOM     40  C   UNL A   1      40.912  34.638  35.770  1.00  0.00     0.010 A 
ATOM     41  C   UNL A   1      42.230  34.328  35.402  1.00  0.00    -0.014 A 
BRANCH  41  42
ATOM     42  C   UNL A   1      42.483  33.493  34.201  1.00  0.00     0.031 A 
ATOM     43  C   UNL A   1      42.532  31.994  34.325  1.00  0.00     0.074 A 
ATOM     44  C   UNL A   1      42.716  34.085  33.013  1.00  0.00     0.049 A 
ATOM     45  N   UNL A   1      42.775  31.094  33.408  1.00  0.00    -0.248 NA
ATOM     46  C   UNL A   1      42.312  31.440  35.668  1.00  0.00     0.031 C 
ATOM     47  C   UNL A   1      42.738  35.530  32.778  1.00  0.00     0.029 A 
ATOM     48  N   UNL A   1      42.977  33.545  31.780  1.00  0.00    -0.354 N 
ATOM     49  C   UNL A   1      42.752  29.868  34.066  1.00  0.00     0.074 A 
ATOM     50  C   UNL A   1      42.538  30.151  35.469  1.00  0.00     0.031 C 
ATOM     51  C   UNL A   1      42.968  35.761  31.476  1.00  0.00     0.029 A 
ATOM     52  C   UNL A   1      43.145  34.484  30.790  1.00  0.00     0.049 A 
ATOM     53  H   UNL A   1      43.040  32.576  31.619  1.00  0.00     0.167 HD
ATOM     54  C   UNL A   1      42.874  28.621  33.543  1.00  0.00     0.034 A 
ATOM     55  C   UNL A   1      43.410  34.333  29.477  1.00  0.00     0.034 A 
ATOM     56  C   UNL A   1      43.071  28.358  32.138  1.00  0.00     0.049 A 
ATOM     57  C   UNL A   1      43.548  32.939  28.920  1.00  0.00     0.074 A 
ATOM     58  C   UNL A   1      43.143  27.138  31.489  1.00  0.00     0.029 A 
ATOM     59  N   UNL A   1      43.232  29.335  31.162  1.00  0.00    -0.354 N 
ATOM     60  N   UNL A   1      43.462  31.787  29.543  1.00  0.00    -0.248 NA
ATOM     61  C   UNL A   1      43.801  32.829  27.478  1.00  0.00     0.031 C 
ATOM     62  C   UNL A   1      43.411  27.376  30.136  1.00  0.00     0.029 A 
ATOM     63  C   UNL A   1      43.433  28.745  29.924  1.00  0.00     0.049 A 
ATOM     64  H   UNL A   1      43.208  30.305  31.327  1.00  0.00     0.167 HD
ATOM     65  C   UNL A   1      43.618  30.813  28.561  1.00  0.00     0.074 A 
ATOM     66  C   UNL A   1      43.788  31.516  27.304  1.00  0.00     0.031 C 
ATOM     67  C   UNL A   1      43.613  29.461  28.682  1.00  0.00     0.034 A 
BRANCH  54  68
ATOM     68  C   UNL A   1      42.826  27.460  34.510  1.00  0.00     0.023 A 
ATOM     69  C   UNL A   1      43.975  27.012  35.187  1.00  0.00     0.031 A 
ATOM     70  C   UNL A   1      41.627  26.760  34.725  1.00  0.00     0.131 A 
ATOM     71  C   UNL A   1      43.922  25.847  35.967  1.00  0.00     0.055 A 
ATOM     72  C   UNL A   1      41.561  25.652  35.573  1.00  0.00     0.041 A 
ATOM     73  F   UNL A   1      40.499  27.126  34.094  1.00  0.00    -0.206 F 
ATOM     74  C   UNL A   1      42.716  25.178  36.185  1.00  0.00     0.022 A 
BRANCH  71  75
ATOM     75  S   UNL A   1      45.481  25.127  36.554  1.00  0.00     0.124 S 
ATOM     76  O   UNL A   1      46.250  25.038  35.314  1.00  0.00    -0.237 OA
ATOM     77  O   UNL A   1      45.942  26.117  37.520  1.00  0.00    -0.237 OA
ATOM     78  O   UNL A   1      45.074  23.843  37.120  1.00  0.00    -0.744 OA
ENDBRANCH  71  75
ENDBRANCH  54  68
BRANCH  55  79
ATOM     79  C   UNL A   1      43.552  35.523  28.592  1.00  0.00     0.023 A 
ATOM     80  C   UNL A   1      44.817  36.065  28.315  1.00  0.00     0.031 A 
ATOM     81  C   UNL A   1      42.425  36.158  28.042  1.00  0.00     0.131 A 
ATOM     82  C   UNL A   1      44.923  37.236  27.548  1.00  0.00     0.055 A 
ATOM     83  C   UNL A   1      42.540  37.294  27.239  1.00  0.00     0.041 A 
ATOM     84  F   UNL A   1      41.194  35.673  28.268  1.00  0.00    -0.206 F 
ATOM     85  C   UNL A   1      43.794  37.847  26.999  1.00  0.00     0.022 A 
BRANCH  82  86
ATOM     86  S   UNL A   1      46.559  37.991  27.341  1.00  0.00     0.124 S 
ATOM     87  O   UNL A   1      46.733  37.931  25.893  1.00  0.00    -0.237 OA
ATOM     88  O   UNL A   1      46.353  39.320  27.907  1.00  0.00    -0.237 OA
ATOM     89  O   UNL A   1      47.437  37.116  28.113  1.00  0.00    -0.744 OA
ENDBRANCH  82  86
ENDBRANCH  55  79
BRANCH  67  90
ATOM     90  C   UNL A   1      43.748  28.662  27.408  1.00  0.00     0.023 A 
ATOM     91  C   UNL A   1      45.004  28.345  26.862  1.00  0.00     0.031 A 
ATOM     92  C   UNL A   1      42.599  28.236  26.717  1.00  0.00     0.131 A 
ATOM     93  C   UNL A   1      45.082  27.680  25.629  1.00  0.00     0.055 A 
ATOM     94  C   UNL A   1      42.684  27.522  25.521  1.00  0.00     0.041 A 
ATOM     95  F   UNL A   1      41.375  28.514  27.192  1.00  0.00    -0.206 F 
ATOM     96  C   UNL A   1      43.929  27.253  24.964  1.00  0.00     0.022 A 
BRANCH  93  97
ATOM     97  S   UNL A   1      46.708  27.470  24.853  1.00  0.00     0.124 S 
ATOM     98  O   UNL A   1      47.608  27.579  25.997  1.00  0.00    -0.237 OA
ATOM     99  O   UNL A   1      46.599  26.144  24.252  1.00  0.00    -0.237 OA
ATOM    100  O   UNL A   1      46.780  28.577  23.901  1.00  0.00    -0.744 OA
ENDBRANCH  93  97
ENDBRANCH  67  90
ENDBRANCH  41  42
ENDBRANCH  33  36
ENDBRANCH  31  32
ENDBRANCH  30  31
ENDBRANCH   1  30
TORSDOF 17
ENDMDL
MODEL 3
REMARK VINA RESULT:     -10.8      7.044     12.803
REMARK SMILES C[C@@H](C(=O)NCCCCNC(=O)c1ccc(-c2c3nc(c(-c4cc(S(=O)(=O)[O-])ccc4F)c4ccc([nH]4)c(-c4cc(S(=O)(=O)[O-])ccc4F)c4nc(c(-c5cc(S(=O)(=O)[O-])ccc5F)c5ccc2[nH]5)C=C4)C=C3)cc1)c1ccc2c3cc(Cl)ccc3n(C(=O)c3cocn3)c2c1
REMARK SMILES IDX 7 1 6 2 5 3 3 4 4 5 2 7 1 8 76 9 77 10 96 11 78 12 95 13
REMARK SMILES IDX 79 14 87 15 80 16 86 17 81 18 85 19 82 20 84 21 83 22 88 23
REMARK SMILES IDX 89 24 90 25 91 26 94 27 92 28 93 29 8 30 9 31 10 32 11 33
REMARK SMILES IDX 12 35 13 36 14 37 75 38 15 39 74 40 16 41 17 42 18 43 68 44
REMARK SMILES IDX 19 45 73 46 67 47 69 48 20 49 72 50 66 51 65 52 21 54 53 55
REMARK SMILES IDX 33 56 52 57 34 58 37 59 51 60 70 61 35 62 36 63 50 65 71 66
REMARK SMILES IDX 38 67 22 68 23 69 31 70 24 71 30 72 32 73 29 74 25 75 26 76
REMARK SMILES IDX 27 77 28 78 54 79 55 80 63 81 56 82 62 83 64 84 61 85 57 86
REMARK SMILES IDX 58 87 59 88 60 89 39 90 40 91 48 92 41 93 47 94 49 95 46 96
REMARK SMILES IDX 42 97 43 98 44 99 45 100
REMARK H PARENT 5 6 10 34 69 53 37 64
REMARK Flexibility Score: inf
ROOT
ATOM      1  C   UNL A   1      39.402  22.816  27.041  1.00  0.00     0.023 C 
ENDROOT
BRANCH   1   2
ATOM      2  C   UNL A   1      39.690  21.718  26.015  1.00  0.00     0.116 C 
BRANCH   2   3
ATOM      3  N   UNL A   1      40.431  20.632  26.622  1.00  0.00    -0.356 N 
ATOM      4  C   UNL A   1      41.774  20.388  26.622  1.00  0.00     0.227 C 
ATOM      5  O   UNL A   1      42.143  19.292  27.049  1.00  0.00    -0.274 OA
ATOM      6  H   UNL A   1      39.884  19.972  27.107  1.00  0.00     0.163 HD
BRANCH   4   7
ATOM      7  C   UNL A   1      42.749  21.473  26.135  1.00  0.00     0.105 C 
ATOM      8  C   UNL A   1      43.934  20.897  25.349  1.00  0.00     0.023 C 
BRANCH   7   9
ATOM      9  C   UNL A   1      43.244  22.344  27.289  1.00  0.00    -0.034 A 
ATOM     10  C   UNL A   1      42.524  22.452  28.481  1.00  0.00     0.005 A 
ATOM     11  C   UNL A   1      44.435  23.077  27.133  1.00  0.00     0.032 A 
ATOM     12  C   UNL A   1      43.014  23.200  29.550  1.00  0.00     0.011 A 
ATOM     13  C   UNL A   1      44.900  23.880  28.196  1.00  0.00     0.058 A 
ATOM     14  C   UNL A   1      44.227  23.904  29.415  1.00  0.00     0.008 A 
ATOM     15  N   UNL A   1      46.021  24.722  28.296  1.00  0.00    -0.274 N 
ATOM     16  C   UNL A   1      44.978  24.712  30.307  1.00  0.00     0.009 A 
ATOM     17  C   UNL A   1      46.045  25.269  29.592  1.00  0.00     0.057 A 
ATOM     18  C   UNL A   1      44.789  25.043  31.667  1.00  0.00     0.031 A 
ATOM     19  C   UNL A   1      46.858  26.250  30.195  1.00  0.00     0.029 A 
ATOM     20  C   UNL A   1      45.646  25.953  32.275  1.00  0.00     0.041 A 
ATOM     21  C   UNL A   1      46.655  26.565  31.547  1.00  0.00     0.023 A 
ATOM     22  Cl  UNL A   1      45.425  26.345  33.937  1.00  0.00    -0.084 Cl
BRANCH  15  23
ATOM     23  C   UNL A   1      46.929  24.968  27.227  1.00  0.00     0.284 C 
ATOM     24  O   UNL A   1      47.942  24.267  27.204  1.00  0.00    -0.266 OA
BRANCH  23  25
ATOM     25  C   UNL A   1      46.764  25.999  26.206  1.00  0.00     0.167 A 
ATOM     26  C   UNL A   1      46.746  25.865  24.833  1.00  0.00     0.231 A 
ATOM     27  N   UNL A   1      46.450  27.315  26.519  1.00  0.00    -0.211 NA
ATOM     28  O   UNL A   1      46.455  27.078  24.282  1.00  0.00    -0.451 OA
ATOM     29  C   UNL A   1      46.274  27.893  25.356  1.00  0.00     0.308 A 
ENDBRANCH  23  25
ENDBRANCH  15  23
ENDBRANCH   7   9
ENDBRANCH   4   7
ENDBRANCH   2   3
ENDBRANCH   1   2
BRANCH   1  30
ATOM     30  C   UNL A   1      38.967  24.155  26.436  1.00  0.00     0.023 C 
BRANCH  30  31
ATOM     31  C   UNL A   1      39.996  25.273  26.541  1.00  0.00     0.116 C 
BRANCH  31  32
ATOM     32  N   UNL A   1      41.194  25.005  25.765  1.00  0.00    -0.352 N 
ATOM     33  C   UNL A   1      42.314  25.783  25.610  1.00  0.00     0.251 C 
ATOM     34  H   UNL A   1      41.204  24.147  25.282  1.00  0.00     0.163 HD
ATOM     35  O   UNL A   1      43.169  25.453  24.791  1.00  0.00    -0.269 OA
BRANCH  33  36
ATOM     36  C   UNL A   1      42.468  27.024  26.399  1.00  0.00     0.039 A 
ATOM     37  C   UNL A   1      43.178  26.970  27.601  1.00  0.00     0.014 A 
ATOM     38  C   UNL A   1      41.915  28.232  25.964  1.00  0.00     0.014 A 
ATOM     39  C   UNL A   1      43.373  28.136  28.343  1.00  0.00     0.010 A 
ATOM     40  C   UNL A   1      42.171  29.406  26.668  1.00  0.00     0.010 A 
ATOM     41  C   UNL A   1      42.891  29.368  27.871  1.00  0.00    -0.014 A 
BRANCH  41  42
ATOM     42  C   UNL A   1      43.107  30.619  28.641  1.00  0.00     0.031 A 
ATOM     43  C   UNL A   1      44.225  31.552  28.261  1.00  0.00     0.074 A 
ATOM     44  C   UNL A   1      42.330  30.889  29.708  1.00  0.00     0.049 A 
ATOM     45  N   UNL A   1      44.600  32.670  28.826  1.00  0.00    -0.248 NA
ATOM     46  C   UNL A   1      45.050  31.153  27.111  1.00  0.00     0.031 C 
ATOM     47  C   UNL A   1      41.244  30.038  30.200  1.00  0.00     0.029 A 
ATOM     48  N   UNL A   1      42.333  31.954  30.571  1.00  0.00    -0.354 N 
ATOM     49  C   UNL A   1      45.714  33.100  28.111  1.00  0.00     0.074 A 
ATOM     50  C   UNL A   1      45.988  32.086  27.115  1.00  0.00     0.031 C 
ATOM     51  C   UNL A   1      40.666  30.630  31.258  1.00  0.00     0.029 A 
ATOM     52  C   UNL A   1      41.361  31.882  31.542  1.00  0.00     0.049 A 
ATOM     53  H   UNL A   1      42.971  32.700  30.504  1.00  0.00     0.167 HD
ATOM     54  C   UNL A   1      46.426  34.247  28.256  1.00  0.00     0.034 A 
ATOM     55  C   UNL A   1      41.064  32.730  32.546  1.00  0.00     0.034 A 
ATOM     56  C   UNL A   1      46.125  35.255  29.245  1.00  0.00     0.049 A 
ATOM     57  C   UNL A   1      41.872  33.994  32.692  1.00  0.00     0.074 A 
ATOM     58  C   UNL A   1      46.736  36.481  29.442  1.00  0.00     0.029 A 
ATOM     59  N   UNL A   1      45.131  35.149  30.210  1.00  0.00    -0.354 N 
ATOM     60  N   UNL A   1      42.883  34.418  31.970  1.00  0.00    -0.248 NA
ATOM     61  C   UNL A   1      41.484  34.901  33.780  1.00  0.00     0.031 C 
ATOM     62  C   UNL A   1      46.154  37.087  30.561  1.00  0.00     0.029 A 
ATOM     63  C   UNL A   1      45.131  36.274  31.021  1.00  0.00     0.049 A 
ATOM     64  H   UNL A   1      44.515  34.387  30.304  1.00  0.00     0.167 HD
ATOM     65  C   UNL A   1      43.230  35.659  32.497  1.00  0.00     0.074 A 
ATOM     66  C   UNL A   1      42.311  35.918  33.587  1.00  0.00     0.031 C 
ATOM     67  C   UNL A   1      44.214  36.512  32.112  1.00  0.00     0.034 A 
BRANCH  54  68
ATOM     68  C   UNL A   1      47.610  34.444  27.339  1.00  0.00     0.023 A 
ATOM     69  C   UNL A   1      48.911  34.068  27.719  1.00  0.00     0.031 A 
ATOM     70  C   UNL A   1      47.447  35.060  26.086  1.00  0.00     0.131 A 
ATOM     71  C   UNL A   1      50.004  34.394  26.900  1.00  0.00     0.055 A 
ATOM     72  C   UNL A   1      48.529  35.302  25.237  1.00  0.00     0.041 A 
ATOM     73  F   UNL A   1      46.234  35.460  25.674  1.00  0.00    -0.206 F 
ATOM     74  C   UNL A   1      49.819  34.986  25.650  1.00  0.00     0.022 A 
BRANCH  71  75
ATOM     75  S   UNL A   1      51.678  34.183  27.569  1.00  0.00     0.124 S 
ATOM     76  O   UNL A   1      51.425  34.204  29.008  1.00  0.00    -0.237 OA
ATOM     77  O   UNL A   1      52.082  32.898  27.010  1.00  0.00    -0.237 OA
ATOM     78  O   UNL A   1      52.402  35.344  27.055  1.00  0.00    -0.744 OA
ENDBRANCH  71  75
ENDBRANCH  54  68
BRANCH  55  79
ATOM     79  C   UNL A   1      39.948  32.428  33.486  1.00  0.00     0.023 A 
ATOM     80  C   UNL A   1      38.679  32.998  33.301  1.00  0.00     0.031 A 
ATOM     81  C   UNL A   1      40.143  31.597  34.603  1.00  0.00     0.131 A 
ATOM     82  C   UNL A   1      37.665  32.769  34.244  1.00  0.00     0.055 A 
ATOM     83  C   UNL A   1      39.117  31.333  35.511  1.00  0.00     0.041 A 
ATOM     84  F   UNL A   1      41.336  31.020  34.820  1.00  0.00    -0.206 F 
ATOM     85  C   UNL A   1      37.872  31.931  35.341  1.00  0.00     0.022 A 
BRANCH  82  86
ATOM     86  S   UNL A   1      36.088  33.645  34.052  1.00  0.00     0.124 S 
ATOM     87  O   UNL A   1      36.528  34.945  33.557  1.00  0.00    -0.237 OA
ATOM     88  O   UNL A   1      35.386  32.797  33.094  1.00  0.00    -0.237 OA
ATOM     89  O   UNL A   1      35.534  33.646  35.403  1.00  0.00    -0.744 OA
ENDBRANCH  82  86
ENDBRANCH  55  79
BRANCH  67  90
ATOM     90  C   UNL A   1      44.305  37.825  32.851  1.00  0.00     0.023 A 
ATOM     91  C   UNL A   1      43.463  38.908  32.542  1.00  0.00     0.031 A 
ATOM     92  C   UNL A   1      45.269  38.002  33.859  1.00  0.00     0.131 A 
ATOM     93  C   UNL A   1      43.643  40.139  33.192  1.00  0.00     0.055 A 
ATOM     94  C   UNL A   1      45.403  39.210  34.543  1.00  0.00     0.041 A 
ATOM     95  F   UNL A   1      46.100  37.002  34.192  1.00  0.00    -0.206 F 
ATOM     96  C   UNL A   1      44.598  40.292  34.200  1.00  0.00     0.022 A 
BRANCH  93  97
ATOM     97  S   UNL A   1      42.682  41.571  32.626  1.00  0.00     0.124 S 
ATOM     98  O   UNL A   1      41.860  40.988  31.570  1.00  0.00    -0.237 OA
ATOM     99  O   UNL A   1      41.974  41.969  33.839  1.00  0.00    -0.237 OA
ATOM    100  O   UNL A   1      43.704  42.511  32.169  1.00  0.00    -0.744 OA
ENDBRANCH  93  97
ENDBRANCH  67  90
ENDBRANCH  41  42
ENDBRANCH  33  36
ENDBRANCH  31  32
ENDBRANCH  30  31
ENDBRANCH   1  30
TORSDOF 17
ENDMDL
