MODEL 1
REMARK VINA RESULT:     -10.1      0.000      0.000
REMARK SMILES CC[C@H](C(=O)NCCCCNC(=O)c1ccc(-c2c3nc(c(-c4cc(S(=O)(=O)[O-])ccc4F)c4ccc([nH]4)c(-c4cc(S(=O)(=O)[O-])ccc4F)c4nc(c(-c5cc(S(=O)(=O)[O-])ccc5F)c5ccc2[nH]5)C=C4)C=C3)cc1)[N@@H+](C)[C@H]1CC[C@@H]([NH2+]C)CC1
REMARK SMILES IDX 8 1 7 2 6 3 4 4 5 5 3 7 2 8 1 9 77 10 78 11 79 13 86 14
REMARK SMILES IDX 80 15 85 16 81 17 82 18 83 19 84 20 9 23 10 24 11 25 12 26
REMARK SMILES IDX 13 28 14 29 15 30 76 31 16 32 75 33 17 34 18 35 19 36 69 37
REMARK SMILES IDX 20 38 74 39 68 40 70 41 21 42 73 43 67 44 66 45 22 47 54 48
REMARK SMILES IDX 34 49 53 50 35 51 38 52 52 53 71 54 36 55 37 56 51 58 72 59
REMARK SMILES IDX 39 60 23 61 24 62 32 63 25 64 31 65 33 66 30 67 26 68 27 69
REMARK SMILES IDX 28 70 29 71 55 72 56 73 64 74 57 75 63 76 65 77 62 78 58 79
REMARK SMILES IDX 59 80 60 81 61 82 40 83 41 84 49 85 42 86 48 87 50 88 47 89
REMARK SMILES IDX 43 90 44 91 45 92 46 93
REMARK H PARENT 6 6 77 12 83 21 83 22 11 27 70 46 38 57
REMARK Flexibility Score: inf
ROOT
ATOM      1  C   UNL A   1      38.030  22.936  25.624  1.00  0.00     0.023 C 
ENDROOT
BRANCH   1   2
ATOM      2  C   UNL A   1      36.524  23.113  25.441  1.00  0.00     0.116 C 
BRANCH   2   3
ATOM      3  N   UNL A   1      35.750  22.575  26.538  1.00  0.00    -0.351 N 
ATOM      4  C   UNL A   1      34.452  22.151  26.573  1.00  0.00     0.278 C 
ATOM      5  O   UNL A   1      34.053  21.741  27.667  1.00  0.00    -0.268 OA
ATOM      6  H   UNL A   1      36.234  22.502  27.392  1.00  0.00     0.163 HD
BRANCH   4   7
ATOM      7  C   UNL A   1      33.538  22.284  25.312  1.00  0.00     0.273 C 
BRANCH   7   8
ATOM      8  C   UNL A   1      33.032  21.009  24.597  1.00  0.00     0.072 C 
ATOM      9  C   UNL A   1      33.836  19.721  24.721  1.00  0.00     0.011 C 
ENDBRANCH   7   8
BRANCH   7  10
ATOM     10  N   UNL A   1      32.490  23.321  25.522  1.00  0.00    -0.325 N 
ATOM     11  C   UNL A   1      31.245  22.775  26.058  1.00  0.00     0.333 C 
ATOM     12  H   UNL A   1      32.377  23.591  24.545  1.00  0.00     0.348 HD
BRANCH  10  13
ATOM     13  C   UNL A   1      32.810  24.664  26.058  1.00  0.00     0.184 C 
ATOM     14  C   UNL A   1      33.798  25.547  25.266  1.00  0.00     0.071 C 
ATOM     15  C   UNL A   1      31.459  25.369  26.333  1.00  0.00     0.071 C 
ATOM     16  C   UNL A   1      33.831  27.010  25.699  1.00  0.00     0.071 C 
ATOM     17  C   UNL A   1      31.588  26.843  26.718  1.00  0.00     0.071 C 
ATOM     18  C   UNL A   1      32.436  27.643  25.720  1.00  0.00     0.182 C 
BRANCH  18  19
ATOM     19  N   UNL A   1      31.744  27.683  24.427  1.00  0.00    -0.346 N 
ATOM     20  C   UNL A   1      32.339  28.589  23.457  1.00  0.00     0.331 C 
ATOM     21  H   UNL A   1      30.780  27.976  24.588  1.00  0.00     0.346 HD
ATOM     22  H   UNL A   1      31.812  26.745  24.030  1.00  0.00     0.346 HD
ENDBRANCH  18  19
ENDBRANCH  10  13
ENDBRANCH   7  10
ENDBRANCH   4   7
ENDBRANCH   2   3
ENDBRANCH   1   2
BRANCH   1  23
ATOM     23  C   UNL A   1      38.546  21.498  25.515  1.00  0.00     0.023 C 
BRANCH  23  24
ATOM     24  C   UNL A   1      39.536  21.060  26.590  1.00  0.00     0.116 C 
BRANCH  24  25
ATOM     25  N   UNL A   1      40.467  20.044  26.121  1.00  0.00    -0.352 N 
ATOM     26  C   UNL A   1      41.822  20.149  25.884  1.00  0.00     0.251 C 
ATOM     27  H   UNL A   1      40.075  19.158  25.949  1.00  0.00     0.163 HD
ATOM     28  O   UNL A   1      42.426  19.225  25.355  1.00  0.00    -0.269 OA
BRANCH  26  29
ATOM     29  C   UNL A   1      42.525  21.400  26.241  1.00  0.00     0.039 A 
ATOM     30  C   UNL A   1      42.734  22.369  25.257  1.00  0.00     0.014 A 
ATOM     31  C   UNL A   1      42.929  21.632  27.558  1.00  0.00     0.014 A 
ATOM     32  C   UNL A   1      43.264  23.613  25.613  1.00  0.00     0.010 A 
ATOM     33  C   UNL A   1      43.397  22.892  27.921  1.00  0.00     0.010 A 
ATOM     34  C   UNL A   1      43.553  23.902  26.957  1.00  0.00    -0.014 A 
BRANCH  34  35
ATOM     35  C   UNL A   1      44.009  25.247  27.398  1.00  0.00     0.031 A 
ATOM     36  C   UNL A   1      43.007  26.236  27.923  1.00  0.00     0.074 A 
ATOM     37  C   UNL A   1      45.294  25.615  27.220  1.00  0.00     0.049 A 
ATOM     38  N   UNL A   1      43.147  27.513  28.162  1.00  0.00    -0.248 NA
ATOM     39  C   UNL A   1      41.656  25.717  28.180  1.00  0.00     0.031 C 
ATOM     40  C   UNL A   1      46.359  24.754  26.700  1.00  0.00     0.029 A 
ATOM     41  N   UNL A   1      45.917  26.821  27.428  1.00  0.00    -0.354 N 
ATOM     42  C   UNL A   1      41.894  27.962  28.566  1.00  0.00     0.074 A 
ATOM     43  C   UNL A   1      41.000  26.824  28.496  1.00  0.00     0.031 C 
ATOM     44  C   UNL A   1      47.501  25.458  26.633  1.00  0.00     0.029 A 
ATOM     45  C   UNL A   1      47.241  26.833  27.050  1.00  0.00     0.049 A 
ATOM     46  H   UNL A   1      45.461  27.604  27.812  1.00  0.00     0.167 HD
ATOM     47  C   UNL A   1      41.527  29.204  28.968  1.00  0.00     0.034 A 
ATOM     48  C   UNL A   1      48.135  27.842  27.011  1.00  0.00     0.034 A 
ATOM     49  C   UNL A   1      42.436  30.321  29.052  1.00  0.00     0.049 A 
ATOM     50  C   UNL A   1      47.701  29.221  27.440  1.00  0.00     0.074 A 
ATOM     51  C   UNL A   1      42.183  31.608  29.495  1.00  0.00     0.029 A 
ATOM     52  N   UNL A   1      43.775  30.284  28.684  1.00  0.00    -0.354 N 
ATOM     53  N   UNL A   1      46.517  29.626  27.837  1.00  0.00    -0.248 NA
ATOM     54  C   UNL A   1      48.721  30.278  27.417  1.00  0.00     0.031 C 
ATOM     55  C   UNL A   1      43.351  32.363  29.343  1.00  0.00     0.029 A 
ATOM     56  C   UNL A   1      44.353  31.530  28.869  1.00  0.00     0.049 A 
ATOM     57  H   UNL A   1      44.244  29.490  28.342  1.00  0.00     0.167 HD
ATOM     58  C   UNL A   1      46.661  30.975  28.146  1.00  0.00     0.074 A 
ATOM     59  C   UNL A   1      48.045  31.316  27.888  1.00  0.00     0.031 C 
ATOM     60  C   UNL A   1      45.737  31.851  28.611  1.00  0.00     0.034 A 
BRANCH  47  61
ATOM     61  C   UNL A   1      40.074  29.417  29.314  1.00  0.00     0.023 A 
ATOM     62  C   UNL A   1      39.634  29.481  30.647  1.00  0.00     0.031 A 
ATOM     63  C   UNL A   1      39.108  29.522  28.296  1.00  0.00     0.131 A 
ATOM     64  C   UNL A   1      38.263  29.558  30.929  1.00  0.00     0.055 A 
ATOM     65  C   UNL A   1      37.751  29.685  28.584  1.00  0.00     0.041 A 
ATOM     66  F   UNL A   1      39.465  29.450  27.005  1.00  0.00    -0.206 F 
ATOM     67  C   UNL A   1      37.319  29.686  29.907  1.00  0.00     0.022 A 
BRANCH  64  68
ATOM     68  S   UNL A   1      37.720  29.336  32.645  1.00  0.00     0.124 S 
ATOM     69  O   UNL A   1      36.389  29.939  32.613  1.00  0.00    -0.237 OA
ATOM     70  O   UNL A   1      37.761  27.887  32.803  1.00  0.00    -0.237 OA
ATOM     71  O   UNL A   1      38.714  30.078  33.418  1.00  0.00    -0.744 OA
ENDBRANCH  64  68
ENDBRANCH  47  61
BRANCH  48  72
ATOM     72  C   UNL A   1      49.524  27.603  26.525  1.00  0.00     0.023 A 
ATOM     73  C   UNL A   1      49.844  27.733  25.164  1.00  0.00     0.031 A 
ATOM     74  C   UNL A   1      50.542  27.203  27.407  1.00  0.00     0.131 A 
ATOM     75  C   UNL A   1      51.138  27.422  24.718  1.00  0.00     0.055 A 
ATOM     76  C   UNL A   1      51.840  26.942  26.965  1.00  0.00     0.041 A 
ATOM     77  F   UNL A   1      50.290  27.070  28.720  1.00  0.00    -0.206 F 
ATOM     78  C   UNL A   1      52.141  27.040  25.610  1.00  0.00     0.022 A 
BRANCH  75  79
ATOM     79  S   UNL A   1      51.471  27.454  22.935  1.00  0.00     0.124 S 
ATOM     80  O   UNL A   1      51.744  28.868  22.710  1.00  0.00    -0.237 OA
ATOM     81  O   UNL A   1      52.613  26.555  22.825  1.00  0.00    -0.237 OA
ATOM     82  O   UNL A   1      50.229  26.956  22.348  1.00  0.00    -0.744 OA
ENDBRANCH  75  79
ENDBRANCH  48  72
BRANCH  60  83
ATOM     83  C   UNL A   1      46.208  33.244  28.938  1.00  0.00     0.023 A 
ATOM     84  C   UNL A   1      46.225  34.269  27.977  1.00  0.00     0.031 A 
ATOM     85  C   UNL A   1      46.626  33.550  30.246  1.00  0.00     0.131 A 
ATOM     86  C   UNL A   1      46.682  35.547  28.331  1.00  0.00     0.055 A 
ATOM     87  C   UNL A   1      47.036  34.834  30.603  1.00  0.00     0.041 A 
ATOM     88  F   UNL A   1      46.628  32.606  31.200  1.00  0.00    -0.206 F 
ATOM     89  C   UNL A   1      47.073  35.841  29.642  1.00  0.00     0.022 A 
BRANCH  86  90
ATOM     90  S   UNL A   1      46.803  36.821  27.046  1.00  0.00     0.124 S 
ATOM     91  O   UNL A   1      48.114  37.402  27.318  1.00  0.00    -0.237 OA
ATOM     92  O   UNL A   1      46.694  36.040  25.818  1.00  0.00    -0.237 OA
ATOM     93  O   UNL A   1      45.667  37.698  27.322  1.00  0.00    -0.744 OA
ENDBRANCH  86  90
ENDBRANCH  60  83
ENDBRANCH  34  35
ENDBRANCH  26  29
ENDBRANCH  24  25
ENDBRANCH  23  24
ENDBRANCH   1  23
TORSDOF 18
ENDMDL
MODEL 2
REMARK VINA RESULT:     -10.1      1.595      2.080
REMARK SMILES CC[C@H](C(=O)NCCCCNC(=O)c1ccc(-c2c3nc(c(-c4cc(S(=O)(=O)[O-])ccc4F)c4ccc([nH]4)c(-c4cc(S(=O)(=O)[O-])ccc4F)c4nc(c(-c5cc(S(=O)(=O)[O-])ccc5F)c5ccc2[nH]5)C=C4)C=C3)cc1)[N@@H+](C)[C@H]1CC[C@@H]([NH2+]C)CC1
REMARK SMILES IDX 8 1 7 2 6 3 4 4 5 5 3 7 2 8 1 9 77 10 78 11 79 13 86 14
REMARK SMILES IDX 80 15 85 16 81 17 82 18 83 19 84 20 9 23 10 24 11 25 12 26
REMARK SMILES IDX 13 28 14 29 15 30 76 31 16 32 75 33 17 34 18 35 19 36 69 37
REMARK SMILES IDX 20 38 74 39 68 40 70 41 21 42 73 43 67 44 66 45 22 47 54 48
REMARK SMILES IDX 34 49 53 50 35 51 38 52 52 53 71 54 36 55 37 56 51 58 72 59
REMARK SMILES IDX 39 60 23 61 24 62 32 63 25 64 31 65 33 66 30 67 26 68 27 69
REMARK SMILES IDX 28 70 29 71 55 72 56 73 64 74 57 75 63 76 65 77 62 78 58 79
REMARK SMILES IDX 59 80 60 81 61 82 40 83 41 84 49 85 42 86 48 87 50 88 47 89
REMARK SMILES IDX 43 90 44 91 45 92 46 93
REMARK H PARENT 6 6 77 12 83 21 83 22 11 27 70 46 38 57
REMARK Flexibility Score: inf
ROOT
ATOM      1  C   UNL A   1      36.732  20.298  24.657  1.00  0.00     0.023 C 
ENDROOT
BRANCH   1   2
ATOM      2  C   UNL A   1      36.674  21.590  25.470  1.00  0.00     0.116 C 
BRANCH   2   3
ATOM      3  N   UNL A   1      35.714  21.539  26.551  1.00  0.00    -0.351 N 
ATOM      4  C   UNL A   1      34.377  21.821  26.553  1.00  0.00     0.278 C 
ATOM      5  O   UNL A   1      33.806  21.695  27.641  1.00  0.00    -0.268 OA
ATOM      6  H   UNL A   1      36.081  21.258  27.420  1.00  0.00     0.163 HD
BRANCH   4   7
ATOM      7  C   UNL A   1      33.675  22.358  25.264  1.00  0.00     0.273 C 
BRANCH   7   8
ATOM      8  C   UNL A   1      32.627  21.478  24.542  1.00  0.00     0.072 C 
ATOM      9  C   UNL A   1      32.906  19.992  24.359  1.00  0.00     0.011 C 
ENDBRANCH   7   8
BRANCH   7  10
ATOM     10  N   UNL A   1      33.264  23.779  25.434  1.00  0.00    -0.325 N 
ATOM     11  C   UNL A   1      34.290  24.726  25.002  1.00  0.00     0.333 C 
ATOM     12  H   UNL A   1      33.184  23.769  26.451  1.00  0.00     0.348 HD
BRANCH  10  13
ATOM     13  C   UNL A   1      31.890  24.240  25.136  1.00  0.00     0.184 C 
ATOM     14  C   UNL A   1      31.135  25.033  26.225  1.00  0.00     0.071 C 
ATOM     15  C   UNL A   1      31.954  24.988  23.782  1.00  0.00     0.071 C 
ATOM     16  C   UNL A   1      29.873  25.738  25.738  1.00  0.00     0.071 C 
ATOM     17  C   UNL A   1      30.657  25.701  23.397  1.00  0.00     0.071 C 
ATOM     18  C   UNL A   1      30.133  26.617  24.511  1.00  0.00     0.182 C 
BRANCH  18  19
ATOM     19  N   UNL A   1      31.083  27.716  24.716  1.00  0.00    -0.346 N 
ATOM     20  C   UNL A   1      30.714  28.958  24.054  1.00  0.00     0.331 C 
ATOM     21  H   UNL A   1      31.993  27.423  24.358  1.00  0.00     0.346 HD
ATOM     22  H   UNL A   1      31.095  27.910  25.717  1.00  0.00     0.346 HD
ENDBRANCH  18  19
ENDBRANCH  10  13
ENDBRANCH   7  10
ENDBRANCH   4   7
ENDBRANCH   2   3
ENDBRANCH   1   2
BRANCH   1  23
ATOM     23  C   UNL A   1      37.946  19.402  24.922  1.00  0.00     0.023 C 
BRANCH  23  24
ATOM     24  C   UNL A   1      39.035  19.998  25.808  1.00  0.00     0.116 C 
BRANCH  24  25
ATOM     25  N   UNL A   1      40.265  19.220  25.793  1.00  0.00    -0.352 N 
ATOM     26  C   UNL A   1      41.559  19.634  26.030  1.00  0.00     0.251 C 
ATOM     27  H   UNL A   1      40.158  18.264  25.585  1.00  0.00     0.163 HD
ATOM     28  O   UNL A   1      42.494  18.868  25.836  1.00  0.00    -0.269 OA
BRANCH  26  29
ATOM     29  C   UNL A   1      41.805  21.021  26.482  1.00  0.00     0.039 A 
ATOM     30  C   UNL A   1      42.087  21.259  27.829  1.00  0.00     0.014 A 
ATOM     31  C   UNL A   1      41.806  22.073  25.563  1.00  0.00     0.014 A 
ATOM     32  C   UNL A   1      42.465  22.541  28.240  1.00  0.00     0.010 A 
ATOM     33  C   UNL A   1      42.243  23.333  25.962  1.00  0.00     0.010 A 
ATOM     34  C   UNL A   1      42.594  23.576  27.301  1.00  0.00    -0.014 A 
BRANCH  34  35
ATOM     35  C   UNL A   1      43.102  24.924  27.672  1.00  0.00     0.031 A 
ATOM     36  C   UNL A   1      42.169  25.922  28.300  1.00  0.00     0.074 A 
ATOM     37  C   UNL A   1      44.358  25.286  27.342  1.00  0.00     0.049 A 
ATOM     38  N   UNL A   1      42.339  27.201  28.507  1.00  0.00    -0.248 NA
ATOM     39  C   UNL A   1      40.856  25.410  28.716  1.00  0.00     0.031 C 
ATOM     40  C   UNL A   1      45.354  24.417  26.713  1.00  0.00     0.029 A 
ATOM     41  N   UNL A   1      45.004  26.492  27.465  1.00  0.00    -0.354 N 
ATOM     42  C   UNL A   1      41.142  27.659  29.049  1.00  0.00     0.074 A 
ATOM     43  C   UNL A   1      40.244  26.523  29.095  1.00  0.00     0.031 C 
ATOM     44  C   UNL A   1      46.482  25.115  26.506  1.00  0.00     0.029 A 
ATOM     45  C   UNL A   1      46.275  26.495  26.936  1.00  0.00     0.049 A 
ATOM     46  H   UNL A   1      44.597  27.281  27.891  1.00  0.00     0.167 HD
ATOM     47  C   UNL A   1      40.827  28.906  29.477  1.00  0.00     0.034 A 
ATOM     48  C   UNL A   1      47.161  27.501  26.783  1.00  0.00     0.034 A 
ATOM     49  C   UNL A   1      41.743  30.020  29.444  1.00  0.00     0.049 A 
ATOM     50  C   UNL A   1      46.782  28.886  27.244  1.00  0.00     0.074 A 
ATOM     51  C   UNL A   1      41.545  31.313  29.900  1.00  0.00     0.029 A 
ATOM     52  N   UNL A   1      43.030  29.975  28.924  1.00  0.00    -0.354 N 
ATOM     53  N   UNL A   1      45.653  29.299  27.772  1.00  0.00    -0.248 NA
ATOM     54  C   UNL A   1      47.795  29.939  27.092  1.00  0.00     0.031 C 
ATOM     55  C   UNL A   1      42.689  32.062  29.605  1.00  0.00     0.029 A 
ATOM     56  C   UNL A   1      43.628  31.221  29.027  1.00  0.00     0.049 A 
ATOM     57  H   UNL A   1      43.454  29.176  28.538  1.00  0.00     0.167 HD
ATOM     58  C   UNL A   1      45.835  30.651  28.048  1.00  0.00     0.074 A 
ATOM     59  C   UNL A   1      47.181  30.984  27.627  1.00  0.00     0.031 C 
ATOM     60  C   UNL A   1      44.973  31.534  28.607  1.00  0.00     0.034 A 
BRANCH  47  61
ATOM     61  C   UNL A   1      39.424  29.128  29.987  1.00  0.00     0.023 A 
ATOM     62  C   UNL A   1      38.453  29.786  29.213  1.00  0.00     0.031 A 
ATOM     63  C   UNL A   1      39.062  28.708  31.279  1.00  0.00     0.131 A 
ATOM     64  C   UNL A   1      37.199  30.080  29.765  1.00  0.00     0.055 A 
ATOM     65  C   UNL A   1      37.782  28.929  31.793  1.00  0.00     0.041 A 
ATOM     66  F   UNL A   1      39.951  28.090  32.072  1.00  0.00    -0.206 F 
ATOM     67  C   UNL A   1      36.847  29.635  31.042  1.00  0.00     0.022 A 
BRANCH  64  68
ATOM     68  S   UNL A   1      36.090  31.185  28.850  1.00  0.00     0.124 S 
ATOM     69  O   UNL A   1      35.141  31.576  29.891  1.00  0.00    -0.237 OA
ATOM     70  O   UNL A   1      36.996  32.230  28.388  1.00  0.00    -0.237 OA
ATOM     71  O   UNL A   1      35.538  30.328  27.803  1.00  0.00    -0.744 OA
ENDBRANCH  64  68
ENDBRANCH  47  61
BRANCH  48  72
ATOM     72  C   UNL A   1      48.484  27.252  26.142  1.00  0.00     0.023 A 
ATOM     73  C   UNL A   1      48.674  27.481  24.770  1.00  0.00     0.031 A 
ATOM     74  C   UNL A   1      49.565  26.745  26.883  1.00  0.00     0.131 A 
ATOM     75  C   UNL A   1      49.903  27.161  24.172  1.00  0.00     0.055 A 
ATOM     76  C   UNL A   1      50.800  26.474  26.293  1.00  0.00     0.041 A 
ATOM     77  F   UNL A   1      49.437  26.515  28.200  1.00  0.00    -0.206 F 
ATOM     78  C   UNL A   1      50.971  26.671  24.926  1.00  0.00     0.022 A 
BRANCH  75  79
ATOM     79  S   UNL A   1      50.061  27.326  22.373  1.00  0.00     0.124 S 
ATOM     80  O   UNL A   1      51.351  26.690  22.129  1.00  0.00    -0.237 OA
ATOM     81  O   UNL A   1      48.888  26.600  21.898  1.00  0.00    -0.237 OA
ATOM     82  O   UNL A   1      50.026  28.771  22.159  1.00  0.00    -0.744 OA
ENDBRANCH  75  79
ENDBRANCH  48  72
BRANCH  60  83
ATOM     83  C   UNL A   1      45.482  32.929  28.863  1.00  0.00     0.023 A 
ATOM     84  C   UNL A   1      45.215  33.992  27.983  1.00  0.00     0.031 A 
ATOM     85  C   UNL A   1      46.230  33.197  30.023  1.00  0.00     0.131 A 
ATOM     86  C   UNL A   1      45.721  35.270  28.263  1.00  0.00     0.055 A 
ATOM     87  C   UNL A   1      46.692  34.480  30.319  1.00  0.00     0.041 A 
ATOM     88  F   UNL A   1      46.512  32.216  30.895  1.00  0.00    -0.206 F 
ATOM     89  C   UNL A   1      46.444  35.524  29.433  1.00  0.00     0.022 A 
BRANCH  86  90
ATOM     90  S   UNL A   1      45.460  36.598  27.056  1.00  0.00     0.124 S 
ATOM     91  O   UNL A   1      45.738  37.790  27.851  1.00  0.00    -0.237 OA
ATOM     92  O   UNL A   1      46.440  36.280  26.022  1.00  0.00    -0.237 OA
ATOM     93  O   UNL A   1      44.065  36.431  26.655  1.00  0.00    -0.744 OA
ENDBRANCH  86  90
ENDBRANCH  60  83
ENDBRANCH  34  35
ENDBRANCH  26  29
ENDBRANCH  24  25
ENDBRANCH  23  24
ENDBRANCH   1  23
TORSDOF 18
ENDMDL
MODEL 3
REMARK VINA RESULT:      -9.8      5.974     11.149
REMARK SMILES CC[C@H](C(=O)NCCCCNC(=O)c1ccc(-c2c3nc(c(-c4cc(S(=O)(=O)[O-])ccc4F)c4ccc([nH]4)c(-c4cc(S(=O)(=O)[O-])ccc4F)c4nc(c(-c5cc(S(=O)(=O)[O-])ccc5F)c5ccc2[nH]5)C=C4)C=C3)cc1)[N@@H+](C)[C@H]1CC[C@@H]([NH2+]C)CC1
REMARK SMILES IDX 8 1 7 2 6 3 4 4 5 5 3 7 2 8 1 9 77 10 78 11 79 13 86 14
REMARK SMILES IDX 80 15 85 16 81 17 82 18 83 19 84 20 9 23 10 24 11 25 12 26
REMARK SMILES IDX 13 28 14 29 15 30 76 31 16 32 75 33 17 34 18 35 19 36 69 37
REMARK SMILES IDX 20 38 74 39 68 40 70 41 21 42 73 43 67 44 66 45 22 47 54 48
REMARK SMILES IDX 34 49 53 50 35 51 38 52 52 53 71 54 36 55 37 56 51 58 72 59
REMARK SMILES IDX 39 60 23 61 24 62 32 63 25 64 31 65 33 66 30 67 26 68 27 69
REMARK SMILES IDX 28 70 29 71 55 72 56 73 64 74 57 75 63 76 65 77 62 78 58 79
REMARK SMILES IDX 59 80 60 81 61 82 40 83 41 84 49 85 42 86 48 87 50 88 47 89
REMARK SMILES IDX 43 90 44 91 45 92 46 93
REMARK H PARENT 6 6 77 12 83 21 83 22 11 27 70 46 38 57
REMARK Flexibility Score: inf
ROOT
ATOM      1  C   UNL A   1      32.097  30.341  25.741  1.00  0.00     0.023 C 
ENDROOT
BRANCH   1   2
ATOM      2  C   UNL A   1      32.665  28.923  25.721  1.00  0.00     0.116 C 
BRANCH   2   3
ATOM      3  N   UNL A   1      31.846  27.972  26.440  1.00  0.00    -0.351 N 
ATOM      4  C   UNL A   1      31.237  26.829  26.005  1.00  0.00     0.278 C 
ATOM      5  O   UNL A   1      30.586  26.212  26.854  1.00  0.00    -0.268 OA
ATOM      6  H   UNL A   1      31.706  28.180  27.393  1.00  0.00     0.163 HD
BRANCH   4   7
ATOM      7  C   UNL A   1      31.304  26.417  24.498  1.00  0.00     0.273 C 
BRANCH   7   8
ATOM      8  C   UNL A   1      31.074  27.486  23.403  1.00  0.00     0.072 C 
ATOM      9  C   UNL A   1      29.650  27.801  22.963  1.00  0.00     0.011 C 
ENDBRANCH   7   8
BRANCH   7  10
ATOM     10  N   UNL A   1      32.468  25.523  24.243  1.00  0.00    -0.325 N 
ATOM     11  C   UNL A   1      33.274  25.948  23.100  1.00  0.00     0.333 C 
ATOM     12  H   UNL A   1      31.937  24.681  24.020  1.00  0.00     0.348 HD
BRANCH  10  13
ATOM     13  C   UNL A   1      33.279  24.956  25.344  1.00  0.00     0.184 C 
ATOM     14  C   UNL A   1      32.754  23.693  26.059  1.00  0.00     0.071 C 
ATOM     15  C   UNL A   1      34.717  24.784  24.796  1.00  0.00     0.071 C 
ATOM     16  C   UNL A   1      33.778  22.994  26.948  1.00  0.00     0.071 C 
ATOM     17  C   UNL A   1      35.661  24.033  25.736  1.00  0.00     0.071 C 
ATOM     18  C   UNL A   1      35.083  22.692  26.207  1.00  0.00     0.182 C 
BRANCH  18  19
ATOM     19  N   UNL A   1      34.958  21.793  25.054  1.00  0.00    -0.346 N 
ATOM     20  C   UNL A   1      35.934  20.715  25.027  1.00  0.00     0.331 C 
ATOM     21  H   UNL A   1      35.069  22.346  24.204  1.00  0.00     0.346 HD
ATOM     22  H   UNL A   1      34.040  21.354  25.124  1.00  0.00     0.346 HD
ENDBRANCH  18  19
ENDBRANCH  10  13
ENDBRANCH   7  10
ENDBRANCH   4   7
ENDBRANCH   2   3
ENDBRANCH   1   2
BRANCH   1  23
ATOM     23  C   UNL A   1      32.147  31.056  27.094  1.00  0.00     0.023 C 
BRANCH  23  24
ATOM     24  C   UNL A   1      33.298  32.037  27.290  1.00  0.00     0.116 C 
BRANCH  24  25
ATOM     25  N   UNL A   1      32.845  33.394  27.557  1.00  0.00    -0.352 N 
ATOM     26  C   UNL A   1      33.286  34.286  28.511  1.00  0.00     0.251 C 
ATOM     27  H   UNL A   1      32.123  33.721  26.973  1.00  0.00     0.163 HD
ATOM     28  O   UNL A   1      32.692  35.342  28.685  1.00  0.00    -0.269 OA
BRANCH  26  29
ATOM     29  C   UNL A   1      34.457  33.936  29.344  1.00  0.00     0.039 A 
ATOM     30  C   UNL A   1      34.273  33.142  30.479  1.00  0.00     0.014 A 
ATOM     31  C   UNL A   1      35.738  34.350  28.973  1.00  0.00     0.014 A 
ATOM     32  C   UNL A   1      35.386  32.683  31.190  1.00  0.00     0.010 A 
ATOM     33  C   UNL A   1      36.846  33.841  29.643  1.00  0.00     0.010 A 
ATOM     34  C   UNL A   1      36.683  32.988  30.748  1.00  0.00    -0.014 A 
BRANCH  34  35
ATOM     35  C   UNL A   1      37.896  32.429  31.403  1.00  0.00     0.031 A 
ATOM     36  C   UNL A   1      38.628  31.286  30.759  1.00  0.00     0.074 A 
ATOM     37  C   UNL A   1      38.266  32.869  32.623  1.00  0.00     0.049 A 
ATOM     38  N   UNL A   1      39.566  30.519  31.248  1.00  0.00    -0.248 NA
ATOM     39  C   UNL A   1      38.219  30.942  29.389  1.00  0.00     0.031 C 
ATOM     40  C   UNL A   1      37.626  33.958  33.363  1.00  0.00     0.029 A 
ATOM     41  N   UNL A   1      39.256  32.432  33.469  1.00  0.00    -0.354 N 
ATOM     42  C   UNL A   1      39.840  29.578  30.261  1.00  0.00     0.074 A 
ATOM     43  C   UNL A   1      38.934  29.850  29.163  1.00  0.00     0.031 C 
ATOM     44  C   UNL A   1      38.239  34.105  34.548  1.00  0.00     0.029 A 
ATOM     45  C   UNL A   1      39.278  33.088  34.680  1.00  0.00     0.049 A 
ATOM     46  H   UNL A   1      39.891  31.718  33.234  1.00  0.00     0.167 HD
ATOM     47  C   UNL A   1      40.768  28.589  30.265  1.00  0.00     0.034 A 
ATOM     48  C   UNL A   1      40.025  32.874  35.782  1.00  0.00     0.034 A 
ATOM     49  C   UNL A   1      41.677  28.347  31.359  1.00  0.00     0.049 A 
ATOM     50  C   UNL A   1      41.035  31.754  35.775  1.00  0.00     0.074 A 
ATOM     51  C   UNL A   1      42.689  27.407  31.447  1.00  0.00     0.029 A 
ATOM     52  N   UNL A   1      41.683  29.051  32.556  1.00  0.00    -0.354 N 
ATOM     53  N   UNL A   1      41.295  30.885  34.826  1.00  0.00    -0.248 NA
ATOM     54  C   UNL A   1      41.852  31.586  36.984  1.00  0.00     0.031 C 
ATOM     55  C   UNL A   1      43.269  27.504  32.716  1.00  0.00     0.029 A 
ATOM     56  C   UNL A   1      42.666  28.550  33.396  1.00  0.00     0.049 A 
ATOM     57  H   UNL A   1      41.078  29.795  32.776  1.00  0.00     0.167 HD
ATOM     58  C   UNL A   1      42.331  30.092  35.312  1.00  0.00     0.074 A 
ATOM     59  C   UNL A   1      42.646  30.584  36.637  1.00  0.00     0.031 C 
ATOM     60  C   UNL A   1      42.970  29.057  34.713  1.00  0.00     0.034 A 
BRANCH  47  61
ATOM     61  C   UNL A   1      40.816  27.681  29.061  1.00  0.00     0.023 A 
ATOM     62  C   UNL A   1      41.763  27.860  28.038  1.00  0.00     0.031 A 
ATOM     63  C   UNL A   1      39.877  26.644  28.914  1.00  0.00     0.131 A 
ATOM     64  C   UNL A   1      41.700  27.074  26.879  1.00  0.00     0.055 A 
ATOM     65  C   UNL A   1      39.873  25.808  27.794  1.00  0.00     0.041 A 
ATOM     66  F   UNL A   1      38.936  26.436  29.848  1.00  0.00    -0.206 F 
ATOM     67  C   UNL A   1      40.777  26.033  26.760  1.00  0.00     0.022 A 
BRANCH  64  68
ATOM     68  S   UNL A   1      42.741  27.533  25.467  1.00  0.00     0.124 S 
ATOM     69  O   UNL A   1      41.993  28.654  24.902  1.00  0.00    -0.237 OA
ATOM     70  O   UNL A   1      44.009  27.868  26.105  1.00  0.00    -0.237 OA
ATOM     71  O   UNL A   1      42.755  26.325  24.644  1.00  0.00    -0.744 OA
ENDBRANCH  64  68
ENDBRANCH  47  61
BRANCH  48  72
ATOM     72  C   UNL A   1      39.836  33.716  36.998  1.00  0.00     0.023 A 
ATOM     73  C   UNL A   1      40.680  34.807  37.257  1.00  0.00     0.031 A 
ATOM     74  C   UNL A   1      38.834  33.417  37.938  1.00  0.00     0.131 A 
ATOM     75  C   UNL A   1      40.535  35.534  38.449  1.00  0.00     0.055 A 
ATOM     76  C   UNL A   1      38.663  34.173  39.098  1.00  0.00     0.041 A 
ATOM     77  F   UNL A   1      37.997  32.387  37.734  1.00  0.00    -0.206 F 
ATOM     78  C   UNL A   1      39.525  35.233  39.365  1.00  0.00     0.022 A 
BRANCH  75  79
ATOM     79  S   UNL A   1      41.739  36.839  38.820  1.00  0.00     0.124 S 
ATOM     80  O   UNL A   1      42.518  36.228  39.891  1.00  0.00    -0.237 OA
ATOM     81  O   UNL A   1      42.420  36.995  37.540  1.00  0.00    -0.237 OA
ATOM     82  O   UNL A   1      40.904  37.969  39.221  1.00  0.00    -0.744 OA
ENDBRANCH  75  79
ENDBRANCH  48  72
BRANCH  60  83
ATOM     83  C   UNL A   1      44.122  28.433  35.457  1.00  0.00     0.023 A 
ATOM     84  C   UNL A   1      45.441  28.894  35.307  1.00  0.00     0.031 A 
ATOM     85  C   UNL A   1      43.884  27.372  36.348  1.00  0.00     0.131 A 
ATOM     86  C   UNL A   1      46.480  28.271  36.016  1.00  0.00     0.055 A 
ATOM     87  C   UNL A   1      44.914  26.788  37.085  1.00  0.00     0.041 A 
ATOM     88  F   UNL A   1      42.642  26.897  36.527  1.00  0.00    -0.206 F 
ATOM     89  C   UNL A   1      46.223  27.232  36.916  1.00  0.00     0.022 A 
BRANCH  86  90
ATOM     90  S   UNL A   1      48.187  28.807  35.718  1.00  0.00     0.124 S 
ATOM     91  O   UNL A   1      48.433  29.684  36.859  1.00  0.00    -0.237 OA
ATOM     92  O   UNL A   1      48.917  27.543  35.717  1.00  0.00    -0.237 OA
ATOM     93  O   UNL A   1      48.116  29.480  34.423  1.00  0.00    -0.744 OA
ENDBRANCH  86  90
ENDBRANCH  60  83
ENDBRANCH  34  35
ENDBRANCH  26  29
ENDBRANCH  24  25
ENDBRANCH  23  24
ENDBRANCH   1  23
TORSDOF 18
ENDMDL
