MODEL 1
REMARK VINA RESULT:     -12.6      0.000      0.000
REMARK SMILES CC[NH+]1CCN(c2ccc(NC(=O)C3CCCC3)c(C(=O)NCCCCNC(=O)c3ccc(-c4c5nc(c(-c6cc(S(=O)(=O)[O-])ccc6F)c6ccc([nH]6)c(-c6cc(S(=O)(=O)[O-])ccc6F)c6nc(c(-c7cc(S(=O)(=O)[O-])ccc7F)c7ccc4[nH]7)C=C6)C=C5)cc3)c2)CC1
REMARK SMILES IDX 25 1 24 2 23 3 22 4 20 5 21 6 19 8 7 9 8 10 93 11 9 12 10 13
REMARK SMILES IDX 6 14 3 15 4 16 95 17 5 19 94 20 2 21 1 22 11 23 12 24 13 26
REMARK SMILES IDX 14 27 15 28 18 29 16 30 17 31 26 32 27 33 28 34 29 36 30 37
REMARK SMILES IDX 31 38 92 39 32 40 91 41 33 42 34 43 35 44 85 45 36 46 90 47
REMARK SMILES IDX 84 48 86 49 37 50 89 51 83 52 82 53 38 55 70 56 50 57 69 58
REMARK SMILES IDX 51 59 54 60 68 61 87 62 52 63 53 64 67 66 88 67 55 68 39 69
REMARK SMILES IDX 40 70 48 71 41 72 47 73 49 74 46 75 42 76 43 77 44 78 45 79
REMARK SMILES IDX 71 80 72 81 80 82 73 83 79 84 81 85 78 86 74 87 75 88 76 89
REMARK SMILES IDX 77 90 56 91 57 92 65 93 58 94 64 95 66 96 63 97 59 98 60 99
REMARK SMILES IDX 61 100 62 101
REMARK H PARENT 22 7 3 18 11 25 27 35 86 54 54 65
REMARK Flexibility Score: inf
ROOT
ATOM      1  C   UNL A   1      31.729  31.635  26.811  1.00  0.00     0.023 C 
ENDROOT
BRANCH   1   2
ATOM      2  C   UNL A   1      32.029  30.245  26.264  1.00  0.00     0.023 C 
BRANCH   2   3
ATOM      3  C   UNL A   1      32.114  29.103  27.269  1.00  0.00     0.116 C 
BRANCH   3   4
ATOM      4  N   UNL A   1      33.075  28.052  26.967  1.00  0.00    -0.352 N 
ATOM      5  C   UNL A   1      33.011  26.980  26.090  1.00  0.00     0.253 C 
ATOM      6  O   UNL A   1      33.992  26.235  26.023  1.00  0.00    -0.269 OA
ATOM      7  H   UNL A   1      33.916  28.112  27.476  1.00  0.00     0.163 HD
BRANCH   5   8
ATOM      8  C   UNL A   1      31.804  26.649  25.260  1.00  0.00     0.065 A 
ATOM      9  C   UNL A   1      30.150  27.433  23.652  1.00  0.00     0.038 A 
ATOM     10  C   UNL A   1      29.420  26.276  23.869  1.00  0.00     0.028 A 
ATOM     11  C   UNL A   1      31.422  27.498  24.208  1.00  0.00     0.042 A 
ATOM     12  C   UNL A   1      29.882  25.297  24.742  1.00  0.00     0.029 A 
ATOM     13  C   UNL A   1      30.989  25.526  25.560  1.00  0.00     0.054 A 
BRANCH   9  14
ATOM     14  N   UNL A   1      29.566  28.514  23.030  1.00  0.00    -0.360 N 
ATOM     15  N   UNL A   1      27.750  30.832  23.006  1.00  0.00    -0.332 N 
ATOM     16  C   UNL A   1      27.266  29.456  23.241  1.00  0.00     0.283 C 
ATOM     17  C   UNL A   1      29.121  30.919  23.577  1.00  0.00     0.283 C 
ATOM     18  H   UNL A   1      27.110  31.485  23.458  1.00  0.00     0.348 HD
ATOM     19  C   UNL A   1      28.155  28.356  22.624  1.00  0.00     0.178 C 
ATOM     20  C   UNL A   1      30.131  29.866  23.056  1.00  0.00     0.178 C 
BRANCH  15  21
ATOM     21  C   UNL A   1      27.754  31.218  21.586  1.00  0.00     0.258 C 
ATOM     22  C   UNL A   1      28.099  32.684  21.337  1.00  0.00     0.071 C 
ENDBRANCH  15  21
ENDBRANCH   9  14
BRANCH  13  23
ATOM     23  N   UNL A   1      31.290  24.679  26.660  1.00  0.00    -0.325 N 
ATOM     24  C   UNL A   1      31.945  23.477  26.784  1.00  0.00     0.227 C 
ATOM     25  H   UNL A   1      30.959  25.030  27.519  1.00  0.00     0.169 HD
ATOM     26  O   UNL A   1      32.123  23.020  27.919  1.00  0.00    -0.274 OA
BRANCH  24  27
ATOM     27  C   UNL A   1      32.428  22.699  25.566  1.00  0.00     0.079 C 
ATOM     28  C   UNL A   1      33.845  23.023  25.083  1.00  0.00     0.013 C 
ATOM     29  C   UNL A   1      32.559  21.195  25.803  1.00  0.00     0.013 C 
ATOM     30  C   UNL A   1      34.152  21.883  24.108  1.00  0.00     0.001 C 
ATOM     31  C   UNL A   1      33.296  20.702  24.565  1.00  0.00     0.001 C 
ENDBRANCH  24  27
ENDBRANCH  13  23
ENDBRANCH   5   8
ENDBRANCH   3   4
ENDBRANCH   2   3
ENDBRANCH   1   2
BRANCH   1  32
ATOM     32  C   UNL A   1      32.904  32.417  27.389  1.00  0.00     0.116 C 
BRANCH  32  33
ATOM     33  N   UNL A   1      32.610  33.811  27.682  1.00  0.00    -0.352 N 
ATOM     34  C   UNL A   1      33.210  34.675  28.571  1.00  0.00     0.251 C 
ATOM     35  H   UNL A   1      31.867  34.198  27.164  1.00  0.00     0.163 HD
ATOM     36  O   UNL A   1      32.760  35.812  28.699  1.00  0.00    -0.269 OA
BRANCH  34  37
ATOM     37  C   UNL A   1      34.350  34.229  29.404  1.00  0.00     0.039 A 
ATOM     38  C   UNL A   1      34.091  33.483  30.558  1.00  0.00     0.014 A 
ATOM     39  C   UNL A   1      35.669  34.516  29.047  1.00  0.00     0.014 A 
ATOM     40  C   UNL A   1      35.152  32.947  31.294  1.00  0.00     0.010 A 
ATOM     41  C   UNL A   1      36.723  33.907  29.728  1.00  0.00     0.010 A 
ATOM     42  C   UNL A   1      36.477  33.111  30.858  1.00  0.00    -0.014 A 
BRANCH  42  43
ATOM     43  C   UNL A   1      37.608  32.454  31.569  1.00  0.00     0.031 A 
ATOM     44  C   UNL A   1      38.348  31.310  30.928  1.00  0.00     0.074 A 
ATOM     45  C   UNL A   1      37.933  32.854  32.816  1.00  0.00     0.049 A 
ATOM     46  N   UNL A   1      39.337  30.594  31.401  1.00  0.00    -0.248 NA
ATOM     47  C   UNL A   1      37.893  30.896  29.593  1.00  0.00     0.031 C 
ATOM     48  C   UNL A   1      37.251  33.908  33.571  1.00  0.00     0.029 A 
ATOM     49  N   UNL A   1      38.917  32.423  33.670  1.00  0.00    -0.354 N 
ATOM     50  C   UNL A   1      39.615  29.640  30.427  1.00  0.00     0.074 A 
ATOM     51  C   UNL A   1      38.640  29.824  29.373  1.00  0.00     0.031 C 
ATOM     52  C   UNL A   1      37.862  34.068  34.756  1.00  0.00     0.029 A 
ATOM     53  C   UNL A   1      38.951  33.104  34.867  1.00  0.00     0.049 A 
ATOM     54  H   UNL A   1      39.542  31.695  33.448  1.00  0.00     0.167 HD
ATOM     55  C   UNL A   1      40.609  28.717  30.398  1.00  0.00     0.034 A 
ATOM     56  C   UNL A   1      39.767  32.968  35.931  1.00  0.00     0.034 A 
ATOM     57  C   UNL A   1      41.580  28.552  31.454  1.00  0.00     0.049 A 
ATOM     58  C   UNL A   1      40.865  31.936  35.876  1.00  0.00     0.074 A 
ATOM     59  C   UNL A   1      42.657  27.683  31.508  1.00  0.00     0.029 A 
ATOM     60  N   UNL A   1      41.591  29.268  32.645  1.00  0.00    -0.354 N 
ATOM     61  N   UNL A   1      41.153  31.084  34.919  1.00  0.00    -0.248 NA
ATOM     62  C   UNL A   1      41.759  31.865  37.037  1.00  0.00     0.031 C 
ATOM     63  C   UNL A   1      43.276  27.828  32.755  1.00  0.00     0.029 A 
ATOM     64  C   UNL A   1      42.639  28.844  33.448  1.00  0.00     0.049 A 
ATOM     65  H   UNL A   1      40.948  29.974  32.883  1.00  0.00     0.167 HD
ATOM     66  C   UNL A   1      42.283  30.395  35.354  1.00  0.00     0.074 A 
ATOM     67  C   UNL A   1      42.636  30.952  36.644  1.00  0.00     0.031 C 
ATOM     68  C   UNL A   1      42.970  29.396  34.743  1.00  0.00     0.034 A 
BRANCH  55  69
ATOM     69  C   UNL A   1      40.674  27.807  29.192  1.00  0.00     0.023 A 
ATOM     70  C   UNL A   1      41.610  28.013  28.162  1.00  0.00     0.031 A 
ATOM     71  C   UNL A   1      39.768  26.741  29.050  1.00  0.00     0.131 A 
ATOM     72  C   UNL A   1      41.563  27.226  27.001  1.00  0.00     0.055 A 
ATOM     73  C   UNL A   1      39.785  25.904  27.931  1.00  0.00     0.041 A 
ATOM     74  F   UNL A   1      38.837  26.503  29.988  1.00  0.00    -0.206 F 
ATOM     75  C   UNL A   1      40.674  26.155  26.890  1.00  0.00     0.022 A 
BRANCH  72  76
ATOM     76  S   UNL A   1      42.574  27.720  25.579  1.00  0.00     0.124 S 
ATOM     77  O   UNL A   1      42.514  26.521  24.745  1.00  0.00    -0.237 OA
ATOM     78  O   UNL A   1      41.858  28.885  25.073  1.00  0.00    -0.237 OA
ATOM     79  O   UNL A   1      43.882  27.996  26.167  1.00  0.00    -0.744 OA
ENDBRANCH  72  76
ENDBRANCH  55  69
BRANCH  56  80
ATOM     80  C   UNL A   1      39.593  33.831  37.137  1.00  0.00     0.023 A 
ATOM     81  C   UNL A   1      38.934  33.351  38.280  1.00  0.00     0.031 A 
ATOM     82  C   UNL A   1      40.040  35.163  37.146  1.00  0.00     0.131 A 
ATOM     83  C   UNL A   1      38.694  34.211  39.363  1.00  0.00     0.055 A 
ATOM     84  C   UNL A   1      39.849  35.999  38.248  1.00  0.00     0.041 A 
ATOM     85  F   UNL A   1      40.684  35.671  36.082  1.00  0.00    -0.206 F 
ATOM     86  C   UNL A   1      39.159  35.528  39.361  1.00  0.00     0.022 A 
BRANCH  83  87
ATOM     87  S   UNL A   1      37.688  33.607  40.747  1.00  0.00     0.124 S 
ATOM     88  O   UNL A   1      36.585  32.955  40.050  1.00  0.00    -0.237 OA
ATOM     89  O   UNL A   1      38.622  32.725  41.438  1.00  0.00    -0.237 OA
ATOM     90  O   UNL A   1      37.336  34.827  41.470  1.00  0.00    -0.744 OA
ENDBRANCH  83  87
ENDBRANCH  56  80
BRANCH  68  91
ATOM     91  C   UNL A   1      44.197  28.878  35.454  1.00  0.00     0.023 A 
ATOM     92  C   UNL A   1      44.129  27.811  36.368  1.00  0.00     0.031 A 
ATOM     93  C   UNL A   1      45.447  29.490  35.248  1.00  0.00     0.131 A 
ATOM     94  C   UNL A   1      45.268  27.440  37.097  1.00  0.00     0.055 A 
ATOM     95  C   UNL A   1      46.593  29.069  35.923  1.00  0.00     0.041 A 
ATOM     96  F   UNL A   1      45.574  30.515  34.389  1.00  0.00    -0.206 F 
ATOM     97  C   UNL A   1      46.504  28.051  36.869  1.00  0.00     0.022 A 
BRANCH  94  98
ATOM     98  S   UNL A   1      45.085  26.236  38.442  1.00  0.00     0.124 S 
ATOM     99  O   UNL A   1      43.754  26.551  38.951  1.00  0.00    -0.237 OA
ATOM    100  O   UNL A   1      45.215  24.964  37.740  1.00  0.00    -0.237 OA
ATOM    101  O   UNL A   1      46.188  26.562  39.345  1.00  0.00    -0.744 OA
ENDBRANCH  94  98
ENDBRANCH  68  91
ENDBRANCH  42  43
ENDBRANCH  34  37
ENDBRANCH  32  33
ENDBRANCH   1  32
TORSDOF 18
ENDMDL
MODEL 2
REMARK VINA RESULT:     -12.4      1.675      7.537
REMARK SMILES CC[NH+]1CCN(c2ccc(NC(=O)C3CCCC3)c(C(=O)NCCCCNC(=O)c3ccc(-c4c5nc(c(-c6cc(S(=O)(=O)[O-])ccc6F)c6ccc([nH]6)c(-c6cc(S(=O)(=O)[O-])ccc6F)c6nc(c(-c7cc(S(=O)(=O)[O-])ccc7F)c7ccc4[nH]7)C=C6)C=C5)cc3)c2)CC1
REMARK SMILES IDX 25 1 24 2 23 3 22 4 20 5 21 6 19 8 7 9 8 10 93 11 9 12 10 13
REMARK SMILES IDX 6 14 3 15 4 16 95 17 5 19 94 20 2 21 1 22 11 23 12 24 13 26
REMARK SMILES IDX 14 27 15 28 18 29 16 30 17 31 26 32 27 33 28 34 29 36 30 37
REMARK SMILES IDX 31 38 92 39 32 40 91 41 33 42 34 43 35 44 85 45 36 46 90 47
REMARK SMILES IDX 84 48 86 49 37 50 89 51 83 52 82 53 38 55 70 56 50 57 69 58
REMARK SMILES IDX 51 59 54 60 68 61 87 62 52 63 53 64 67 66 88 67 55 68 39 69
REMARK SMILES IDX 40 70 48 71 41 72 47 73 49 74 46 75 42 76 43 77 44 78 45 79
REMARK SMILES IDX 71 80 72 81 80 82 73 83 79 84 81 85 78 86 74 87 75 88 76 89
REMARK SMILES IDX 77 90 56 91 57 92 65 93 58 94 64 95 66 96 63 97 59 98 60 99
REMARK SMILES IDX 61 100 62 101
REMARK H PARENT 22 7 3 18 11 25 27 35 86 54 54 65
REMARK Flexibility Score: inf
ROOT
ATOM      1  C   UNL A   1      31.799  31.913  27.164  1.00  0.00     0.023 C 
ENDROOT
BRANCH   1   2
ATOM      2  C   UNL A   1      32.211  30.562  26.594  1.00  0.00     0.023 C 
BRANCH   2   3
ATOM      3  C   UNL A   1      32.055  29.345  27.497  1.00  0.00     0.116 C 
BRANCH   3   4
ATOM      4  N   UNL A   1      32.874  28.189  27.166  1.00  0.00    -0.352 N 
ATOM      5  C   UNL A   1      32.723  27.209  26.197  1.00  0.00     0.253 C 
ATOM      6  O   UNL A   1      33.589  26.334  26.127  1.00  0.00    -0.269 OA
ATOM      7  H   UNL A   1      33.675  28.084  27.729  1.00  0.00     0.163 HD
BRANCH   5   8
ATOM      8  C   UNL A   1      31.546  27.125  25.268  1.00  0.00     0.065 A 
ATOM      9  C   UNL A   1      30.127  28.275  23.655  1.00  0.00     0.038 A 
ATOM     10  C   UNL A   1      29.240  27.213  23.709  1.00  0.00     0.028 A 
ATOM     11  C   UNL A   1      31.354  28.113  24.289  1.00  0.00     0.042 A 
ATOM     12  C   UNL A   1      29.506  26.103  24.503  1.00  0.00     0.029 A 
ATOM     13  C   UNL A   1      30.572  26.100  25.403  1.00  0.00     0.054 A 
BRANCH   9  14
ATOM     14  N   UNL A   1      29.734  29.479  23.116  1.00  0.00    -0.360 N 
ATOM     15  N   UNL A   1      27.690  31.497  22.470  1.00  0.00    -0.332 N 
ATOM     16  C   UNL A   1      27.629  30.119  21.942  1.00  0.00     0.283 C 
ATOM     17  C   UNL A   1      28.318  31.425  23.816  1.00  0.00     0.283 C 
ATOM     18  H   UNL A   1      26.742  31.872  22.516  1.00  0.00     0.348 HD
ATOM     19  C   UNL A   1      29.000  29.418  21.837  1.00  0.00     0.178 C 
ATOM     20  C   UNL A   1      29.705  30.735  23.871  1.00  0.00     0.178 C 
BRANCH  15  21
ATOM     21  C   UNL A   1      28.430  32.427  21.601  1.00  0.00     0.258 C 
ATOM     22  C   UNL A   1      27.911  32.490  20.167  1.00  0.00     0.071 C 
ENDBRANCH  15  21
ENDBRANCH   9  14
BRANCH  13  23
ATOM     23  N   UNL A   1      30.682  25.121  26.426  1.00  0.00    -0.325 N 
ATOM     24  C   UNL A   1      31.067  23.801  26.443  1.00  0.00     0.227 C 
ATOM     25  H   UNL A   1      30.426  25.460  27.314  1.00  0.00     0.169 HD
ATOM     26  O   UNL A   1      31.138  23.225  27.534  1.00  0.00    -0.274 OA
BRANCH  24  27
ATOM     27  C   UNL A   1      31.385  23.043  25.159  1.00  0.00     0.079 C 
ATOM     28  C   UNL A   1      32.579  23.562  24.352  1.00  0.00     0.013 C 
ATOM     29  C   UNL A   1      31.818  21.595  25.386  1.00  0.00     0.013 C 
ATOM     30  C   UNL A   1      32.843  22.433  23.352  1.00  0.00     0.001 C 
ATOM     31  C   UNL A   1      32.326  21.157  24.019  1.00  0.00     0.001 C 
ENDBRANCH  24  27
ENDBRANCH  13  23
ENDBRANCH   5   8
ENDBRANCH   3   4
ENDBRANCH   2   3
ENDBRANCH   1   2
BRANCH   1  32
ATOM     32  C   UNL A   1      32.687  33.105  26.825  1.00  0.00     0.116 C 
BRANCH  32  33
ATOM     33  N   UNL A   1      32.573  34.221  27.752  1.00  0.00    -0.352 N 
ATOM     34  C   UNL A   1      33.345  34.548  28.845  1.00  0.00     0.251 C 
ATOM     35  H   UNL A   1      31.828  34.838  27.569  1.00  0.00     0.163 HD
ATOM     36  O   UNL A   1      33.033  35.520  29.530  1.00  0.00    -0.269 OA
BRANCH  34  37
ATOM     37  C   UNL A   1      34.508  33.713  29.224  1.00  0.00     0.039 A 
ATOM     38  C   UNL A   1      35.795  34.183  28.943  1.00  0.00     0.014 A 
ATOM     39  C   UNL A   1      34.344  32.489  29.875  1.00  0.00     0.014 A 
ATOM     40  C   UNL A   1      36.910  33.472  29.398  1.00  0.00     0.010 A 
ATOM     41  C   UNL A   1      35.452  31.830  30.407  1.00  0.00     0.010 A 
ATOM     42  C   UNL A   1      36.749  32.316  30.179  1.00  0.00    -0.014 A 
BRANCH  42  43
ATOM     43  C   UNL A   1      37.924  31.613  30.763  1.00  0.00     0.031 A 
ATOM     44  C   UNL A   1      38.381  31.928  32.163  1.00  0.00     0.074 A 
ATOM     45  C   UNL A   1      38.612  30.728  30.012  1.00  0.00     0.049 A 
ATOM     46  N   UNL A   1      39.397  31.443  32.832  1.00  0.00    -0.248 NA
ATOM     47  C   UNL A   1      37.613  32.946  32.894  1.00  0.00     0.031 C 
ATOM     48  C   UNL A   1      38.309  30.384  28.620  1.00  0.00     0.029 A 
ATOM     49  N   UNL A   1      39.709  29.958  30.309  1.00  0.00    -0.354 N 
ATOM     50  C   UNL A   1      39.395  32.104  34.057  1.00  0.00     0.074 A 
ATOM     51  C   UNL A   1      38.324  33.075  34.004  1.00  0.00     0.031 C 
ATOM     52  C   UNL A   1      39.171  29.444  28.200  1.00  0.00     0.029 A 
ATOM     53  C   UNL A   1      40.115  29.146  29.273  1.00  0.00     0.049 A 
ATOM     54  H   UNL A   1      40.163  29.982  31.183  1.00  0.00     0.167 HD
ATOM     55  C   UNL A   1      40.192  31.900  35.136  1.00  0.00     0.034 A 
ATOM     56  C   UNL A   1      41.129  28.263  29.195  1.00  0.00     0.034 A 
ATOM     57  C   UNL A   1      41.251  30.920  35.175  1.00  0.00     0.049 A 
ATOM     58  C   UNL A   1      42.001  28.053  30.407  1.00  0.00     0.074 A 
ATOM     59  C   UNL A   1      42.088  30.596  36.230  1.00  0.00     0.029 A 
ATOM     60  N   UNL A   1      41.625  30.108  34.111  1.00  0.00    -0.354 N 
ATOM     61  N   UNL A   1      41.946  28.642  31.580  1.00  0.00    -0.248 NA
ATOM     62  C   UNL A   1      43.058  27.041  30.290  1.00  0.00     0.031 C 
ATOM     63  C   UNL A   1      43.006  29.638  35.784  1.00  0.00     0.029 A 
ATOM     64  C   UNL A   1      42.693  29.303  34.477  1.00  0.00     0.049 A 
ATOM     65  H   UNL A   1      41.193  30.105  33.227  1.00  0.00     0.167 HD
ATOM     66  C   UNL A   1      42.944  28.048  32.349  1.00  0.00     0.074 A 
ATOM     67  C   UNL A   1      43.564  27.039  31.514  1.00  0.00     0.031 C 
ATOM     68  C   UNL A   1      43.314  28.310  33.629  1.00  0.00     0.034 A 
BRANCH  55  69
ATOM     69  C   UNL A   1      39.953  32.773  36.348  1.00  0.00     0.023 A 
ATOM     70  C   UNL A   1      39.112  32.361  37.398  1.00  0.00     0.031 A 
ATOM     71  C   UNL A   1      40.542  34.046  36.441  1.00  0.00     0.131 A 
ATOM     72  C   UNL A   1      38.816  33.244  38.448  1.00  0.00     0.055 A 
ATOM     73  C   UNL A   1      40.312  34.885  37.534  1.00  0.00     0.041 A 
ATOM     74  F   UNL A   1      41.338  34.506  35.462  1.00  0.00    -0.206 F 
ATOM     75  C   UNL A   1      39.432  34.493  38.537  1.00  0.00     0.022 A 
BRANCH  72  76
ATOM     76  S   UNL A   1      37.497  32.794  39.610  1.00  0.00     0.124 S 
ATOM     77  O   UNL A   1      36.332  32.745  38.727  1.00  0.00    -0.237 OA
ATOM     78  O   UNL A   1      37.958  31.513  40.130  1.00  0.00    -0.237 OA
ATOM     79  O   UNL A   1      37.496  33.895  40.570  1.00  0.00    -0.744 OA
ENDBRANCH  72  76
ENDBRANCH  55  69
BRANCH  56  80
ATOM     80  C   UNL A   1      41.378  27.500  27.937  1.00  0.00     0.023 A 
ATOM     81  C   UNL A   1      41.100  26.126  27.857  1.00  0.00     0.031 A 
ATOM     82  C   UNL A   1      41.943  28.123  26.811  1.00  0.00     0.131 A 
ATOM     83  C   UNL A   1      41.435  25.409  26.698  1.00  0.00     0.055 A 
ATOM     84  C   UNL A   1      42.223  27.417  25.639  1.00  0.00     0.041 A 
ATOM     85  F   UNL A   1      42.221  29.436  26.829  1.00  0.00    -0.206 F 
ATOM     86  C   UNL A   1      41.982  26.047  25.583  1.00  0.00     0.022 A 
BRANCH  83  87
ATOM     87  S   UNL A   1      41.223  23.607  26.698  1.00  0.00     0.124 S 
ATOM     88  O   UNL A   1      39.801  23.474  26.408  1.00  0.00    -0.237 OA
ATOM     89  O   UNL A   1      42.137  23.195  25.638  1.00  0.00    -0.237 OA
ATOM     90  O   UNL A   1      41.624  23.218  28.049  1.00  0.00    -0.744 OA
ENDBRANCH  83  87
ENDBRANCH  56  80
BRANCH  68  91
ATOM     91  C   UNL A   1      44.415  27.454  34.209  1.00  0.00     0.023 A 
ATOM     92  C   UNL A   1      44.168  26.158  34.695  1.00  0.00     0.031 A 
ATOM     93  C   UNL A   1      45.723  27.960  34.316  1.00  0.00     0.131 A 
ATOM     94  C   UNL A   1      45.192  25.444  35.336  1.00  0.00     0.055 A 
ATOM     95  C   UNL A   1      46.756  27.216  34.889  1.00  0.00     0.041 A 
ATOM     96  F   UNL A   1      46.019  29.192  33.871  1.00  0.00    -0.206 F 
ATOM     97  C   UNL A   1      46.488  25.957  35.421  1.00  0.00     0.022 A 
BRANCH  94  98
ATOM     98  S   UNL A   1      44.775  23.888  36.171  1.00  0.00     0.124 S 
ATOM     99  O   UNL A   1      43.395  23.677  35.747  1.00  0.00    -0.237 OA
ATOM    100  O   UNL A   1      45.759  22.965  35.619  1.00  0.00    -0.237 OA
ATOM    101  O   UNL A   1      44.946  24.204  37.588  1.00  0.00    -0.744 OA
ENDBRANCH  94  98
ENDBRANCH  68  91
ENDBRANCH  42  43
ENDBRANCH  34  37
ENDBRANCH  32  33
ENDBRANCH   1  32
TORSDOF 18
ENDMDL
MODEL 3
REMARK VINA RESULT:     -12.2      5.818     12.019
REMARK SMILES CC[NH+]1CCN(c2ccc(NC(=O)C3CCCC3)c(C(=O)NCCCCNC(=O)c3ccc(-c4c5nc(c(-c6cc(S(=O)(=O)[O-])ccc6F)c6ccc([nH]6)c(-c6cc(S(=O)(=O)[O-])ccc6F)c6nc(c(-c7cc(S(=O)(=O)[O-])ccc7F)c7ccc4[nH]7)C=C6)C=C5)cc3)c2)CC1
REMARK SMILES IDX 25 1 24 2 23 3 22 4 20 5 21 6 19 8 7 9 8 10 93 11 9 12 10 13
REMARK SMILES IDX 6 14 3 15 4 16 95 17 5 19 94 20 2 21 1 22 11 23 12 24 13 26
REMARK SMILES IDX 14 27 15 28 18 29 16 30 17 31 26 32 27 33 28 34 29 36 30 37
REMARK SMILES IDX 31 38 92 39 32 40 91 41 33 42 34 43 35 44 85 45 36 46 90 47
REMARK SMILES IDX 84 48 86 49 37 50 89 51 83 52 82 53 38 55 70 56 50 57 69 58
REMARK SMILES IDX 51 59 54 60 68 61 87 62 52 63 53 64 67 66 88 67 55 68 39 69
REMARK SMILES IDX 40 70 48 71 41 72 47 73 49 74 46 75 42 76 43 77 44 78 45 79
REMARK SMILES IDX 71 80 72 81 80 82 73 83 79 84 81 85 78 86 74 87 75 88 76 89
REMARK SMILES IDX 77 90 56 91 57 92 65 93 58 94 64 95 66 96 63 97 59 98 60 99
REMARK SMILES IDX 61 100 62 101
REMARK H PARENT 22 7 3 18 11 25 27 35 86 54 54 65
REMARK Flexibility Score: inf
ROOT
ATOM      1  C   UNL A   1      37.894  20.302  25.023  1.00  0.00     0.023 C 
ENDROOT
BRANCH   1   2
ATOM      2  C   UNL A   1      36.741  21.293  25.131  1.00  0.00     0.023 C 
BRANCH   2   3
ATOM      3  C   UNL A   1      36.930  22.656  24.479  1.00  0.00     0.116 C 
BRANCH   3   4
ATOM      4  N   UNL A   1      36.151  23.750  25.040  1.00  0.00    -0.352 N 
ATOM      5  C   UNL A   1      34.793  24.023  24.995  1.00  0.00     0.253 C 
ATOM      6  O   UNL A   1      34.391  25.033  25.578  1.00  0.00    -0.269 OA
ATOM      7  H   UNL A   1      36.682  24.412  25.540  1.00  0.00     0.163 HD
BRANCH   5   8
ATOM      8  C   UNL A   1      33.797  23.192  24.236  1.00  0.00     0.065 A 
ATOM      9  C   UNL A   1      32.798  20.995  23.906  1.00  0.00     0.038 A 
ATOM     10  C   UNL A   1      32.197  21.465  22.749  1.00  0.00     0.028 A 
ATOM     11  C   UNL A   1      33.424  21.928  24.723  1.00  0.00     0.042 A 
ATOM     12  C   UNL A   1      32.360  22.786  22.350  1.00  0.00     0.029 A 
ATOM     13  C   UNL A   1      33.273  23.625  22.990  1.00  0.00     0.054 A 
BRANCH   9  14
ATOM     14  N   UNL A   1      32.882  19.641  24.142  1.00  0.00    -0.360 N 
ATOM     15  N   UNL A   1      33.868  16.943  23.491  1.00  0.00    -0.332 N 
ATOM     16  C   UNL A   1      33.038  17.726  22.551  1.00  0.00     0.283 C 
ATOM     17  C   UNL A   1      34.693  17.912  24.260  1.00  0.00     0.283 C 
ATOM     18  H   UNL A   1      34.446  16.296  22.956  1.00  0.00     0.348 HD
ATOM     19  C   UNL A   1      32.120  18.766  23.228  1.00  0.00     0.178 C 
ATOM     20  C   UNL A   1      33.907  19.029  24.993  1.00  0.00     0.178 C 
BRANCH  15  21
ATOM     21  C   UNL A   1      33.081  16.094  24.401  1.00  0.00     0.258 C 
ATOM     22  C   UNL A   1      33.884  15.505  25.558  1.00  0.00     0.071 C 
ENDBRANCH  15  21
ENDBRANCH   9  14
BRANCH  13  23
ATOM     23  N   UNL A   1      33.677  24.861  22.419  1.00  0.00    -0.325 N 
ATOM     24  C   UNL A   1      33.064  26.081  22.259  1.00  0.00     0.227 C 
ATOM     25  H   UNL A   1      34.594  24.840  22.061  1.00  0.00     0.169 HD
ATOM     26  O   UNL A   1      33.724  27.012  21.785  1.00  0.00    -0.274 OA
BRANCH  24  27
ATOM     27  C   UNL A   1      31.602  26.297  22.631  1.00  0.00     0.079 C 
ATOM     28  C   UNL A   1      31.260  26.162  24.118  1.00  0.00     0.013 C 
ATOM     29  C   UNL A   1      31.098  27.715  22.365  1.00  0.00     0.013 C 
ATOM     30  C   UNL A   1      29.851  26.752  24.210  1.00  0.00     0.001 C 
ATOM     31  C   UNL A   1      29.740  27.746  23.053  1.00  0.00     0.001 C 
ENDBRANCH  24  27
ENDBRANCH  13  23
ENDBRANCH   5   8
ENDBRANCH   3   4
ENDBRANCH   2   3
ENDBRANCH   1   2
BRANCH   1  32
ATOM     32  C   UNL A   1      39.175  20.649  25.774  1.00  0.00     0.116 C 
BRANCH  32  33
ATOM     33  N   UNL A   1      40.124  19.551  25.881  1.00  0.00    -0.352 N 
ATOM     34  C   UNL A   1      41.475  19.570  26.145  1.00  0.00     0.251 C 
ATOM     35  H   UNL A   1      39.740  18.655  25.744  1.00  0.00     0.163 HD
ATOM     36  O   UNL A   1      42.103  18.514  26.135  1.00  0.00    -0.269 OA
BRANCH  34  37
ATOM     37  C   UNL A   1      42.179  20.851  26.387  1.00  0.00     0.039 A 
ATOM     38  C   UNL A   1      42.442  21.691  25.300  1.00  0.00     0.014 A 
ATOM     39  C   UNL A   1      42.556  21.244  27.673  1.00  0.00     0.014 A 
ATOM     40  C   UNL A   1      42.994  22.957  25.516  1.00  0.00     0.010 A 
ATOM     41  C   UNL A   1      43.021  22.539  27.896  1.00  0.00     0.010 A 
ATOM     42  C   UNL A   1      43.242  23.413  26.821  1.00  0.00    -0.014 A 
BRANCH  42  43
ATOM     43  C   UNL A   1      43.725  24.799  27.073  1.00  0.00     0.031 A 
ATOM     44  C   UNL A   1      42.796  25.837  27.646  1.00  0.00     0.074 A 
ATOM     45  C   UNL A   1      44.987  25.136  26.735  1.00  0.00     0.049 A 
ATOM     46  N   UNL A   1      43.024  27.100  27.906  1.00  0.00    -0.248 NA
ATOM     47  C   UNL A   1      41.421  25.405  27.931  1.00  0.00     0.031 C 
ATOM     48  C   UNL A   1      45.965  24.239  26.112  1.00  0.00     0.029 A 
ATOM     49  N   UNL A   1      45.666  26.323  26.863  1.00  0.00    -0.354 N 
ATOM     50  C   UNL A   1      41.820  27.614  28.377  1.00  0.00     0.074 A 
ATOM     51  C   UNL A   1      40.849  26.544  28.292  1.00  0.00     0.031 C 
ATOM     52  C   UNL A   1      47.126  24.895  25.952  1.00  0.00     0.029 A 
ATOM     53  C   UNL A   1      46.968  26.268  26.419  1.00  0.00     0.049 A 
ATOM     54  H   UNL A   1      45.260  27.138  27.239  1.00  0.00     0.167 HD
ATOM     55  C   UNL A   1      41.554  28.853  28.862  1.00  0.00     0.034 A 
ATOM     56  C   UNL A   1      47.927  27.215  26.391  1.00  0.00     0.034 A 
ATOM     57  C   UNL A   1      42.537  29.906  28.949  1.00  0.00     0.049 A 
ATOM     58  C   UNL A   1      47.609  28.584  26.937  1.00  0.00     0.074 A 
ATOM     59  C   UNL A   1      42.391  31.183  29.467  1.00  0.00     0.029 A 
ATOM     60  N   UNL A   1      43.849  29.811  28.501  1.00  0.00    -0.354 N 
ATOM     61  N   UNL A   1      46.481  29.035  27.437  1.00  0.00    -0.248 NA
ATOM     62  C   UNL A   1      48.702  29.563  26.935  1.00  0.00     0.031 C 
ATOM     63  C   UNL A   1      43.592  31.876  29.274  1.00  0.00     0.029 A 
ATOM     64  C   UNL A   1      44.514  31.010  28.709  1.00  0.00     0.049 A 
ATOM     65  H   UNL A   1      44.248  29.008  28.096  1.00  0.00     0.167 HD
ATOM     66  C   UNL A   1      46.741  30.344  27.835  1.00  0.00     0.074 A 
ATOM     67  C   UNL A   1      48.137  30.596  27.542  1.00  0.00     0.031 C 
ATOM     68  C   UNL A   1      45.904  31.255  28.396  1.00  0.00     0.034 A 
BRANCH  55  69
ATOM     69  C   UNL A   1      40.138  29.130  29.316  1.00  0.00     0.023 A 
ATOM     70  C   UNL A   1      39.776  29.076  30.674  1.00  0.00     0.031 A 
ATOM     71  C   UNL A   1      39.130  29.416  28.379  1.00  0.00     0.131 A 
ATOM     72  C   UNL A   1      38.430  29.218  31.048  1.00  0.00     0.055 A 
ATOM     73  C   UNL A   1      37.807  29.644  28.768  1.00  0.00     0.041 A 
ATOM     74  F   UNL A   1      39.407  29.461  27.066  1.00  0.00    -0.206 F 
ATOM     75  C   UNL A   1      37.447  29.529  30.107  1.00  0.00     0.022 A 
BRANCH  72  76
ATOM     76  S   UNL A   1      37.963  28.836  32.759  1.00  0.00     0.124 S 
ATOM     77  O   UNL A   1      38.029  27.376  32.763  1.00  0.00    -0.237 OA
ATOM     78  O   UNL A   1      38.994  29.524  33.528  1.00  0.00    -0.237 OA
ATOM     79  O   UNL A   1      36.617  29.392  32.879  1.00  0.00    -0.744 OA
ENDBRANCH  72  76
ENDBRANCH  55  69
BRANCH  56  80
ATOM     80  C   UNL A   1      49.280  26.911  25.840  1.00  0.00     0.023 A 
ATOM     81  C   UNL A   1      49.659  27.358  24.564  1.00  0.00     0.031 A 
ATOM     82  C   UNL A   1      50.197  26.127  26.561  1.00  0.00     0.131 A 
ATOM     83  C   UNL A   1      50.898  26.976  24.027  1.00  0.00     0.055 A 
ATOM     84  C   UNL A   1      51.452  25.796  26.046  1.00  0.00     0.041 A 
ATOM     85  F   UNL A   1      49.891  25.680  27.790  1.00  0.00    -0.206 F 
ATOM     86  C   UNL A   1      51.802  26.209  24.763  1.00  0.00     0.022 A 
BRANCH  83  87
ATOM     87  S   UNL A   1      51.277  27.426  22.310  1.00  0.00     0.124 S 
ATOM     88  O   UNL A   1      50.218  26.738  21.581  1.00  0.00    -0.237 OA
ATOM     89  O   UNL A   1      51.187  28.882  22.352  1.00  0.00    -0.237 OA
ATOM     90  O   UNL A   1      52.623  26.893  22.108  1.00  0.00    -0.744 OA
ENDBRANCH  83  87
ENDBRANCH  56  80
BRANCH  68  91
ATOM     91  C   UNL A   1      46.501  32.593  28.764  1.00  0.00     0.023 A 
ATOM     92  C   UNL A   1      46.509  33.674  27.864  1.00  0.00     0.031 A 
ATOM     93  C   UNL A   1      47.110  32.776  30.019  1.00  0.00     0.131 A 
ATOM     94  C   UNL A   1      47.179  34.859  28.199  1.00  0.00     0.055 A 
ATOM     95  C   UNL A   1      47.712  33.983  30.375  1.00  0.00     0.041 A 
ATOM     96  F   UNL A   1      47.135  31.780  30.919  1.00  0.00    -0.206 F 
ATOM     97  C   UNL A   1      47.767  35.027  29.455  1.00  0.00     0.022 A 
BRANCH  94  98
ATOM     98  S   UNL A   1      47.385  36.131  26.922  1.00  0.00     0.124 S 
ATOM     99  O   UNL A   1      46.004  36.399  26.536  1.00  0.00    -0.237 OA
ATOM    100  O   UNL A   1      48.061  37.198  27.652  1.00  0.00    -0.237 OA
ATOM    101  O   UNL A   1      48.196  35.467  25.904  1.00  0.00    -0.744 OA
ENDBRANCH  94  98
ENDBRANCH  68  91
ENDBRANCH  42  43
ENDBRANCH  34  37
ENDBRANCH  32  33
ENDBRANCH   1  32
TORSDOF 18
ENDMDL
