MODEL 1
REMARK VINA RESULT:     -12.6      0.000      0.000
REMARK SMILES CC(=O)c1nnn(-c2ccc(C(=O)NCCCCNC(=O)c3ccc(-c4c5nc(c(-c6cc(S(=O)(=O)[O-])ccc6F)c6ccc([nH]6)c(-c6cc(S(=O)(=O)[O-])ccc6F)c6nc(c(-c7cc(S(=O)(=O)[O-])ccc7F)c7ccc4[nH]7)C=C6)C=C5)cc3)cc2)c1C
REMARK SMILES IDX 17 1 16 2 15 3 14 4 12 5 13 6 11 8 8 9 9 10 86 11 10 12
REMARK SMILES IDX 85 13 7 14 4 15 5 16 87 17 6 18 88 19 2 20 1 21 3 22 18 23
REMARK SMILES IDX 19 24 20 25 21 27 22 28 23 29 84 30 24 31 83 32 25 33 26 34
REMARK SMILES IDX 27 35 77 36 28 37 82 38 76 39 78 40 29 41 81 42 75 43 74 44
REMARK SMILES IDX 30 46 62 47 42 48 61 49 43 50 46 51 60 52 79 53 44 54 45 55
REMARK SMILES IDX 59 57 80 58 47 59 31 60 32 61 40 62 33 63 39 64 41 65 38 66
REMARK SMILES IDX 34 67 35 68 36 69 37 70 63 71 64 72 72 73 65 74 71 75 73 76
REMARK SMILES IDX 70 77 66 78 67 79 68 80 69 81 48 82 49 83 57 84 50 85 56 86
REMARK SMILES IDX 58 87 55 88 51 89 52 90 53 91 54 92
REMARK H PARENT 14 7 19 26 78 45 46 56
REMARK Flexibility Score: inf
ROOT
ATOM      1  C   UNL A   1      33.671  28.466  27.216  1.00  0.00     0.023 C 
ENDROOT
BRANCH   1   2
ATOM      2  C   UNL A   1      32.534  29.494  27.304  1.00  0.00     0.023 C 
BRANCH   2   3
ATOM      3  C   UNL A   1      32.601  30.627  26.271  1.00  0.00     0.116 C 
BRANCH   3   4
ATOM      4  N   UNL A   1      31.410  30.652  25.437  1.00  0.00    -0.352 N 
ATOM      5  C   UNL A   1      30.931  29.822  24.452  1.00  0.00     0.251 C 
ATOM      6  O   UNL A   1      29.855  30.121  23.932  1.00  0.00    -0.269 OA
ATOM      7  H   UNL A   1      30.825  31.424  25.615  1.00  0.00     0.163 HD
BRANCH   5   8
ATOM      8  C   UNL A   1      31.605  28.563  24.024  1.00  0.00     0.039 A 
ATOM      9  C   UNL A   1      32.825  26.095  23.516  1.00  0.00     0.067 A 
ATOM     10  C   UNL A   1      31.488  26.118  23.906  1.00  0.00     0.029 A 
ATOM     11  C   UNL A   1      33.515  27.282  23.260  1.00  0.00     0.029 A 
ATOM     12  C   UNL A   1      30.895  27.355  24.187  1.00  0.00     0.016 A 
ATOM     13  C   UNL A   1      32.887  28.508  23.473  1.00  0.00     0.016 A 
BRANCH   9  14
ATOM     14  N   UNL A   1      33.523  24.878  23.447  1.00  0.00    -0.217 N 
ATOM     15  C   UNL A   1      34.812  23.180  23.880  1.00  0.00     0.151 A 
ATOM     16  N   UNL A   1      34.691  23.322  22.517  1.00  0.00    -0.126 NA
ATOM     17  C   UNL A   1      34.027  24.138  24.503  1.00  0.00     0.073 A 
ATOM     18  N   UNL A   1      33.820  24.292  22.272  1.00  0.00    -0.061 NA
ATOM     19  C   UNL A   1      33.664  24.410  25.916  1.00  0.00     0.069 C 
BRANCH  15  20
ATOM     20  C   UNL A   1      35.638  22.130  24.461  1.00  0.00     0.181 C 
ATOM     21  C   UNL A   1      37.135  22.227  24.309  1.00  0.00     0.095 C 
ATOM     22  O   UNL A   1      35.140  21.193  25.086  1.00  0.00    -0.293 OA
ENDBRANCH  15  20
ENDBRANCH   9  14
ENDBRANCH   5   8
ENDBRANCH   3   4
ENDBRANCH   2   3
ENDBRANCH   1   2
BRANCH   1  23
ATOM     23  C   UNL A   1      35.076  29.060  27.242  1.00  0.00     0.116 C 
BRANCH  23  24
ATOM     24  N   UNL A   1      35.293  29.943  28.386  1.00  0.00    -0.352 N 
ATOM     25  C   UNL A   1      36.315  29.892  29.319  1.00  0.00     0.251 C 
ATOM     26  H   UNL A   1      34.633  30.662  28.508  1.00  0.00     0.163 HD
ATOM     27  O   UNL A   1      36.171  30.387  30.424  1.00  0.00    -0.269 OA
BRANCH  25  28
ATOM     28  C   UNL A   1      37.582  29.235  28.942  1.00  0.00     0.039 A 
ATOM     29  C   UNL A   1      38.296  29.632  27.809  1.00  0.00     0.014 A 
ATOM     30  C   UNL A   1      38.067  28.227  29.773  1.00  0.00     0.014 A 
ATOM     31  C   UNL A   1      39.550  29.070  27.574  1.00  0.00     0.010 A 
ATOM     32  C   UNL A   1      39.351  27.762  29.607  1.00  0.00     0.010 A 
ATOM     33  C   UNL A   1      40.090  28.154  28.493  1.00  0.00    -0.014 A 
BRANCH  33  34
ATOM     34  C   UNL A   1      41.491  27.734  28.393  1.00  0.00     0.031 A 
ATOM     35  C   UNL A   1      41.689  26.425  27.704  1.00  0.00     0.074 A 
ATOM     36  C   UNL A   1      42.541  28.543  28.659  1.00  0.00     0.049 A 
ATOM     37  N   UNL A   1      42.146  25.325  28.206  1.00  0.00    -0.248 NA
ATOM     38  C   UNL A   1      41.185  26.279  26.328  1.00  0.00     0.031 C 
ATOM     39  C   UNL A   1      42.516  29.957  29.049  1.00  0.00     0.029 A 
ATOM     40  N   UNL A   1      43.877  28.302  28.520  1.00  0.00    -0.354 N 
ATOM     41  C   UNL A   1      42.227  24.425  27.146  1.00  0.00     0.074 A 
ATOM     42  C   UNL A   1      41.431  24.990  26.090  1.00  0.00     0.031 C 
ATOM     43  C   UNL A   1      43.743  30.498  28.884  1.00  0.00     0.029 A 
ATOM     44  C   UNL A   1      44.680  29.443  28.541  1.00  0.00     0.049 A 
ATOM     45  H   UNL A   1      44.245  27.395  28.415  1.00  0.00     0.167 HD
ATOM     46  C   UNL A   1      43.149  23.421  27.142  1.00  0.00     0.034 A 
ATOM     47  C   UNL A   1      46.014  29.527  28.282  1.00  0.00     0.034 A 
ATOM     48  C   UNL A   1      43.656  23.178  28.476  1.00  0.00     0.049 A 
ATOM     49  C   UNL A   1      46.573  28.169  28.480  1.00  0.00     0.074 A 
ATOM     50  C   UNL A   1      43.064  22.882  29.691  1.00  0.00     0.029 A 
ATOM     51  N   UNL A   1      44.915  23.637  28.795  1.00  0.00    -0.354 N 
ATOM     52  N   UNL A   1      46.607  27.573  29.639  1.00  0.00    -0.248 NA
ATOM     53  C   UNL A   1      46.644  27.287  27.327  1.00  0.00     0.031 C 
ATOM     54  C   UNL A   1      43.765  23.683  30.642  1.00  0.00     0.029 A 
ATOM     55  C   UNL A   1      44.806  24.333  29.977  1.00  0.00     0.049 A 
ATOM     56  H   UNL A   1      45.738  23.494  28.274  1.00  0.00     0.167 HD
ATOM     57  C   UNL A   1      46.246  26.262  29.374  1.00  0.00     0.074 A 
ATOM     58  C   UNL A   1      46.381  26.122  27.924  1.00  0.00     0.031 C 
ATOM     59  C   UNL A   1      45.600  25.503  30.309  1.00  0.00     0.034 A 
BRANCH  46  60
ATOM     60  C   UNL A   1      43.854  22.911  25.900  1.00  0.00     0.023 A 
ATOM     61  C   UNL A   1      43.864  21.520  25.678  1.00  0.00     0.031 A 
ATOM     62  C   UNL A   1      44.736  23.664  25.088  1.00  0.00     0.131 A 
ATOM     63  C   UNL A   1      44.770  20.936  24.772  1.00  0.00     0.055 A 
ATOM     64  C   UNL A   1      45.582  23.085  24.137  1.00  0.00     0.041 A 
ATOM     65  F   UNL A   1      44.906  24.983  25.226  1.00  0.00    -0.206 F 
ATOM     66  C   UNL A   1      45.627  21.710  23.995  1.00  0.00     0.022 A 
BRANCH  63  67
ATOM     67  S   UNL A   1      44.934  19.133  24.757  1.00  0.00     0.124 S 
ATOM     68  O   UNL A   1      43.660  18.718  25.335  1.00  0.00    -0.237 OA
ATOM     69  O   UNL A   1      45.118  18.860  23.336  1.00  0.00    -0.237 OA
ATOM     70  O   UNL A   1      46.108  18.893  25.594  1.00  0.00    -0.744 OA
ENDBRANCH  63  67
ENDBRANCH  46  60
BRANCH  47  71
ATOM     71  C   UNL A   1      46.767  30.620  27.605  1.00  0.00     0.023 A 
ATOM     72  C   UNL A   1      46.129  31.686  26.933  1.00  0.00     0.031 A 
ATOM     73  C   UNL A   1      48.150  30.767  27.852  1.00  0.00     0.131 A 
ATOM     74  C   UNL A   1      46.864  32.835  26.552  1.00  0.00     0.055 A 
ATOM     75  C   UNL A   1      48.871  31.904  27.476  1.00  0.00     0.041 A 
ATOM     76  F   UNL A   1      48.833  29.846  28.551  1.00  0.00    -0.206 F 
ATOM     77  C   UNL A   1      48.227  32.950  26.835  1.00  0.00     0.022 A 
BRANCH  74  78
ATOM     78  S   UNL A   1      46.032  34.258  25.768  1.00  0.00     0.124 S 
ATOM     79  O   UNL A   1      47.126  34.897  25.046  1.00  0.00    -0.237 OA
ATOM     80  O   UNL A   1      45.003  33.616  24.957  1.00  0.00    -0.237 OA
ATOM     81  O   UNL A   1      45.520  35.022  26.907  1.00  0.00    -0.744 OA
ENDBRANCH  74  78
ENDBRANCH  47  71
BRANCH  59  82
ATOM     82  C   UNL A   1      45.537  26.013  31.740  1.00  0.00     0.023 A 
ATOM     83  C   UNL A   1      44.418  26.643  32.339  1.00  0.00     0.031 A 
ATOM     84  C   UNL A   1      46.650  25.762  32.563  1.00  0.00     0.131 A 
ATOM     85  C   UNL A   1      44.455  27.014  33.699  1.00  0.00     0.055 A 
ATOM     86  C   UNL A   1      46.673  26.108  33.914  1.00  0.00     0.041 A 
ATOM     87  F   UNL A   1      47.738  25.148  32.070  1.00  0.00    -0.206 F 
ATOM     88  C   UNL A   1      45.579  26.745  34.486  1.00  0.00     0.022 A 
BRANCH  85  89
ATOM     89  S   UNL A   1      43.056  27.894  34.471  1.00  0.00     0.124 S 
ATOM     90  O   UNL A   1      43.564  28.269  35.786  1.00  0.00    -0.237 OA
ATOM     91  O   UNL A   1      42.824  28.995  33.540  1.00  0.00    -0.237 OA
ATOM     92  O   UNL A   1      41.993  26.887  34.495  1.00  0.00    -0.744 OA
ENDBRANCH  85  89
ENDBRANCH  59  82
ENDBRANCH  33  34
ENDBRANCH  25  28
ENDBRANCH  23  24
ENDBRANCH   1  23
TORSDOF 16
ENDMDL
MODEL 2
REMARK VINA RESULT:     -12.3      4.330     10.418
REMARK SMILES CC(=O)c1nnn(-c2ccc(C(=O)NCCCCNC(=O)c3ccc(-c4c5nc(c(-c6cc(S(=O)(=O)[O-])ccc6F)c6ccc([nH]6)c(-c6cc(S(=O)(=O)[O-])ccc6F)c6nc(c(-c7cc(S(=O)(=O)[O-])ccc7F)c7ccc4[nH]7)C=C6)C=C5)cc3)cc2)c1C
REMARK SMILES IDX 17 1 16 2 15 3 14 4 12 5 13 6 11 8 8 9 9 10 86 11 10 12
REMARK SMILES IDX 85 13 7 14 4 15 5 16 87 17 6 18 88 19 2 20 1 21 3 22 18 23
REMARK SMILES IDX 19 24 20 25 21 27 22 28 23 29 84 30 24 31 83 32 25 33 26 34
REMARK SMILES IDX 27 35 77 36 28 37 82 38 76 39 78 40 29 41 81 42 75 43 74 44
REMARK SMILES IDX 30 46 62 47 42 48 61 49 43 50 46 51 60 52 79 53 44 54 45 55
REMARK SMILES IDX 59 57 80 58 47 59 31 60 32 61 40 62 33 63 39 64 41 65 38 66
REMARK SMILES IDX 34 67 35 68 36 69 37 70 63 71 64 72 72 73 65 74 71 75 73 76
REMARK SMILES IDX 70 77 66 78 67 79 68 80 69 81 48 82 49 83 57 84 50 85 56 86
REMARK SMILES IDX 58 87 55 88 51 89 52 90 53 91 54 92
REMARK H PARENT 14 7 19 26 78 45 46 56
REMARK Flexibility Score: inf
ROOT
ATOM      1  C   UNL A   1      36.835  23.619  24.968  1.00  0.00     0.023 C 
ENDROOT
BRANCH   1   2
ATOM      2  C   UNL A   1      37.129  22.203  24.450  1.00  0.00     0.023 C 
BRANCH   2   3
ATOM      3  C   UNL A   1      36.879  21.077  25.461  1.00  0.00     0.116 C 
BRANCH   3   4
ATOM      4  N   UNL A   1      35.802  20.204  25.023  1.00  0.00    -0.352 N 
ATOM      5  C   UNL A   1      34.436  20.343  24.970  1.00  0.00     0.251 C 
ATOM      6  O   UNL A   1      33.786  19.398  24.522  1.00  0.00    -0.269 OA
ATOM      7  H   UNL A   1      36.117  19.330  24.696  1.00  0.00     0.163 HD
BRANCH   5   8
ATOM      8  C   UNL A   1      33.711  21.584  25.367  1.00  0.00     0.039 A 
ATOM      9  C   UNL A   1      32.554  24.070  25.927  1.00  0.00     0.067 A 
ATOM     10  C   UNL A   1      32.567  23.614  24.611  1.00  0.00     0.029 A 
ATOM     11  C   UNL A   1      32.995  23.254  26.970  1.00  0.00     0.029 A 
ATOM     12  C   UNL A   1      33.175  22.383  24.336  1.00  0.00     0.016 A 
ATOM     13  C   UNL A   1      33.530  21.998  26.688  1.00  0.00     0.016 A 
BRANCH   9  14
ATOM     14  N   UNL A   1      32.165  25.389  26.218  1.00  0.00    -0.217 N 
ATOM     15  C   UNL A   1      32.167  27.508  26.708  1.00  0.00     0.151 A 
ATOM     16  N   UNL A   1      30.990  26.943  27.141  1.00  0.00    -0.126 NA
ATOM     17  C   UNL A   1      32.920  26.540  26.063  1.00  0.00     0.073 A 
ATOM     18  N   UNL A   1      30.960  25.679  26.741  1.00  0.00    -0.061 NA
ATOM     19  C   UNL A   1      34.194  26.564  25.302  1.00  0.00     0.069 C 
BRANCH  15  20
ATOM     20  C   UNL A   1      32.452  28.921  26.921  1.00  0.00     0.181 C 
ATOM     21  C   UNL A   1      33.839  29.316  27.359  1.00  0.00     0.095 C 
ATOM     22  O   UNL A   1      31.596  29.786  26.729  1.00  0.00    -0.293 OA
ENDBRANCH  15  20
ENDBRANCH   9  14
ENDBRANCH   5   8
ENDBRANCH   3   4
ENDBRANCH   2   3
ENDBRANCH   1   2
BRANCH   1  23
ATOM     23  C   UNL A   1      37.598  24.011  26.230  1.00  0.00     0.116 C 
BRANCH  23  24
ATOM     24  N   UNL A   1      39.028  23.729  26.136  1.00  0.00    -0.352 N 
ATOM     25  C   UNL A   1      40.084  24.587  26.392  1.00  0.00     0.251 C 
ATOM     26  H   UNL A   1      39.271  22.818  25.855  1.00  0.00     0.163 HD
ATOM     27  O   UNL A   1      41.180  24.389  25.893  1.00  0.00    -0.269 OA
BRANCH  25  28
ATOM     28  C   UNL A   1      39.855  25.737  27.289  1.00  0.00     0.039 A 
ATOM     29  C   UNL A   1      39.356  25.561  28.581  1.00  0.00     0.014 A 
ATOM     30  C   UNL A   1      40.189  27.006  26.819  1.00  0.00     0.014 A 
ATOM     31  C   UNL A   1      39.286  26.666  29.429  1.00  0.00     0.010 A 
ATOM     32  C   UNL A   1      40.231  28.069  27.691  1.00  0.00     0.010 A 
ATOM     33  C   UNL A   1      39.753  27.917  28.991  1.00  0.00    -0.014 A 
BRANCH  33  34
ATOM     34  C   UNL A   1      39.908  29.028  29.934  1.00  0.00     0.031 A 
ATOM     35  C   UNL A   1      38.673  29.843  30.128  1.00  0.00     0.074 A 
ATOM     36  C   UNL A   1      40.973  29.178  30.754  1.00  0.00     0.049 A 
ATOM     37  N   UNL A   1      38.481  31.081  29.814  1.00  0.00    -0.248 NA
ATOM     38  C   UNL A   1      37.455  29.159  30.597  1.00  0.00     0.031 C 
ATOM     39  C   UNL A   1      42.129  28.288  30.904  1.00  0.00     0.029 A 
ATOM     40  N   UNL A   1      41.192  30.108  31.728  1.00  0.00    -0.354 N 
ATOM     41  C   UNL A   1      37.208  31.402  30.279  1.00  0.00     0.074 A 
ATOM     42  C   UNL A   1      36.559  30.146  30.545  1.00  0.00     0.031 C 
ATOM     43  C   UNL A   1      42.788  28.584  32.046  1.00  0.00     0.029 A 
ATOM     44  C   UNL A   1      42.211  29.784  32.624  1.00  0.00     0.049 A 
ATOM     45  H   UNL A   1      40.673  30.943  31.792  1.00  0.00     0.167 HD
ATOM     46  C   UNL A   1      36.892  32.676  30.648  1.00  0.00     0.034 A 
ATOM     47  C   UNL A   1      42.553  30.439  33.767  1.00  0.00     0.034 A 
ATOM     48  C   UNL A   1      37.835  33.625  30.094  1.00  0.00     0.049 A 
ATOM     49  C   UNL A   1      42.024  31.817  33.644  1.00  0.00     0.074 A 
ATOM     50  C   UNL A   1      38.277  33.905  28.813  1.00  0.00     0.029 A 
ATOM     51  N   UNL A   1      38.786  34.168  30.928  1.00  0.00    -0.354 N 
ATOM     52  N   UNL A   1      42.457  32.672  32.760  1.00  0.00    -0.248 NA
ATOM     53  C   UNL A   1      40.694  32.086  34.167  1.00  0.00     0.031 C 
ATOM     54  C   UNL A   1      39.686  34.090  28.948  1.00  0.00     0.029 A 
ATOM     55  C   UNL A   1      40.004  34.020  30.305  1.00  0.00     0.049 A 
ATOM     56  H   UNL A   1      38.625  34.585  31.806  1.00  0.00     0.167 HD
ATOM     57  C   UNL A   1      41.316  33.298  32.284  1.00  0.00     0.074 A 
ATOM     58  C   UNL A   1      40.275  32.971  33.258  1.00  0.00     0.031 C 
ATOM     59  C   UNL A   1      41.253  33.780  31.007  1.00  0.00     0.034 A 
BRANCH  46  60
ATOM     60  C   UNL A   1      35.959  33.030  31.790  1.00  0.00     0.023 A 
ATOM     61  C   UNL A   1      34.885  33.899  31.512  1.00  0.00     0.031 A 
ATOM     62  C   UNL A   1      36.214  32.798  33.163  1.00  0.00     0.131 A 
ATOM     63  C   UNL A   1      34.193  34.553  32.549  1.00  0.00     0.055 A 
ATOM     64  C   UNL A   1      35.477  33.394  34.190  1.00  0.00     0.041 A 
ATOM     65  F   UNL A   1      37.244  32.064  33.597  1.00  0.00    -0.206 F 
ATOM     66  C   UNL A   1      34.479  34.302  33.888  1.00  0.00     0.022 A 
BRANCH  63  67
ATOM     67  S   UNL A   1      33.034  35.874  32.115  1.00  0.00     0.124 S 
ATOM     68  O   UNL A   1      33.538  36.982  32.920  1.00  0.00    -0.237 OA
ATOM     69  O   UNL A   1      33.230  35.983  30.673  1.00  0.00    -0.237 OA
ATOM     70  O   UNL A   1      31.739  35.338  32.528  1.00  0.00    -0.744 OA
ENDBRANCH  63  67
ENDBRANCH  46  60
BRANCH  47  71
ATOM     71  C   UNL A   1      43.043  29.875  35.057  1.00  0.00     0.023 A 
ATOM     72  C   UNL A   1      42.541  28.673  35.606  1.00  0.00     0.031 A 
ATOM     73  C   UNL A   1      44.225  30.387  35.635  1.00  0.00     0.131 A 
ATOM     74  C   UNL A   1      43.220  28.034  36.671  1.00  0.00     0.055 A 
ATOM     75  C   UNL A   1      44.893  29.750  36.685  1.00  0.00     0.041 A 
ATOM     76  F   UNL A   1      44.825  31.479  35.137  1.00  0.00    -0.206 F 
ATOM     77  C   UNL A   1      44.399  28.562  37.200  1.00  0.00     0.022 A 
BRANCH  74  78
ATOM     78  S   UNL A   1      42.633  26.434  37.325  1.00  0.00     0.124 S 
ATOM     79  O   UNL A   1      43.361  26.329  38.584  1.00  0.00    -0.237 OA
ATOM     80  O   UNL A   1      41.193  26.640  37.421  1.00  0.00    -0.237 OA
ATOM     81  O   UNL A   1      43.044  25.476  36.297  1.00  0.00    -0.744 OA
ENDBRANCH  74  78
ENDBRANCH  47  71
BRANCH  59  82
ATOM     82  C   UNL A   1      42.541  33.879  30.204  1.00  0.00     0.023 A 
ATOM     83  C   UNL A   1      43.007  32.915  29.277  1.00  0.00     0.031 A 
ATOM     84  C   UNL A   1      43.288  35.065  30.329  1.00  0.00     0.131 A 
ATOM     85  C   UNL A   1      44.187  33.150  28.540  1.00  0.00     0.055 A 
ATOM     86  C   UNL A   1      44.440  35.305  29.581  1.00  0.00     0.041 A 
ATOM     87  F   UNL A   1      42.893  36.034  31.173  1.00  0.00    -0.206 F 
ATOM     88  C   UNL A   1      44.900  34.343  28.690  1.00  0.00     0.022 A 
BRANCH  85  89
ATOM     89  S   UNL A   1      44.848  31.891  27.397  1.00  0.00     0.124 S 
ATOM     90  O   UNL A   1      46.241  32.284  27.216  1.00  0.00    -0.237 OA
ATOM     91  O   UNL A   1      44.626  30.650  28.134  1.00  0.00    -0.237 OA
ATOM     92  O   UNL A   1      44.012  32.045  26.204  1.00  0.00    -0.744 OA
ENDBRANCH  85  89
ENDBRANCH  59  82
ENDBRANCH  33  34
ENDBRANCH  25  28
ENDBRANCH  23  24
ENDBRANCH   1  23
TORSDOF 16
ENDMDL
MODEL 3
REMARK VINA RESULT:     -12.3      1.911      2.325
REMARK SMILES CC(=O)c1nnn(-c2ccc(C(=O)NCCCCNC(=O)c3ccc(-c4c5nc(c(-c6cc(S(=O)(=O)[O-])ccc6F)c6ccc([nH]6)c(-c6cc(S(=O)(=O)[O-])ccc6F)c6nc(c(-c7cc(S(=O)(=O)[O-])ccc7F)c7ccc4[nH]7)C=C6)C=C5)cc3)cc2)c1C
REMARK SMILES IDX 17 1 16 2 15 3 14 4 12 5 13 6 11 8 8 9 9 10 86 11 10 12
REMARK SMILES IDX 85 13 7 14 4 15 5 16 87 17 6 18 88 19 2 20 1 21 3 22 18 23
REMARK SMILES IDX 19 24 20 25 21 27 22 28 23 29 84 30 24 31 83 32 25 33 26 34
REMARK SMILES IDX 27 35 77 36 28 37 82 38 76 39 78 40 29 41 81 42 75 43 74 44
REMARK SMILES IDX 30 46 62 47 42 48 61 49 43 50 46 51 60 52 79 53 44 54 45 55
REMARK SMILES IDX 59 57 80 58 47 59 31 60 32 61 40 62 33 63 39 64 41 65 38 66
REMARK SMILES IDX 34 67 35 68 36 69 37 70 63 71 64 72 72 73 65 74 71 75 73 76
REMARK SMILES IDX 70 77 66 78 67 79 68 80 69 81 48 82 49 83 57 84 50 85 56 86
REMARK SMILES IDX 58 87 55 88 51 89 52 90 53 91 54 92
REMARK H PARENT 14 7 19 26 78 45 46 56
REMARK Flexibility Score: inf
ROOT
ATOM      1  C   UNL A   1      33.778  29.395  26.491  1.00  0.00     0.023 C 
ENDROOT
BRANCH   1   2
ATOM      2  C   UNL A   1      33.277  28.295  25.544  1.00  0.00     0.023 C 
BRANCH   2   3
ATOM      3  C   UNL A   1      31.751  28.157  25.457  1.00  0.00     0.116 C 
BRANCH   3   4
ATOM      4  N   UNL A   1      31.291  28.240  24.081  1.00  0.00    -0.352 N 
ATOM      5  C   UNL A   1      31.225  27.332  23.052  1.00  0.00     0.251 C 
ATOM      6  O   UNL A   1      30.758  27.721  21.980  1.00  0.00    -0.269 OA
ATOM      7  H   UNL A   1      30.955  29.133  23.835  1.00  0.00     0.163 HD
BRANCH   5   8
ATOM      8  C   UNL A   1      31.631  25.902  23.176  1.00  0.00     0.039 A 
ATOM      9  C   UNL A   1      32.326  23.246  23.719  1.00  0.00     0.067 A 
ATOM     10  C   UNL A   1      31.020  23.665  23.967  1.00  0.00     0.029 A 
ATOM     11  C   UNL A   1      33.242  24.095  23.095  1.00  0.00     0.029 A 
ATOM     12  C   UNL A   1      30.690  25.004  23.721  1.00  0.00     0.016 A 
ATOM     13  C   UNL A   1      32.875  25.403  22.787  1.00  0.00     0.016 A 
BRANCH   9  14
ATOM     14  N   UNL A   1      32.763  21.986  24.161  1.00  0.00    -0.217 N 
ATOM     15  C   UNL A   1      32.955  19.850  24.527  1.00  0.00     0.151 A 
ATOM     16  N   UNL A   1      33.519  20.542  25.573  1.00  0.00    -0.126 NA
ATOM     17  C   UNL A   1      32.507  20.756  23.578  1.00  0.00     0.073 A 
ATOM     18  N   UNL A   1      33.488  21.836  25.285  1.00  0.00    -0.061 NA
ATOM     19  C   UNL A   1      31.931  20.621  22.217  1.00  0.00     0.069 C 
BRANCH  15  20
ATOM     20  C   UNL A   1      32.921  18.394  24.513  1.00  0.00     0.181 C 
ATOM     21  C   UNL A   1      34.109  17.653  23.954  1.00  0.00     0.095 C 
ATOM     22  O   UNL A   1      31.962  17.769  24.967  1.00  0.00    -0.293 OA
ENDBRANCH  15  20
ENDBRANCH   9  14
ENDBRANCH   5   8
ENDBRANCH   3   4
ENDBRANCH   2   3
ENDBRANCH   1   2
BRANCH   1  23
ATOM     23  C   UNL A   1      35.017  29.028  27.302  1.00  0.00     0.116 C 
BRANCH  23  24
ATOM     24  N   UNL A   1      35.283  29.974  28.383  1.00  0.00    -0.352 N 
ATOM     25  C   UNL A   1      36.336  29.965  29.282  1.00  0.00     0.251 C 
ATOM     26  H   UNL A   1      34.635  30.707  28.486  1.00  0.00     0.163 HD
ATOM     27  O   UNL A   1      36.236  30.526  30.361  1.00  0.00    -0.269 OA
BRANCH  25  28
ATOM     28  C   UNL A   1      37.582  29.271  28.902  1.00  0.00     0.039 A 
ATOM     29  C   UNL A   1      38.306  29.650  27.769  1.00  0.00     0.014 A 
ATOM     30  C   UNL A   1      38.037  28.246  29.729  1.00  0.00     0.014 A 
ATOM     31  C   UNL A   1      39.543  29.051  27.531  1.00  0.00     0.010 A 
ATOM     32  C   UNL A   1      39.306  27.743  29.560  1.00  0.00     0.010 A 
ATOM     33  C   UNL A   1      40.055  28.116  28.447  1.00  0.00    -0.014 A 
BRANCH  33  34
ATOM     34  C   UNL A   1      41.443  27.654  28.344  1.00  0.00     0.031 A 
ATOM     35  C   UNL A   1      41.603  26.353  27.631  1.00  0.00     0.074 A 
ATOM     36  C   UNL A   1      42.517  28.424  28.630  1.00  0.00     0.049 A 
ATOM     37  N   UNL A   1      42.022  25.230  28.113  1.00  0.00    -0.248 NA
ATOM     38  C   UNL A   1      41.101  26.249  26.250  1.00  0.00     0.031 C 
ATOM     39  C   UNL A   1      42.534  29.830  29.046  1.00  0.00     0.029 A 
ATOM     40  N   UNL A   1      43.845  28.143  28.491  1.00  0.00    -0.354 N 
ATOM     41  C   UNL A   1      42.079  24.348  27.037  1.00  0.00     0.074 A 
ATOM     42  C   UNL A   1      41.306  24.957  25.988  1.00  0.00     0.031 C 
ATOM     43  C   UNL A   1      43.779  30.336  28.896  1.00  0.00     0.029 A 
ATOM     44  C   UNL A   1      44.683  29.258  28.537  1.00  0.00     0.049 A 
ATOM     45  H   UNL A   1      44.185  27.227  28.369  1.00  0.00     0.167 HD
ATOM     46  C   UNL A   1      42.970  23.315  27.016  1.00  0.00     0.034 A 
ATOM     47  C   UNL A   1      46.020  29.304  28.285  1.00  0.00     0.034 A 
ATOM     48  C   UNL A   1      43.463  23.031  28.347  1.00  0.00     0.049 A 
ATOM     49  C   UNL A   1      46.535  27.926  28.458  1.00  0.00     0.074 A 
ATOM     50  C   UNL A   1      42.856  22.731  29.554  1.00  0.00     0.029 A 
ATOM     51  N   UNL A   1      44.734  23.444  28.679  1.00  0.00    -0.354 N 
ATOM     52  N   UNL A   1      46.546  27.307  29.606  1.00  0.00    -0.248 NA
ATOM     53  C   UNL A   1      46.584  27.065  27.288  1.00  0.00     0.031 C 
ATOM     54  C   UNL A   1      43.578  23.491  30.523  1.00  0.00     0.029 A 
ATOM     55  C   UNL A   1      44.642  24.120  29.874  1.00  0.00     0.049 A 
ATOM     56  H   UNL A   1      45.555  23.285  28.159  1.00  0.00     0.167 HD
ATOM     57  C   UNL A   1      46.145  26.014  29.314  1.00  0.00     0.074 A 
ATOM     58  C   UNL A   1      46.281  25.897  27.862  1.00  0.00     0.031 C 
ATOM     59  C   UNL A   1      45.471  25.257  30.232  1.00  0.00     0.034 A 
BRANCH  46  60
ATOM     60  C   UNL A   1      43.663  22.807  25.767  1.00  0.00     0.023 A 
ATOM     61  C   UNL A   1      43.796  21.413  25.613  1.00  0.00     0.031 A 
ATOM     62  C   UNL A   1      44.432  23.594  24.876  1.00  0.00     0.131 A 
ATOM     63  C   UNL A   1      44.711  20.868  24.693  1.00  0.00     0.055 A 
ATOM     64  C   UNL A   1      45.286  23.046  23.914  1.00  0.00     0.041 A 
ATOM     65  F   UNL A   1      44.482  24.928  24.941  1.00  0.00    -0.206 F 
ATOM     66  C   UNL A   1      45.455  21.676  23.838  1.00  0.00     0.022 A 
BRANCH  63  67
ATOM     67  S   UNL A   1      45.046  19.090  24.759  1.00  0.00     0.124 S 
ATOM     68  O   UNL A   1      46.363  19.064  25.388  1.00  0.00    -0.237 OA
ATOM     69  O   UNL A   1      43.934  18.605  25.570  1.00  0.00    -0.237 OA
ATOM     70  O   UNL A   1      45.015  18.687  23.355  1.00  0.00    -0.744 OA
ENDBRANCH  63  67
ENDBRANCH  46  60
BRANCH  47  71
ATOM     71  C   UNL A   1      46.811  30.386  27.631  1.00  0.00     0.023 A 
ATOM     72  C   UNL A   1      46.218  31.556  27.106  1.00  0.00     0.031 A 
ATOM     73  C   UNL A   1      48.217  30.396  27.763  1.00  0.00     0.131 A 
ATOM     74  C   UNL A   1      47.020  32.668  26.753  1.00  0.00     0.055 A 
ATOM     75  C   UNL A   1      49.004  31.497  27.416  1.00  0.00     0.041 A 
ATOM     76  F   UNL A   1      48.869  29.364  28.323  1.00  0.00    -0.206 F 
ATOM     77  C   UNL A   1      48.406  32.645  26.921  1.00  0.00     0.022 A 
BRANCH  74  78
ATOM     78  S   UNL A   1      46.258  34.219  26.163  1.00  0.00     0.124 S 
ATOM     79  O   UNL A   1      46.436  35.106  27.306  1.00  0.00    -0.237 OA
ATOM     80  O   UNL A   1      47.043  34.524  24.973  1.00  0.00    -0.237 OA
ATOM     81  O   UNL A   1      44.871  33.835  25.896  1.00  0.00    -0.744 OA
ENDBRANCH  74  78
ENDBRANCH  47  71
BRANCH  59  82
ATOM     82  C   UNL A   1      45.418  25.742  31.672  1.00  0.00     0.023 A 
ATOM     83  C   UNL A   1      46.418  25.518  32.651  1.00  0.00     0.031 A 
ATOM     84  C   UNL A   1      44.328  26.551  32.040  1.00  0.00     0.131 A 
ATOM     85  C   UNL A   1      46.287  26.076  33.940  1.00  0.00     0.055 A 
ATOM     86  C   UNL A   1      44.214  27.121  33.308  1.00  0.00     0.041 A 
ATOM     87  F   UNL A   1      43.353  26.825  31.157  1.00  0.00    -0.206 F 
ATOM     88  C   UNL A   1      45.189  26.878  34.267  1.00  0.00     0.022 A 
BRANCH  85  89
ATOM     89  S   UNL A   1      47.523  25.738  35.240  1.00  0.00     0.124 S 
ATOM     90  O   UNL A   1      48.800  25.932  34.563  1.00  0.00    -0.237 OA
ATOM     91  O   UNL A   1      47.185  26.728  36.259  1.00  0.00    -0.237 OA
ATOM     92  O   UNL A   1      47.241  24.354  35.623  1.00  0.00    -0.744 OA
ENDBRANCH  85  89
ENDBRANCH  59  82
ENDBRANCH  33  34
ENDBRANCH  25  28
ENDBRANCH  23  24
ENDBRANCH   1  23
TORSDOF 16
ENDMDL
