MODEL 1
REMARK VINA RESULT:     -12.1      0.000      0.000
REMARK SMILES COC1CCN(c2nc(C(C)C)c(C(=O)NCCCCNC(=O)c3ccc(-c4c5nc(c(-c6cc(S(=O)(=O)[O-])ccc6F)c6ccc([nH]6)c(-c6cc(S(=O)(=O)[O-])ccc6F)c6nc(c(-c7cc(S(=O)(=O)[O-])ccc7F)c7ccc4[nH]7)C=C6)C=C5)cc3)s2)CC1
REMARK SMILES IDX 19 1 18 2 17 3 16 4 14 5 15 6 13 8 7 9 8 10 87 11 9 12 6 13
REMARK SMILES IDX 3 14 4 15 89 16 5 17 88 18 2 19 1 20 10 21 11 22 12 23 20 24
REMARK SMILES IDX 21 25 22 26 23 28 24 29 25 30 86 31 26 32 85 33 27 34 28 35
REMARK SMILES IDX 29 36 79 37 30 38 84 39 78 40 80 41 31 42 83 43 77 44 76 45
REMARK SMILES IDX 32 47 64 48 44 49 63 50 45 51 48 52 62 53 81 54 46 55 47 56
REMARK SMILES IDX 61 58 82 59 49 60 33 61 34 62 42 63 35 64 41 65 43 66 40 67
REMARK SMILES IDX 36 68 37 69 38 70 39 71 65 72 66 73 74 74 67 75 73 76 75 77
REMARK SMILES IDX 72 78 68 79 69 80 70 81 71 82 50 83 51 84 59 85 52 86 58 87
REMARK SMILES IDX 60 88 57 89 53 90 54 91 55 92 56 93
REMARK H PARENT 16 7 21 27 80 46 48 57
REMARK Flexibility Score: inf
ROOT
ATOM      1  C   UNL A   1      35.553  20.710  25.325  1.00  0.00     0.023 C 
ENDROOT
BRANCH   1   2
ATOM      2  C   UNL A   1      34.560  21.480  26.185  1.00  0.00     0.023 C 
BRANCH   2   3
ATOM      3  C   UNL A   1      33.144  21.528  25.618  1.00  0.00     0.116 C 
BRANCH   3   4
ATOM      4  N   UNL A   1      32.257  22.253  26.477  1.00  0.00    -0.351 N 
ATOM      5  C   UNL A   1      31.642  23.470  26.445  1.00  0.00     0.263 C 
ATOM      6  O   UNL A   1      30.912  23.605  27.441  1.00  0.00    -0.268 OA
ATOM      7  H   UNL A   1      32.036  21.748  27.293  1.00  0.00     0.163 HD
BRANCH   5   8
ATOM      8  C   UNL A   1      31.772  24.527  25.437  1.00  0.00     0.117 A 
ATOM      9  C   UNL A   1      31.005  26.600  24.303  1.00  0.00     0.186 A 
ATOM     10  N   UNL A   1      32.204  26.271  23.908  1.00  0.00    -0.224 NA
ATOM     11  S   UNL A   1      30.257  25.390  25.237  1.00  0.00    -0.091 S 
ATOM     12  C   UNL A   1      32.691  25.131  24.565  1.00  0.00     0.069 A 
BRANCH   9  13
ATOM     13  N   UNL A   1      30.378  27.764  23.987  1.00  0.00    -0.348 N 
ATOM     14  C   UNL A   1      29.133  30.234  23.206  1.00  0.00     0.121 C 
ATOM     15  C   UNL A   1      30.374  30.192  24.099  1.00  0.00     0.053 C 
ATOM     16  C   UNL A   1      28.317  28.952  23.415  1.00  0.00     0.053 C 
ATOM     17  C   UNL A   1      31.202  28.956  23.785  1.00  0.00     0.121 C 
ATOM     18  C   UNL A   1      29.164  27.699  23.174  1.00  0.00     0.121 C 
BRANCH  14  19
ATOM     19  O   UNL A   1      29.462  30.312  21.813  1.00  0.00    -0.381 OA
ATOM     20  C   UNL A   1      28.432  30.844  20.993  1.00  0.00     0.195 C 
ENDBRANCH  14  19
ENDBRANCH   9  13
BRANCH  12  21
ATOM     21  C   UNL A   1      34.140  24.896  24.214  1.00  0.00     0.034 C 
ATOM     22  C   UNL A   1      35.044  24.826  25.445  1.00  0.00     0.014 C 
ATOM     23  C   UNL A   1      34.351  23.835  23.130  1.00  0.00     0.014 C 
ENDBRANCH  12  21
ENDBRANCH   5   8
ENDBRANCH   3   4
ENDBRANCH   2   3
ENDBRANCH   1   2
BRANCH   1  24
ATOM     24  C   UNL A   1      36.973  21.261  25.338  1.00  0.00     0.116 C 
BRANCH  24  25
ATOM     25  N   UNL A   1      38.017  20.245  25.338  1.00  0.00    -0.352 N 
ATOM     26  C   UNL A   1      39.293  20.356  25.857  1.00  0.00     0.251 C 
ATOM     27  H   UNL A   1      37.788  19.382  24.921  1.00  0.00     0.163 HD
ATOM     28  O   UNL A   1      40.099  19.449  25.749  1.00  0.00    -0.269 OA
BRANCH  26  29
ATOM     29  C   UNL A   1      39.656  21.641  26.490  1.00  0.00     0.039 A 
ATOM     30  C   UNL A   1      40.667  21.657  27.451  1.00  0.00     0.014 A 
ATOM     31  C   UNL A   1      39.123  22.829  25.986  1.00  0.00     0.014 A 
ATOM     32  C   UNL A   1      41.217  22.879  27.836  1.00  0.00     0.010 A 
ATOM     33  C   UNL A   1      39.738  24.033  26.300  1.00  0.00     0.010 A 
ATOM     34  C   UNL A   1      40.800  24.070  27.220  1.00  0.00    -0.014 A 
BRANCH  34  35
ATOM     35  C   UNL A   1      41.459  25.369  27.511  1.00  0.00     0.031 A 
ATOM     36  C   UNL A   1      40.727  26.414  28.306  1.00  0.00     0.074 A 
ATOM     37  C   UNL A   1      42.669  25.644  26.983  1.00  0.00     0.049 A 
ATOM     38  N   UNL A   1      41.073  27.645  28.578  1.00  0.00    -0.248 NA
ATOM     39  C   UNL A   1      39.403  26.033  28.819  1.00  0.00     0.031 C 
ATOM     40  C   UNL A   1      43.456  24.736  26.143  1.00  0.00     0.029 A 
ATOM     41  N   UNL A   1      43.450  26.769  27.070  1.00  0.00    -0.354 N 
ATOM     42  C   UNL A   1      39.997  28.195  29.266  1.00  0.00     0.074 A 
ATOM     43  C   UNL A   1      38.961  27.184  29.297  1.00  0.00     0.031 C 
ATOM     44  C   UNL A   1      44.622  25.325  25.830  1.00  0.00     0.029 A 
ATOM     45  C   UNL A   1      44.650  26.666  26.406  1.00  0.00     0.049 A 
ATOM     46  H   UNL A   1      43.175  27.576  27.563  1.00  0.00     0.167 HD
ATOM     47  C   UNL A   1      39.892  29.417  29.847  1.00  0.00     0.034 A 
ATOM     48  C   UNL A   1      45.656  27.552  26.278  1.00  0.00     0.034 A 
ATOM     49  C   UNL A   1      40.949  30.398  29.834  1.00  0.00     0.049 A 
ATOM     50  C   UNL A   1      45.524  28.903  26.931  1.00  0.00     0.074 A 
ATOM     51  C   UNL A   1      40.989  31.633  30.455  1.00  0.00     0.029 A 
ATOM     52  N   UNL A   1      42.156  30.254  29.160  1.00  0.00    -0.354 N 
ATOM     53  N   UNL A   1      44.525  29.388  27.631  1.00  0.00    -0.248 NA
ATOM     54  C   UNL A   1      46.658  29.822  26.780  1.00  0.00     0.031 C 
ATOM     55  C   UNL A   1      42.194  32.258  30.111  1.00  0.00     0.029 A 
ATOM     56  C   UNL A   1      42.935  31.388  29.327  1.00  0.00     0.049 A 
ATOM     57  H   UNL A   1      42.419  29.461  28.638  1.00  0.00     0.167 HD
ATOM     58  C   UNL A   1      44.926  30.659  28.032  1.00  0.00     0.074 A 
ATOM     59  C   UNL A   1      46.260  30.860  27.500  1.00  0.00     0.031 C 
ATOM     60  C   UNL A   1      44.258  31.575  28.779  1.00  0.00     0.034 A 
BRANCH  47  61
ATOM     61  C   UNL A   1      38.579  29.746  30.518  1.00  0.00     0.023 A 
ATOM     62  C   UNL A   1      37.607  30.541  29.883  1.00  0.00     0.031 A 
ATOM     63  C   UNL A   1      38.325  29.327  31.836  1.00  0.00     0.131 A 
ATOM     64  C   UNL A   1      36.490  30.989  30.602  1.00  0.00     0.055 A 
ATOM     65  C   UNL A   1      37.159  29.695  32.513  1.00  0.00     0.041 A 
ATOM     66  F   UNL A   1      39.220  28.581  32.501  1.00  0.00    -0.206 F 
ATOM     67  C   UNL A   1      36.245  30.551  31.904  1.00  0.00     0.022 A 
BRANCH  64  68
ATOM     68  S   UNL A   1      35.472  32.304  29.877  1.00  0.00     0.124 S 
ATOM     69  O   UNL A   1      36.425  33.408  29.807  1.00  0.00    -0.237 OA
ATOM     70  O   UNL A   1      35.072  31.724  28.600  1.00  0.00    -0.237 OA
ATOM     71  O   UNL A   1      34.396  32.480  30.848  1.00  0.00    -0.744 OA
ENDBRANCH  64  68
ENDBRANCH  47  61
BRANCH  48  72
ATOM     72  C   UNL A   1      46.887  27.194  25.520  1.00  0.00     0.023 A 
ATOM     73  C   UNL A   1      47.079  27.659  24.209  1.00  0.00     0.031 A 
ATOM     74  C   UNL A   1      47.873  26.361  26.078  1.00  0.00     0.131 A 
ATOM     75  C   UNL A   1      48.210  27.256  23.481  1.00  0.00     0.055 A 
ATOM     76  C   UNL A   1      49.018  25.997  25.365  1.00  0.00     0.041 A 
ATOM     77  F   UNL A   1      47.742  25.899  27.331  1.00  0.00    -0.206 F 
ATOM     78  C   UNL A   1      49.186  26.436  24.054  1.00  0.00     0.022 A 
BRANCH  75  79
ATOM     79  S   UNL A   1      48.358  27.774  21.750  1.00  0.00     0.124 S 
ATOM     80  O   UNL A   1      48.553  26.497  21.073  1.00  0.00    -0.237 OA
ATOM     81  O   UNL A   1      47.077  28.435  21.521  1.00  0.00    -0.237 OA
ATOM     82  O   UNL A   1      49.520  28.661  21.759  1.00  0.00    -0.744 OA
ENDBRANCH  75  79
ENDBRANCH  48  72
BRANCH  60  83
ATOM     83  C   UNL A   1      44.988  32.854  29.099  1.00  0.00     0.023 A 
ATOM     84  C   UNL A   1      44.830  34.011  28.317  1.00  0.00     0.031 A 
ATOM     85  C   UNL A   1      45.864  32.909  30.198  1.00  0.00     0.131 A 
ATOM     86  C   UNL A   1      45.578  35.160  28.614  1.00  0.00     0.055 A 
ATOM     87  C   UNL A   1      46.565  34.071  30.521  1.00  0.00     0.041 A 
ATOM     88  F   UNL A   1      46.051  31.831  30.976  1.00  0.00    -0.206 F 
ATOM     89  C   UNL A   1      46.433  35.202  29.719  1.00  0.00     0.022 A 
BRANCH  86  90
ATOM     90  S   UNL A   1      45.483  36.577  27.487  1.00  0.00     0.124 S 
ATOM     91  O   UNL A   1      45.868  37.684  28.357  1.00  0.00    -0.237 OA
ATOM     92  O   UNL A   1      46.445  36.218  26.450  1.00  0.00    -0.237 OA
ATOM     93  O   UNL A   1      44.085  36.583  27.058  1.00  0.00    -0.744 OA
ENDBRANCH  86  90
ENDBRANCH  60  83
ENDBRANCH  34  35
ENDBRANCH  26  29
ENDBRANCH  24  25
ENDBRANCH   1  24
TORSDOF 17
ENDMDL
MODEL 2
REMARK VINA RESULT:     -11.9      0.765      7.522
REMARK SMILES COC1CCN(c2nc(C(C)C)c(C(=O)NCCCCNC(=O)c3ccc(-c4c5nc(c(-c6cc(S(=O)(=O)[O-])ccc6F)c6ccc([nH]6)c(-c6cc(S(=O)(=O)[O-])ccc6F)c6nc(c(-c7cc(S(=O)(=O)[O-])ccc7F)c7ccc4[nH]7)C=C6)C=C5)cc3)s2)CC1
REMARK SMILES IDX 19 1 18 2 17 3 16 4 14 5 15 6 13 8 7 9 8 10 87 11 9 12 6 13
REMARK SMILES IDX 3 14 4 15 89 16 5 17 88 18 2 19 1 20 10 21 11 22 12 23 20 24
REMARK SMILES IDX 21 25 22 26 23 28 24 29 25 30 86 31 26 32 85 33 27 34 28 35
REMARK SMILES IDX 29 36 79 37 30 38 84 39 78 40 80 41 31 42 83 43 77 44 76 45
REMARK SMILES IDX 32 47 64 48 44 49 63 50 45 51 48 52 62 53 81 54 46 55 47 56
REMARK SMILES IDX 61 58 82 59 49 60 33 61 34 62 42 63 35 64 41 65 43 66 40 67
REMARK SMILES IDX 36 68 37 69 38 70 39 71 65 72 66 73 74 74 67 75 73 76 75 77
REMARK SMILES IDX 72 78 68 79 69 80 70 81 71 82 50 83 51 84 59 85 52 86 58 87
REMARK SMILES IDX 60 88 57 89 53 90 54 91 55 92 56 93
REMARK H PARENT 16 7 21 27 80 46 48 57
REMARK Flexibility Score: inf
ROOT
ATOM      1  C   UNL A   1      36.149  20.801  25.280  1.00  0.00     0.023 C 
ENDROOT
BRANCH   1   2
ATOM      2  C   UNL A   1      35.145  21.563  26.134  1.00  0.00     0.023 C 
BRANCH   2   3
ATOM      3  C   UNL A   1      33.694  21.142  25.920  1.00  0.00     0.116 C 
BRANCH   3   4
ATOM      4  N   UNL A   1      32.802  21.878  26.765  1.00  0.00    -0.351 N 
ATOM      5  C   UNL A   1      32.014  22.984  26.629  1.00  0.00     0.263 C 
ATOM      6  O   UNL A   1      31.378  23.186  27.677  1.00  0.00    -0.268 OA
ATOM      7  H   UNL A   1      32.743  21.491  27.669  1.00  0.00     0.163 HD
BRANCH   5   8
ATOM      8  C   UNL A   1      31.883  23.867  25.466  1.00  0.00     0.117 A 
ATOM      9  C   UNL A   1      31.070  25.928  24.342  1.00  0.00     0.186 A 
ATOM     10  N   UNL A   1      31.915  25.287  23.583  1.00  0.00    -0.224 NA
ATOM     11  S   UNL A   1      30.594  25.033  25.709  1.00  0.00    -0.091 S 
ATOM     12  C   UNL A   1      32.435  24.142  24.206  1.00  0.00     0.069 A 
BRANCH   9  13
ATOM     13  N   UNL A   1      30.574  27.166  24.077  1.00  0.00    -0.348 N 
ATOM     14  C   UNL A   1      29.617  29.793  23.410  1.00  0.00     0.121 C 
ATOM     15  C   UNL A   1      30.772  29.568  24.386  1.00  0.00     0.053 C 
ATOM     16  C   UNL A   1      28.678  28.579  23.453  1.00  0.00     0.053 C 
ATOM     17  C   UNL A   1      31.512  28.287  24.034  1.00  0.00     0.121 C 
ATOM     18  C   UNL A   1      29.429  27.275  23.173  1.00  0.00     0.121 C 
BRANCH  14  19
ATOM     19  O   UNL A   1      30.064  29.943  22.056  1.00  0.00    -0.381 OA
ATOM     20  C   UNL A   1      29.165  30.651  21.215  1.00  0.00     0.195 C 
ENDBRANCH  14  19
ENDBRANCH   9  13
BRANCH  12  21
ATOM     21  C   UNL A   1      33.538  23.539  23.370  1.00  0.00     0.034 C 
ATOM     22  C   UNL A   1      33.142  23.360  21.905  1.00  0.00     0.014 C 
ATOM     23  C   UNL A   1      34.922  24.131  23.654  1.00  0.00     0.014 C 
ENDBRANCH  12  21
ENDBRANCH   5   8
ENDBRANCH   3   4
ENDBRANCH   2   3
ENDBRANCH   1   2
BRANCH   1  24
ATOM     24  C   UNL A   1      37.551  21.396  25.257  1.00  0.00     0.116 C 
BRANCH  24  25
ATOM     25  N   UNL A   1      38.621  20.434  25.488  1.00  0.00    -0.352 N 
ATOM     26  C   UNL A   1      39.796  20.642  26.185  1.00  0.00     0.251 C 
ATOM     27  H   UNL A   1      38.493  19.536  25.105  1.00  0.00     0.163 HD
ATOM     28  O   UNL A   1      40.644  19.771  26.266  1.00  0.00    -0.269 OA
BRANCH  26  29
ATOM     29  C   UNL A   1      40.007  21.982  26.771  1.00  0.00     0.039 A 
ATOM     30  C   UNL A   1      40.973  22.138  27.766  1.00  0.00     0.014 A 
ATOM     31  C   UNL A   1      39.382  23.090  26.194  1.00  0.00     0.014 A 
ATOM     32  C   UNL A   1      41.386  23.423  28.115  1.00  0.00     0.010 A 
ATOM     33  C   UNL A   1      39.865  24.360  26.476  1.00  0.00     0.010 A 
ATOM     34  C   UNL A   1      40.880  24.541  27.430  1.00  0.00    -0.014 A 
BRANCH  34  35
ATOM     35  C   UNL A   1      41.398  25.910  27.685  1.00  0.00     0.031 A 
ATOM     36  C   UNL A   1      42.761  26.295  27.183  1.00  0.00     0.074 A 
ATOM     37  C   UNL A   1      40.687  26.769  28.443  1.00  0.00     0.049 A 
ATOM     38  N   UNL A   1      43.443  27.392  27.386  1.00  0.00    -0.248 NA
ATOM     39  C   UNL A   1      43.472  25.284  26.385  1.00  0.00     0.031 C 
ATOM     40  C   UNL A   1      39.377  26.493  29.041  1.00  0.00     0.029 A 
ATOM     41  N   UNL A   1      40.968  28.050  28.848  1.00  0.00    -0.354 N 
ATOM     42  C   UNL A   1      44.673  27.191  26.770  1.00  0.00     0.074 A 
ATOM     43  C   UNL A   1      44.665  25.837  26.256  1.00  0.00     0.031 C 
ATOM     44  C   UNL A   1      38.953  27.585  29.697  1.00  0.00     0.029 A 
ATOM     45  C   UNL A   1      39.975  28.623  29.607  1.00  0.00     0.049 A 
ATOM     46  H   UNL A   1      41.805  28.515  28.615  1.00  0.00     0.167 HD
ATOM     47  C   UNL A   1      45.702  28.062  26.617  1.00  0.00     0.034 A 
ATOM     48  C   UNL A   1      39.899  29.847  30.166  1.00  0.00     0.034 A 
ATOM     49  C   UNL A   1      45.676  29.418  27.107  1.00  0.00     0.049 A 
ATOM     50  C   UNL A   1      41.050  30.803  29.985  1.00  0.00     0.074 A 
ATOM     51  C   UNL A   1      46.621  30.414  26.942  1.00  0.00     0.029 A 
ATOM     52  N   UNL A   1      44.648  29.968  27.863  1.00  0.00    -0.354 N 
ATOM     53  N   UNL A   1      42.183  30.620  29.347  1.00  0.00    -0.248 NA
ATOM     54  C   UNL A   1      40.907  32.130  30.594  1.00  0.00     0.031 C 
ATOM     55  C   UNL A   1      46.191  31.547  27.645  1.00  0.00     0.029 A 
ATOM     56  C   UNL A   1      44.947  31.280  28.196  1.00  0.00     0.049 A 
ATOM     57  H   UNL A   1      43.825  29.494  28.126  1.00  0.00     0.167 HD
ATOM     58  C   UNL A   1      42.874  31.823  29.451  1.00  0.00     0.074 A 
ATOM     59  C   UNL A   1      42.026  32.725  30.208  1.00  0.00     0.031 C 
ATOM     60  C   UNL A   1      44.095  32.159  28.960  1.00  0.00     0.034 A 
BRANCH  47  61
ATOM     61  C   UNL A   1      46.934  27.549  25.910  1.00  0.00     0.023 A 
ATOM     62  C   UNL A   1      47.245  27.942  24.595  1.00  0.00     0.031 A 
ATOM     63  C   UNL A   1      47.767  26.598  26.524  1.00  0.00     0.131 A 
ATOM     64  C   UNL A   1      48.281  27.303  23.899  1.00  0.00     0.055 A 
ATOM     65  C   UNL A   1      48.860  26.038  25.859  1.00  0.00     0.041 A 
ATOM     66  F   UNL A   1      47.514  26.170  27.771  1.00  0.00    -0.206 F 
ATOM     67  C   UNL A   1      49.109  26.372  24.530  1.00  0.00     0.022 A 
BRANCH  64  68
ATOM     68  S   UNL A   1      48.403  27.564  22.108  1.00  0.00     0.124 S 
ATOM     69  O   UNL A   1      47.104  28.162  21.810  1.00  0.00    -0.237 OA
ATOM     70  O   UNL A   1      49.556  28.450  21.997  1.00  0.00    -0.237 OA
ATOM     71  O   UNL A   1      48.597  26.217  21.577  1.00  0.00    -0.744 OA
ENDBRANCH  64  68
ENDBRANCH  47  61
BRANCH  48  72
ATOM     72  C   UNL A   1      38.690  30.254  30.933  1.00  0.00     0.023 A 
ATOM     73  C   UNL A   1      37.666  30.990  30.313  1.00  0.00     0.031 A 
ATOM     74  C   UNL A   1      38.550  29.945  32.297  1.00  0.00     0.131 A 
ATOM     75  C   UNL A   1      36.565  31.428  31.065  1.00  0.00     0.055 A 
ATOM     76  C   UNL A   1      37.432  30.346  33.031  1.00  0.00     0.041 A 
ATOM     77  F   UNL A   1      39.494  29.234  32.932  1.00  0.00    -0.206 F 
ATOM     78  C   UNL A   1      36.436  31.102  32.418  1.00  0.00     0.022 A 
BRANCH  75  79
ATOM     79  S   UNL A   1      35.328  32.482  30.261  1.00  0.00     0.124 S 
ATOM     80  O   UNL A   1      36.110  33.673  29.949  1.00  0.00    -0.237 OA
ATOM     81  O   UNL A   1      34.925  31.662  29.123  1.00  0.00    -0.237 OA
ATOM     82  O   UNL A   1      34.307  32.657  31.292  1.00  0.00    -0.744 OA
ENDBRANCH  75  79
ENDBRANCH  48  72
BRANCH  60  83
ATOM     83  C   UNL A   1      44.555  33.575  29.191  1.00  0.00     0.023 A 
ATOM     84  C   UNL A   1      44.137  34.633  28.364  1.00  0.00     0.031 A 
ATOM     85  C   UNL A   1      45.435  33.866  30.249  1.00  0.00     0.131 A 
ATOM     86  C   UNL A   1      44.641  35.924  28.578  1.00  0.00     0.055 A 
ATOM     87  C   UNL A   1      45.890  35.163  30.489  1.00  0.00     0.041 A 
ATOM     88  F   UNL A   1      45.865  32.892  31.067  1.00  0.00    -0.206 F 
ATOM     89  C   UNL A   1      45.503  36.199  29.643  1.00  0.00     0.022 A 
BRANCH  86  90
ATOM     90  S   UNL A   1      44.219  37.230  27.392  1.00  0.00     0.124 S 
ATOM     91  O   UNL A   1      43.761  38.302  28.271  1.00  0.00    -0.237 OA
ATOM     92  O   UNL A   1      45.492  37.462  26.717  1.00  0.00    -0.237 OA
ATOM     93  O   UNL A   1      43.181  36.621  26.563  1.00  0.00    -0.744 OA
ENDBRANCH  86  90
ENDBRANCH  60  83
ENDBRANCH  34  35
ENDBRANCH  26  29
ENDBRANCH  24  25
ENDBRANCH   1  24
TORSDOF 17
ENDMDL
MODEL 3
REMARK VINA RESULT:     -11.8      4.883      7.945
REMARK SMILES COC1CCN(c2nc(C(C)C)c(C(=O)NCCCCNC(=O)c3ccc(-c4c5nc(c(-c6cc(S(=O)(=O)[O-])ccc6F)c6ccc([nH]6)c(-c6cc(S(=O)(=O)[O-])ccc6F)c6nc(c(-c7cc(S(=O)(=O)[O-])ccc7F)c7ccc4[nH]7)C=C6)C=C5)cc3)s2)CC1
REMARK SMILES IDX 19 1 18 2 17 3 16 4 14 5 15 6 13 8 7 9 8 10 87 11 9 12 6 13
REMARK SMILES IDX 3 14 4 15 89 16 5 17 88 18 2 19 1 20 10 21 11 22 12 23 20 24
REMARK SMILES IDX 21 25 22 26 23 28 24 29 25 30 86 31 26 32 85 33 27 34 28 35
REMARK SMILES IDX 29 36 79 37 30 38 84 39 78 40 80 41 31 42 83 43 77 44 76 45
REMARK SMILES IDX 32 47 64 48 44 49 63 50 45 51 48 52 62 53 81 54 46 55 47 56
REMARK SMILES IDX 61 58 82 59 49 60 33 61 34 62 42 63 35 64 41 65 43 66 40 67
REMARK SMILES IDX 36 68 37 69 38 70 39 71 65 72 66 73 74 74 67 75 73 76 75 77
REMARK SMILES IDX 72 78 68 79 69 80 70 81 71 82 50 83 51 84 59 85 52 86 58 87
REMARK SMILES IDX 60 88 57 89 53 90 54 91 55 92 56 93
REMARK H PARENT 16 7 21 27 80 46 48 57
REMARK Flexibility Score: inf
ROOT
ATOM      1  C   UNL A   1      32.016  29.439  25.167  1.00  0.00     0.023 C 
ENDROOT
BRANCH   1   2
ATOM      2  C   UNL A   1      32.485  28.952  23.803  1.00  0.00     0.023 C 
BRANCH   2   3
ATOM      3  C   UNL A   1      31.668  27.793  23.237  1.00  0.00     0.116 C 
BRANCH   3   4
ATOM      4  N   UNL A   1      32.425  27.027  22.293  1.00  0.00    -0.351 N 
ATOM      5  C   UNL A   1      32.920  25.757  22.237  1.00  0.00     0.263 C 
ATOM      6  O   UNL A   1      33.477  25.565  21.144  1.00  0.00    -0.268 OA
ATOM      7  H   UNL A   1      32.643  27.545  21.484  1.00  0.00     0.163 HD
BRANCH   5   8
ATOM      8  C   UNL A   1      32.860  24.713  23.266  1.00  0.00     0.117 A 
ATOM      9  C   UNL A   1      33.026  22.354  24.026  1.00  0.00     0.186 A 
ATOM     10  N   UNL A   1      32.932  23.164  25.043  1.00  0.00    -0.224 NA
ATOM     11  S   UNL A   1      32.737  23.122  22.535  1.00  0.00    -0.091 S 
ATOM     12  C   UNL A   1      32.887  24.512  24.654  1.00  0.00     0.069 A 
BRANCH   9  13
ATOM     13  N   UNL A   1      33.289  21.023  24.117  1.00  0.00    -0.348 N 
ATOM     14  C   UNL A   1      33.801  18.214  24.442  1.00  0.00     0.121 C 
ATOM     15  C   UNL A   1      34.854  19.277  24.755  1.00  0.00     0.053 C 
ATOM     16  C   UNL A   1      32.863  18.740  23.348  1.00  0.00     0.053 C 
ATOM     17  C   UNL A   1      34.179  20.570  25.185  1.00  0.00     0.121 C 
ATOM     18  C   UNL A   1      32.235  20.081  23.741  1.00  0.00     0.121 C 
BRANCH  14  19
ATOM     19  O   UNL A   1      32.994  17.889  25.581  1.00  0.00    -0.381 OA
ATOM     20  C   UNL A   1      32.558  16.538  25.628  1.00  0.00     0.195 C 
ENDBRANCH  14  19
ENDBRANCH   9  13
BRANCH  12  21
ATOM     21  C   UNL A   1      32.964  25.415  25.861  1.00  0.00     0.034 C 
ATOM     22  C   UNL A   1      34.121  26.409  25.784  1.00  0.00     0.014 C 
ATOM     23  C   UNL A   1      31.605  25.956  26.317  1.00  0.00     0.014 C 
ENDBRANCH  12  21
ENDBRANCH   5   8
ENDBRANCH   3   4
ENDBRANCH   2   3
ENDBRANCH   1   2
BRANCH   1  24
ATOM     24  C   UNL A   1      33.130  29.887  26.104  1.00  0.00     0.116 C 
BRANCH  24  25
ATOM     25  N   UNL A   1      32.867  31.137  26.804  1.00  0.00    -0.352 N 
ATOM     26  C   UNL A   1      33.718  31.813  27.658  1.00  0.00     0.251 C 
ATOM     27  H   UNL A   1      31.984  31.546  26.653  1.00  0.00     0.163 HD
ATOM     28  O   UNL A   1      33.364  32.830  28.228  1.00  0.00    -0.269 OA
BRANCH  26  29
ATOM     29  C   UNL A   1      35.050  31.219  27.895  1.00  0.00     0.039 A 
ATOM     30  C   UNL A   1      36.152  32.065  28.023  1.00  0.00     0.014 A 
ATOM     31  C   UNL A   1      35.153  29.855  28.176  1.00  0.00     0.014 A 
ATOM     32  C   UNL A   1      37.345  31.553  28.533  1.00  0.00     0.010 A 
ATOM     33  C   UNL A   1      36.310  29.374  28.773  1.00  0.00     0.010 A 
ATOM     34  C   UNL A   1      37.415  30.219  28.969  1.00  0.00    -0.014 A 
BRANCH  34  35
ATOM     35  C   UNL A   1      38.626  29.682  29.640  1.00  0.00     0.031 A 
ATOM     36  C   UNL A   1      39.014  30.196  30.998  1.00  0.00     0.074 A 
ATOM     37  C   UNL A   1      39.423  28.807  28.993  1.00  0.00     0.049 A 
ATOM     38  N   UNL A   1      40.083  29.943  31.708  1.00  0.00    -0.248 NA
ATOM     39  C   UNL A   1      38.096  31.165  31.615  1.00  0.00     0.031 C 
ATOM     40  C   UNL A   1      39.188  28.278  27.646  1.00  0.00     0.029 A 
ATOM     41  N   UNL A   1      40.598  28.212  29.378  1.00  0.00    -0.354 N 
ATOM     42  C   UNL A   1      39.981  30.746  32.840  1.00  0.00     0.074 A 
ATOM     43  C   UNL A   1      38.786  31.547  32.676  1.00  0.00     0.031 C 
ATOM     44  C   UNL A   1      40.164  27.408  27.338  1.00  0.00     0.029 A 
ATOM     45  C   UNL A   1      41.116  27.348  28.442  1.00  0.00     0.049 A 
ATOM     46  H   UNL A   1      41.030  28.389  30.245  1.00  0.00     0.167 HD
ATOM     47  C   UNL A   1      40.790  30.789  33.928  1.00  0.00     0.034 A 
ATOM     48  C   UNL A   1      42.232  26.593  28.473  1.00  0.00     0.034 A 
ATOM     49  C   UNL A   1      41.958  29.959  34.086  1.00  0.00     0.049 A 
ATOM     50  C   UNL A   1      43.118  26.653  29.691  1.00  0.00     0.074 A 
ATOM     51  C   UNL A   1      42.804  29.856  35.175  1.00  0.00     0.029 A 
ATOM     52  N   UNL A   1      42.446  29.086  33.121  1.00  0.00    -0.354 N 
ATOM     53  N   UNL A   1      42.977  27.371  30.780  1.00  0.00    -0.248 NA
ATOM     54  C   UNL A   1      44.308  25.794  29.683  1.00  0.00     0.031 C 
ATOM     55  C   UNL A   1      43.834  28.966  34.848  1.00  0.00     0.029 A 
ATOM     56  C   UNL A   1      43.597  28.463  33.578  1.00  0.00     0.049 A 
ATOM     57  H   UNL A   1      42.035  28.933  32.239  1.00  0.00     0.167 HD
ATOM     58  C   UNL A   1      44.045  27.026  31.602  1.00  0.00     0.074 A 
ATOM     59  C   UNL A   1      44.816  26.030  30.883  1.00  0.00     0.031 C 
ATOM     60  C   UNL A   1      44.358  27.482  32.842  1.00  0.00     0.034 A 
BRANCH  47  61
ATOM     61  C   UNL A   1      40.433  31.786  35.006  1.00  0.00     0.023 A 
ATOM     62  C   UNL A   1      39.568  31.449  36.063  1.00  0.00     0.031 A 
ATOM     63  C   UNL A   1      40.899  33.110  34.938  1.00  0.00     0.131 A 
ATOM     64  C   UNL A   1      39.104  32.445  36.933  1.00  0.00     0.055 A 
ATOM     65  C   UNL A   1      40.511  34.076  35.870  1.00  0.00     0.041 A 
ATOM     66  F   UNL A   1      41.714  33.499  33.944  1.00  0.00    -0.206 F 
ATOM     67  C   UNL A   1      39.589  33.752  36.861  1.00  0.00     0.022 A 
BRANCH  64  68
ATOM     68  S   UNL A   1      37.714  32.049  38.030  1.00  0.00     0.124 S 
ATOM     69  O   UNL A   1      38.307  32.269  39.347  1.00  0.00    -0.237 OA
ATOM     70  O   UNL A   1      36.702  33.014  37.616  1.00  0.00    -0.237 OA
ATOM     71  O   UNL A   1      37.415  30.655  37.715  1.00  0.00    -0.744 OA
ENDBRANCH  64  68
ENDBRANCH  47  61
BRANCH  48  72
ATOM     72  C   UNL A   1      42.573  25.701  27.331  1.00  0.00     0.023 A 
ATOM     73  C   UNL A   1      42.168  24.356  27.329  1.00  0.00     0.031 A 
ATOM     74  C   UNL A   1      43.333  26.164  26.242  1.00  0.00     0.131 A 
ATOM     75  C   UNL A   1      42.556  23.509  26.280  1.00  0.00     0.055 A 
ATOM     76  C   UNL A   1      43.681  25.328  25.179  1.00  0.00     0.041 A 
ATOM     77  F   UNL A   1      43.735  27.443  26.191  1.00  0.00    -0.206 F 
ATOM     78  C   UNL A   1      43.302  23.988  25.200  1.00  0.00     0.022 A 
BRANCH  75  79
ATOM     79  S   UNL A   1      42.120  21.751  26.378  1.00  0.00     0.124 S 
ATOM     80  O   UNL A   1      42.324  21.472  27.794  1.00  0.00    -0.237 OA
ATOM     81  O   UNL A   1      40.736  21.757  25.916  1.00  0.00    -0.237 OA
ATOM     82  O   UNL A   1      43.073  21.113  25.471  1.00  0.00    -0.744 OA
ENDBRANCH  75  79
ENDBRANCH  48  72
BRANCH  60  83
ATOM     83  C   UNL A   1      45.562  26.866  33.509  1.00  0.00     0.023 A 
ATOM     84  C   UNL A   1      46.846  27.422  33.376  1.00  0.00     0.031 A 
ATOM     85  C   UNL A   1      45.419  25.698  34.279  1.00  0.00     0.131 A 
ATOM     86  C   UNL A   1      47.946  26.778  33.962  1.00  0.00     0.055 A 
ATOM     87  C   UNL A   1      46.509  25.093  34.904  1.00  0.00     0.041 A 
ATOM     88  F   UNL A   1      44.214  25.127  34.436  1.00  0.00    -0.206 F 
ATOM     89  C   UNL A   1      47.785  25.626  34.737  1.00  0.00     0.022 A 
BRANCH  86  90
ATOM     90  S   UNL A   1      49.609  27.422  33.630  1.00  0.00     0.124 S 
ATOM     91  O   UNL A   1      49.874  26.903  32.292  1.00  0.00    -0.237 OA
ATOM     92  O   UNL A   1      49.411  28.864  33.726  1.00  0.00    -0.237 OA
ATOM     93  O   UNL A   1      50.423  26.837  34.695  1.00  0.00    -0.744 OA
ENDBRANCH  86  90
ENDBRANCH  60  83
ENDBRANCH  34  35
ENDBRANCH  26  29
ENDBRANCH  24  25
ENDBRANCH   1  24
TORSDOF 17
ENDMDL
