MODEL 1
REMARK VINA RESULT:     -12.0      0.000      0.000
REMARK SMILES COCc1cccc(C(=O)N2C[C@@H](O)C[C@@H]2C(=O)NCCCCNC(=O)c2ccc(-c3c4nc(c(-c5cc(S(=O)(=O)[O-])ccc5F)c5ccc([nH]5)c(-c5cc(S(=O)(=O)[O-])ccc5F)c5nc(c(-c6cc(S(=O)(=O)[O-])ccc6F)c6ccc3[nH]6)C=C5)C=C4)cc2)c1
REMARK SMILES IDX 21 1 20 2 19 3 17 4 18 5 16 7 11 8 12 9 13 10 15 11 9 12
REMARK SMILES IDX 10 13 8 14 4 15 5 16 90 17 6 18 7 19 3 20 2 21 1 22 14 23
REMARK SMILES IDX 22 25 23 26 24 27 25 28 26 30 27 31 28 32 89 33 29 34 88 35
REMARK SMILES IDX 30 36 31 37 32 38 82 39 33 40 87 41 81 42 83 43 34 44 86 45
REMARK SMILES IDX 80 46 79 47 35 49 67 50 47 51 66 52 48 53 51 54 65 55 84 56
REMARK SMILES IDX 49 57 50 58 64 60 85 61 52 62 36 63 37 64 45 65 38 66 44 67
REMARK SMILES IDX 46 68 43 69 39 70 40 71 41 72 42 73 68 74 69 75 77 76 70 77
REMARK SMILES IDX 76 78 78 79 75 80 71 81 72 82 73 83 74 84 53 85 54 86 62 87
REMARK SMILES IDX 55 88 61 89 63 90 60 91 56 92 57 93 58 94 59 95
REMARK H PARENT 19 6 14 24 24 29 83 48 51 59
REMARK Flexibility Score: inf
ROOT
ATOM      1  C   UNL A   1      32.107  28.027  27.370  1.00  0.00     0.023 C 
ENDROOT
BRANCH   1   2
ATOM      2  C   UNL A   1      32.005  26.916  26.339  1.00  0.00     0.116 C 
BRANCH   2   3
ATOM      3  N   UNL A   1      31.334  25.718  26.769  1.00  0.00    -0.354 N 
ATOM      4  C   UNL A   1      31.785  24.428  26.705  1.00  0.00     0.242 C 
ATOM      5  O   UNL A   1      31.071  23.566  27.234  1.00  0.00    -0.273 OA
ATOM      6  H   UNL A   1      30.438  25.842  27.158  1.00  0.00     0.163 HD
BRANCH   4   7
ATOM      7  C   UNL A   1      32.986  23.984  25.821  1.00  0.00     0.177 C 
ATOM      8  N   UNL A   1      32.809  22.953  24.787  1.00  0.00    -0.324 N 
ATOM      9  C   UNL A   1      33.872  21.966  24.885  1.00  0.00     0.152 C 
ATOM     10  C   UNL A   1      34.179  21.945  26.376  1.00  0.00     0.136 C 
ATOM     11  C   UNL A   1      34.095  23.427  26.737  1.00  0.00     0.069 C 
BRANCH   8  12
ATOM     12  C   UNL A   1      32.065  23.226  23.651  1.00  0.00     0.254 C 
ATOM     13  O   UNL A   1      31.524  22.319  23.021  1.00  0.00    -0.269 OA
BRANCH  12  14
ATOM     14  C   UNL A   1      32.119  24.605  23.045  1.00  0.00     0.040 A 
ATOM     15  C   UNL A   1      31.194  26.864  22.738  1.00  0.00    -0.022 A 
ATOM     16  C   UNL A   1      32.469  27.322  22.394  1.00  0.00     0.006 A 
ATOM     17  C   UNL A   1      31.038  25.503  23.052  1.00  0.00     0.020 A 
ATOM     18  C   UNL A   1      33.552  26.445  22.356  1.00  0.00     0.001 A 
ATOM     19  C   UNL A   1      33.379  25.097  22.679  1.00  0.00     0.014 A 
BRANCH  15  20
ATOM     20  C   UNL A   1      30.033  27.817  22.934  1.00  0.00     0.195 C 
BRANCH  20  21
ATOM     21  O   UNL A   1      29.908  28.751  21.868  1.00  0.00    -0.380 OA
ATOM     22  C   UNL A   1      29.559  30.053  22.326  1.00  0.00     0.195 C 
ENDBRANCH  20  21
ENDBRANCH  15  20
ENDBRANCH  12  14
ENDBRANCH   8  12
BRANCH  10  23
ATOM     23  O   UNL A   1      35.438  21.379  26.683  1.00  0.00    -0.391 OA
ATOM     24  H   UNL A   1      35.326  20.444  26.912  1.00  0.00     0.211 HD
ENDBRANCH  10  23
ENDBRANCH   4   7
ENDBRANCH   2   3
ENDBRANCH   1   2
BRANCH   1  25
ATOM     25  C   UNL A   1      31.506  29.371  26.979  1.00  0.00     0.023 C 
BRANCH  25  26
ATOM     26  C   UNL A   1      32.457  30.389  26.352  1.00  0.00     0.116 C 
BRANCH  26  27
ATOM     27  N   UNL A   1      32.301  31.751  26.852  1.00  0.00    -0.352 N 
ATOM     28  C   UNL A   1      33.168  32.543  27.572  1.00  0.00     0.251 C 
ATOM     29  H   UNL A   1      31.435  32.171  26.643  1.00  0.00     0.163 HD
ATOM     30  O   UNL A   1      32.804  33.636  28.000  1.00  0.00    -0.269 OA
BRANCH  28  31
ATOM     31  C   UNL A   1      34.525  32.055  27.873  1.00  0.00     0.039 A 
ATOM     32  C   UNL A   1      35.586  32.965  27.887  1.00  0.00     0.014 A 
ATOM     33  C   UNL A   1      34.734  30.718  28.210  1.00  0.00     0.014 A 
ATOM     34  C   UNL A   1      36.825  32.564  28.388  1.00  0.00     0.010 A 
ATOM     35  C   UNL A   1      35.937  30.346  28.793  1.00  0.00     0.010 A 
ATOM     36  C   UNL A   1      36.980  31.276  28.920  1.00  0.00    -0.014 A 
BRANCH  36  37
ATOM     37  C   UNL A   1      38.190  30.885  29.684  1.00  0.00     0.031 A 
ATOM     38  C   UNL A   1      39.124  29.856  29.119  1.00  0.00     0.074 A 
ATOM     39  C   UNL A   1      38.352  31.353  30.940  1.00  0.00     0.049 A 
ATOM     40  N   UNL A   1      40.114  29.230  29.697  1.00  0.00    -0.248 NA
ATOM     41  C   UNL A   1      38.879  29.445  27.728  1.00  0.00     0.031 C 
ATOM     42  C   UNL A   1      37.466  32.313  31.606  1.00  0.00     0.029 A 
ATOM     43  N   UNL A   1      39.295  31.063  31.892  1.00  0.00    -0.354 N 
ATOM     44  C   UNL A   1      40.591  28.327  28.754  1.00  0.00     0.074 A 
ATOM     45  C   UNL A   1      39.748  28.456  27.584  1.00  0.00     0.031 C 
ATOM     46  C   UNL A   1      37.913  32.539  32.850  1.00  0.00     0.029 A 
ATOM     47  C   UNL A   1      39.081  31.700  33.094  1.00  0.00     0.049 A 
ATOM     48  H   UNL A   1      40.054  30.456  31.732  1.00  0.00     0.167 HD
ATOM     49  C   UNL A   1      41.645  27.479  28.855  1.00  0.00     0.034 A 
ATOM     50  C   UNL A   1      39.734  31.597  34.267  1.00  0.00     0.034 A 
ATOM     51  C   UNL A   1      42.481  27.391  30.028  1.00  0.00     0.049 A 
ATOM     52  C   UNL A   1      40.905  30.654  34.354  1.00  0.00     0.074 A 
ATOM     53  C   UNL A   1      43.622  26.633  30.219  1.00  0.00     0.029 A 
ATOM     54  N   UNL A   1      42.258  28.083  31.213  1.00  0.00    -0.354 N 
ATOM     55  N   UNL A   1      41.384  29.849  33.432  1.00  0.00    -0.248 NA
ATOM     56  C   UNL A   1      41.625  30.602  35.632  1.00  0.00     0.031 C 
ATOM     57  C   UNL A   1      44.054  26.820  31.537  1.00  0.00     0.029 A 
ATOM     58  C   UNL A   1      43.222  27.745  32.150  1.00  0.00     0.049 A 
ATOM     59  H   UNL A   1      41.523  28.719  31.365  1.00  0.00     0.167 HD
ATOM     60  C   UNL A   1      42.474  29.212  34.014  1.00  0.00     0.074 A 
ATOM     61  C   UNL A   1      42.591  29.739  35.360  1.00  0.00     0.031 C 
ATOM     62  C   UNL A   1      43.306  28.278  33.489  1.00  0.00     0.034 A 
BRANCH  49  63
ATOM     63  C   UNL A   1      41.923  26.573  27.681  1.00  0.00     0.023 A 
ATOM     64  C   UNL A   1      41.478  25.239  27.655  1.00  0.00     0.031 A 
ATOM     65  C   UNL A   1      42.679  27.033  26.589  1.00  0.00     0.131 A 
ATOM     66  C   UNL A   1      41.863  24.391  26.607  1.00  0.00     0.055 A 
ATOM     67  C   UNL A   1      42.989  26.208  25.507  1.00  0.00     0.041 A 
ATOM     68  F   UNL A   1      43.149  28.291  26.565  1.00  0.00    -0.206 F 
ATOM     69  C   UNL A   1      42.596  24.872  25.519  1.00  0.00     0.022 A 
BRANCH  66  70
ATOM     70  S   UNL A   1      41.519  22.617  26.758  1.00  0.00     0.124 S 
ATOM     71  O   UNL A   1      42.310  22.264  27.935  1.00  0.00    -0.237 OA
ATOM     72  O   UNL A   1      40.072  22.591  26.933  1.00  0.00    -0.237 OA
ATOM     73  O   UNL A   1      42.006  22.063  25.497  1.00  0.00    -0.744 OA
ENDBRANCH  66  70
ENDBRANCH  49  63
BRANCH  50  74
ATOM     74  C   UNL A   1      39.289  32.380  35.456  1.00  0.00     0.023 A 
ATOM     75  C   UNL A   1      39.753  33.686  35.676  1.00  0.00     0.031 A 
ATOM     76  C   UNL A   1      38.411  31.825  36.406  1.00  0.00     0.131 A 
ATOM     77  C   UNL A   1      39.373  34.380  36.836  1.00  0.00     0.055 A 
ATOM     78  C   UNL A   1      37.998  32.537  37.534  1.00  0.00     0.041 A 
ATOM     79  F   UNL A   1      37.929  30.584  36.239  1.00  0.00    -0.206 F 
ATOM     80  C   UNL A   1      38.490  33.818  37.760  1.00  0.00     0.022 A 
BRANCH  77  81
ATOM     81  S   UNL A   1      40.114  36.004  37.159  1.00  0.00     0.124 S 
ATOM     82  O   UNL A   1      39.779  36.733  35.941  1.00  0.00    -0.237 OA
ATOM     83  O   UNL A   1      39.411  36.419  38.368  1.00  0.00    -0.237 OA
ATOM     84  O   UNL A   1      41.532  35.702  37.337  1.00  0.00    -0.744 OA
ENDBRANCH  77  81
ENDBRANCH  50  74
BRANCH  62  85
ATOM     85  C   UNL A   1      44.430  27.799  34.369  1.00  0.00     0.023 A 
ATOM     86  C   UNL A   1      44.270  26.706  35.234  1.00  0.00     0.031 A 
ATOM     87  C   UNL A   1      45.678  28.447  34.335  1.00  0.00     0.131 A 
ATOM     88  C   UNL A   1      45.329  26.317  36.067  1.00  0.00     0.055 A 
ATOM     89  C   UNL A   1      46.744  28.022  35.126  1.00  0.00     0.041 A 
ATOM     90  F   UNL A   1      45.880  29.499  33.525  1.00  0.00    -0.206 F 
ATOM     91  C   UNL A   1      46.570  26.958  36.006  1.00  0.00     0.022 A 
BRANCH  88  92
ATOM     92  S   UNL A   1      45.044  24.999  37.280  1.00  0.00     0.124 S 
ATOM     93  O   UNL A   1      43.587  24.978  37.367  1.00  0.00    -0.237 OA
ATOM     94  O   UNL A   1      45.660  23.843  36.638  1.00  0.00    -0.237 OA
ATOM     95  O   UNL A   1      45.731  25.481  38.477  1.00  0.00    -0.744 OA
ENDBRANCH  88  92
ENDBRANCH  62  85
ENDBRANCH  36  37
ENDBRANCH  28  31
ENDBRANCH  26  27
ENDBRANCH  25  26
ENDBRANCH   1  25
TORSDOF 19
ENDMDL
MODEL 2
REMARK VINA RESULT:     -12.0      1.847      2.712
REMARK SMILES COCc1cccc(C(=O)N2C[C@@H](O)C[C@@H]2C(=O)NCCCCNC(=O)c2ccc(-c3c4nc(c(-c5cc(S(=O)(=O)[O-])ccc5F)c5ccc([nH]5)c(-c5cc(S(=O)(=O)[O-])ccc5F)c5nc(c(-c6cc(S(=O)(=O)[O-])ccc6F)c6ccc3[nH]6)C=C5)C=C4)cc2)c1
REMARK SMILES IDX 21 1 20 2 19 3 17 4 18 5 16 7 11 8 12 9 13 10 15 11 9 12
REMARK SMILES IDX 10 13 8 14 4 15 5 16 90 17 6 18 7 19 3 20 2 21 1 22 14 23
REMARK SMILES IDX 22 25 23 26 24 27 25 28 26 30 27 31 28 32 89 33 29 34 88 35
REMARK SMILES IDX 30 36 31 37 32 38 82 39 33 40 87 41 81 42 83 43 34 44 86 45
REMARK SMILES IDX 80 46 79 47 35 49 67 50 47 51 66 52 48 53 51 54 65 55 84 56
REMARK SMILES IDX 49 57 50 58 64 60 85 61 52 62 36 63 37 64 45 65 38 66 44 67
REMARK SMILES IDX 46 68 43 69 39 70 40 71 41 72 42 73 68 74 69 75 77 76 70 77
REMARK SMILES IDX 76 78 78 79 75 80 71 81 72 82 73 83 74 84 53 85 54 86 62 87
REMARK SMILES IDX 55 88 61 89 63 90 60 91 56 92 57 93 58 94 59 95
REMARK H PARENT 19 6 14 24 24 29 83 48 51 59
REMARK Flexibility Score: inf
ROOT
ATOM      1  C   UNL A   1      32.205  27.765  26.844  1.00  0.00     0.023 C 
ENDROOT
BRANCH   1   2
ATOM      2  C   UNL A   1      33.585  27.592  26.231  1.00  0.00     0.116 C 
BRANCH   2   3
ATOM      3  N   UNL A   1      33.889  26.280  25.725  1.00  0.00    -0.354 N 
ATOM      4  C   UNL A   1      33.753  25.816  24.446  1.00  0.00     0.242 C 
ATOM      5  O   UNL A   1      34.179  24.675  24.223  1.00  0.00    -0.273 OA
ATOM      6  H   UNL A   1      34.241  25.636  26.382  1.00  0.00     0.163 HD
BRANCH   4   7
ATOM      7  C   UNL A   1      32.902  26.536  23.360  1.00  0.00     0.177 C 
ATOM      8  N   UNL A   1      31.540  26.072  23.054  1.00  0.00    -0.324 N 
ATOM      9  C   UNL A   1      31.367  25.960  21.614  1.00  0.00     0.152 C 
ATOM     10  C   UNL A   1      32.761  25.578  21.134  1.00  0.00     0.136 C 
ATOM     11  C   UNL A   1      33.650  26.457  22.013  1.00  0.00     0.069 C 
BRANCH   8  12
ATOM     12  C   UNL A   1      30.521  26.243  23.976  1.00  0.00     0.254 C 
ATOM     13  O   UNL A   1      30.325  25.410  24.859  1.00  0.00    -0.269 OA
BRANCH  12  14
ATOM     14  C   UNL A   1      29.497  27.327  23.754  1.00  0.00     0.040 A 
ATOM     15  C   UNL A   1      28.778  29.434  22.707  1.00  0.00    -0.022 A 
ATOM     16  C   UNL A   1      27.447  29.051  22.886  1.00  0.00     0.006 A 
ATOM     17  C   UNL A   1      29.787  28.564  23.153  1.00  0.00     0.020 A 
ATOM     18  C   UNL A   1      27.133  27.839  23.501  1.00  0.00     0.001 A 
ATOM     19  C   UNL A   1      28.149  26.983  23.931  1.00  0.00     0.014 A 
BRANCH  15  20
ATOM     20  C   UNL A   1      29.150  30.668  21.911  1.00  0.00     0.195 C 
BRANCH  20  21
ATOM     21  O   UNL A   1      28.217  30.950  20.874  1.00  0.00    -0.380 OA
ATOM     22  C   UNL A   1      28.028  32.348  20.681  1.00  0.00     0.195 C 
ENDBRANCH  20  21
ENDBRANCH  15  20
ENDBRANCH  12  14
ENDBRANCH   8  12
BRANCH  10  23
ATOM     23  O   UNL A   1      32.962  25.807  19.754  1.00  0.00    -0.391 OA
ATOM     24  H   UNL A   1      32.121  25.707  19.283  1.00  0.00     0.211 HD
ENDBRANCH  10  23
ENDBRANCH   4   7
ENDBRANCH   2   3
ENDBRANCH   1   2
BRANCH   1  25
ATOM     25  C   UNL A   1      31.652  29.184  26.874  1.00  0.00     0.023 C 
BRANCH  25  26
ATOM     26  C   UNL A   1      32.512  30.267  26.226  1.00  0.00     0.116 C 
BRANCH  26  27
ATOM     27  N   UNL A   1      32.322  31.603  26.782  1.00  0.00    -0.352 N 
ATOM     28  C   UNL A   1      33.165  32.379  27.547  1.00  0.00     0.251 C 
ATOM     29  H   UNL A   1      31.452  32.017  26.578  1.00  0.00     0.163 HD
ATOM     30  O   UNL A   1      32.774  33.445  28.017  1.00  0.00    -0.269 OA
BRANCH  28  31
ATOM     31  C   UNL A   1      34.527  31.902  27.847  1.00  0.00     0.039 A 
ATOM     32  C   UNL A   1      35.576  32.825  27.879  1.00  0.00     0.014 A 
ATOM     33  C   UNL A   1      34.750  30.563  28.166  1.00  0.00     0.014 A 
ATOM     34  C   UNL A   1      36.818  32.432  28.380  1.00  0.00     0.010 A 
ATOM     35  C   UNL A   1      35.955  30.197  28.747  1.00  0.00     0.010 A 
ATOM     36  C   UNL A   1      36.986  31.138  28.893  1.00  0.00    -0.014 A 
BRANCH  36  37
ATOM     37  C   UNL A   1      38.198  30.749  29.656  1.00  0.00     0.031 A 
ATOM     38  C   UNL A   1      39.140  29.731  29.086  1.00  0.00     0.074 A 
ATOM     39  C   UNL A   1      38.354  31.209  30.916  1.00  0.00     0.049 A 
ATOM     40  N   UNL A   1      40.134  29.109  29.661  1.00  0.00    -0.248 NA
ATOM     41  C   UNL A   1      38.901  29.329  27.691  1.00  0.00     0.031 C 
ATOM     42  C   UNL A   1      37.460  32.158  31.587  1.00  0.00     0.029 A 
ATOM     43  N   UNL A   1      39.298  30.919  31.868  1.00  0.00    -0.354 N 
ATOM     44  C   UNL A   1      40.619  28.216  28.712  1.00  0.00     0.074 A 
ATOM     45  C   UNL A   1      39.777  28.347  27.542  1.00  0.00     0.031 C 
ATOM     46  C   UNL A   1      37.903  32.379  32.834  1.00  0.00     0.029 A 
ATOM     47  C   UNL A   1      39.076  31.547  33.074  1.00  0.00     0.049 A 
ATOM     48  H   UNL A   1      40.061  30.320  31.705  1.00  0.00     0.167 HD
ATOM     49  C   UNL A   1      41.678  27.375  28.809  1.00  0.00     0.034 A 
ATOM     50  C   UNL A   1      39.729  31.440  34.247  1.00  0.00     0.034 A 
ATOM     51  C   UNL A   1      42.513  27.284  29.983  1.00  0.00     0.049 A 
ATOM     52  C   UNL A   1      40.906  30.504  34.330  1.00  0.00     0.074 A 
ATOM     53  C   UNL A   1      43.659  26.533  30.171  1.00  0.00     0.029 A 
ATOM     54  N   UNL A   1      42.283  27.966  31.172  1.00  0.00    -0.354 N 
ATOM     55  N   UNL A   1      41.393  29.710  33.402  1.00  0.00    -0.248 NA
ATOM     56  C   UNL A   1      41.624  30.449  35.608  1.00  0.00     0.031 C 
ATOM     57  C   UNL A   1      44.087  26.714  31.490  1.00  0.00     0.029 A 
ATOM     58  C   UNL A   1      43.247  27.628  32.108  1.00  0.00     0.049 A 
ATOM     59  H   UNL A   1      41.543  28.596  31.327  1.00  0.00     0.167 HD
ATOM     60  C   UNL A   1      42.486  29.076  33.982  1.00  0.00     0.074 A 
ATOM     61  C   UNL A   1      42.597  29.595  35.332  1.00  0.00     0.031 C 
ATOM     62  C   UNL A   1      43.326  28.152  33.451  1.00  0.00     0.034 A 
BRANCH  49  63
ATOM     63  C   UNL A   1      41.965  26.479  27.629  1.00  0.00     0.023 A 
ATOM     64  C   UNL A   1      41.455  25.171  27.553  1.00  0.00     0.031 A 
ATOM     65  C   UNL A   1      42.794  26.922  26.583  1.00  0.00     0.131 A 
ATOM     66  C   UNL A   1      41.846  24.325  26.504  1.00  0.00     0.055 A 
ATOM     67  C   UNL A   1      43.112  26.103  25.498  1.00  0.00     0.041 A 
ATOM     68  F   UNL A   1      43.327  28.154  26.609  1.00  0.00    -0.206 F 
ATOM     69  C   UNL A   1      42.651  24.790  25.463  1.00  0.00     0.022 A 
BRANCH  66  70
ATOM     70  S   UNL A   1      41.405  22.569  26.601  1.00  0.00     0.124 S 
ATOM     71  O   UNL A   1      39.964  22.614  26.358  1.00  0.00    -0.237 OA
ATOM     72  O   UNL A   1      42.212  21.983  25.537  1.00  0.00    -0.237 OA
ATOM     73  O   UNL A   1      41.791  22.192  27.958  1.00  0.00    -0.744 OA
ENDBRANCH  66  70
ENDBRANCH  49  63
BRANCH  50  74
ATOM     74  C   UNL A   1      39.276  32.211  35.441  1.00  0.00     0.023 A 
ATOM     75  C   UNL A   1      39.702  33.531  35.652  1.00  0.00     0.031 A 
ATOM     76  C   UNL A   1      38.429  31.631  36.404  1.00  0.00     0.131 A 
ATOM     77  C   UNL A   1      39.317  34.215  36.816  1.00  0.00     0.055 A 
ATOM     78  C   UNL A   1      38.010  32.331  37.537  1.00  0.00     0.041 A 
ATOM     79  F   UNL A   1      37.984  30.374  36.246  1.00  0.00    -0.206 F 
ATOM     80  C   UNL A   1      38.465  33.628  37.754  1.00  0.00     0.022 A 
BRANCH  77  81
ATOM     81  S   UNL A   1      40.011  35.862  37.126  1.00  0.00     0.124 S 
ATOM     82  O   UNL A   1      39.668  36.567  35.897  1.00  0.00    -0.237 OA
ATOM     83  O   UNL A   1      39.286  36.272  38.325  1.00  0.00    -0.237 OA
ATOM     84  O   UNL A   1      41.435  35.601  37.320  1.00  0.00    -0.744 OA
ENDBRANCH  77  81
ENDBRANCH  50  74
BRANCH  62  85
ATOM     85  C   UNL A   1      44.452  27.675  34.330  1.00  0.00     0.023 A 
ATOM     86  C   UNL A   1      45.690  28.336  34.360  1.00  0.00     0.031 A 
ATOM     87  C   UNL A   1      44.278  26.545  35.148  1.00  0.00     0.131 A 
ATOM     88  C   UNL A   1      46.726  27.835  35.162  1.00  0.00     0.055 A 
ATOM     89  C   UNL A   1      45.294  26.083  35.984  1.00  0.00     0.041 A 
ATOM     90  F   UNL A   1      43.112  25.878  35.152  1.00  0.00    -0.206 F 
ATOM     91  C   UNL A   1      46.530  26.723  35.986  1.00  0.00     0.022 A 
BRANCH  88  92
ATOM     92  S   UNL A   1      48.358  28.621  35.067  1.00  0.00     0.124 S 
ATOM     93  O   UNL A   1      48.949  28.245  36.347  1.00  0.00    -0.237 OA
ATOM     94  O   UNL A   1      48.941  27.992  33.886  1.00  0.00    -0.237 OA
ATOM     95  O   UNL A   1      48.046  30.041  34.921  1.00  0.00    -0.744 OA
ENDBRANCH  88  92
ENDBRANCH  62  85
ENDBRANCH  36  37
ENDBRANCH  28  31
ENDBRANCH  26  27
ENDBRANCH  25  26
ENDBRANCH   1  25
TORSDOF 19
ENDMDL
MODEL 3
REMARK VINA RESULT:     -11.4      1.905      2.162
REMARK SMILES COCc1cccc(C(=O)N2C[C@@H](O)C[C@@H]2C(=O)NCCCCNC(=O)c2ccc(-c3c4nc(c(-c5cc(S(=O)(=O)[O-])ccc5F)c5ccc([nH]5)c(-c5cc(S(=O)(=O)[O-])ccc5F)c5nc(c(-c6cc(S(=O)(=O)[O-])ccc6F)c6ccc3[nH]6)C=C5)C=C4)cc2)c1
REMARK SMILES IDX 21 1 20 2 19 3 17 4 18 5 16 7 11 8 12 9 13 10 15 11 9 12
REMARK SMILES IDX 10 13 8 14 4 15 5 16 90 17 6 18 7 19 3 20 2 21 1 22 14 23
REMARK SMILES IDX 22 25 23 26 24 27 25 28 26 30 27 31 28 32 89 33 29 34 88 35
REMARK SMILES IDX 30 36 31 37 32 38 82 39 33 40 87 41 81 42 83 43 34 44 86 45
REMARK SMILES IDX 80 46 79 47 35 49 67 50 47 51 66 52 48 53 51 54 65 55 84 56
REMARK SMILES IDX 49 57 50 58 64 60 85 61 52 62 36 63 37 64 45 65 38 66 44 67
REMARK SMILES IDX 46 68 43 69 39 70 40 71 41 72 42 73 68 74 69 75 77 76 70 77
REMARK SMILES IDX 76 78 78 79 75 80 71 81 72 82 73 83 74 84 53 85 54 86 62 87
REMARK SMILES IDX 55 88 61 89 63 90 60 91 56 92 57 93 58 94 59 95
REMARK H PARENT 19 6 14 24 24 29 83 48 51 59
REMARK Flexibility Score: inf
ROOT
ATOM      1  C   UNL A   1      31.412  28.083  26.176  1.00  0.00     0.023 C 
ENDROOT
BRANCH   1   2
ATOM      2  C   UNL A   1      32.228  26.825  26.419  1.00  0.00     0.116 C 
BRANCH   2   3
ATOM      3  N   UNL A   1      31.490  25.670  26.855  1.00  0.00    -0.354 N 
ATOM      4  C   UNL A   1      31.815  24.351  26.699  1.00  0.00     0.242 C 
ATOM      5  O   UNL A   1      31.073  23.529  27.252  1.00  0.00    -0.273 OA
ATOM      6  H   UNL A   1      30.644  25.852  27.326  1.00  0.00     0.163 HD
BRANCH   4   7
ATOM      7  C   UNL A   1      32.894  23.848  25.696  1.00  0.00     0.177 C 
ATOM      8  N   UNL A   1      32.519  22.969  24.578  1.00  0.00    -0.324 N 
ATOM      9  C   UNL A   1      33.437  21.844  24.504  1.00  0.00     0.152 C 
ATOM     10  C   UNL A   1      33.815  21.618  25.962  1.00  0.00     0.136 C 
ATOM     11  C   UNL A   1      33.960  23.050  26.476  1.00  0.00     0.069 C 
BRANCH   8  12
ATOM     12  C   UNL A   1      31.762  23.461  23.528  1.00  0.00     0.254 C 
ATOM     13  O   UNL A   1      31.034  22.717  22.874  1.00  0.00    -0.269 OA
BRANCH  12  14
ATOM     14  C   UNL A   1      32.015  24.861  23.026  1.00  0.00     0.040 A 
ATOM     15  C   UNL A   1      31.294  27.185  22.663  1.00  0.00    -0.022 A 
ATOM     16  C   UNL A   1      32.635  27.577  22.620  1.00  0.00     0.006 A 
ATOM     17  C   UNL A   1      31.005  25.824  22.859  1.00  0.00     0.020 A 
ATOM     18  C   UNL A   1      33.655  26.636  22.759  1.00  0.00     0.001 A 
ATOM     19  C   UNL A   1      33.348  25.289  22.961  1.00  0.00     0.014 A 
BRANCH  15  20
ATOM     20  C   UNL A   1      30.169  28.199  22.667  1.00  0.00     0.195 C 
BRANCH  20  21
ATOM     21  O   UNL A   1      28.974  27.685  23.243  1.00  0.00    -0.380 OA
ATOM     22  C   UNL A   1      27.881  28.589  23.120  1.00  0.00     0.195 C 
ENDBRANCH  20  21
ENDBRANCH  15  20
ENDBRANCH  12  14
ENDBRANCH   8  12
BRANCH  10  23
ATOM     23  O   UNL A   1      34.997  20.859  26.125  1.00  0.00    -0.391 OA
ATOM     24  H   UNL A   1      34.914  20.298  26.912  1.00  0.00     0.211 HD
ENDBRANCH  10  23
ENDBRANCH   4   7
ENDBRANCH   2   3
ENDBRANCH   1   2
BRANCH   1  25
ATOM     25  C   UNL A   1      31.776  29.299  27.018  1.00  0.00     0.023 C 
BRANCH  25  26
ATOM     26  C   UNL A   1      32.698  30.329  26.368  1.00  0.00     0.116 C 
BRANCH  26  27
ATOM     27  N   UNL A   1      32.545  31.687  26.881  1.00  0.00    -0.352 N 
ATOM     28  C   UNL A   1      33.409  32.464  27.620  1.00  0.00     0.251 C 
ATOM     29  H   UNL A   1      31.685  32.116  26.665  1.00  0.00     0.163 HD
ATOM     30  O   UNL A   1      33.047  33.555  28.056  1.00  0.00    -0.269 OA
BRANCH  28  31
ATOM     31  C   UNL A   1      34.758  31.962  27.935  1.00  0.00     0.039 A 
ATOM     32  C   UNL A   1      35.821  32.869  28.002  1.00  0.00     0.014 A 
ATOM     33  C   UNL A   1      34.956  30.614  28.231  1.00  0.00     0.014 A 
ATOM     34  C   UNL A   1      37.047  32.448  28.516  1.00  0.00     0.010 A 
ATOM     35  C   UNL A   1      36.146  30.219  28.827  1.00  0.00     0.010 A 
ATOM     36  C   UNL A   1      37.188  31.143  29.008  1.00  0.00    -0.014 A 
BRANCH  36  37
ATOM     37  C   UNL A   1      38.380  30.722  29.784  1.00  0.00     0.031 A 
ATOM     38  C   UNL A   1      39.319  29.702  29.210  1.00  0.00     0.074 A 
ATOM     39  C   UNL A   1      38.521  31.155  31.054  1.00  0.00     0.049 A 
ATOM     40  N   UNL A   1      40.293  29.054  29.790  1.00  0.00    -0.248 NA
ATOM     41  C   UNL A   1      39.098  29.330  27.804  1.00  0.00     0.031 C 
ATOM     42  C   UNL A   1      37.629  32.103  31.729  1.00  0.00     0.029 A 
ATOM     43  N   UNL A   1      39.444  30.833  32.017  1.00  0.00    -0.354 N 
ATOM     44  C   UNL A   1      40.782  28.173  28.832  1.00  0.00     0.074 A 
ATOM     45  C   UNL A   1      39.963  28.339  27.651  1.00  0.00     0.031 C 
ATOM     46  C   UNL A   1      38.053  32.293  32.987  1.00  0.00     0.029 A 
ATOM     47  C   UNL A   1      39.210  31.441  33.231  1.00  0.00     0.049 A 
ATOM     48  H   UNL A   1      40.201  30.226  31.856  1.00  0.00     0.167 HD
ATOM     49  C   UNL A   1      41.828  27.316  28.931  1.00  0.00     0.034 A 
ATOM     50  C   UNL A   1      39.840  31.302  34.414  1.00  0.00     0.034 A 
ATOM     51  C   UNL A   1      42.640  27.190  30.117  1.00  0.00     0.049 A 
ATOM     52  C   UNL A   1      41.002  30.348  34.498  1.00  0.00     0.074 A 
ATOM     53  C   UNL A   1      43.772  26.420  30.310  1.00  0.00     0.029 A 
ATOM     54  N   UNL A   1      42.399  27.852  31.315  1.00  0.00    -0.354 N 
ATOM     55  N   UNL A   1      41.494  29.565  33.564  1.00  0.00    -0.248 NA
ATOM     56  C   UNL A   1      41.697  30.258  35.787  1.00  0.00     0.031 C 
ATOM     57  C   UNL A   1      44.180  26.569  31.640  1.00  0.00     0.029 A 
ATOM     58  C   UNL A   1      43.342  27.482  32.261  1.00  0.00     0.049 A 
ATOM     59  H   UNL A   1      41.666  28.489  31.470  1.00  0.00     0.167 HD
ATOM     60  C   UNL A   1      42.569  28.904  34.150  1.00  0.00     0.074 A 
ATOM     61  C   UNL A   1      42.663  29.395  35.511  1.00  0.00     0.031 C 
ATOM     62  C   UNL A   1      43.405  27.979  33.615  1.00  0.00     0.034 A 
BRANCH  49  63
ATOM     63  C   UNL A   1      42.123  26.439  27.739  1.00  0.00     0.023 A 
ATOM     64  C   UNL A   1      41.619  25.130  27.641  1.00  0.00     0.031 A 
ATOM     65  C   UNL A   1      42.955  26.900  26.703  1.00  0.00     0.131 A 
ATOM     66  C   UNL A   1      42.016  24.301  26.581  1.00  0.00     0.055 A 
ATOM     67  C   UNL A   1      43.280  26.099  25.607  1.00  0.00     0.041 A 
ATOM     68  F   UNL A   1      43.483  28.134  26.750  1.00  0.00    -0.206 F 
ATOM     69  C   UNL A   1      42.825  24.785  25.550  1.00  0.00     0.022 A 
BRANCH  66  70
ATOM     70  S   UNL A   1      41.583  22.542  26.649  1.00  0.00     0.124 S 
ATOM     71  O   UNL A   1      42.134  22.154  27.946  1.00  0.00    -0.237 OA
ATOM     72  O   UNL A   1      40.128  22.573  26.559  1.00  0.00    -0.237 OA
ATOM     73  O   UNL A   1      42.269  21.974  25.491  1.00  0.00    -0.744 OA
ENDBRANCH  66  70
ENDBRANCH  49  63
BRANCH  50  74
ATOM     74  C   UNL A   1      39.377  32.056  35.614  1.00  0.00     0.023 A 
ATOM     75  C   UNL A   1      38.618  31.428  36.613  1.00  0.00     0.031 A 
ATOM     76  C   UNL A   1      39.664  33.425  35.769  1.00  0.00     0.131 A 
ATOM     77  C   UNL A   1      38.136  32.174  37.701  1.00  0.00     0.055 A 
ATOM     78  C   UNL A   1      39.223  34.152  36.877  1.00  0.00     0.041 A 
ATOM     79  F   UNL A   1      40.395  34.073  34.847  1.00  0.00    -0.206 F 
ATOM     80  C   UNL A   1      38.444  33.528  37.845  1.00  0.00     0.022 A 
BRANCH  77  81
ATOM     81  S   UNL A   1      37.033  31.362  38.890  1.00  0.00     0.124 S 
ATOM     82  O   UNL A   1      36.872  30.040  38.294  1.00  0.00    -0.237 OA
ATOM     83  O   UNL A   1      37.820  31.420  40.118  1.00  0.00    -0.237 OA
ATOM     84  O   UNL A   1      35.839  32.203  38.877  1.00  0.00    -0.744 OA
ENDBRANCH  77  81
ENDBRANCH  50  74
BRANCH  62  85
ATOM     85  C   UNL A   1      44.508  27.469  34.504  1.00  0.00     0.023 A 
ATOM     86  C   UNL A   1      45.750  28.119  34.579  1.00  0.00     0.031 A 
ATOM     87  C   UNL A   1      44.308  26.318  35.286  1.00  0.00     0.131 A 
ATOM     88  C   UNL A   1      46.765  27.588  35.388  1.00  0.00     0.055 A 
ATOM     89  C   UNL A   1      45.303  25.826  36.130  1.00  0.00     0.041 A 
ATOM     90  F   UNL A   1      43.138  25.660  35.248  1.00  0.00    -0.206 F 
ATOM     91  C   UNL A   1      46.544  26.456  36.177  1.00  0.00     0.022 A 
BRANCH  88  92
ATOM     92  S   UNL A   1      48.404  28.363  35.349  1.00  0.00     0.124 S 
ATOM     93  O   UNL A   1      48.841  28.078  33.986  1.00  0.00    -0.237 OA
ATOM     94  O   UNL A   1      48.098  29.760  35.640  1.00  0.00    -0.237 OA
ATOM     95  O   UNL A   1      49.141  27.660  36.397  1.00  0.00    -0.744 OA
ENDBRANCH  88  92
ENDBRANCH  62  85
ENDBRANCH  36  37
ENDBRANCH  28  31
ENDBRANCH  26  27
ENDBRANCH  25  26
ENDBRANCH   1  25
TORSDOF 19
ENDMDL
