MODEL 1
REMARK VINA RESULT:     -13.1      0.000      0.000
REMARK SMILES C[C@@H]1Cc2ccccc2N1S(=O)(=O)c1cccc(C(=O)NCCCCNC(=O)c2ccc(-c3c4nc(c(-c5cc(S(=O)(=O)[O-])ccc5F)c5ccc([nH]5)c(-c5cc(S(=O)(=O)[O-])ccc5F)c5nc(c(-c6cc(S(=O)(=O)[O-])ccc6F)c6ccc3[nH]6)C=C5)C=C4)cc2)c1
REMARK SMILES IDX 24 1 23 2 22 3 21 4 19 5 20 6 18 8 14 9 15 10 92 11 16 12
REMARK SMILES IDX 17 13 11 14 12 15 13 16 10 17 1 18 2 19 3 20 4 21 9 22 5 23
REMARK SMILES IDX 8 24 6 25 7 26 25 27 26 28 27 29 28 31 29 32 30 33 91 34
REMARK SMILES IDX 31 35 90 36 32 37 33 38 34 39 84 40 35 41 89 42 83 43 85 44
REMARK SMILES IDX 36 45 88 46 82 47 81 48 37 50 69 51 49 52 68 53 50 54 53 55
REMARK SMILES IDX 67 56 86 57 51 58 52 59 66 61 87 62 54 63 38 64 39 65 47 66
REMARK SMILES IDX 40 67 46 68 48 69 45 70 41 71 42 72 43 73 44 74 70 75 71 76
REMARK SMILES IDX 79 77 72 78 78 79 80 80 77 81 73 82 74 83 75 84 76 85 55 86
REMARK SMILES IDX 56 87 64 88 57 89 63 90 65 91 62 92 58 93 59 94 60 95 61 96
REMARK H PARENT 21 7 26 30 85 49 53 60
REMARK Flexibility Score: inf
ROOT
ATOM      1  C   UNL A   1      31.190  30.074  24.971  1.00  0.00     0.023 C 
ENDROOT
BRANCH   1   2
ATOM      2  C   UNL A   1      31.613  28.983  23.998  1.00  0.00     0.023 C 
BRANCH   2   3
ATOM      3  C   UNL A   1      33.107  28.715  23.869  1.00  0.00     0.116 C 
BRANCH   3   4
ATOM      4  N   UNL A   1      33.509  27.947  22.704  1.00  0.00    -0.352 N 
ATOM      5  C   UNL A   1      33.237  26.649  22.334  1.00  0.00     0.251 C 
ATOM      6  O   UNL A   1      33.653  26.256  21.245  1.00  0.00    -0.269 OA
ATOM      7  H   UNL A   1      34.075  28.442  22.067  1.00  0.00     0.163 HD
BRANCH   5   8
ATOM      8  C   UNL A   1      32.543  25.678  23.230  1.00  0.00     0.041 A 
ATOM      9  C   UNL A   1      32.518  23.887  24.839  1.00  0.00     0.088 A 
ATOM     10  C   UNL A   1      31.168  23.630  24.584  1.00  0.00     0.022 A 
ATOM     11  C   UNL A   1      33.169  24.979  24.261  1.00  0.00     0.036 A 
ATOM     12  C   UNL A   1      30.496  24.409  23.648  1.00  0.00     0.002 A 
ATOM     13  C   UNL A   1      31.190  25.403  22.951  1.00  0.00     0.014 A 
BRANCH   9  14
ATOM     14  S   UNL A   1      33.458  22.721  25.793  1.00  0.00     0.264 S 
ATOM     15  O   UNL A   1      32.521  21.870  26.493  1.00  0.00    -0.201 OA
ATOM     16  O   UNL A   1      34.451  23.479  26.535  1.00  0.00    -0.201 OA
BRANCH  14  17
ATOM     17  N   UNL A   1      34.318  21.752  24.642  1.00  0.00    -0.263 N 
ATOM     18  C   UNL A   1      36.580  22.535  23.954  1.00  0.00     0.032 C 
ATOM     19  C   UNL A   1      35.809  21.718  24.980  1.00  0.00     0.101 C 
ATOM     20  C   UNL A   1      36.240  20.233  24.998  1.00  0.00     0.063 C 
ATOM     21  C   UNL A   1      34.973  19.503  24.715  1.00  0.00    -0.021 A 
ATOM     22  C   UNL A   1      33.923  20.378  24.473  1.00  0.00     0.055 A 
ATOM     23  C   UNL A   1      34.805  18.125  24.621  1.00  0.00     0.006 A 
ATOM     24  C   UNL A   1      32.721  19.891  23.987  1.00  0.00     0.027 A 
ATOM     25  C   UNL A   1      33.561  17.629  24.229  1.00  0.00     0.000 A 
ATOM     26  C   UNL A   1      32.529  18.509  23.892  1.00  0.00     0.002 A 
ENDBRANCH  14  17
ENDBRANCH   9  14
ENDBRANCH   5   8
ENDBRANCH   3   4
ENDBRANCH   2   3
ENDBRANCH   1   2
BRANCH   1  27
ATOM     27  C   UNL A   1      32.210  30.454  26.036  1.00  0.00     0.116 C 
BRANCH  27  28
ATOM     28  N   UNL A   1      32.056  31.810  26.547  1.00  0.00    -0.352 N 
ATOM     29  C   UNL A   1      32.892  32.565  27.342  1.00  0.00     0.251 C 
ATOM     30  H   UNL A   1      31.221  32.259  26.282  1.00  0.00     0.163 HD
ATOM     31  O   UNL A   1      32.527  33.671  27.729  1.00  0.00    -0.269 OA
BRANCH  29  32
ATOM     32  C   UNL A   1      34.196  32.016  27.775  1.00  0.00     0.039 A 
ATOM     33  C   UNL A   1      34.348  30.655  28.033  1.00  0.00     0.014 A 
ATOM     34  C   UNL A   1      35.265  32.891  27.984  1.00  0.00     0.014 A 
ATOM     35  C   UNL A   1      35.472  30.208  28.719  1.00  0.00     0.010 A 
ATOM     36  C   UNL A   1      36.442  32.418  28.575  1.00  0.00     0.010 A 
ATOM     37  C   UNL A   1      36.527  31.087  29.013  1.00  0.00    -0.014 A 
BRANCH  37  38
ATOM     38  C   UNL A   1      37.702  30.602  29.787  1.00  0.00     0.031 A 
ATOM     39  C   UNL A   1      38.685  29.639  29.174  1.00  0.00     0.074 A 
ATOM     40  C   UNL A   1      37.903  31.065  31.037  1.00  0.00     0.049 A 
ATOM     41  N   UNL A   1      39.743  29.090  29.714  1.00  0.00    -0.248 NA
ATOM     42  C   UNL A   1      38.452  29.233  27.779  1.00  0.00     0.031 C 
ATOM     43  C   UNL A   1      37.027  32.013  31.726  1.00  0.00     0.029 A 
ATOM     44  N   UNL A   1      38.904  30.817  31.944  1.00  0.00    -0.354 N 
ATOM     45  C   UNL A   1      40.283  28.256  28.740  1.00  0.00     0.074 A 
ATOM     46  C   UNL A   1      39.424  28.352  27.582  1.00  0.00     0.031 C 
ATOM     47  C   UNL A   1      37.548  32.300  32.925  1.00  0.00     0.029 A 
ATOM     48  C   UNL A   1      38.746  31.493  33.133  1.00  0.00     0.049 A 
ATOM     49  H   UNL A   1      39.661  30.215  31.762  1.00  0.00     0.167 HD
ATOM     50  C   UNL A   1      41.400  27.492  28.808  1.00  0.00     0.034 A 
ATOM     51  C   UNL A   1      39.461  31.448  34.276  1.00  0.00     0.034 A 
ATOM     52  C   UNL A   1      42.266  27.441  29.957  1.00  0.00     0.049 A 
ATOM     53  C   UNL A   1      40.683  30.572  34.334  1.00  0.00     0.074 A 
ATOM     54  C   UNL A   1      43.446  26.732  30.103  1.00  0.00     0.029 A 
ATOM     55  N   UNL A   1      42.062  28.121  31.149  1.00  0.00    -0.354 N 
ATOM     56  N   UNL A   1      41.198  29.818  33.391  1.00  0.00    -0.248 NA
ATOM     57  C   UNL A   1      41.423  30.532  35.603  1.00  0.00     0.031 C 
ATOM     58  C   UNL A   1      43.918  26.930  31.399  1.00  0.00     0.029 A 
ATOM     59  C   UNL A   1      43.076  27.823  32.043  1.00  0.00     0.049 A 
ATOM     60  H   UNL A   1      41.306  28.727  31.332  1.00  0.00     0.167 HD
ATOM     61  C   UNL A   1      42.329  29.227  33.946  1.00  0.00     0.074 A 
ATOM     62  C   UNL A   1      42.438  29.731  35.299  1.00  0.00     0.031 C 
ATOM     63  C   UNL A   1      43.190  28.342  33.385  1.00  0.00     0.034 A 
BRANCH  50  64
ATOM     64  C   UNL A   1      41.784  26.646  27.618  1.00  0.00     0.023 A 
ATOM     65  C   UNL A   1      41.471  25.273  27.608  1.00  0.00     0.031 A 
ATOM     66  C   UNL A   1      42.589  27.153  26.585  1.00  0.00     0.131 A 
ATOM     67  C   UNL A   1      41.996  24.446  26.608  1.00  0.00     0.055 A 
ATOM     68  C   UNL A   1      43.078  26.331  25.567  1.00  0.00     0.041 A 
ATOM     69  F   UNL A   1      42.915  28.455  26.550  1.00  0.00    -0.206 F 
ATOM     70  C   UNL A   1      42.794  24.968  25.584  1.00  0.00     0.022 A 
BRANCH  67  71
ATOM     71  S   UNL A   1      41.726  22.652  26.634  1.00  0.00     0.124 S 
ATOM     72  O   UNL A   1      42.491  22.252  27.814  1.00  0.00    -0.237 OA
ATOM     73  O   UNL A   1      40.276  22.563  26.772  1.00  0.00    -0.237 OA
ATOM     74  O   UNL A   1      42.270  22.196  25.359  1.00  0.00    -0.744 OA
ENDBRANCH  67  71
ENDBRANCH  50  64
BRANCH  51  75
ATOM     75  C   UNL A   1      39.023  32.285  35.431  1.00  0.00     0.023 A 
ATOM     76  C   UNL A   1      39.496  33.602  35.582  1.00  0.00     0.031 A 
ATOM     77  C   UNL A   1      38.243  31.743  36.464  1.00  0.00     0.131 A 
ATOM     78  C   UNL A   1      39.262  34.297  36.776  1.00  0.00     0.055 A 
ATOM     79  C   UNL A   1      37.944  32.468  37.620  1.00  0.00     0.041 A 
ATOM     80  F   UNL A   1      37.777  30.487  36.372  1.00  0.00    -0.206 F 
ATOM     81  C   UNL A   1      38.474  33.744  37.788  1.00  0.00     0.022 A 
BRANCH  78  82
ATOM     82  S   UNL A   1      40.110  35.865  37.116  1.00  0.00     0.124 S 
ATOM     83  O   UNL A   1      39.660  36.700  36.008  1.00  0.00    -0.237 OA
ATOM     84  O   UNL A   1      39.573  36.216  38.429  1.00  0.00    -0.237 OA
ATOM     85  O   UNL A   1      41.523  35.502  37.104  1.00  0.00    -0.744 OA
ENDBRANCH  78  82
ENDBRANCH  51  75
BRANCH  63  86
ATOM     86  C   UNL A   1      44.350  27.838  34.207  1.00  0.00     0.023 A 
ATOM     87  C   UNL A   1      44.214  26.654  34.958  1.00  0.00     0.031 A 
ATOM     88  C   UNL A   1      45.506  28.613  34.389  1.00  0.00     0.131 A 
ATOM     89  C   UNL A   1      45.194  26.309  35.897  1.00  0.00     0.055 A 
ATOM     90  C   UNL A   1      46.504  28.240  35.291  1.00  0.00     0.041 A 
ATOM     91  F   UNL A   1      45.675  29.755  33.702  1.00  0.00    -0.206 F 
ATOM     92  C   UNL A   1      46.341  27.092  36.063  1.00  0.00     0.022 A 
BRANCH  89  93
ATOM     93  S   UNL A   1      44.970  24.890  37.005  1.00  0.00     0.124 S 
ATOM     94  O   UNL A   1      46.343  24.421  37.176  1.00  0.00    -0.237 OA
ATOM     95  O   UNL A   1      44.371  25.511  38.183  1.00  0.00    -0.237 OA
ATOM     96  O   UNL A   1      44.098  23.991  36.254  1.00  0.00    -0.744 OA
ENDBRANCH  89  93
ENDBRANCH  63  86
ENDBRANCH  37  38
ENDBRANCH  29  32
ENDBRANCH  27  28
ENDBRANCH   1  27
TORSDOF 16
ENDMDL
MODEL 2
REMARK VINA RESULT:     -13.0      4.744      8.465
REMARK SMILES C[C@@H]1Cc2ccccc2N1S(=O)(=O)c1cccc(C(=O)NCCCCNC(=O)c2ccc(-c3c4nc(c(-c5cc(S(=O)(=O)[O-])ccc5F)c5ccc([nH]5)c(-c5cc(S(=O)(=O)[O-])ccc5F)c5nc(c(-c6cc(S(=O)(=O)[O-])ccc6F)c6ccc3[nH]6)C=C5)C=C4)cc2)c1
REMARK SMILES IDX 24 1 23 2 22 3 21 4 19 5 20 6 18 8 14 9 15 10 92 11 16 12
REMARK SMILES IDX 17 13 11 14 12 15 13 16 10 17 1 18 2 19 3 20 4 21 9 22 5 23
REMARK SMILES IDX 8 24 6 25 7 26 25 27 26 28 27 29 28 31 29 32 30 33 91 34
REMARK SMILES IDX 31 35 90 36 32 37 33 38 34 39 84 40 35 41 89 42 83 43 85 44
REMARK SMILES IDX 36 45 88 46 82 47 81 48 37 50 69 51 49 52 68 53 50 54 53 55
REMARK SMILES IDX 67 56 86 57 51 58 52 59 66 61 87 62 54 63 38 64 39 65 47 66
REMARK SMILES IDX 40 67 46 68 48 69 45 70 41 71 42 72 43 73 44 74 70 75 71 76
REMARK SMILES IDX 79 77 72 78 78 79 80 80 77 81 73 82 74 83 75 84 76 85 55 86
REMARK SMILES IDX 56 87 64 88 57 89 63 90 65 91 62 92 58 93 59 94 60 95 61 96
REMARK H PARENT 21 7 26 30 85 49 53 60
REMARK Flexibility Score: inf
ROOT
ATOM      1  C   UNL A   1      37.042  20.233  24.737  1.00  0.00     0.023 C 
ENDROOT
BRANCH   1   2
ATOM      2  C   UNL A   1      35.696  20.721  25.256  1.00  0.00     0.023 C 
BRANCH   2   3
ATOM      3  C   UNL A   1      35.705  21.969  26.130  1.00  0.00     0.116 C 
BRANCH   3   4
ATOM      4  N   UNL A   1      34.752  21.976  27.225  1.00  0.00    -0.352 N 
ATOM      5  C   UNL A   1      33.415  22.304  27.263  1.00  0.00     0.251 C 
ATOM      6  O   UNL A   1      32.810  22.159  28.324  1.00  0.00    -0.269 OA
ATOM      7  H   UNL A   1      35.127  21.696  28.092  1.00  0.00     0.163 HD
BRANCH   5   8
ATOM      8  C   UNL A   1      32.695  22.910  26.104  1.00  0.00     0.041 A 
ATOM      9  C   UNL A   1      31.308  24.596  25.086  1.00  0.00     0.088 A 
ATOM     10  C   UNL A   1      31.053  23.771  23.987  1.00  0.00     0.022 A 
ATOM     11  C   UNL A   1      32.219  24.220  26.077  1.00  0.00     0.036 A 
ATOM     12  C   UNL A   1      31.630  22.506  23.941  1.00  0.00     0.002 A 
ATOM     13  C   UNL A   1      32.417  22.067  25.010  1.00  0.00     0.014 A 
BRANCH   9  14
ATOM     14  S   UNL A   1      30.349  26.073  25.304  1.00  0.00     0.264 S 
ATOM     15  O   UNL A   1      30.199  26.293  26.726  1.00  0.00    -0.201 OA
ATOM     16  O   UNL A   1      29.175  25.949  24.457  1.00  0.00    -0.201 OA
BRANCH  14  17
ATOM     17  N   UNL A   1      31.308  27.361  24.654  1.00  0.00    -0.263 N 
ATOM     18  C   UNL A   1      30.698  28.210  22.392  1.00  0.00     0.032 C 
ATOM     19  C   UNL A   1      30.428  28.347  23.884  1.00  0.00     0.101 C 
ATOM     20  C   UNL A   1      30.754  29.763  24.416  1.00  0.00     0.063 C 
ATOM     21  C   UNL A   1      31.762  29.507  25.482  1.00  0.00    -0.021 A 
ATOM     22  C   UNL A   1      32.089  28.160  25.562  1.00  0.00     0.055 A 
ATOM     23  C   UNL A   1      32.389  30.453  26.285  1.00  0.00     0.006 A 
ATOM     24  C   UNL A   1      33.158  27.758  26.346  1.00  0.00     0.027 A 
ATOM     25  C   UNL A   1      33.398  30.033  27.152  1.00  0.00     0.000 A 
ATOM     26  C   UNL A   1      33.797  28.693  27.167  1.00  0.00     0.002 A 
ENDBRANCH  14  17
ENDBRANCH   9  14
ENDBRANCH   5   8
ENDBRANCH   3   4
ENDBRANCH   2   3
ENDBRANCH   1   2
BRANCH   1  27
ATOM     27  C   UNL A   1      38.267  20.974  25.255  1.00  0.00     0.116 C 
BRANCH  27  28
ATOM     28  N   UNL A   1      39.306  20.100  25.786  1.00  0.00    -0.352 N 
ATOM     29  C   UNL A   1      40.383  20.385  26.598  1.00  0.00     0.251 C 
ATOM     30  H   UNL A   1      39.225  19.155  25.523  1.00  0.00     0.163 HD
ATOM     31  O   UNL A   1      41.193  19.502  26.864  1.00  0.00    -0.269 OA
BRANCH  29  32
ATOM     32  C   UNL A   1      40.593  21.763  27.093  1.00  0.00     0.039 A 
ATOM     33  C   UNL A   1      39.928  22.841  26.509  1.00  0.00     0.014 A 
ATOM     34  C   UNL A   1      41.516  21.984  28.118  1.00  0.00     0.014 A 
ATOM     35  C   UNL A   1      40.356  24.136  26.777  1.00  0.00     0.010 A 
ATOM     36  C   UNL A   1      41.866  23.293  28.465  1.00  0.00     0.010 A 
ATOM     37  C   UNL A   1      41.342  24.379  27.747  1.00  0.00    -0.014 A 
BRANCH  37  38
ATOM     38  C   UNL A   1      41.820  25.767  27.988  1.00  0.00     0.031 A 
ATOM     39  C   UNL A   1      43.163  26.220  27.477  1.00  0.00     0.074 A 
ATOM     40  C   UNL A   1      41.020  26.636  28.636  1.00  0.00     0.049 A 
ATOM     41  N   UNL A   1      43.750  27.381  27.622  1.00  0.00    -0.248 NA
ATOM     42  C   UNL A   1      43.956  25.247  26.706  1.00  0.00     0.031 C 
ATOM     43  C   UNL A   1      39.692  26.314  29.161  1.00  0.00     0.029 A 
ATOM     44  N   UNL A   1      41.191  27.960  28.956  1.00  0.00    -0.354 N 
ATOM     45  C   UNL A   1      44.985  27.269  26.992  1.00  0.00     0.074 A 
ATOM     46  C   UNL A   1      45.076  25.921  26.481  1.00  0.00     0.031 C 
ATOM     47  C   UNL A   1      39.153  27.416  29.696  1.00  0.00     0.029 A 
ATOM     48  C   UNL A   1      40.125  28.503  29.637  1.00  0.00     0.049 A 
ATOM     49  H   UNL A   1      41.999  28.472  28.721  1.00  0.00     0.167 HD
ATOM     50  C   UNL A   1      45.945  28.213  26.847  1.00  0.00     0.034 A 
ATOM     51  C   UNL A   1      39.955  29.725  30.183  1.00  0.00     0.034 A 
ATOM     52  C   UNL A   1      45.820  29.565  27.328  1.00  0.00     0.049 A 
ATOM     53  C   UNL A   1      41.049  30.747  30.029  1.00  0.00     0.074 A 
ATOM     54  C   UNL A   1      46.722  30.605  27.187  1.00  0.00     0.029 A 
ATOM     55  N   UNL A   1      44.736  30.069  28.031  1.00  0.00    -0.354 N 
ATOM     56  N   UNL A   1      42.194  30.635  29.399  1.00  0.00    -0.248 NA
ATOM     57  C   UNL A   1      40.837  32.059  30.657  1.00  0.00     0.031 C 
ATOM     58  C   UNL A   1      46.215  31.717  27.858  1.00  0.00     0.029 A 
ATOM     59  C   UNL A   1      44.961  31.397  28.356  1.00  0.00     0.049 A 
ATOM     60  H   UNL A   1      43.926  29.559  28.264  1.00  0.00     0.167 HD
ATOM     61  C   UNL A   1      42.833  31.863  29.540  1.00  0.00     0.074 A 
ATOM     62  C   UNL A   1      41.935  32.713  30.294  1.00  0.00     0.031 C 
ATOM     63  C   UNL A   1      44.055  32.245  29.092  1.00  0.00     0.034 A 
BRANCH  50  64
ATOM     64  C   UNL A   1      47.226  27.853  26.132  1.00  0.00     0.023 A 
ATOM     65  C   UNL A   1      47.310  28.001  24.734  1.00  0.00     0.031 A 
ATOM     66  C   UNL A   1      48.288  27.222  26.800  1.00  0.00     0.131 A 
ATOM     67  C   UNL A   1      48.414  27.485  24.044  1.00  0.00     0.055 A 
ATOM     68  C   UNL A   1      49.405  26.743  26.112  1.00  0.00     0.041 A 
ATOM     69  F   UNL A   1      48.255  27.056  28.132  1.00  0.00    -0.206 F 
ATOM     70  C   UNL A   1      49.465  26.861  24.726  1.00  0.00     0.022 A 
BRANCH  67  71
ATOM     71  S   UNL A   1      48.498  27.537  22.233  1.00  0.00     0.124 S 
ATOM     72  O   UNL A   1      47.229  28.177  21.893  1.00  0.00    -0.237 OA
ATOM     73  O   UNL A   1      49.687  28.352  22.005  1.00  0.00    -0.237 OA
ATOM     74  O   UNL A   1      48.609  26.135  21.845  1.00  0.00    -0.744 OA
ENDBRANCH  67  71
ENDBRANCH  50  64
BRANCH  51  75
ATOM     75  C   UNL A   1      38.681  30.020  30.901  1.00  0.00     0.023 A 
ATOM     76  C   UNL A   1      37.689  30.819  30.301  1.00  0.00     0.031 A 
ATOM     77  C   UNL A   1      38.494  29.629  32.236  1.00  0.00     0.131 A 
ATOM     78  C   UNL A   1      36.604  31.275  31.061  1.00  0.00     0.055 A 
ATOM     79  C   UNL A   1      37.370  30.019  32.967  1.00  0.00     0.041 A 
ATOM     80  F   UNL A   1      39.417  28.876  32.856  1.00  0.00    -0.206 F 
ATOM     81  C   UNL A   1      36.430  30.866  32.386  1.00  0.00     0.022 A 
BRANCH  78  82
ATOM     82  S   UNL A   1      35.482  32.541  30.407  1.00  0.00     0.124 S 
ATOM     83  O   UNL A   1      35.162  32.011  29.085  1.00  0.00    -0.237 OA
ATOM     84  O   UNL A   1      34.393  32.508  31.380  1.00  0.00    -0.237 OA
ATOM     85  O   UNL A   1      36.288  33.758  30.423  1.00  0.00    -0.744 OA
ENDBRANCH  78  82
ENDBRANCH  51  75
BRANCH  63  86
ATOM     86  C   UNL A   1      44.529  33.646  29.384  1.00  0.00     0.023 A 
ATOM     87  C   UNL A   1      44.426  34.642  28.394  1.00  0.00     0.031 A 
ATOM     88  C   UNL A   1      45.240  33.945  30.558  1.00  0.00     0.131 A 
ATOM     89  C   UNL A   1      45.072  35.871  28.572  1.00  0.00     0.055 A 
ATOM     90  C   UNL A   1      45.842  35.190  30.753  1.00  0.00     0.041 A 
ATOM     91  F   UNL A   1      45.374  33.024  31.526  1.00  0.00    -0.206 F 
ATOM     92  C   UNL A   1      45.773  36.153  29.749  1.00  0.00     0.022 A 
BRANCH  89  93
ATOM     93  S   UNL A   1      45.108  37.110  27.247  1.00  0.00     0.124 S 
ATOM     94  O   UNL A   1      45.952  36.460  26.248  1.00  0.00    -0.237 OA
ATOM     95  O   UNL A   1      43.696  37.224  26.894  1.00  0.00    -0.237 OA
ATOM     96  O   UNL A   1      45.694  38.288  27.882  1.00  0.00    -0.744 OA
ENDBRANCH  89  93
ENDBRANCH  63  86
ENDBRANCH  37  38
ENDBRANCH  29  32
ENDBRANCH  27  28
ENDBRANCH   1  27
TORSDOF 16
ENDMDL
MODEL 3
REMARK VINA RESULT:     -12.9      2.041      2.911
REMARK SMILES C[C@@H]1Cc2ccccc2N1S(=O)(=O)c1cccc(C(=O)NCCCCNC(=O)c2ccc(-c3c4nc(c(-c5cc(S(=O)(=O)[O-])ccc5F)c5ccc([nH]5)c(-c5cc(S(=O)(=O)[O-])ccc5F)c5nc(c(-c6cc(S(=O)(=O)[O-])ccc6F)c6ccc3[nH]6)C=C5)C=C4)cc2)c1
REMARK SMILES IDX 24 1 23 2 22 3 21 4 19 5 20 6 18 8 14 9 15 10 92 11 16 12
REMARK SMILES IDX 17 13 11 14 12 15 13 16 10 17 1 18 2 19 3 20 4 21 9 22 5 23
REMARK SMILES IDX 8 24 6 25 7 26 25 27 26 28 27 29 28 31 29 32 30 33 91 34
REMARK SMILES IDX 31 35 90 36 32 37 33 38 34 39 84 40 35 41 89 42 83 43 85 44
REMARK SMILES IDX 36 45 88 46 82 47 81 48 37 50 69 51 49 52 68 53 50 54 53 55
REMARK SMILES IDX 67 56 86 57 51 58 52 59 66 61 87 62 54 63 38 64 39 65 47 66
REMARK SMILES IDX 40 67 46 68 48 69 45 70 41 71 42 72 43 73 44 74 70 75 71 76
REMARK SMILES IDX 79 77 72 78 78 79 80 80 77 81 73 82 74 83 75 84 76 85 55 86
REMARK SMILES IDX 56 87 64 88 57 89 63 90 65 91 62 92 58 93 59 94 60 95 61 96
REMARK H PARENT 21 7 26 30 85 49 53 60
REMARK Flexibility Score: inf
ROOT
ATOM      1  C   UNL A   1      32.099  31.001  26.792  1.00  0.00     0.023 C 
ENDROOT
BRANCH   1   2
ATOM      2  C   UNL A   1      32.346  29.499  26.802  1.00  0.00     0.023 C 
BRANCH   2   3
ATOM      3  C   UNL A   1      33.734  29.025  26.389  1.00  0.00     0.116 C 
BRANCH   3   4
ATOM      4  N   UNL A   1      34.065  29.198  24.985  1.00  0.00    -0.352 N 
ATOM      5  C   UNL A   1      33.693  28.480  23.871  1.00  0.00     0.251 C 
ATOM      6  O   UNL A   1      34.066  28.882  22.769  1.00  0.00    -0.269 OA
ATOM      7  H   UNL A   1      34.658  29.962  24.799  1.00  0.00     0.163 HD
BRANCH   5   8
ATOM      8  C   UNL A   1      32.940  27.194  23.946  1.00  0.00     0.041 A 
ATOM      9  C   UNL A   1      32.738  24.809  23.676  1.00  0.00     0.088 A 
ATOM     10  C   UNL A   1      31.344  24.885  23.745  1.00  0.00     0.022 A 
ATOM     11  C   UNL A   1      33.536  25.934  23.899  1.00  0.00     0.036 A 
ATOM     12  C   UNL A   1      30.742  26.126  23.924  1.00  0.00     0.002 A 
ATOM     13  C   UNL A   1      31.534  27.276  23.989  1.00  0.00     0.014 A 
BRANCH   9  14
ATOM     14  S   UNL A   1      33.500  23.295  23.149  1.00  0.00     0.264 S 
ATOM     15  O   UNL A   1      34.672  23.640  22.374  1.00  0.00    -0.201 OA
ATOM     16  O   UNL A   1      32.455  22.471  22.565  1.00  0.00    -0.201 OA
BRANCH  14  17
ATOM     17  N   UNL A   1      34.022  22.498  24.597  1.00  0.00    -0.263 N 
ATOM     18  C   UNL A   1      32.652  20.580  25.402  1.00  0.00     0.032 C 
ATOM     19  C   UNL A   1      33.797  20.990  24.487  1.00  0.00     0.101 C 
ATOM     20  C   UNL A   1      35.129  20.300  24.864  1.00  0.00     0.063 C 
ATOM     21  C   UNL A   1      36.048  21.444  25.123  1.00  0.00    -0.021 A 
ATOM     22  C   UNL A   1      35.390  22.661  25.013  1.00  0.00     0.055 A 
ATOM     23  C   UNL A   1      37.385  21.373  25.500  1.00  0.00     0.006 A 
ATOM     24  C   UNL A   1      36.023  23.823  25.423  1.00  0.00     0.027 A 
ATOM     25  C   UNL A   1      38.054  22.557  25.815  1.00  0.00     0.000 A 
ATOM     26  C   UNL A   1      37.370  23.775  25.798  1.00  0.00     0.002 A 
ENDBRANCH  14  17
ENDBRANCH   9  14
ENDBRANCH   5   8
ENDBRANCH   3   4
ENDBRANCH   2   3
ENDBRANCH   1   2
BRANCH   1  27
ATOM     27  C   UNL A   1      33.215  31.867  27.360  1.00  0.00     0.116 C 
BRANCH  27  28
ATOM     28  N   UNL A   1      32.826  33.251  27.601  1.00  0.00    -0.352 N 
ATOM     29  C   UNL A   1      33.320  34.173  28.498  1.00  0.00     0.251 C 
ATOM     30  H   UNL A   1      32.095  33.580  27.030  1.00  0.00     0.163 HD
ATOM     31  O   UNL A   1      32.785  35.274  28.592  1.00  0.00    -0.269 OA
BRANCH  29  32
ATOM     32  C   UNL A   1      34.446  33.813  29.386  1.00  0.00     0.039 A 
ATOM     33  C   UNL A   1      35.737  34.269  29.125  1.00  0.00     0.014 A 
ATOM     34  C   UNL A   1      34.214  32.954  30.464  1.00  0.00     0.014 A 
ATOM     35  C   UNL A   1      36.816  33.687  29.779  1.00  0.00     0.010 A 
ATOM     36  C   UNL A   1      35.296  32.452  31.195  1.00  0.00     0.010 A 
ATOM     37  C   UNL A   1      36.611  32.759  30.812  1.00  0.00    -0.014 A 
BRANCH  37  38
ATOM     38  C   UNL A   1      37.778  32.111  31.470  1.00  0.00     0.031 A 
ATOM     39  C   UNL A   1      38.521  30.990  30.793  1.00  0.00     0.074 A 
ATOM     40  C   UNL A   1      38.194  32.566  32.669  1.00  0.00     0.049 A 
ATOM     41  N   UNL A   1      39.537  30.292  31.233  1.00  0.00    -0.248 NA
ATOM     42  C   UNL A   1      38.066  30.593  29.450  1.00  0.00     0.031 C 
ATOM     43  C   UNL A   1      37.562  33.657  33.411  1.00  0.00     0.029 A 
ATOM     44  N   UNL A   1      39.243  32.184  33.468  1.00  0.00    -0.354 N 
ATOM     45  C   UNL A   1      39.823  29.360  30.241  1.00  0.00     0.074 A 
ATOM     46  C   UNL A   1      38.860  29.564  29.183  1.00  0.00     0.031 C 
ATOM     47  C   UNL A   1      38.258  33.886  34.532  1.00  0.00     0.029 A 
ATOM     48  C   UNL A   1      39.332  32.904  34.638  1.00  0.00     0.049 A 
ATOM     49  H   UNL A   1      39.871  31.465  33.228  1.00  0.00     0.167 HD
ATOM     50  C   UNL A   1      40.807  28.430  30.215  1.00  0.00     0.034 A 
ATOM     51  C   UNL A   1      40.160  32.773  35.695  1.00  0.00     0.034 A 
ATOM     52  C   UNL A   1      41.784  28.269  31.262  1.00  0.00     0.049 A 
ATOM     53  C   UNL A   1      41.229  31.715  35.653  1.00  0.00     0.074 A 
ATOM     54  C   UNL A   1      42.847  27.384  31.304  1.00  0.00     0.029 A 
ATOM     55  N   UNL A   1      41.828  29.001  32.439  1.00  0.00    -0.354 N 
ATOM     56  N   UNL A   1      41.507  30.867  34.691  1.00  0.00    -0.248 NA
ATOM     57  C   UNL A   1      42.098  31.588  36.832  1.00  0.00     0.031 C 
ATOM     58  C   UNL A   1      43.494  27.536  32.530  1.00  0.00     0.029 A 
ATOM     59  C   UNL A   1      42.882  28.567  33.226  1.00  0.00     0.049 A 
ATOM     60  H   UNL A   1      41.202  29.723  32.680  1.00  0.00     0.167 HD
ATOM     61  C   UNL A   1      42.589  30.117  35.140  1.00  0.00     0.074 A 
ATOM     62  C   UNL A   1      42.933  30.628  36.450  1.00  0.00     0.031 C 
ATOM     63  C   UNL A   1      43.231  29.093  34.524  1.00  0.00     0.034 A 
BRANCH  50  64
ATOM     64  C   UNL A   1      40.914  27.506  29.027  1.00  0.00     0.023 A 
ATOM     65  C   UNL A   1      41.894  27.743  28.043  1.00  0.00     0.031 A 
ATOM     66  C   UNL A   1      39.959  26.503  28.788  1.00  0.00     0.131 A 
ATOM     67  C   UNL A   1      41.870  27.017  26.846  1.00  0.00     0.055 A 
ATOM     68  C   UNL A   1      39.964  25.754  27.609  1.00  0.00     0.041 A 
ATOM     69  F   UNL A   1      39.005  26.239  29.694  1.00  0.00    -0.206 F 
ATOM     70  C   UNL A   1      40.913  26.020  26.625  1.00  0.00     0.022 A 
BRANCH  67  71
ATOM     71  S   UNL A   1      43.030  27.383  25.502  1.00  0.00     0.124 S 
ATOM     72  O   UNL A   1      44.130  28.023  26.221  1.00  0.00    -0.237 OA
ATOM     73  O   UNL A   1      43.320  26.052  24.976  1.00  0.00    -0.237 OA
ATOM     74  O   UNL A   1      42.276  28.263  24.615  1.00  0.00    -0.744 OA
ENDBRANCH  67  71
ENDBRANCH  50  64
BRANCH  51  75
ATOM     75  C   UNL A   1      39.995  33.696  36.856  1.00  0.00     0.023 A 
ATOM     76  C   UNL A   1      40.858  34.796  37.025  1.00  0.00     0.031 A 
ATOM     77  C   UNL A   1      39.073  33.419  37.876  1.00  0.00     0.131 A 
ATOM     78  C   UNL A   1      40.842  35.519  38.224  1.00  0.00     0.055 A 
ATOM     79  C   UNL A   1      39.005  34.193  39.037  1.00  0.00     0.041 A 
ATOM     80  F   UNL A   1      38.236  32.375  37.767  1.00  0.00    -0.206 F 
ATOM     81  C   UNL A   1      39.909  35.235  39.224  1.00  0.00     0.022 A 
BRANCH  78  82
ATOM     82  S   UNL A   1      42.137  36.737  38.589  1.00  0.00     0.124 S 
ATOM     83  O   UNL A   1      42.648  37.045  37.257  1.00  0.00    -0.237 OA
ATOM     84  O   UNL A   1      41.372  37.802  39.234  1.00  0.00    -0.237 OA
ATOM     85  O   UNL A   1      43.052  36.015  39.467  1.00  0.00    -0.744 OA
ENDBRANCH  78  82
ENDBRANCH  51  75
BRANCH  63  86
ATOM     86  C   UNL A   1      44.386  28.430  35.231  1.00  0.00     0.023 A 
ATOM     87  C   UNL A   1      44.140  27.421  36.183  1.00  0.00     0.031 A 
ATOM     88  C   UNL A   1      45.697  28.916  35.100  1.00  0.00     0.131 A 
ATOM     89  C   UNL A   1      45.180  26.971  37.006  1.00  0.00     0.055 A 
ATOM     90  C   UNL A   1      46.741  28.429  35.888  1.00  0.00     0.041 A 
ATOM     91  F   UNL A   1      45.979  29.884  34.212  1.00  0.00    -0.206 F 
ATOM     92  C   UNL A   1      46.480  27.465  36.859  1.00  0.00     0.022 A 
BRANCH  89  93
ATOM     93  S   UNL A   1      44.865  25.804  38.358  1.00  0.00     0.124 S 
ATOM     94  O   UNL A   1      43.768  26.455  39.071  1.00  0.00    -0.237 OA
ATOM     95  O   UNL A   1      44.505  24.587  37.636  1.00  0.00    -0.237 OA
ATOM     96  O   UNL A   1      46.131  25.754  39.083  1.00  0.00    -0.744 OA
ENDBRANCH  89  93
ENDBRANCH  63  86
ENDBRANCH  37  38
ENDBRANCH  29  32
ENDBRANCH  27  28
ENDBRANCH   1  27
TORSDOF 16
ENDMDL
