MODEL 1
REMARK VINA RESULT:     -11.2      0.000      0.000
REMARK SMILES C#CC[C@@H](C(=O)NCCCCNC(=O)c1ccc(-c2c3nc(c(-c4cc(S(=O)(=O)[O-])ccc4F)c4ccc([nH]4)c(-c4cc(S(=O)(=O)[O-])ccc4F)c4nc(c(-c5cc(S(=O)(=O)[O-])ccc5F)c5ccc2[nH]5)C=C4)C=C3)cc1)[C@H]1CCS(=O)(=O)C1
REMARK SMILES IDX 10 1 9 2 8 3 7 4 5 5 6 6 4 8 3 9 2 10 1 11 78 12 79 13 84 14
REMARK SMILES IDX 80 15 81 16 82 17 83 18 11 19 12 20 13 21 14 23 15 24 16 25
REMARK SMILES IDX 77 26 17 27 76 28 18 29 19 30 20 31 70 32 21 33 75 34 69 35
REMARK SMILES IDX 71 36 22 37 74 38 68 39 67 40 23 42 55 43 35 44 54 45 36 46
REMARK SMILES IDX 39 47 53 48 72 49 37 50 38 51 52 53 73 54 40 55 24 56 25 57
REMARK SMILES IDX 33 58 26 59 32 60 34 61 31 62 27 63 28 64 29 65 30 66 56 67
REMARK SMILES IDX 57 68 65 69 58 70 64 71 66 72 63 73 59 74 60 75 61 76 62 77
REMARK SMILES IDX 41 78 42 79 50 80 43 81 49 82 51 83 48 84 44 85 45 86 46 87
REMARK SMILES IDX 47 88
REMARK H PARENT 7 7 12 22 71 41 39 52
REMARK Flexibility Score: inf
ROOT
ATOM      1  C   UNL A   1      33.205  30.106  27.177  1.00  0.00     0.023 C 
ENDROOT
BRANCH   1   2
ATOM      2  C   UNL A   1      34.151  28.980  26.828  1.00  0.00     0.023 C 
BRANCH   2   3
ATOM      3  C   UNL A   1      33.755  28.058  25.656  1.00  0.00     0.116 C 
BRANCH   3   4
ATOM      4  N   UNL A   1      33.475  28.868  24.483  1.00  0.00    -0.356 N 
ATOM      5  C   UNL A   1      32.429  28.926  23.619  1.00  0.00     0.224 C 
ATOM      6  O   UNL A   1      32.773  29.250  22.479  1.00  0.00    -0.275 OA
ATOM      7  H   UNL A   1      34.193  29.507  24.271  1.00  0.00     0.163 HD
BRANCH   5   8
ATOM      8  C   UNL A   1      30.927  28.710  23.985  1.00  0.00     0.094 C 
BRANCH   8   9
ATOM      9  C   UNL A   1      30.379  27.264  23.759  1.00  0.00     0.103 C 
BRANCH   9  10
ATOM     10  C   UNL A   1      30.505  26.443  25.032  1.00  0.00    -0.106 C 
ATOM     11  C   UNL A   1      30.614  25.738  26.124  1.00  0.00     0.004 C 
ENDBRANCH   9  10
ENDBRANCH   8   9
BRANCH   8  12
ATOM     12  C   UNL A   1      29.957  29.675  23.192  1.00  0.00     0.018 C 
ATOM     13  C   UNL A   1      28.727  28.977  22.586  1.00  0.00     0.021 C 
ATOM     14  C   UNL A   1      29.358  30.896  23.918  1.00  0.00     0.141 C 
ATOM     15  C   UNL A   1      27.910  30.065  21.871  1.00  0.00     0.137 C 
ATOM     16  S   UNL A   1      28.181  31.582  22.772  1.00  0.00     0.150 S 
ATOM     17  O   UNL A   1      28.875  32.516  21.903  1.00  0.00    -0.229 OA
ATOM     18  O   UNL A   1      26.968  31.939  23.472  1.00  0.00    -0.229 OA
ENDBRANCH   8  12
ENDBRANCH   5   8
ENDBRANCH   3   4
ENDBRANCH   2   3
ENDBRANCH   1   2
BRANCH   1  19
ATOM     19  C   UNL A   1      33.907  31.380  27.626  1.00  0.00     0.116 C 
BRANCH  19  20
ATOM     20  N   UNL A   1      33.113  32.614  27.564  1.00  0.00    -0.352 N 
ATOM     21  C   UNL A   1      33.274  33.783  28.287  1.00  0.00     0.251 C 
ATOM     22  H   UNL A   1      32.366  32.610  26.923  1.00  0.00     0.163 HD
ATOM     23  O   UNL A   1      32.511  34.729  28.134  1.00  0.00    -0.269 OA
BRANCH  21  24
ATOM     24  C   UNL A   1      34.352  33.824  29.295  1.00  0.00     0.039 A 
ATOM     25  C   UNL A   1      34.143  33.218  30.534  1.00  0.00     0.014 A 
ATOM     26  C   UNL A   1      35.625  34.230  28.899  1.00  0.00     0.014 A 
ATOM     27  C   UNL A   1      35.250  32.865  31.306  1.00  0.00     0.010 A 
ATOM     28  C   UNL A   1      36.720  33.744  29.595  1.00  0.00     0.010 A 
ATOM     29  C   UNL A   1      36.547  33.033  30.793  1.00  0.00    -0.014 A 
BRANCH  29  30
ATOM     30  C   UNL A   1      37.737  32.435  31.459  1.00  0.00     0.031 A 
ATOM     31  C   UNL A   1      38.475  31.311  30.784  1.00  0.00     0.074 A 
ATOM     32  C   UNL A   1      38.084  32.832  32.704  1.00  0.00     0.049 A 
ATOM     33  N   UNL A   1      39.453  30.575  31.242  1.00  0.00    -0.248 NA
ATOM     34  C   UNL A   1      38.025  30.935  29.433  1.00  0.00     0.031 C 
ATOM     35  C   UNL A   1      37.401  33.865  33.491  1.00  0.00     0.029 A 
ATOM     36  N   UNL A   1      39.092  32.408  33.537  1.00  0.00    -0.354 N 
ATOM     37  C   UNL A   1      39.717  29.639  30.248  1.00  0.00     0.074 A 
ATOM     38  C   UNL A   1      38.751  29.853  29.195  1.00  0.00     0.031 C 
ATOM     39  C   UNL A   1      38.033  34.019  34.666  1.00  0.00     0.029 A 
ATOM     40  C   UNL A   1      39.123  33.056  34.753  1.00  0.00     0.049 A 
ATOM     41  H   UNL A   1      39.733  31.705  33.288  1.00  0.00     0.167 HD
ATOM     42  C   UNL A   1      40.694  28.704  30.206  1.00  0.00     0.034 A 
ATOM     43  C   UNL A   1      39.926  32.880  35.824  1.00  0.00     0.034 A 
ATOM     44  C   UNL A   1      41.675  28.530  31.246  1.00  0.00     0.049 A 
ATOM     45  C   UNL A   1      40.998  31.819  35.751  1.00  0.00     0.074 A 
ATOM     46  C   UNL A   1      42.765  27.679  31.261  1.00  0.00     0.029 A 
ATOM     47  N   UNL A   1      41.680  29.209  32.456  1.00  0.00    -0.354 N 
ATOM     48  N   UNL A   1      41.287  31.003  34.763  1.00  0.00    -0.248 NA
ATOM     49  C   UNL A   1      41.855  31.654  36.933  1.00  0.00     0.031 C 
ATOM     50  C   UNL A   1      43.379  27.782  32.511  1.00  0.00     0.029 A 
ATOM     51  C   UNL A   1      42.726  28.761  33.244  1.00  0.00     0.049 A 
ATOM     52  H   UNL A   1      41.036  29.908  32.715  1.00  0.00     0.167 HD
ATOM     53  C   UNL A   1      42.373  30.249  35.199  1.00  0.00     0.074 A 
ATOM     54  C   UNL A   1      42.707  30.728  36.523  1.00  0.00     0.031 C 
ATOM     55  C   UNL A   1      43.035  29.246  34.566  1.00  0.00     0.034 A 
BRANCH  42  56
ATOM     56  C   UNL A   1      40.747  27.793  29.006  1.00  0.00     0.023 A 
ATOM     57  C   UNL A   1      41.676  27.985  27.969  1.00  0.00     0.031 A 
ATOM     58  C   UNL A   1      39.864  26.704  28.908  1.00  0.00     0.131 A 
ATOM     59  C   UNL A   1      41.668  27.133  26.856  1.00  0.00     0.055 A 
ATOM     60  C   UNL A   1      39.911  25.814  27.835  1.00  0.00     0.041 A 
ATOM     61  F   UNL A   1      38.938  26.488  29.856  1.00  0.00    -0.206 F 
ATOM     62  C   UNL A   1      40.811  26.030  26.795  1.00  0.00     0.022 A 
BRANCH  59  63
ATOM     63  S   UNL A   1      42.717  27.547  25.437  1.00  0.00     0.124 S 
ATOM     64  O   UNL A   1      42.725  26.288  24.698  1.00  0.00    -0.237 OA
ATOM     65  O   UNL A   1      41.988  28.647  24.816  1.00  0.00    -0.237 OA
ATOM     66  O   UNL A   1      43.993  27.911  26.049  1.00  0.00    -0.744 OA
ENDBRANCH  59  63
ENDBRANCH  42  56
BRANCH  43  67
ATOM     67  C   UNL A   1      39.745  33.686  37.072  1.00  0.00     0.023 A 
ATOM     68  C   UNL A   1      39.071  33.155  38.185  1.00  0.00     0.031 A 
ATOM     69  C   UNL A   1      40.159  35.029  37.139  1.00  0.00     0.131 A 
ATOM     70  C   UNL A   1      38.767  33.979  39.281  1.00  0.00     0.055 A 
ATOM     71  C   UNL A   1      39.917  35.824  38.261  1.00  0.00     0.041 A 
ATOM     72  F   UNL A   1      40.806  35.594  36.106  1.00  0.00    -0.206 F 
ATOM     73  C   UNL A   1      39.198  35.306  39.333  1.00  0.00     0.022 A 
BRANCH  70  74
ATOM     74  S   UNL A   1      37.673  33.329  40.577  1.00  0.00     0.124 S 
ATOM     75  O   UNL A   1      38.427  32.173  41.047  1.00  0.00    -0.237 OA
ATOM     76  O   UNL A   1      37.590  34.459  41.495  1.00  0.00    -0.237 OA
ATOM     77  O   UNL A   1      36.440  33.020  39.856  1.00  0.00    -0.744 OA
ENDBRANCH  70  74
ENDBRANCH  43  67
BRANCH  55  78
ATOM     78  C   UNL A   1      44.201  28.626  35.296  1.00  0.00     0.023 A 
ATOM     79  C   UNL A   1      44.039  27.492  36.109  1.00  0.00     0.031 A 
ATOM     80  C   UNL A   1      45.489  29.176  35.173  1.00  0.00     0.131 A 
ATOM     81  C   UNL A   1      45.136  26.975  36.811  1.00  0.00     0.055 A 
ATOM     82  C   UNL A   1      46.591  28.616  35.820  1.00  0.00     0.041 A 
ATOM     83  F   UNL A   1      45.700  30.261  34.410  1.00  0.00    -0.206 F 
ATOM     84  C   UNL A   1      46.415  27.517  36.656  1.00  0.00     0.022 A 
BRANCH  81  85
ATOM     85  S   UNL A   1      44.852  25.640  38.004  1.00  0.00     0.124 S 
ATOM     86  O   UNL A   1      45.796  24.624  37.550  1.00  0.00    -0.237 OA
ATOM     87  O   UNL A   1      45.170  26.283  39.275  1.00  0.00    -0.237 OA
ATOM     88  O   UNL A   1      43.442  25.306  37.815  1.00  0.00    -0.744 OA
ENDBRANCH  81  85
ENDBRANCH  55  78
ENDBRANCH  29  30
ENDBRANCH  21  24
ENDBRANCH  19  20
ENDBRANCH   1  19
TORSDOF 17
ENDMDL
MODEL 2
REMARK VINA RESULT:     -10.9      5.836      8.851
REMARK SMILES C#CC[C@@H](C(=O)NCCCCNC(=O)c1ccc(-c2c3nc(c(-c4cc(S(=O)(=O)[O-])ccc4F)c4ccc([nH]4)c(-c4cc(S(=O)(=O)[O-])ccc4F)c4nc(c(-c5cc(S(=O)(=O)[O-])ccc5F)c5ccc2[nH]5)C=C4)C=C3)cc1)[C@H]1CCS(=O)(=O)C1
REMARK SMILES IDX 10 1 9 2 8 3 7 4 5 5 6 6 4 8 3 9 2 10 1 11 78 12 79 13 84 14
REMARK SMILES IDX 80 15 81 16 82 17 83 18 11 19 12 20 13 21 14 23 15 24 16 25
REMARK SMILES IDX 77 26 17 27 76 28 18 29 19 30 20 31 70 32 21 33 75 34 69 35
REMARK SMILES IDX 71 36 22 37 74 38 68 39 67 40 23 42 55 43 35 44 54 45 36 46
REMARK SMILES IDX 39 47 53 48 72 49 37 50 38 51 52 53 73 54 40 55 24 56 25 57
REMARK SMILES IDX 33 58 26 59 32 60 34 61 31 62 27 63 28 64 29 65 30 66 56 67
REMARK SMILES IDX 57 68 65 69 58 70 64 71 66 72 63 73 59 74 60 75 61 76 62 77
REMARK SMILES IDX 41 78 42 79 50 80 43 81 49 82 51 83 48 84 44 85 45 86 46 87
REMARK SMILES IDX 47 88
REMARK H PARENT 7 7 12 22 71 41 39 52
REMARK Flexibility Score: inf
ROOT
ATOM      1  C   UNL A   1      36.369  20.780  24.676  1.00  0.00     0.023 C 
ENDROOT
BRANCH   1   2
ATOM      2  C   UNL A   1      35.091  21.029  25.446  1.00  0.00     0.023 C 
BRANCH   2   3
ATOM      3  C   UNL A   1      34.553  22.474  25.480  1.00  0.00     0.116 C 
BRANCH   3   4
ATOM      4  N   UNL A   1      33.127  22.461  25.205  1.00  0.00    -0.356 N 
ATOM      5  C   UNL A   1      32.112  23.309  25.509  1.00  0.00     0.224 C 
ATOM      6  O   UNL A   1      31.034  22.725  25.658  1.00  0.00    -0.275 OA
ATOM      7  H   UNL A   1      32.837  21.672  24.692  1.00  0.00     0.163 HD
BRANCH   5   8
ATOM      8  C   UNL A   1      32.210  24.864  25.583  1.00  0.00     0.094 C 
BRANCH   8   9
ATOM      9  C   UNL A   1      31.030  25.581  26.315  1.00  0.00     0.103 C 
BRANCH   9  10
ATOM     10  C   UNL A   1      31.409  27.013  26.658  1.00  0.00    -0.106 C 
ATOM     11  C   UNL A   1      31.733  28.242  26.952  1.00  0.00     0.004 C 
ENDBRANCH   9  10
ENDBRANCH   8   9
BRANCH   8  12
ATOM     12  C   UNL A   1      32.317  25.542  24.158  1.00  0.00     0.018 C 
ATOM     13  C   UNL A   1      33.684  26.184  23.864  1.00  0.00     0.021 C 
ATOM     14  C   UNL A   1      32.041  24.690  22.902  1.00  0.00     0.141 C 
ATOM     15  C   UNL A   1      33.598  26.776  22.448  1.00  0.00     0.137 C 
ATOM     16  S   UNL A   1      32.469  25.741  21.530  1.00  0.00     0.150 S 
ATOM     17  O   UNL A   1      31.304  26.532  21.174  1.00  0.00    -0.229 OA
ATOM     18  O   UNL A   1      33.214  24.985  20.549  1.00  0.00    -0.229 OA
ENDBRANCH   8  12
ENDBRANCH   5   8
ENDBRANCH   3   4
ENDBRANCH   2   3
ENDBRANCH   1   2
BRANCH   1  19
ATOM     19  C   UNL A   1      37.597  21.427  25.302  1.00  0.00     0.116 C 
BRANCH  19  20
ATOM     20  N   UNL A   1      38.780  20.569  25.445  1.00  0.00    -0.352 N 
ATOM     21  C   UNL A   1      39.913  20.779  26.210  1.00  0.00     0.251 C 
ATOM     22  H   UNL A   1      38.766  19.732  24.927  1.00  0.00     0.163 HD
ATOM     23  O   UNL A   1      40.833  19.970  26.211  1.00  0.00    -0.269 OA
BRANCH  21  24
ATOM     24  C   UNL A   1      40.004  22.041  26.970  1.00  0.00     0.039 A 
ATOM     25  C   UNL A   1      41.049  22.211  27.878  1.00  0.00     0.014 A 
ATOM     26  C   UNL A   1      39.209  23.118  26.580  1.00  0.00     0.014 A 
ATOM     27  C   UNL A   1      41.404  23.504  28.262  1.00  0.00     0.010 A 
ATOM     28  C   UNL A   1      39.659  24.401  26.845  1.00  0.00     0.010 A 
ATOM     29  C   UNL A   1      40.777  24.611  27.668  1.00  0.00    -0.014 A 
BRANCH  29  30
ATOM     30  C   UNL A   1      41.296  25.996  27.845  1.00  0.00     0.031 A 
ATOM     31  C   UNL A   1      42.657  26.350  27.308  1.00  0.00     0.074 A 
ATOM     32  C   UNL A   1      40.593  26.892  28.574  1.00  0.00     0.049 A 
ATOM     33  N   UNL A   1      43.341  27.453  27.460  1.00  0.00    -0.248 NA
ATOM     34  C   UNL A   1      43.359  25.312  26.535  1.00  0.00     0.031 C 
ATOM     35  C   UNL A   1      39.292  26.643  29.206  1.00  0.00     0.029 A 
ATOM     36  N   UNL A   1      40.874  28.192  28.918  1.00  0.00    -0.354 N 
ATOM     37  C   UNL A   1      44.558  27.231  26.824  1.00  0.00     0.074 A 
ATOM     38  C   UNL A   1      44.546  25.868  26.348  1.00  0.00     0.031 C 
ATOM     39  C   UNL A   1      38.876  27.761  29.822  1.00  0.00     0.029 A 
ATOM     40  C   UNL A   1      39.901  28.790  29.690  1.00  0.00     0.049 A 
ATOM     41  H   UNL A   1      41.696  28.655  28.639  1.00  0.00     0.167 HD
ATOM     42  C   UNL A   1      45.580  28.097  26.631  1.00  0.00     0.034 A 
ATOM     43  C   UNL A   1      39.850  30.019  30.246  1.00  0.00     0.034 A 
ATOM     44  C   UNL A   1      45.559  29.465  27.078  1.00  0.00     0.049 A 
ATOM     45  C   UNL A   1      41.013  30.956  30.025  1.00  0.00     0.074 A 
ATOM     46  C   UNL A   1      46.500  30.454  26.852  1.00  0.00     0.029 A 
ATOM     47  N   UNL A   1      44.555  30.036  27.847  1.00  0.00    -0.354 N 
ATOM     48  N   UNL A   1      42.118  30.755  29.342  1.00  0.00    -0.248 NA
ATOM     49  C   UNL A   1      40.925  32.286  30.643  1.00  0.00     0.031 C 
ATOM     50  C   UNL A   1      46.106  31.596  27.553  1.00  0.00     0.029 A 
ATOM     51  C   UNL A   1      44.878  31.349  28.145  1.00  0.00     0.049 A 
ATOM     52  H   UNL A   1      43.734  29.576  28.137  1.00  0.00     0.167 HD
ATOM     53  C   UNL A   1      42.839  31.942  29.431  1.00  0.00     0.074 A 
ATOM     54  C   UNL A   1      42.034  32.862  30.205  1.00  0.00     0.031 C 
ATOM     55  C   UNL A   1      44.062  32.246  28.926  1.00  0.00     0.034 A 
BRANCH  42  56
ATOM     56  C   UNL A   1      46.807  27.590  25.918  1.00  0.00     0.023 A 
ATOM     57  C   UNL A   1      47.062  27.897  24.570  1.00  0.00     0.031 A 
ATOM     58  C   UNL A   1      47.747  26.801  26.604  1.00  0.00     0.131 A 
ATOM     59  C   UNL A   1      48.200  27.376  23.938  1.00  0.00     0.055 A 
ATOM     60  C   UNL A   1      48.916  26.350  25.991  1.00  0.00     0.041 A 
ATOM     61  F   UNL A   1      47.542  26.455  27.885  1.00  0.00    -0.206 F 
ATOM     62  C   UNL A   1      49.144  26.629  24.647  1.00  0.00     0.022 A 
BRANCH  59  63
ATOM     63  S   UNL A   1      48.374  27.597  22.147  1.00  0.00     0.124 S 
ATOM     64  O   UNL A   1      47.087  28.192  21.796  1.00  0.00    -0.237 OA
ATOM     65  O   UNL A   1      49.531  28.479  22.048  1.00  0.00    -0.237 OA
ATOM     66  O   UNL A   1      48.581  26.238  21.652  1.00  0.00    -0.744 OA
ENDBRANCH  59  63
ENDBRANCH  42  56
BRANCH  43  67
ATOM     67  C   UNL A   1      38.691  30.440  31.094  1.00  0.00     0.023 A 
ATOM     68  C   UNL A   1      37.564  31.057  30.525  1.00  0.00     0.031 A 
ATOM     69  C   UNL A   1      38.731  30.319  32.495  1.00  0.00     0.131 A 
ATOM     70  C   UNL A   1      36.563  31.592  31.352  1.00  0.00     0.055 A 
ATOM     71  C   UNL A   1      37.698  30.788  33.310  1.00  0.00     0.041 A 
ATOM     72  F   UNL A   1      39.782  29.740  33.098  1.00  0.00    -0.206 F 
ATOM     73  C   UNL A   1      36.615  31.449  32.740  1.00  0.00     0.022 A 
BRANCH  70  74
ATOM     74  S   UNL A   1      35.261  32.605  30.593  1.00  0.00     0.124 S 
ATOM     75  O   UNL A   1      34.869  31.779  29.457  1.00  0.00    -0.237 OA
ATOM     76  O   UNL A   1      34.290  32.709  31.677  1.00  0.00    -0.237 OA
ATOM     77  O   UNL A   1      35.951  33.847  30.255  1.00  0.00    -0.744 OA
ENDBRANCH  70  74
ENDBRANCH  43  67
BRANCH  55  78
ATOM     78  C   UNL A   1      44.580  33.641  29.174  1.00  0.00     0.023 A 
ATOM     79  C   UNL A   1      44.109  34.741  28.440  1.00  0.00     0.031 A 
ATOM     80  C   UNL A   1      45.556  33.871  30.160  1.00  0.00     0.131 A 
ATOM     81  C   UNL A   1      44.651  36.014  28.664  1.00  0.00     0.055 A 
ATOM     82  C   UNL A   1      46.043  35.150  30.427  1.00  0.00     0.041 A 
ATOM     83  F   UNL A   1      46.043  32.855  30.891  1.00  0.00    -0.206 F 
ATOM     84  C   UNL A   1      45.600  36.230  29.667  1.00  0.00     0.022 A 
BRANCH  81  85
ATOM     85  S   UNL A   1      44.167  37.371  27.563  1.00  0.00     0.124 S 
ATOM     86  O   UNL A   1      43.551  38.310  28.495  1.00  0.00    -0.237 OA
ATOM     87  O   UNL A   1      45.445  37.783  26.994  1.00  0.00    -0.237 OA
ATOM     88  O   UNL A   1      43.246  36.736  26.622  1.00  0.00    -0.744 OA
ENDBRANCH  81  85
ENDBRANCH  55  78
ENDBRANCH  29  30
ENDBRANCH  21  24
ENDBRANCH  19  20
ENDBRANCH   1  19
TORSDOF 17
ENDMDL
MODEL 3
REMARK VINA RESULT:     -10.9      2.572      8.533
REMARK SMILES C#CC[C@@H](C(=O)NCCCCNC(=O)c1ccc(-c2c3nc(c(-c4cc(S(=O)(=O)[O-])ccc4F)c4ccc([nH]4)c(-c4cc(S(=O)(=O)[O-])ccc4F)c4nc(c(-c5cc(S(=O)(=O)[O-])ccc5F)c5ccc2[nH]5)C=C4)C=C3)cc1)[C@H]1CCS(=O)(=O)C1
REMARK SMILES IDX 10 1 9 2 8 3 7 4 5 5 6 6 4 8 3 9 2 10 1 11 78 12 79 13 84 14
REMARK SMILES IDX 80 15 81 16 82 17 83 18 11 19 12 20 13 21 14 23 15 24 16 25
REMARK SMILES IDX 77 26 17 27 76 28 18 29 19 30 20 31 70 32 21 33 75 34 69 35
REMARK SMILES IDX 71 36 22 37 74 38 68 39 67 40 23 42 55 43 35 44 54 45 36 46
REMARK SMILES IDX 39 47 53 48 72 49 37 50 38 51 52 53 73 54 40 55 24 56 25 57
REMARK SMILES IDX 33 58 26 59 32 60 34 61 31 62 27 63 28 64 29 65 30 66 56 67
REMARK SMILES IDX 57 68 65 69 58 70 64 71 66 72 63 73 59 74 60 75 61 76 62 77
REMARK SMILES IDX 41 78 42 79 50 80 43 81 49 82 51 83 48 84 44 85 45 86 46 87
REMARK SMILES IDX 47 88
REMARK H PARENT 7 7 12 22 71 41 39 52
REMARK Flexibility Score: inf
ROOT
ATOM      1  C   UNL A   1      31.032  31.301  25.476  1.00  0.00     0.023 C 
ENDROOT
BRANCH   1   2
ATOM      2  C   UNL A   1      30.815  29.879  25.011  1.00  0.00     0.023 C 
BRANCH   2   3
ATOM      3  C   UNL A   1      30.848  29.617  23.491  1.00  0.00     0.116 C 
BRANCH   3   4
ATOM      4  N   UNL A   1      32.195  29.245  23.098  1.00  0.00    -0.356 N 
ATOM      5  C   UNL A   1      33.131  28.425  23.641  1.00  0.00     0.224 C 
ATOM      6  O   UNL A   1      34.284  28.803  23.410  1.00  0.00    -0.275 OA
ATOM      7  H   UNL A   1      32.491  29.679  22.266  1.00  0.00     0.163 HD
BRANCH   5   8
ATOM      8  C   UNL A   1      32.850  27.090  24.399  1.00  0.00     0.094 C 
BRANCH   8   9
ATOM      9  C   UNL A   1      33.496  26.970  25.816  1.00  0.00     0.103 C 
BRANCH   9  10
ATOM     10  C   UNL A   1      32.577  27.560  26.872  1.00  0.00    -0.106 C 
ATOM     11  C   UNL A   1      31.788  28.067  27.779  1.00  0.00     0.004 C 
ENDBRANCH   9  10
ENDBRANCH   8   9
BRANCH   8  12
ATOM     12  C   UNL A   1      33.321  25.814  23.593  1.00  0.00     0.018 C 
ATOM     13  C   UNL A   1      34.365  24.953  24.325  1.00  0.00     0.021 C 
ATOM     14  C   UNL A   1      32.266  24.788  23.133  1.00  0.00     0.141 C 
ATOM     15  C   UNL A   1      34.689  23.770  23.399  1.00  0.00     0.137 C 
ATOM     16  S   UNL A   1      33.205  23.428  22.469  1.00  0.00     0.150 S 
ATOM     17  O   UNL A   1      33.469  23.694  21.065  1.00  0.00    -0.229 OA
ATOM     18  O   UNL A   1      32.641  22.177  22.921  1.00  0.00    -0.229 OA
ENDBRANCH   8  12
ENDBRANCH   5   8
ENDBRANCH   3   4
ENDBRANCH   2   3
ENDBRANCH   1   2
BRANCH   1  19
ATOM     19  C   UNL A   1      32.150  31.448  26.499  1.00  0.00     0.116 C 
BRANCH  19  20
ATOM     20  N   UNL A   1      32.190  32.715  27.239  1.00  0.00    -0.352 N 
ATOM     21  C   UNL A   1      33.253  33.290  27.913  1.00  0.00     0.251 C 
ATOM     22  H   UNL A   1      31.348  33.225  27.259  1.00  0.00     0.163 HD
ATOM     23  O   UNL A   1      33.123  34.355  28.504  1.00  0.00    -0.269 OA
BRANCH  21  24
ATOM     24  C   UNL A   1      34.525  32.543  27.952  1.00  0.00     0.039 A 
ATOM     25  C   UNL A   1      35.723  33.251  28.047  1.00  0.00     0.014 A 
ATOM     26  C   UNL A   1      34.488  31.165  28.154  1.00  0.00     0.014 A 
ATOM     27  C   UNL A   1      36.860  32.593  28.518  1.00  0.00     0.010 A 
ATOM     28  C   UNL A   1      35.575  30.555  28.760  1.00  0.00     0.010 A 
ATOM     29  C   UNL A   1      36.766  31.268  28.974  1.00  0.00    -0.014 A 
BRANCH  29  30
ATOM     30  C   UNL A   1      37.876  30.615  29.722  1.00  0.00     0.031 A 
ATOM     31  C   UNL A   1      38.122  30.992  31.158  1.00  0.00     0.074 A 
ATOM     32  C   UNL A   1      38.716  29.770  29.082  1.00  0.00     0.049 A 
ATOM     33  N   UNL A   1      39.102  30.638  31.946  1.00  0.00    -0.248 NA
ATOM     34  C   UNL A   1      37.165  31.927  31.775  1.00  0.00     0.031 C 
ATOM     35  C   UNL A   1      38.621  29.381  27.670  1.00  0.00     0.029 A 
ATOM     36  N   UNL A   1      39.824  29.092  29.529  1.00  0.00    -0.354 N 
ATOM     37  C   UNL A   1      38.891  31.322  33.139  1.00  0.00     0.074 A 
ATOM     38  C   UNL A   1      37.734  32.165  32.946  1.00  0.00     0.031 C 
ATOM     39  C   UNL A   1      39.600  28.508  27.383  1.00  0.00     0.029 A 
ATOM     40  C   UNL A   1      40.435  28.320  28.564  1.00  0.00     0.049 A 
ATOM     41  H   UNL A   1      40.152  29.151  30.454  1.00  0.00     0.167 HD
ATOM     42  C   UNL A   1      39.584  31.232  34.298  1.00  0.00     0.034 A 
ATOM     43  C   UNL A   1      41.551  27.563  28.617  1.00  0.00     0.034 A 
ATOM     44  C   UNL A   1      40.711  30.356  34.486  1.00  0.00     0.049 A 
ATOM     45  C   UNL A   1      42.311  27.495  29.922  1.00  0.00     0.074 A 
ATOM     46  C   UNL A   1      41.425  30.116  35.646  1.00  0.00     0.029 A 
ATOM     47  N   UNL A   1      41.293  29.584  33.491  1.00  0.00    -0.354 N 
ATOM     48  N   UNL A   1      42.041  28.083  31.065  1.00  0.00    -0.248 NA
ATOM     49  C   UNL A   1      43.520  26.663  29.946  1.00  0.00     0.031 C 
ATOM     50  C   UNL A   1      42.488  29.266  35.334  1.00  0.00     0.029 A 
ATOM     51  C   UNL A   1      42.388  28.906  33.999  1.00  0.00     0.049 A 
ATOM     52  H   UNL A   1      40.975  29.527  32.560  1.00  0.00     0.167 HD
ATOM     53  C   UNL A   1      43.035  27.668  31.947  1.00  0.00     0.074 A 
ATOM     54  C   UNL A   1      43.889  26.759  31.214  1.00  0.00     0.031 C 
ATOM     55  C   UNL A   1      43.231  28.010  33.247  1.00  0.00     0.034 A 
BRANCH  42  56
ATOM     56  C   UNL A   1      39.153  32.107  35.446  1.00  0.00     0.023 A 
ATOM     57  C   UNL A   1      38.449  31.592  36.549  1.00  0.00     0.031 A 
ATOM     58  C   UNL A   1      39.466  33.477  35.446  1.00  0.00     0.131 A 
ATOM     59  C   UNL A   1      38.039  32.449  37.579  1.00  0.00     0.055 A 
ATOM     60  C   UNL A   1      39.121  34.311  36.510  1.00  0.00     0.041 A 
ATOM     61  F   UNL A   1      40.113  34.029  34.406  1.00  0.00    -0.206 F 
ATOM     62  C   UNL A   1      38.396  33.800  37.582  1.00  0.00     0.022 A 
BRANCH  59  63
ATOM     63  S   UNL A   1      36.937  31.798  38.863  1.00  0.00     0.124 S 
ATOM     64  O   UNL A   1      36.863  30.385  38.499  1.00  0.00    -0.237 OA
ATOM     65  O   UNL A   1      37.665  32.103  40.089  1.00  0.00    -0.237 OA
ATOM     66  O   UNL A   1      35.700  32.550  38.668  1.00  0.00    -0.744 OA
ENDBRANCH  59  63
ENDBRANCH  42  56
BRANCH  43  67
ATOM     67  C   UNL A   1      42.055  26.834  27.412  1.00  0.00     0.023 A 
ATOM     68  C   UNL A   1      41.812  25.461  27.241  1.00  0.00     0.031 A 
ATOM     69  C   UNL A   1      42.865  27.477  26.458  1.00  0.00     0.131 A 
ATOM     70  C   UNL A   1      42.431  24.762  26.191  1.00  0.00     0.055 A 
ATOM     71  C   UNL A   1      43.419  26.793  25.374  1.00  0.00     0.041 A 
ATOM     72  F   UNL A   1      43.135  28.788  26.567  1.00  0.00    -0.206 F 
ATOM     73  C   UNL A   1      43.220  25.422  25.247  1.00  0.00     0.022 A 
BRANCH  70  74
ATOM     74  S   UNL A   1      42.302  22.952  26.160  1.00  0.00     0.124 S 
ATOM     75  O   UNL A   1      43.129  22.577  27.301  1.00  0.00    -0.237 OA
ATOM     76  O   UNL A   1      40.866  22.749  26.314  1.00  0.00    -0.237 OA
ATOM     77  O   UNL A   1      42.844  22.596  24.851  1.00  0.00    -0.744 OA
ENDBRANCH  70  74
ENDBRANCH  43  67
BRANCH  55  78
ATOM     78  C   UNL A   1      44.400  27.372  33.956  1.00  0.00     0.023 A 
ATOM     79  C   UNL A   1      44.266  26.154  34.641  1.00  0.00     0.031 A 
ATOM     80  C   UNL A   1      45.662  27.991  33.943  1.00  0.00     0.131 A 
ATOM     81  C   UNL A   1      45.362  25.618  35.331  1.00  0.00     0.055 A 
ATOM     82  C   UNL A   1      46.767  27.419  34.574  1.00  0.00     0.041 A 
ATOM     83  F   UNL A   1      45.845  29.159  33.305  1.00  0.00    -0.206 F 
ATOM     84  C   UNL A   1      46.617  26.232  35.285  1.00  0.00     0.022 A 
BRANCH  81  85
ATOM     85  S   UNL A   1      45.104  24.153  36.368  1.00  0.00     0.124 S 
ATOM     86  O   UNL A   1      44.509  24.734  37.567  1.00  0.00    -0.237 OA
ATOM     87  O   UNL A   1      44.214  23.341  35.545  1.00  0.00    -0.237 OA
ATOM     88  O   UNL A   1      46.451  23.614  36.542  1.00  0.00    -0.744 OA
ENDBRANCH  81  85
ENDBRANCH  55  78
ENDBRANCH  29  30
ENDBRANCH  21  24
ENDBRANCH  19  20
ENDBRANCH   1  19
TORSDOF 17
ENDMDL
