MODEL 1
REMARK VINA RESULT:     -11.5      0.000      0.000
REMARK SMILES COc1cc(OC)c([C@@H]2C[C@H]2C(=O)NCCCCNC(=O)c2ccc(-c3c4nc(c(-c5cc(S(=O)(=O)[O-])ccc5F)c5ccc([nH]5)c(-c5cc(S(=O)(=O)[O-])ccc5F)c5nc(c(-c6cc(S(=O)(=O)[O-])ccc6F)c6ccc3[nH]6)C=C5)C=C4)cc2)c(OC)c1
REMARK SMILES IDX 17 1 16 2 15 3 14 4 12 5 13 6 11 8 9 9 10 10 8 11 3 12 4 13
REMARK SMILES IDX 88 14 5 15 85 16 2 17 1 18 6 19 7 20 86 21 87 22 18 23 19 24
REMARK SMILES IDX 20 25 21 27 22 28 23 29 84 30 24 31 83 32 25 33 26 34 27 35
REMARK SMILES IDX 77 36 28 37 82 38 76 39 78 40 29 41 81 42 75 43 74 44 30 46
REMARK SMILES IDX 62 47 42 48 61 49 43 50 46 51 60 52 79 53 44 54 45 55 59 57
REMARK SMILES IDX 80 58 47 59 31 60 32 61 40 62 33 63 39 64 41 65 38 66 34 67
REMARK SMILES IDX 35 68 36 69 37 70 63 71 64 72 72 73 65 74 71 75 73 76 70 77
REMARK SMILES IDX 66 78 67 79 68 80 69 81 48 82 49 83 57 84 50 85 56 86 58 87
REMARK SMILES IDX 55 88 51 89 52 90 53 91 54 92
REMARK H PARENT 14 7 19 26 78 45 46 56
REMARK Flexibility Score: inf
ROOT
ATOM      1  C   UNL A   1      36.189  21.330  24.826  1.00  0.00     0.023 C 
ENDROOT
BRANCH   1   2
ATOM      2  C   UNL A   1      35.273  21.502  26.035  1.00  0.00     0.023 C 
BRANCH   2   3
ATOM      3  C   UNL A   1      34.997  22.952  26.427  1.00  0.00     0.116 C 
BRANCH   3   4
ATOM      4  N   UNL A   1      33.659  23.135  26.964  1.00  0.00    -0.356 N 
ATOM      5  C   UNL A   1      32.649  24.031  26.716  1.00  0.00     0.223 C 
ATOM      6  O   UNL A   1      31.598  23.889  27.339  1.00  0.00    -0.275 OA
ATOM      7  H   UNL A   1      33.426  22.473  27.655  1.00  0.00     0.163 HD
BRANCH   5   8
ATOM      8  C   UNL A   1      32.729  25.158  25.735  1.00  0.00     0.087 C 
ATOM      9  C   UNL A   1      31.917  26.418  25.861  1.00  0.00     0.040 C 
ATOM     10  C   UNL A   1      33.426  26.450  26.060  1.00  0.00     0.023 C 
BRANCH   9  11
ATOM     11  C   UNL A   1      31.344  27.316  24.759  1.00  0.00     0.040 A 
ATOM     12  C   UNL A   1      30.147  28.802  22.634  1.00  0.00     0.126 A 
ATOM     13  C   UNL A   1      30.334  27.435  22.504  1.00  0.00     0.093 A 
ATOM     14  C   UNL A   1      30.538  29.441  23.809  1.00  0.00     0.093 A 
ATOM     15  C   UNL A   1      30.920  26.713  23.546  1.00  0.00     0.129 A 
ATOM     16  C   UNL A   1      31.130  28.716  24.862  1.00  0.00     0.129 A 
BRANCH  12  17
ATOM     17  O   UNL A   1      29.526  29.421  21.584  1.00  0.00    -0.496 OA
ATOM     18  C   UNL A   1      29.214  30.792  21.807  1.00  0.00     0.278 C 
ENDBRANCH  12  17
BRANCH  15  19
ATOM     19  O   UNL A   1      31.151  25.381  23.284  1.00  0.00    -0.496 OA
ATOM     20  C   UNL A   1      32.107  25.190  22.242  1.00  0.00     0.278 C 
ENDBRANCH  15  19
BRANCH  16  21
ATOM     21  O   UNL A   1      31.536  29.311  26.031  1.00  0.00    -0.496 OA
ATOM     22  C   UNL A   1      32.709  30.113  26.008  1.00  0.00     0.278 C 
ENDBRANCH  16  21
ENDBRANCH   9  11
ENDBRANCH   5   8
ENDBRANCH   3   4
ENDBRANCH   2   3
ENDBRANCH   1   2
BRANCH   1  23
ATOM     23  C   UNL A   1      37.613  21.851  25.010  1.00  0.00     0.116 C 
BRANCH  23  24
ATOM     24  N   UNL A   1      38.541  20.864  25.548  1.00  0.00    -0.352 N 
ATOM     25  C   UNL A   1      39.643  21.058  26.350  1.00  0.00     0.251 C 
ATOM     26  H   UNL A   1      38.352  19.928  25.306  1.00  0.00     0.163 HD
ATOM     27  O   UNL A   1      40.365  20.107  26.637  1.00  0.00    -0.269 OA
BRANCH  25  28
ATOM     28  C   UNL A   1      39.970  22.421  26.820  1.00  0.00     0.039 A 
ATOM     29  C   UNL A   1      40.950  22.585  27.802  1.00  0.00     0.014 A 
ATOM     30  C   UNL A   1      39.351  23.535  26.250  1.00  0.00     0.014 A 
ATOM     31  C   UNL A   1      41.376  23.871  28.144  1.00  0.00     0.010 A 
ATOM     32  C   UNL A   1      39.835  24.807  26.529  1.00  0.00     0.010 A 
ATOM     33  C   UNL A   1      40.857  24.990  27.474  1.00  0.00    -0.014 A 
BRANCH  33  34
ATOM     34  C   UNL A   1      41.353  26.366  27.740  1.00  0.00     0.031 A 
ATOM     35  C   UNL A   1      42.752  26.743  27.336  1.00  0.00     0.074 A 
ATOM     36  C   UNL A   1      40.589  27.236  28.430  1.00  0.00     0.049 A 
ATOM     37  N   UNL A   1      43.433  27.825  27.611  1.00  0.00    -0.248 NA
ATOM     38  C   UNL A   1      43.495  25.744  26.554  1.00  0.00     0.031 C 
ATOM     39  C   UNL A   1      39.231  26.974  28.915  1.00  0.00     0.029 A 
ATOM     40  N   UNL A   1      40.851  28.513  28.860  1.00  0.00    -0.354 N 
ATOM     41  C   UNL A   1      44.695  27.625  27.060  1.00  0.00     0.074 A 
ATOM     42  C   UNL A   1      44.698  26.292  26.495  1.00  0.00     0.031 C 
ATOM     43  C   UNL A   1      38.775  28.062  29.558  1.00  0.00     0.029 A 
ATOM     44  C   UNL A   1      39.820  29.080  29.575  1.00  0.00     0.049 A 
ATOM     45  H   UNL A   1      41.697  28.980  28.675  1.00  0.00     0.167 HD
ATOM     46  C   UNL A   1      45.746  28.483  27.010  1.00  0.00     0.034 A 
ATOM     47  C   UNL A   1      39.734  30.276  30.188  1.00  0.00     0.034 A 
ATOM     48  C   UNL A   1      45.715  29.817  27.558  1.00  0.00     0.049 A 
ATOM     49  C   UNL A   1      40.913  31.213  30.124  1.00  0.00     0.074 A 
ATOM     50  C   UNL A   1      46.697  30.790  27.516  1.00  0.00     0.029 A 
ATOM     51  N   UNL A   1      44.642  30.365  28.252  1.00  0.00    -0.354 N 
ATOM     52  N   UNL A   1      42.088  31.026  29.569  1.00  0.00    -0.248 NA
ATOM     53  C   UNL A   1      40.751  32.526  30.764  1.00  0.00     0.031 C 
ATOM     54  C   UNL A   1      46.241  31.904  28.231  1.00  0.00     0.029 A 
ATOM     55  C   UNL A   1      44.948  31.654  28.661  1.00  0.00     0.049 A 
ATOM     56  H   UNL A   1      43.790  29.905  28.427  1.00  0.00     0.167 HD
ATOM     57  C   UNL A   1      42.793  32.210  29.764  1.00  0.00     0.074 A 
ATOM     58  C   UNL A   1      41.908  33.107  30.481  1.00  0.00     0.031 C 
ATOM     59  C   UNL A   1      44.055  32.531  29.381  1.00  0.00     0.034 A 
BRANCH  46  60
ATOM     60  C   UNL A   1      47.014  27.981  26.361  1.00  0.00     0.023 A 
ATOM     61  C   UNL A   1      47.262  28.166  24.989  1.00  0.00     0.031 A 
ATOM     62  C   UNL A   1      47.963  27.261  27.107  1.00  0.00     0.131 A 
ATOM     63  C   UNL A   1      48.374  27.558  24.389  1.00  0.00     0.055 A 
ATOM     64  C   UNL A   1      49.117  26.737  26.522  1.00  0.00     0.041 A 
ATOM     65  F   UNL A   1      47.775  27.035  28.417  1.00  0.00    -0.206 F 
ATOM     66  C   UNL A   1      49.319  26.866  25.151  1.00  0.00     0.022 A 
BRANCH  63  67
ATOM     67  S   UNL A   1      48.478  27.542  22.578  1.00  0.00     0.124 S 
ATOM     68  O   UNL A   1      47.266  28.271  22.209  1.00  0.00    -0.237 OA
ATOM     69  O   UNL A   1      49.738  28.231  22.328  1.00  0.00    -0.237 OA
ATOM     70  O   UNL A   1      48.465  26.119  22.247  1.00  0.00    -0.744 OA
ENDBRANCH  63  67
ENDBRANCH  46  60
BRANCH  47  71
ATOM     71  C   UNL A   1      38.495  30.663  30.920  1.00  0.00     0.023 A 
ATOM     72  C   UNL A   1      37.462  31.355  30.270  1.00  0.00     0.031 A 
ATOM     73  C   UNL A   1      38.340  30.375  32.288  1.00  0.00     0.131 A 
ATOM     74  C   UNL A   1      36.336  31.775  30.997  1.00  0.00     0.055 A 
ATOM     75  C   UNL A   1      37.198  30.753  32.995  1.00  0.00     0.041 A 
ATOM     76  F   UNL A   1      39.296  29.707  32.953  1.00  0.00    -0.206 F 
ATOM     77  C   UNL A   1      36.192  31.469  32.352  1.00  0.00     0.022 A 
BRANCH  74  78
ATOM     78  S   UNL A   1      35.091  32.792  30.157  1.00  0.00     0.124 S 
ATOM     79  O   UNL A   1      35.895  33.912  29.679  1.00  0.00    -0.237 OA
ATOM     80  O   UNL A   1      34.592  31.878  29.135  1.00  0.00    -0.237 OA
ATOM     81  O   UNL A   1      34.141  33.114  31.220  1.00  0.00    -0.744 OA
ENDBRANCH  74  78
ENDBRANCH  47  71
BRANCH  59  82
ATOM     82  C   UNL A   1      44.527  33.932  29.686  1.00  0.00     0.023 A 
ATOM     83  C   UNL A   1      44.327  34.994  28.789  1.00  0.00     0.031 A 
ATOM     84  C   UNL A   1      45.195  34.199  30.895  1.00  0.00     0.131 A 
ATOM     85  C   UNL A   1      44.835  36.266  29.091  1.00  0.00     0.055 A 
ATOM     86  C   UNL A   1      45.649  35.480  31.214  1.00  0.00     0.041 A 
ATOM     87  F   UNL A   1      45.412  33.220  31.787  1.00  0.00    -0.206 F 
ATOM     88  C   UNL A   1      45.480  36.519  30.305  1.00  0.00     0.022 A 
BRANCH  85  89
ATOM     89  S   UNL A   1      44.713  37.574  27.840  1.00  0.00     0.124 S 
ATOM     90  O   UNL A   1      45.946  37.384  27.082  1.00  0.00    -0.237 OA
ATOM     91  O   UNL A   1      43.478  37.227  27.145  1.00  0.00    -0.237 OA
ATOM     92  O   UNL A   1      44.654  38.802  28.631  1.00  0.00    -0.744 OA
ENDBRANCH  85  89
ENDBRANCH  59  82
ENDBRANCH  33  34
ENDBRANCH  25  28
ENDBRANCH  23  24
ENDBRANCH   1  23
TORSDOF 18
ENDMDL
MODEL 2
REMARK VINA RESULT:     -11.5      5.115      8.287
REMARK SMILES COc1cc(OC)c([C@@H]2C[C@H]2C(=O)NCCCCNC(=O)c2ccc(-c3c4nc(c(-c5cc(S(=O)(=O)[O-])ccc5F)c5ccc([nH]5)c(-c5cc(S(=O)(=O)[O-])ccc5F)c5nc(c(-c6cc(S(=O)(=O)[O-])ccc6F)c6ccc3[nH]6)C=C5)C=C4)cc2)c(OC)c1
REMARK SMILES IDX 17 1 16 2 15 3 14 4 12 5 13 6 11 8 9 9 10 10 8 11 3 12 4 13
REMARK SMILES IDX 88 14 5 15 85 16 2 17 1 18 6 19 7 20 86 21 87 22 18 23 19 24
REMARK SMILES IDX 20 25 21 27 22 28 23 29 84 30 24 31 83 32 25 33 26 34 27 35
REMARK SMILES IDX 77 36 28 37 82 38 76 39 78 40 29 41 81 42 75 43 74 44 30 46
REMARK SMILES IDX 62 47 42 48 61 49 43 50 46 51 60 52 79 53 44 54 45 55 59 57
REMARK SMILES IDX 80 58 47 59 31 60 32 61 40 62 33 63 39 64 41 65 38 66 34 67
REMARK SMILES IDX 35 68 36 69 37 70 63 71 64 72 72 73 65 74 71 75 73 76 70 77
REMARK SMILES IDX 66 78 67 79 68 80 69 81 48 82 49 83 57 84 50 85 56 86 58 87
REMARK SMILES IDX 55 88 51 89 52 90 53 91 54 92
REMARK H PARENT 14 7 19 26 78 45 46 56
REMARK Flexibility Score: inf
ROOT
ATOM      1  C   UNL A   1      31.314  29.876  25.429  1.00  0.00     0.023 C 
ENDROOT
BRANCH   1   2
ATOM      2  C   UNL A   1      31.801  29.231  24.135  1.00  0.00     0.023 C 
BRANCH   2   3
ATOM      3  C   UNL A   1      33.080  28.409  24.274  1.00  0.00     0.116 C 
BRANCH   3   4
ATOM      4  N   UNL A   1      33.414  27.694  23.053  1.00  0.00    -0.356 N 
ATOM      5  C   UNL A   1      33.627  26.371  22.753  1.00  0.00     0.223 C 
ATOM      6  O   UNL A   1      33.868  26.086  21.581  1.00  0.00    -0.275 OA
ATOM      7  H   UNL A   1      33.506  28.286  22.271  1.00  0.00     0.163 HD
BRANCH   5   8
ATOM      8  C   UNL A   1      33.575  25.252  23.744  1.00  0.00     0.087 C 
ATOM      9  C   UNL A   1      34.532  24.092  23.727  1.00  0.00     0.040 C 
ATOM     10  C   UNL A   1      34.585  25.118  24.850  1.00  0.00     0.023 C 
BRANCH   9  11
ATOM     11  C   UNL A   1      34.294  22.632  24.132  1.00  0.00     0.040 A 
ATOM     12  C   UNL A   1      33.693  19.901  24.709  1.00  0.00     0.126 A 
ATOM     13  C   UNL A   1      32.725  20.721  24.154  1.00  0.00     0.093 A 
ATOM     14  C   UNL A   1      34.961  20.416  24.973  1.00  0.00     0.093 A 
ATOM     15  C   UNL A   1      33.023  22.056  23.874  1.00  0.00     0.129 A 
ATOM     16  C   UNL A   1      35.266  21.761  24.693  1.00  0.00     0.129 A 
BRANCH  12  17
ATOM     17  O   UNL A   1      33.329  18.597  24.908  1.00  0.00    -0.496 OA
ATOM     18  C   UNL A   1      32.386  18.096  23.965  1.00  0.00     0.278 C 
ENDBRANCH  12  17
BRANCH  15  19
ATOM     19  O   UNL A   1      31.968  22.813  23.416  1.00  0.00    -0.496 OA
ATOM     20  C   UNL A   1      31.009  23.083  24.436  1.00  0.00     0.278 C 
ENDBRANCH  15  19
BRANCH  16  21
ATOM     21  O   UNL A   1      36.500  22.307  24.947  1.00  0.00    -0.496 OA
ATOM     22  C   UNL A   1      37.644  21.473  24.829  1.00  0.00     0.278 C 
ENDBRANCH  16  21
ENDBRANCH   9  11
ENDBRANCH   5   8
ENDBRANCH   3   4
ENDBRANCH   2   3
ENDBRANCH   1   2
BRANCH   1  23
ATOM     23  C   UNL A   1      32.408  30.469  26.314  1.00  0.00     0.116 C 
BRANCH  23  24
ATOM     24  N   UNL A   1      32.190  31.865  26.672  1.00  0.00    -0.352 N 
ATOM     25  C   UNL A   1      32.987  32.702  27.421  1.00  0.00     0.251 C 
ATOM     26  H   UNL A   1      31.357  32.265  26.331  1.00  0.00     0.163 HD
ATOM     27  O   UNL A   1      32.596  33.833  27.696  1.00  0.00    -0.269 OA
BRANCH  25  28
ATOM     28  C   UNL A   1      34.288  32.212  27.922  1.00  0.00     0.039 A 
ATOM     29  C   UNL A   1      35.378  33.085  27.953  1.00  0.00     0.014 A 
ATOM     30  C   UNL A   1      34.414  30.911  28.414  1.00  0.00     0.014 A 
ATOM     31  C   UNL A   1      36.568  32.682  28.565  1.00  0.00     0.010 A 
ATOM     32  C   UNL A   1      35.567  30.543  29.096  1.00  0.00     0.010 A 
ATOM     33  C   UNL A   1      36.656  31.426  29.185  1.00  0.00    -0.014 A 
BRANCH  33  34
ATOM     34  C   UNL A   1      37.870  30.998  29.929  1.00  0.00     0.031 A 
ATOM     35  C   UNL A   1      38.800  29.989  29.315  1.00  0.00     0.074 A 
ATOM     36  C   UNL A   1      38.079  31.437  31.186  1.00  0.00     0.049 A 
ATOM     37  N   UNL A   1      39.818  29.364  29.848  1.00  0.00    -0.248 NA
ATOM     38  C   UNL A   1      38.513  29.599  27.926  1.00  0.00     0.031 C 
ATOM     39  C   UNL A   1      37.225  32.384  31.907  1.00  0.00     0.029 A 
ATOM     40  N   UNL A   1      39.066  31.130  32.089  1.00  0.00    -0.354 N 
ATOM     41  C   UNL A   1      40.277  28.488  28.871  1.00  0.00     0.074 A 
ATOM     42  C   UNL A   1      39.382  28.618  27.740  1.00  0.00     0.031 C 
ATOM     43  C   UNL A   1      37.736  32.593  33.132  1.00  0.00     0.029 A 
ATOM     44  C   UNL A   1      38.923  31.763  33.303  1.00  0.00     0.049 A 
ATOM     45  H   UNL A   1      39.807  30.514  31.888  1.00  0.00     0.167 HD
ATOM     46  C   UNL A   1      41.357  27.667  28.904  1.00  0.00     0.034 A 
ATOM     47  C   UNL A   1      39.655  31.671  34.430  1.00  0.00     0.034 A 
ATOM     48  C   UNL A   1      42.251  27.569  30.033  1.00  0.00     0.049 A 
ATOM     49  C   UNL A   1      40.849  30.750  34.449  1.00  0.00     0.074 A 
ATOM     50  C   UNL A   1      43.405  26.816  30.157  1.00  0.00     0.029 A 
ATOM     51  N   UNL A   1      42.088  28.247  31.235  1.00  0.00    -0.354 N 
ATOM     52  N   UNL A   1      41.293  29.953  33.504  1.00  0.00    -0.248 NA
ATOM     53  C   UNL A   1      41.645  30.724  35.683  1.00  0.00     0.031 C 
ATOM     54  C   UNL A   1      43.908  26.994  31.451  1.00  0.00     0.029 A 
ATOM     55  C   UNL A   1      43.108  27.912  32.113  1.00  0.00     0.049 A 
ATOM     56  H   UNL A   1      41.356  28.873  31.435  1.00  0.00     0.167 HD
ATOM     57  C   UNL A   1      42.439  29.355  34.021  1.00  0.00     0.074 A 
ATOM     58  C   UNL A   1      42.622  29.891  35.355  1.00  0.00     0.031 C 
ATOM     59  C   UNL A   1      43.270  28.451  33.442  1.00  0.00     0.034 A 
BRANCH  46  60
ATOM     60  C   UNL A   1      41.602  26.800  27.691  1.00  0.00     0.023 A 
ATOM     61  C   UNL A   1      41.260  25.436  27.680  1.00  0.00     0.031 A 
ATOM     62  C   UNL A   1      42.234  27.327  26.552  1.00  0.00     0.131 A 
ATOM     63  C   UNL A   1      41.638  24.627  26.598  1.00  0.00     0.055 A 
ATOM     64  C   UNL A   1      42.525  26.536  25.438  1.00  0.00     0.041 A 
ATOM     65  F   UNL A   1      42.603  28.617  26.509  1.00  0.00    -0.206 F 
ATOM     66  C   UNL A   1      42.245  25.173  25.464  1.00  0.00     0.022 A 
BRANCH  63  67
ATOM     67  S   UNL A   1      41.477  22.828  26.767  1.00  0.00     0.124 S 
ATOM     68  O   UNL A   1      41.922  22.370  25.452  1.00  0.00    -0.237 OA
ATOM     69  O   UNL A   1      42.370  22.535  27.882  1.00  0.00    -0.237 OA
ATOM     70  O   UNL A   1      40.054  22.635  27.037  1.00  0.00    -0.744 OA
ENDBRANCH  63  67
ENDBRANCH  46  60
BRANCH  47  71
ATOM     71  C   UNL A   1      39.287  32.461  35.638  1.00  0.00     0.023 A 
ATOM     72  C   UNL A   1      39.717  33.788  35.788  1.00  0.00     0.031 A 
ATOM     73  C   UNL A   1      38.525  31.892  36.674  1.00  0.00     0.131 A 
ATOM     74  C   UNL A   1      39.421  34.491  36.967  1.00  0.00     0.055 A 
ATOM     75  C   UNL A   1      38.193  32.610  37.824  1.00  0.00     0.041 A 
ATOM     76  F   UNL A   1      38.081  30.629  36.575  1.00  0.00    -0.206 F 
ATOM     77  C   UNL A   1      38.653  33.915  37.981  1.00  0.00     0.022 A 
BRANCH  74  78
ATOM     78  S   UNL A   1      40.119  36.151  37.186  1.00  0.00     0.124 S 
ATOM     79  O   UNL A   1      39.296  36.678  38.269  1.00  0.00    -0.237 OA
ATOM     80  O   UNL A   1      41.508  35.855  37.520  1.00  0.00    -0.237 OA
ATOM     81  O   UNL A   1      39.914  36.780  35.882  1.00  0.00    -0.744 OA
ENDBRANCH  74  78
ENDBRANCH  47  71
BRANCH  59  82
ATOM     82  C   UNL A   1      44.480  28.028  34.238  1.00  0.00     0.023 A 
ATOM     83  C   UNL A   1      44.456  26.908  35.087  1.00  0.00     0.031 A 
ATOM     84  C   UNL A   1      45.673  28.768  34.148  1.00  0.00     0.131 A 
ATOM     85  C   UNL A   1      45.588  26.589  35.851  1.00  0.00     0.055 A 
ATOM     86  C   UNL A   1      46.814  28.412  34.869  1.00  0.00     0.041 A 
ATOM     87  F   UNL A   1      45.749  29.846  33.352  1.00  0.00    -0.206 F 
ATOM     88  C   UNL A   1      46.771  27.324  35.736  1.00  0.00     0.022 A 
BRANCH  85  89
ATOM     89  S   UNL A   1      45.471  25.245  37.064  1.00  0.00     0.124 S 
ATOM     90  O   UNL A   1      44.221  25.562  37.748  1.00  0.00    -0.237 OA
ATOM     91  O   UNL A   1      45.450  24.059  36.215  1.00  0.00    -0.237 OA
ATOM     92  O   UNL A   1      46.678  25.406  37.873  1.00  0.00    -0.744 OA
ENDBRANCH  85  89
ENDBRANCH  59  82
ENDBRANCH  33  34
ENDBRANCH  25  28
ENDBRANCH  23  24
ENDBRANCH   1  23
TORSDOF 18
ENDMDL
MODEL 3
REMARK VINA RESULT:     -11.4      5.691      8.944
REMARK SMILES COc1cc(OC)c([C@@H]2C[C@H]2C(=O)NCCCCNC(=O)c2ccc(-c3c4nc(c(-c5cc(S(=O)(=O)[O-])ccc5F)c5ccc([nH]5)c(-c5cc(S(=O)(=O)[O-])ccc5F)c5nc(c(-c6cc(S(=O)(=O)[O-])ccc6F)c6ccc3[nH]6)C=C5)C=C4)cc2)c(OC)c1
REMARK SMILES IDX 17 1 16 2 15 3 14 4 12 5 13 6 11 8 9 9 10 10 8 11 3 12 4 13
REMARK SMILES IDX 88 14 5 15 85 16 2 17 1 18 6 19 7 20 86 21 87 22 18 23 19 24
REMARK SMILES IDX 20 25 21 27 22 28 23 29 84 30 24 31 83 32 25 33 26 34 27 35
REMARK SMILES IDX 77 36 28 37 82 38 76 39 78 40 29 41 81 42 75 43 74 44 30 46
REMARK SMILES IDX 62 47 42 48 61 49 43 50 46 51 60 52 79 53 44 54 45 55 59 57
REMARK SMILES IDX 80 58 47 59 31 60 32 61 40 62 33 63 39 64 41 65 38 66 34 67
REMARK SMILES IDX 35 68 36 69 37 70 63 71 64 72 72 73 65 74 71 75 73 76 70 77
REMARK SMILES IDX 66 78 67 79 68 80 69 81 48 82 49 83 57 84 50 85 56 86 58 87
REMARK SMILES IDX 55 88 51 89 52 90 53 91 54 92
REMARK H PARENT 14 7 19 26 78 45 46 56
REMARK Flexibility Score: inf
ROOT
ATOM      1  C   UNL A   1      32.247  31.184  27.197  1.00  0.00     0.023 C 
ENDROOT
BRANCH   1   2
ATOM      2  C   UNL A   1      31.355  31.143  25.959  1.00  0.00     0.023 C 
BRANCH   2   3
ATOM      3  C   UNL A   1      31.330  29.799  25.235  1.00  0.00     0.116 C 
BRANCH   3   4
ATOM      4  N   UNL A   1      32.513  29.589  24.417  1.00  0.00    -0.356 N 
ATOM      5  C   UNL A   1      33.307  28.499  24.157  1.00  0.00     0.223 C 
ATOM      6  O   UNL A   1      34.241  28.654  23.371  1.00  0.00    -0.275 OA
ATOM      7  H   UNL A   1      32.807  30.403  23.947  1.00  0.00     0.163 HD
BRANCH   5   8
ATOM      8  C   UNL A   1      33.112  27.140  24.747  1.00  0.00     0.087 C 
ATOM      9  C   UNL A   1      34.138  26.044  24.648  1.00  0.00     0.040 C 
ATOM     10  C   UNL A   1      33.836  26.697  25.989  1.00  0.00     0.023 C 
BRANCH   9  11
ATOM     11  C   UNL A   1      33.931  24.527  24.553  1.00  0.00     0.040 A 
ATOM     12  C   UNL A   1      33.450  21.740  24.163  1.00  0.00     0.126 A 
ATOM     13  C   UNL A   1      32.616  22.676  23.573  1.00  0.00     0.093 A 
ATOM     14  C   UNL A   1      34.526  22.169  24.937  1.00  0.00     0.093 A 
ATOM     15  C   UNL A   1      32.855  24.038  23.767  1.00  0.00     0.129 A 
ATOM     16  C   UNL A   1      34.770  23.541  25.136  1.00  0.00     0.129 A 
BRANCH  12  17
ATOM     17  O   UNL A   1      33.169  20.431  23.882  1.00  0.00    -0.496 OA
ATOM     18  C   UNL A   1      33.866  19.490  24.693  1.00  0.00     0.278 C 
ENDBRANCH  12  17
BRANCH  15  19
ATOM     19  O   UNL A   1      31.917  24.886  23.221  1.00  0.00    -0.496 OA
ATOM     20  C   UNL A   1      30.594  24.361  23.308  1.00  0.00     0.278 C 
ENDBRANCH  15  19
BRANCH  16  21
ATOM     21  O   UNL A   1      35.815  24.002  25.899  1.00  0.00    -0.496 OA
ATOM     22  C   UNL A   1      37.125  23.539  25.600  1.00  0.00     0.278 C 
ENDBRANCH  16  21
ENDBRANCH   9  11
ENDBRANCH   5   8
ENDBRANCH   3   4
ENDBRANCH   2   3
ENDBRANCH   1   2
BRANCH   1  23
ATOM     23  C   UNL A   1      33.306  32.285  27.201  1.00  0.00     0.116 C 
BRANCH  23  24
ATOM     24  N   UNL A   1      32.786  33.605  27.536  1.00  0.00    -0.352 N 
ATOM     25  C   UNL A   1      33.190  34.467  28.531  1.00  0.00     0.251 C 
ATOM     26  H   UNL A   1      32.046  33.925  26.972  1.00  0.00     0.163 HD
ATOM     27  O   UNL A   1      32.572  35.511  28.723  1.00  0.00    -0.269 OA
BRANCH  25  28
ATOM     28  C   UNL A   1      34.338  34.103  29.389  1.00  0.00     0.039 A 
ATOM     29  C   UNL A   1      34.115  33.333  30.533  1.00  0.00     0.014 A 
ATOM     30  C   UNL A   1      35.636  34.473  29.030  1.00  0.00     0.014 A 
ATOM     31  C   UNL A   1      35.205  32.854  31.265  1.00  0.00     0.010 A 
ATOM     32  C   UNL A   1      36.718  33.926  29.709  1.00  0.00     0.010 A 
ATOM     33  C   UNL A   1      36.516  33.106  30.830  1.00  0.00    -0.014 A 
BRANCH  33  34
ATOM     34  C   UNL A   1      37.699  32.534  31.526  1.00  0.00     0.031 A 
ATOM     35  C   UNL A   1      38.452  31.395  30.896  1.00  0.00     0.074 A 
ATOM     36  C   UNL A   1      38.030  32.966  32.759  1.00  0.00     0.049 A 
ATOM     37  N   UNL A   1      39.404  30.650  31.396  1.00  0.00    -0.248 NA
ATOM     38  C   UNL A   1      38.044  31.018  29.534  1.00  0.00     0.031 C 
ATOM     39  C   UNL A   1      37.349  34.035  33.494  1.00  0.00     0.029 A 
ATOM     40  N   UNL A   1      39.012  32.548  33.620  1.00  0.00    -0.354 N 
ATOM     41  C   UNL A   1      39.690  29.700  30.422  1.00  0.00     0.074 A 
ATOM     42  C   UNL A   1      38.763  29.925  29.333  1.00  0.00     0.031 C 
ATOM     43  C   UNL A   1      37.946  34.199  34.686  1.00  0.00     0.029 A 
ATOM     44  C   UNL A   1      39.019  33.220  34.822  1.00  0.00     0.049 A 
ATOM     45  H   UNL A   1      39.653  31.834  33.401  1.00  0.00     0.167 HD
ATOM     46  C   UNL A   1      40.651  28.741  30.426  1.00  0.00     0.034 A 
ATOM     47  C   UNL A   1      39.790  33.054  35.914  1.00  0.00     0.034 A 
ATOM     48  C   UNL A   1      41.581  28.547  31.511  1.00  0.00     0.049 A 
ATOM     49  C   UNL A   1      40.849  31.981  35.900  1.00  0.00     0.074 A 
ATOM     50  C   UNL A   1      42.629  27.649  31.600  1.00  0.00     0.029 A 
ATOM     51  N   UNL A   1      41.573  29.266  32.701  1.00  0.00    -0.354 N 
ATOM     52  N   UNL A   1      41.133  31.112  34.958  1.00  0.00    -0.248 NA
ATOM     53  C   UNL A   1      41.698  31.873  37.095  1.00  0.00     0.031 C 
ATOM     54  C   UNL A   1      43.218  27.784  32.863  1.00  0.00     0.029 A 
ATOM     55  C   UNL A   1      42.584  28.816  33.537  1.00  0.00     0.049 A 
ATOM     56  H   UNL A   1      40.943  29.989  32.919  1.00  0.00     0.167 HD
ATOM     57  C   UNL A   1      42.214  30.376  35.434  1.00  0.00     0.074 A 
ATOM     58  C   UNL A   1      42.536  30.909  36.743  1.00  0.00     0.031 C 
ATOM     59  C   UNL A   1      42.885  29.355  34.842  1.00  0.00     0.034 A 
BRANCH  46  60
ATOM     60  C   UNL A   1      40.715  27.824  29.227  1.00  0.00     0.023 A 
ATOM     61  C   UNL A   1      41.649  28.025  28.196  1.00  0.00     0.031 A 
ATOM     62  C   UNL A   1      39.797  26.770  29.084  1.00  0.00     0.131 A 
ATOM     63  C   UNL A   1      41.583  27.250  27.029  1.00  0.00     0.055 A 
ATOM     64  C   UNL A   1      39.795  25.941  27.960  1.00  0.00     0.041 A 
ATOM     65  F   UNL A   1      38.868  26.539  30.025  1.00  0.00    -0.206 F 
ATOM     66  C   UNL A   1      40.679  26.191  26.914  1.00  0.00     0.022 A 
BRANCH  63  67
ATOM     67  S   UNL A   1      42.580  27.754  25.599  1.00  0.00     0.124 S 
ATOM     68  O   UNL A   1      43.872  28.027  26.225  1.00  0.00    -0.237 OA
ATOM     69  O   UNL A   1      42.522  26.575  24.743  1.00  0.00    -0.237 OA
ATOM     70  O   UNL A   1      41.880  28.932  25.092  1.00  0.00    -0.744 OA
ENDBRANCH  63  67
ENDBRANCH  46  60
BRANCH  47  71
ATOM     71  C   UNL A   1      39.594  33.912  37.116  1.00  0.00     0.023 A 
ATOM     72  C   UNL A   1      38.949  33.414  38.259  1.00  0.00     0.031 A 
ATOM     73  C   UNL A   1      40.019  35.253  37.128  1.00  0.00     0.131 A 
ATOM     74  C   UNL A   1      38.709  34.262  39.352  1.00  0.00     0.055 A 
ATOM     75  C   UNL A   1      39.820  36.078  38.236  1.00  0.00     0.041 A 
ATOM     76  F   UNL A   1      40.648  35.774  36.063  1.00  0.00    -0.206 F 
ATOM     77  C   UNL A   1      39.150  35.587  39.353  1.00  0.00     0.022 A 
BRANCH  74  78
ATOM     78  S   UNL A   1      37.746  33.623  40.750  1.00  0.00     0.124 S 
ATOM     79  O   UNL A   1      36.658  32.929  40.069  1.00  0.00    -0.237 OA
ATOM     80  O   UNL A   1      38.722  32.777  41.429  1.00  0.00    -0.237 OA
ATOM     81  O   UNL A   1      37.359  34.831  41.476  1.00  0.00    -0.744 OA
ENDBRANCH  74  78
ENDBRANCH  47  71
BRANCH  59  82
ATOM     82  C   UNL A   1      44.068  28.790  35.589  1.00  0.00     0.023 A 
ATOM     83  C   UNL A   1      43.940  27.697  36.464  1.00  0.00     0.031 A 
ATOM     84  C   UNL A   1      45.342  29.364  35.425  1.00  0.00     0.131 A 
ATOM     85  C   UNL A   1      45.057  27.245  37.181  1.00  0.00     0.055 A 
ATOM     86  C   UNL A   1      46.460  28.873  36.100  1.00  0.00     0.041 A 
ATOM     87  F   UNL A   1      45.519  30.410  34.602  1.00  0.00    -0.206 F 
ATOM     88  C   UNL A   1      46.319  27.815  36.992  1.00  0.00     0.022 A 
BRANCH  85  89
ATOM     89  S   UNL A   1      44.825  25.948  38.428  1.00  0.00     0.124 S 
ATOM     90  O   UNL A   1      43.893  25.047  37.759  1.00  0.00    -0.237 OA
ATOM     91  O   UNL A   1      46.181  25.443  38.610  1.00  0.00    -0.237 OA
ATOM     92  O   UNL A   1      44.275  26.670  39.575  1.00  0.00    -0.744 OA
ENDBRANCH  85  89
ENDBRANCH  59  82
ENDBRANCH  33  34
ENDBRANCH  25  28
ENDBRANCH  23  24
ENDBRANCH   1  23
TORSDOF 18
ENDMDL
