MODEL 1
REMARK VINA RESULT:     -12.0      0.000      0.000
REMARK SMILES COc1ccc(C(=O)c2ccccc2)cc1[C@@H](C)C(=O)NCCCCNC(=O)c1ccc(-c2c3nc(c(-c4cc(S(=O)(=O)[O-])ccc4F)c4ccc([nH]4)c(-c4cc(S(=O)(=O)[O-])ccc4F)c4nc(c(-c5cc(S(=O)(=O)[O-])ccc5F)c5ccc2[nH]5)C=C4)C=C3)cc1
REMARK SMILES IDX 23 1 22 2 21 3 19 4 20 5 17 7 18 8 16 9 3 10 4 11 5 12 15 13
REMARK SMILES IDX 6 14 2 15 1 16 7 17 8 18 9 19 10 20 14 21 11 22 13 23 12 24
REMARK SMILES IDX 24 25 25 26 26 27 27 28 28 30 29 31 30 32 91 33 31 34 90 35
REMARK SMILES IDX 32 36 33 37 34 38 84 39 35 40 89 41 83 42 85 43 36 44 88 45
REMARK SMILES IDX 82 46 81 47 37 49 69 50 49 51 68 52 50 53 53 54 67 55 86 56
REMARK SMILES IDX 51 57 52 58 66 60 87 61 54 62 38 63 39 64 47 65 40 66 46 67
REMARK SMILES IDX 48 68 45 69 41 70 42 71 43 72 44 73 70 74 71 75 79 76 72 77
REMARK SMILES IDX 78 78 80 79 77 80 73 81 74 82 75 83 76 84 55 85 56 86 64 87
REMARK SMILES IDX 57 88 63 89 65 90 62 91 58 92 59 93 60 94 61 95
REMARK H PARENT 21 6 26 29 85 48 53 59
REMARK Flexibility Score: inf
ROOT
ATOM      1  C   UNL A   1      32.118  30.054  25.976  1.00  0.00     0.023 C 
ENDROOT
BRANCH   1   2
ATOM      2  C   UNL A   1      33.133  29.168  25.258  1.00  0.00     0.116 C 
BRANCH   2   3
ATOM      3  N   UNL A   1      33.176  29.451  23.842  1.00  0.00    -0.356 N 
ATOM      4  C   UNL A   1      33.010  28.660  22.750  1.00  0.00     0.227 C 
ATOM      5  O   UNL A   1      33.212  29.203  21.656  1.00  0.00    -0.274 OA
ATOM      6  H   UNL A   1      33.359  30.394  23.628  1.00  0.00     0.163 HD
BRANCH   4   7
ATOM      7  C   UNL A   1      32.616  27.171  22.805  1.00  0.00     0.109 C 
ATOM      8  C   UNL A   1      33.091  26.308  21.638  1.00  0.00     0.023 C 
BRANCH   7   9
ATOM      9  C   UNL A   1      31.165  26.951  23.225  1.00  0.00     0.007 A 
ATOM     10  C   UNL A   1      30.799  25.868  24.039  1.00  0.00     0.122 A 
ATOM     11  C   UNL A   1      29.485  25.710  24.485  1.00  0.00     0.047 A 
ATOM     12  C   UNL A   1      28.514  26.654  24.152  1.00  0.00     0.016 A 
ATOM     13  C   UNL A   1      30.149  27.855  22.851  1.00  0.00     0.020 A 
ATOM     14  C   UNL A   1      28.833  27.736  23.325  1.00  0.00     0.023 A 
BRANCH  10  15
ATOM     15  O   UNL A   1      31.678  24.857  24.324  1.00  0.00    -0.496 OA
ATOM     16  C   UNL A   1      31.100  23.870  25.180  1.00  0.00     0.278 C 
ENDBRANCH  10  15
BRANCH  14  17
ATOM     17  C   UNL A   1      27.761  28.748  23.062  1.00  0.00     0.193 C 
ATOM     18  O   UNL A   1      26.586  28.446  23.263  1.00  0.00    -0.289 OA
BRANCH  17  19
ATOM     19  C   UNL A   1      28.041  30.132  22.617  1.00  0.00     0.022 A 
ATOM     20  C   UNL A   1      28.239  31.114  23.598  1.00  0.00     0.012 A 
ATOM     21  C   UNL A   1      28.057  30.483  21.262  1.00  0.00     0.012 A 
ATOM     22  C   UNL A   1      28.483  32.435  23.224  1.00  0.00     0.001 A 
ATOM     23  C   UNL A   1      28.306  31.807  20.894  1.00  0.00     0.001 A 
ATOM     24  C   UNL A   1      28.513  32.779  21.873  1.00  0.00     0.000 A 
ENDBRANCH  17  19
ENDBRANCH  14  17
ENDBRANCH   7   9
ENDBRANCH   4   7
ENDBRANCH   2   3
ENDBRANCH   1   2
BRANCH   1  25
ATOM     25  C   UNL A   1      32.515  30.523  27.367  1.00  0.00     0.023 C 
BRANCH  25  26
ATOM     26  C   UNL A   1      33.557  31.632  27.398  1.00  0.00     0.116 C 
BRANCH  26  27
ATOM     27  N   UNL A   1      33.010  32.969  27.598  1.00  0.00    -0.352 N 
ATOM     28  C   UNL A   1      33.455  33.940  28.467  1.00  0.00     0.251 C 
ATOM     29  H   UNL A   1      32.230  33.204  27.047  1.00  0.00     0.163 HD
ATOM     30  O   UNL A   1      32.897  35.030  28.548  1.00  0.00    -0.269 OA
BRANCH  28  31
ATOM     31  C   UNL A   1      34.598  33.618  29.330  1.00  0.00     0.039 A 
ATOM     32  C   UNL A   1      34.425  32.712  30.379  1.00  0.00     0.014 A 
ATOM     33  C   UNL A   1      35.857  34.125  29.006  1.00  0.00     0.014 A 
ATOM     34  C   UNL A   1      35.545  32.255  31.071  1.00  0.00     0.010 A 
ATOM     35  C   UNL A   1      36.972  33.605  29.639  1.00  0.00     0.010 A 
ATOM     36  C   UNL A   1      36.825  32.671  30.678  1.00  0.00    -0.014 A 
BRANCH  36  37
ATOM     37  C   UNL A   1      38.053  32.204  31.361  1.00  0.00     0.031 A 
ATOM     38  C   UNL A   1      38.856  31.118  30.706  1.00  0.00     0.074 A 
ATOM     39  C   UNL A   1      38.351  32.653  32.594  1.00  0.00     0.049 A 
ATOM     40  N   UNL A   1      39.799  30.365  31.204  1.00  0.00    -0.248 NA
ATOM     41  C   UNL A   1      38.498  30.800  29.314  1.00  0.00     0.031 C 
ATOM     42  C   UNL A   1      37.614  33.688  33.323  1.00  0.00     0.029 A 
ATOM     43  N   UNL A   1      39.337  32.271  33.467  1.00  0.00    -0.354 N 
ATOM     44  C   UNL A   1      40.114  29.452  30.202  1.00  0.00     0.074 A 
ATOM     45  C   UNL A   1      39.220  29.713  29.095  1.00  0.00     0.031 C 
ATOM     46  C   UNL A   1      38.178  33.861  34.530  1.00  0.00     0.029 A 
ATOM     47  C   UNL A   1      39.276  32.913  34.682  1.00  0.00     0.049 A 
ATOM     48  H   UNL A   1      40.023  31.600  33.246  1.00  0.00     0.167 HD
ATOM     49  C   UNL A   1      41.075  28.496  30.208  1.00  0.00     0.034 A 
ATOM     50  C   UNL A   1      40.009  32.732  35.797  1.00  0.00     0.034 A 
ATOM     51  C   UNL A   1      41.966  28.290  31.321  1.00  0.00     0.049 A 
ATOM     52  C   UNL A   1      41.083  31.673  35.778  1.00  0.00     0.074 A 
ATOM     53  C   UNL A   1      43.017  27.398  31.437  1.00  0.00     0.029 A 
ATOM     54  N   UNL A   1      41.912  28.998  32.517  1.00  0.00    -0.354 N 
ATOM     55  N   UNL A   1      41.393  30.829  34.819  1.00  0.00    -0.248 NA
ATOM     56  C   UNL A   1      41.909  31.544  36.984  1.00  0.00     0.031 C 
ATOM     57  C   UNL A   1      43.561  27.529  32.719  1.00  0.00     0.029 A 
ATOM     58  C   UNL A   1      42.897  28.551  33.382  1.00  0.00     0.049 A 
ATOM     59  H   UNL A   1      41.267  29.713  32.721  1.00  0.00     0.167 HD
ATOM     60  C   UNL A   1      42.468  30.087  35.297  1.00  0.00     0.074 A 
ATOM     61  C   UNL A   1      42.761  30.595  36.623  1.00  0.00     0.031 C 
ATOM     62  C   UNL A   1      43.157  29.080  34.700  1.00  0.00     0.034 A 
BRANCH  49  63
ATOM     63  C   UNL A   1      41.171  27.601  28.994  1.00  0.00     0.023 A 
ATOM     64  C   UNL A   1      42.172  27.780  28.021  1.00  0.00     0.031 A 
ATOM     65  C   UNL A   1      40.216  26.594  28.772  1.00  0.00     0.131 A 
ATOM     66  C   UNL A   1      42.135  27.035  26.832  1.00  0.00     0.055 A 
ATOM     67  C   UNL A   1      40.241  25.792  27.629  1.00  0.00     0.041 A 
ATOM     68  F   UNL A   1      39.222  26.388  29.652  1.00  0.00    -0.206 F 
ATOM     69  C   UNL A   1      41.194  26.023  26.641  1.00  0.00     0.022 A 
BRANCH  66  70
ATOM     70  S   UNL A   1      43.234  27.524  25.474  1.00  0.00     0.124 S 
ATOM     71  O   UNL A   1      42.304  28.202  24.574  1.00  0.00    -0.237 OA
ATOM     72  O   UNL A   1      44.208  28.377  26.147  1.00  0.00    -0.237 OA
ATOM     73  O   UNL A   1      43.755  26.252  24.979  1.00  0.00    -0.744 OA
ENDBRANCH  66  70
ENDBRANCH  49  63
BRANCH  50  74
ATOM     74  C   UNL A   1      39.756  33.552  37.017  1.00  0.00     0.023 A 
ATOM     75  C   UNL A   1      40.541  34.679  37.302  1.00  0.00     0.031 A 
ATOM     76  C   UNL A   1      38.738  33.212  37.927  1.00  0.00     0.131 A 
ATOM     77  C   UNL A   1      40.325  35.405  38.484  1.00  0.00     0.055 A 
ATOM     78  C   UNL A   1      38.495  33.966  39.078  1.00  0.00     0.041 A 
ATOM     79  F   UNL A   1      37.951  32.148  37.700  1.00  0.00    -0.206 F 
ATOM     80  C   UNL A   1      39.299  35.064  39.367  1.00  0.00     0.022 A 
BRANCH  77  81
ATOM     81  S   UNL A   1      41.456  36.766  38.886  1.00  0.00     0.124 S 
ATOM     82  O   UNL A   1      42.288  36.165  39.921  1.00  0.00    -0.237 OA
ATOM     83  O   UNL A   1      42.103  37.009  37.601  1.00  0.00    -0.237 OA
ATOM     84  O   UNL A   1      40.560  37.828  39.341  1.00  0.00    -0.744 OA
ENDBRANCH  77  81
ENDBRANCH  50  74
BRANCH  62  85
ATOM     85  C   UNL A   1      44.318  28.505  35.468  1.00  0.00     0.023 A 
ATOM     86  C   UNL A   1      44.133  27.528  36.461  1.00  0.00     0.031 A 
ATOM     87  C   UNL A   1      45.626  28.944  35.199  1.00  0.00     0.131 A 
ATOM     88  C   UNL A   1      45.236  27.058  37.187  1.00  0.00     0.055 A 
ATOM     89  C   UNL A   1      46.726  28.429  35.884  1.00  0.00     0.041 A 
ATOM     90  F   UNL A   1      45.854  29.875  34.260  1.00  0.00    -0.206 F 
ATOM     91  C   UNL A   1      46.533  27.489  36.893  1.00  0.00     0.022 A 
BRANCH  88  92
ATOM     92  S   UNL A   1      44.945  25.933  38.578  1.00  0.00     0.124 S 
ATOM     93  O   UNL A   1      43.722  26.479  39.157  1.00  0.00    -0.237 OA
ATOM     94  O   UNL A   1      44.813  24.640  37.912  1.00  0.00    -0.237 OA
ATOM     95  O   UNL A   1      46.144  26.086  39.400  1.00  0.00    -0.744 OA
ENDBRANCH  88  92
ENDBRANCH  62  85
ENDBRANCH  36  37
ENDBRANCH  28  31
ENDBRANCH  26  27
ENDBRANCH  25  26
ENDBRANCH   1  25
TORSDOF 18
ENDMDL
MODEL 2
REMARK VINA RESULT:     -11.7      2.005      2.259
REMARK SMILES COc1ccc(C(=O)c2ccccc2)cc1[C@@H](C)C(=O)NCCCCNC(=O)c1ccc(-c2c3nc(c(-c4cc(S(=O)(=O)[O-])ccc4F)c4ccc([nH]4)c(-c4cc(S(=O)(=O)[O-])ccc4F)c4nc(c(-c5cc(S(=O)(=O)[O-])ccc5F)c5ccc2[nH]5)C=C4)C=C3)cc1
REMARK SMILES IDX 23 1 22 2 21 3 19 4 20 5 17 7 18 8 16 9 3 10 4 11 5 12 15 13
REMARK SMILES IDX 6 14 2 15 1 16 7 17 8 18 9 19 10 20 14 21 11 22 13 23 12 24
REMARK SMILES IDX 24 25 25 26 26 27 27 28 28 30 29 31 30 32 91 33 31 34 90 35
REMARK SMILES IDX 32 36 33 37 34 38 84 39 35 40 89 41 83 42 85 43 36 44 88 45
REMARK SMILES IDX 82 46 81 47 37 49 69 50 49 51 68 52 50 53 53 54 67 55 86 56
REMARK SMILES IDX 51 57 52 58 66 60 87 61 54 62 38 63 39 64 47 65 40 66 46 67
REMARK SMILES IDX 48 68 45 69 41 70 42 71 43 72 44 73 70 74 71 75 79 76 72 77
REMARK SMILES IDX 78 78 80 79 77 80 73 81 74 82 75 83 76 84 55 85 56 86 64 87
REMARK SMILES IDX 57 88 63 89 65 90 62 91 58 92 59 93 60 94 61 95
REMARK H PARENT 21 6 26 29 85 48 53 59
REMARK Flexibility Score: inf
ROOT
ATOM      1  C   UNL A   1      31.726  30.364  25.748  1.00  0.00     0.023 C 
ENDROOT
BRANCH   1   2
ATOM      2  C   UNL A   1      32.682  29.250  25.328  1.00  0.00     0.116 C 
BRANCH   2   3
ATOM      3  N   UNL A   1      33.091  29.395  23.950  1.00  0.00    -0.356 N 
ATOM      4  C   UNL A   1      33.183  28.503  22.929  1.00  0.00     0.227 C 
ATOM      5  O   UNL A   1      33.673  28.936  21.878  1.00  0.00    -0.274 OA
ATOM      6  H   UNL A   1      33.351  30.312  23.704  1.00  0.00     0.163 HD
BRANCH   4   7
ATOM      7  C   UNL A   1      32.743  27.029  23.018  1.00  0.00     0.109 C 
ATOM      8  C   UNL A   1      33.189  26.125  21.870  1.00  0.00     0.023 C 
BRANCH   7   9
ATOM      9  C   UNL A   1      31.288  26.864  23.445  1.00  0.00     0.007 A 
ATOM     10  C   UNL A   1      30.906  25.876  24.367  1.00  0.00     0.122 A 
ATOM     11  C   UNL A   1      29.588  25.774  24.814  1.00  0.00     0.047 A 
ATOM     12  C   UNL A   1      28.627  26.683  24.373  1.00  0.00     0.016 A 
ATOM     13  C   UNL A   1      30.281  27.729  22.968  1.00  0.00     0.020 A 
ATOM     14  C   UNL A   1      28.960  27.669  23.439  1.00  0.00     0.023 A 
BRANCH  10  15
ATOM     15  O   UNL A   1      31.776  24.895  24.765  1.00  0.00    -0.496 OA
ATOM     16  C   UNL A   1      32.204  25.076  26.116  1.00  0.00     0.278 C 
ENDBRANCH  10  15
BRANCH  14  17
ATOM     17  C   UNL A   1      27.898  28.654  23.060  1.00  0.00     0.193 C 
ATOM     18  O   UNL A   1      26.716  28.323  23.135  1.00  0.00    -0.289 OA
BRANCH  17  19
ATOM     19  C   UNL A   1      28.190  30.044  22.642  1.00  0.00     0.022 A 
ATOM     20  C   UNL A   1      28.529  30.974  23.634  1.00  0.00     0.012 A 
ATOM     21  C   UNL A   1      28.082  30.452  21.307  1.00  0.00     0.012 A 
ATOM     22  C   UNL A   1      28.790  32.300  23.288  1.00  0.00     0.001 A 
ATOM     23  C   UNL A   1      28.348  31.780  20.966  1.00  0.00     0.001 A 
ATOM     24  C   UNL A   1      28.695  32.700  21.956  1.00  0.00     0.000 A 
ENDBRANCH  17  19
ENDBRANCH  14  17
ENDBRANCH   7   9
ENDBRANCH   4   7
ENDBRANCH   2   3
ENDBRANCH   1   2
BRANCH   1  25
ATOM     25  C   UNL A   1      31.985  30.980  27.114  1.00  0.00     0.023 C 
BRANCH  25  26
ATOM     26  C   UNL A   1      33.060  32.056  27.140  1.00  0.00     0.116 C 
BRANCH  26  27
ATOM     27  N   UNL A   1      32.563  33.400  27.410  1.00  0.00    -0.352 N 
ATOM     28  C   UNL A   1      33.060  34.317  28.308  1.00  0.00     0.251 C 
ATOM     29  H   UNL A   1      31.778  33.684  26.889  1.00  0.00     0.163 HD
ATOM     30  O   UNL A   1      32.540  35.420  28.450  1.00  0.00    -0.269 OA
BRANCH  28  31
ATOM     31  C   UNL A   1      34.211  33.922  29.129  1.00  0.00     0.039 A 
ATOM     32  C   UNL A   1      34.033  32.975  30.140  1.00  0.00     0.014 A 
ATOM     33  C   UNL A   1      35.478  34.403  28.796  1.00  0.00     0.014 A 
ATOM     34  C   UNL A   1      35.154  32.453  30.784  1.00  0.00     0.010 A 
ATOM     35  C   UNL A   1      36.590  33.821  29.378  1.00  0.00     0.010 A 
ATOM     36  C   UNL A   1      36.437  32.846  30.378  1.00  0.00    -0.014 A 
BRANCH  36  37
ATOM     37  C   UNL A   1      37.665  32.311  31.009  1.00  0.00     0.031 A 
ATOM     38  C   UNL A   1      38.452  31.277  30.258  1.00  0.00     0.074 A 
ATOM     39  C   UNL A   1      37.976  32.650  32.274  1.00  0.00     0.049 A 
ATOM     40  N   UNL A   1      39.391  30.476  30.683  1.00  0.00    -0.248 NA
ATOM     41  C   UNL A   1      38.082  31.082  28.847  1.00  0.00     0.031 C 
ATOM     42  C   UNL A   1      37.254  33.627  33.094  1.00  0.00     0.029 A 
ATOM     43  N   UNL A   1      38.963  32.186  33.103  1.00  0.00    -0.354 N 
ATOM     44  C   UNL A   1      39.690  29.649  29.605  1.00  0.00     0.074 A 
ATOM     45  C   UNL A   1      38.791  30.012  28.531  1.00  0.00     0.031 C 
ATOM     46  C   UNL A   1      37.828  33.691  34.307  1.00  0.00     0.029 A 
ATOM     47  C   UNL A   1      38.918  32.723  34.370  1.00  0.00     0.049 A 
ATOM     48  H   UNL A   1      39.641  31.530  32.821  1.00  0.00     0.167 HD
ATOM     49  C   UNL A   1      40.641  28.686  29.522  1.00  0.00     0.034 A 
ATOM     50  C   UNL A   1      39.656  32.440  35.460  1.00  0.00     0.034 A 
ATOM     51  C   UNL A   1      41.538  28.377  30.607  1.00  0.00     0.049 A 
ATOM     52  C   UNL A   1      40.719  31.377  35.342  1.00  0.00     0.074 A 
ATOM     53  C   UNL A   1      42.580  27.469  30.638  1.00  0.00     0.029 A 
ATOM     54  N   UNL A   1      41.498  28.982  31.860  1.00  0.00    -0.354 N 
ATOM     55  N   UNL A   1      41.014  30.615  34.312  1.00  0.00    -0.248 NA
ATOM     56  C   UNL A   1      41.552  31.138  36.527  1.00  0.00     0.031 C 
ATOM     57  C   UNL A   1      43.134  27.486  31.923  1.00  0.00     0.029 A 
ATOM     58  C   UNL A   1      42.485  28.453  32.675  1.00  0.00     0.049 A 
ATOM     59  H   UNL A   1      40.862  29.682  32.128  1.00  0.00     0.167 HD
ATOM     60  C   UNL A   1      42.085  29.824  34.718  1.00  0.00     0.074 A 
ATOM     61  C   UNL A   1      42.392  30.215  36.080  1.00  0.00     0.031 C 
ATOM     62  C   UNL A   1      42.759  28.866  34.032  1.00  0.00     0.034 A 
BRANCH  49  63
ATOM     63  C   UNL A   1      40.720  27.897  28.236  1.00  0.00     0.023 A 
ATOM     64  C   UNL A   1      40.003  26.700  28.057  1.00  0.00     0.031 A 
ATOM     65  C   UNL A   1      41.569  28.313  27.196  1.00  0.00     0.131 A 
ATOM     66  C   UNL A   1      40.222  25.915  26.915  1.00  0.00     0.055 A 
ATOM     67  C   UNL A   1      41.711  27.573  26.019  1.00  0.00     0.041 A 
ATOM     68  F   UNL A   1      42.298  29.434  27.314  1.00  0.00    -0.206 F 
ATOM     69  C   UNL A   1      41.050  26.355  25.881  1.00  0.00     0.022 A 
BRANCH  66  70
ATOM     70  S   UNL A   1      39.538  24.235  26.878  1.00  0.00     0.124 S 
ATOM     71  O   UNL A   1      38.658  24.251  28.045  1.00  0.00    -0.237 OA
ATOM     72  O   UNL A   1      38.874  24.192  25.579  1.00  0.00    -0.237 OA
ATOM     73  O   UNL A   1      40.716  23.381  27.006  1.00  0.00    -0.744 OA
ENDBRANCH  66  70
ENDBRANCH  49  63
BRANCH  50  74
ATOM     74  C   UNL A   1      39.419  33.156  36.747  1.00  0.00     0.023 A 
ATOM     75  C   UNL A   1      38.583  32.608  37.731  1.00  0.00     0.031 A 
ATOM     76  C   UNL A   1      40.009  34.407  37.006  1.00  0.00     0.131 A 
ATOM     77  C   UNL A   1      38.326  33.323  38.911  1.00  0.00     0.055 A 
ATOM     78  C   UNL A   1      39.789  35.093  38.203  1.00  0.00     0.041 A 
ATOM     79  F   UNL A   1      40.826  34.974  36.103  1.00  0.00    -0.206 F 
ATOM     80  C   UNL A   1      38.933  34.556  39.159  1.00  0.00     0.022 A 
BRANCH  77  81
ATOM     81  S   UNL A   1      37.125  32.648  40.091  1.00  0.00     0.124 S 
ATOM     82  O   UNL A   1      35.907  32.615  39.290  1.00  0.00    -0.237 OA
ATOM     83  O   UNL A   1      37.716  31.354  40.416  1.00  0.00    -0.237 OA
ATOM     84  O   UNL A   1      37.131  33.624  41.179  1.00  0.00    -0.744 OA
ENDBRANCH  77  81
ENDBRANCH  50  74
BRANCH  62  85
ATOM     85  C   UNL A   1      43.920  28.216  34.739  1.00  0.00     0.023 A 
ATOM     86  C   UNL A   1      43.770  27.013  35.450  1.00  0.00     0.031 A 
ATOM     87  C   UNL A   1      45.192  28.814  34.699  1.00  0.00     0.131 A 
ATOM     88  C   UNL A   1      44.865  26.471  36.136  1.00  0.00     0.055 A 
ATOM     89  C   UNL A   1      46.291  28.238  35.336  1.00  0.00     0.041 A 
ATOM     90  F   UNL A   1      45.386  29.963  34.034  1.00  0.00    -0.206 F 
ATOM     91  C   UNL A   1      46.128  27.065  36.069  1.00  0.00     0.022 A 
BRANCH  88  92
ATOM     92  S   UNL A   1      44.598  25.017  37.186  1.00  0.00     0.124 S 
ATOM     93  O   UNL A   1      45.166  25.455  38.457  1.00  0.00    -0.237 OA
ATOM     94  O   UNL A   1      43.146  24.871  37.154  1.00  0.00    -0.237 OA
ATOM     95  O   UNL A   1      45.342  23.960  36.504  1.00  0.00    -0.744 OA
ENDBRANCH  88  92
ENDBRANCH  62  85
ENDBRANCH  36  37
ENDBRANCH  28  31
ENDBRANCH  26  27
ENDBRANCH  25  26
ENDBRANCH   1  25
TORSDOF 18
ENDMDL
MODEL 3
REMARK VINA RESULT:     -11.6      6.266     12.138
REMARK SMILES COc1ccc(C(=O)c2ccccc2)cc1[C@@H](C)C(=O)NCCCCNC(=O)c1ccc(-c2c3nc(c(-c4cc(S(=O)(=O)[O-])ccc4F)c4ccc([nH]4)c(-c4cc(S(=O)(=O)[O-])ccc4F)c4nc(c(-c5cc(S(=O)(=O)[O-])ccc5F)c5ccc2[nH]5)C=C4)C=C3)cc1
REMARK SMILES IDX 23 1 22 2 21 3 19 4 20 5 17 7 18 8 16 9 3 10 4 11 5 12 15 13
REMARK SMILES IDX 6 14 2 15 1 16 7 17 8 18 9 19 10 20 14 21 11 22 13 23 12 24
REMARK SMILES IDX 24 25 25 26 26 27 27 28 28 30 29 31 30 32 91 33 31 34 90 35
REMARK SMILES IDX 32 36 33 37 34 38 84 39 35 40 89 41 83 42 85 43 36 44 88 45
REMARK SMILES IDX 82 46 81 47 37 49 69 50 49 51 68 52 50 53 53 54 67 55 86 56
REMARK SMILES IDX 51 57 52 58 66 60 87 61 54 62 38 63 39 64 47 65 40 66 46 67
REMARK SMILES IDX 48 68 45 69 41 70 42 71 43 72 44 73 70 74 71 75 79 76 72 77
REMARK SMILES IDX 78 78 80 79 77 80 73 81 74 82 75 83 76 84 55 85 56 86 64 87
REMARK SMILES IDX 57 88 63 89 65 90 62 91 58 92 59 93 60 94 61 95
REMARK H PARENT 21 6 26 29 85 48 53 59
REMARK Flexibility Score: inf
ROOT
ATOM      1  C   UNL A   1      37.458  21.062  25.020  1.00  0.00     0.023 C 
ENDROOT
BRANCH   1   2
ATOM      2  C   UNL A   1      36.413  22.058  25.515  1.00  0.00     0.116 C 
BRANCH   2   3
ATOM      3  N   UNL A   1      35.514  21.451  26.471  1.00  0.00    -0.356 N 
ATOM      4  C   UNL A   1      34.199  21.656  26.742  1.00  0.00     0.227 C 
ATOM      5  O   UNL A   1      33.744  21.030  27.708  1.00  0.00    -0.274 OA
ATOM      6  H   UNL A   1      35.934  20.757  27.030  1.00  0.00     0.163 HD
BRANCH   4   7
ATOM      7  C   UNL A   1      33.285  22.610  25.949  1.00  0.00     0.109 C 
ATOM      8  C   UNL A   1      32.239  23.369  26.763  1.00  0.00     0.023 C 
BRANCH   7   9
ATOM      9  C   UNL A   1      32.776  22.004  24.644  1.00  0.00     0.007 A 
ATOM     10  C   UNL A   1      32.372  22.815  23.572  1.00  0.00     0.122 A 
ATOM     11  C   UNL A   1      31.978  22.261  22.353  1.00  0.00     0.047 A 
ATOM     12  C   UNL A   1      32.013  20.879  22.169  1.00  0.00     0.016 A 
ATOM     13  C   UNL A   1      32.740  20.607  24.450  1.00  0.00     0.020 A 
ATOM     14  C   UNL A   1      32.388  20.034  23.218  1.00  0.00     0.023 A 
BRANCH  10  15
ATOM     15  O   UNL A   1      32.224  24.169  23.716  1.00  0.00    -0.496 OA
ATOM     16  C   UNL A   1      30.956  24.623  23.240  1.00  0.00     0.278 C 
ENDBRANCH  10  15
BRANCH  14  17
ATOM     17  C   UNL A   1      32.468  18.566  22.932  1.00  0.00     0.193 C 
ATOM     18  O   UNL A   1      32.058  18.139  21.855  1.00  0.00    -0.289 OA
BRANCH  17  19
ATOM     19  C   UNL A   1      33.070  17.588  23.866  1.00  0.00     0.022 A 
ATOM     20  C   UNL A   1      32.253  17.035  24.862  1.00  0.00     0.012 A 
ATOM     21  C   UNL A   1      34.428  17.252  23.810  1.00  0.00     0.012 A 
ATOM     22  C   UNL A   1      32.783  16.126  25.777  1.00  0.00     0.001 A 
ATOM     23  C   UNL A   1      34.953  16.338  24.727  1.00  0.00     0.001 A 
ATOM     24  C   UNL A   1      34.133  15.783  25.709  1.00  0.00     0.000 A 
ENDBRANCH  17  19
ENDBRANCH  14  17
ENDBRANCH   7   9
ENDBRANCH   4   7
ENDBRANCH   2   3
ENDBRANCH   1   2
BRANCH   1  25
ATOM     25  C   UNL A   1      38.882  21.305  25.497  1.00  0.00     0.023 C 
BRANCH  25  26
ATOM     26  C   UNL A   1      39.426  20.255  26.456  1.00  0.00     0.116 C 
BRANCH  26  27
ATOM     27  N   UNL A   1      40.526  19.462  25.921  1.00  0.00    -0.352 N 
ATOM     28  C   UNL A   1      41.854  19.815  25.832  1.00  0.00     0.251 C 
ATOM     29  H   UNL A   1      40.291  18.568  25.582  1.00  0.00     0.163 HD
ATOM     30  O   UNL A   1      42.687  19.054  25.348  1.00  0.00    -0.269 OA
BRANCH  28  31
ATOM     31  C   UNL A   1      42.243  21.152  26.298  1.00  0.00     0.039 A 
ATOM     32  C   UNL A   1      42.568  21.335  27.644  1.00  0.00     0.014 A 
ATOM     33  C   UNL A   1      42.402  22.175  25.363  1.00  0.00     0.014 A 
ATOM     34  C   UNL A   1      43.125  22.547  28.047  1.00  0.00     0.010 A 
ATOM     35  C   UNL A   1      43.034  23.344  25.751  1.00  0.00     0.010 A 
ATOM     36  C   UNL A   1      43.396  23.541  27.095  1.00  0.00    -0.014 A 
BRANCH  36  37
ATOM     37  C   UNL A   1      44.007  24.839  27.458  1.00  0.00     0.031 A 
ATOM     38  C   UNL A   1      43.108  25.920  27.986  1.00  0.00     0.074 A 
ATOM     39  C   UNL A   1      45.304  25.073  27.188  1.00  0.00     0.049 A 
ATOM     40  N   UNL A   1      43.336  27.197  28.125  1.00  0.00    -0.248 NA
ATOM     41  C   UNL A   1      41.743  25.505  28.350  1.00  0.00     0.031 C 
ATOM     42  C   UNL A   1      46.250  24.093  26.648  1.00  0.00     0.029 A 
ATOM     43  N   UNL A   1      46.044  26.221  27.300  1.00  0.00    -0.354 N 
ATOM     44  C   UNL A   1      42.129  27.747  28.545  1.00  0.00     0.074 A 
ATOM     45  C   UNL A   1      41.163  26.671  28.581  1.00  0.00     0.031 C 
ATOM     46  C   UNL A   1      47.446  24.682  26.481  1.00  0.00     0.029 A 
ATOM     47  C   UNL A   1      47.338  26.090  26.847  1.00  0.00     0.049 A 
ATOM     48  H   UNL A   1      45.686  27.061  27.668  1.00  0.00     0.167 HD
ATOM     49  C   UNL A   1      41.864  29.033  28.884  1.00  0.00     0.034 A 
ATOM     50  C   UNL A   1      48.310  27.013  26.718  1.00  0.00     0.034 A 
ATOM     51  C   UNL A   1      42.864  30.069  28.865  1.00  0.00     0.049 A 
ATOM     52  C   UNL A   1      47.998  28.435  27.115  1.00  0.00     0.074 A 
ATOM     53  C   UNL A   1      42.745  31.396  29.236  1.00  0.00     0.029 A 
ATOM     54  N   UNL A   1      44.181  29.888  28.453  1.00  0.00    -0.354 N 
ATOM     55  N   UNL A   1      46.861  28.944  27.535  1.00  0.00    -0.248 NA
ATOM     56  C   UNL A   1      49.097  29.404  27.026  1.00  0.00     0.031 C 
ATOM     57  C   UNL A   1      43.971  32.027  28.998  1.00  0.00     0.029 A 
ATOM     58  C   UNL A   1      44.878  31.081  28.544  1.00  0.00     0.049 A 
ATOM     59  H   UNL A   1      44.562  29.036  28.141  1.00  0.00     0.167 HD
ATOM     60  C   UNL A   1      47.117  30.288  27.787  1.00  0.00     0.074 A 
ATOM     61  C   UNL A   1      48.518  30.504  27.486  1.00  0.00     0.031 C 
ATOM     62  C   UNL A   1      46.277  31.259  28.230  1.00  0.00     0.034 A 
BRANCH  49  63
ATOM     63  C   UNL A   1      40.441  29.371  29.264  1.00  0.00     0.023 A 
ATOM     64  C   UNL A   1      40.035  29.456  30.608  1.00  0.00     0.031 A 
ATOM     65  C   UNL A   1      39.461  29.550  28.272  1.00  0.00     0.131 A 
ATOM     66  C   UNL A   1      38.676  29.615  30.922  1.00  0.00     0.055 A 
ATOM     67  C   UNL A   1      38.125  29.802  28.592  1.00  0.00     0.041 A 
ATOM     68  F   UNL A   1      39.780  29.458  26.971  1.00  0.00    -0.206 F 
ATOM     69  C   UNL A   1      37.721  29.816  29.925  1.00  0.00     0.022 A 
BRANCH  66  70
ATOM     70  S   UNL A   1      38.156  29.388  32.646  1.00  0.00     0.124 S 
ATOM     71  O   UNL A   1      38.844  28.148  32.998  1.00  0.00    -0.237 OA
ATOM     72  O   UNL A   1      38.655  30.600  33.288  1.00  0.00    -0.237 OA
ATOM     73  O   UNL A   1      36.703  29.282  32.555  1.00  0.00    -0.744 OA
ENDBRANCH  66  70
ENDBRANCH  49  63
BRANCH  50  74
ATOM     74  C   UNL A   1      49.652  26.636  26.189  1.00  0.00     0.023 A 
ATOM     75  C   UNL A   1      50.083  27.086  24.932  1.00  0.00     0.031 A 
ATOM     76  C   UNL A   1      50.518  25.804  26.922  1.00  0.00     0.131 A 
ATOM     77  C   UNL A   1      51.325  26.673  24.426  1.00  0.00     0.055 A 
ATOM     78  C   UNL A   1      51.775  25.435  26.435  1.00  0.00     0.041 A 
ATOM     79  F   UNL A   1      50.161  25.351  28.135  1.00  0.00    -0.206 F 
ATOM     80  C   UNL A   1      52.180  25.861  25.174  1.00  0.00     0.022 A 
BRANCH  77  81
ATOM     81  S   UNL A   1      51.779  27.158  22.738  1.00  0.00     0.124 S 
ATOM     82  O   UNL A   1      52.957  26.334  22.498  1.00  0.00    -0.237 OA
ATOM     83  O   UNL A   1      50.580  26.800  21.988  1.00  0.00    -0.237 OA
ATOM     84  O   UNL A   1      52.034  28.593  22.854  1.00  0.00    -0.744 OA
ENDBRANCH  77  81
ENDBRANCH  50  74
BRANCH  62  85
ATOM     85  C   UNL A   1      46.875  32.623  28.454  1.00  0.00     0.023 A 
ATOM     86  C   UNL A   1      46.986  33.559  27.412  1.00  0.00     0.031 A 
ATOM     87  C   UNL A   1      47.340  32.986  29.730  1.00  0.00     0.131 A 
ATOM     88  C   UNL A   1      47.597  34.797  27.654  1.00  0.00     0.055 A 
ATOM     89  C   UNL A   1      47.894  34.242  29.977  1.00  0.00     0.041 A 
ATOM     90  F   UNL A   1      47.257  32.126  30.758  1.00  0.00    -0.206 F 
ATOM     91  C   UNL A   1      48.035  35.152  28.932  1.00  0.00     0.022 A 
BRANCH  88  92
ATOM     92  S   UNL A   1      47.884  35.911  26.252  1.00  0.00     0.124 S 
ATOM     93  O   UNL A   1      46.544  36.429  25.997  1.00  0.00    -0.237 OA
ATOM     94  O   UNL A   1      48.841  36.866  26.803  1.00  0.00    -0.237 OA
ATOM     95  O   UNL A   1      48.417  35.029  25.216  1.00  0.00    -0.744 OA
ENDBRANCH  88  92
ENDBRANCH  62  85
ENDBRANCH  36  37
ENDBRANCH  28  31
ENDBRANCH  26  27
ENDBRANCH  25  26
ENDBRANCH   1  25
TORSDOF 18
ENDMDL
