MODEL 1
REMARK VINA RESULT:     -12.4      0.000      0.000
REMARK SMILES COc1ccc(-c2cnc(N)c(C(=O)NCCCCNC(=O)c3ccc(-c4c5nc(c(-c6cc(S(=O)(=O)[O-])ccc6F)c6ccc([nH]6)c(-c6cc(S(=O)(=O)[O-])ccc6F)c6nc(c(-c7cc(S(=O)(=O)[O-])ccc7F)c7ccc4[nH]7)C=C6)C=C5)cc3)c2)c(C)c1
REMARK SMILES IDX 18 1 17 2 16 3 15 4 13 5 14 6 12 8 7 9 8 10 86 11 9 12 10 13
REMARK SMILES IDX 6 14 3 15 4 16 89 17 5 18 87 19 88 20 2 21 1 22 11 23 19 26
REMARK SMILES IDX 20 27 21 28 22 30 23 31 24 32 85 33 25 34 84 35 26 36 27 37
REMARK SMILES IDX 28 38 78 39 29 40 83 41 77 42 79 43 30 44 82 45 76 46 75 47
REMARK SMILES IDX 31 49 63 50 43 51 62 52 44 53 47 54 61 55 80 56 45 57 46 58
REMARK SMILES IDX 60 60 81 61 48 62 32 63 33 64 41 65 34 66 40 67 42 68 39 69
REMARK SMILES IDX 35 70 36 71 37 72 38 73 64 74 65 75 73 76 66 77 72 78 74 79
REMARK SMILES IDX 71 80 67 81 68 82 69 83 70 84 49 85 50 86 58 87 51 88 57 89
REMARK SMILES IDX 59 90 56 91 52 92 53 93 54 94 55 95
REMARK H PARENT 15 7 11 24 11 25 20 29 79 48 47 59
REMARK Flexibility Score: inf
ROOT
ATOM      1  C   UNL A   1      32.952  30.553  27.275  1.00  0.00     0.023 C 
ENDROOT
BRANCH   1   2
ATOM      2  C   UNL A   1      32.030  29.436  26.795  1.00  0.00     0.023 C 
BRANCH   2   3
ATOM      3  C   UNL A   1      32.306  28.040  27.356  1.00  0.00     0.116 C 
BRANCH   3   4
ATOM      4  N   UNL A   1      31.189  27.104  27.248  1.00  0.00    -0.352 N 
ATOM      5  C   UNL A   1      30.983  26.034  26.400  1.00  0.00     0.255 C 
ATOM      6  O   UNL A   1      29.921  25.413  26.495  1.00  0.00    -0.269 OA
ATOM      7  H   UNL A   1      30.458  27.264  27.889  1.00  0.00     0.163 HD
BRANCH   5   8
ATOM      8  C   UNL A   1      31.920  25.680  25.305  1.00  0.00     0.082 A 
ATOM      9  C   UNL A   1      33.791  24.275  24.603  1.00  0.00     0.001 A 
ATOM     10  C   UNL A   1      33.585  24.813  23.336  1.00  0.00     0.122 A 
ATOM     11  C   UNL A   1      32.898  24.703  25.591  1.00  0.00     0.028 A 
ATOM     12  N   UNL A   1      32.716  25.804  23.050  1.00  0.00    -0.238 NA
ATOM     13  C   UNL A   1      31.942  26.282  24.049  1.00  0.00     0.136 A 
BRANCH   9  14
ATOM     14  C   UNL A   1      34.970  23.426  24.866  1.00  0.00    -0.014 A 
ATOM     15  C   UNL A   1      37.360  22.009  25.452  1.00  0.00     0.119 A 
ATOM     16  C   UNL A   1      37.345  23.393  25.521  1.00  0.00     0.047 A 
ATOM     17  C   UNL A   1      36.201  21.333  25.061  1.00  0.00     0.050 A 
ATOM     18  C   UNL A   1      36.164  24.084  25.242  1.00  0.00     0.013 A 
ATOM     19  C   UNL A   1      35.002  22.021  24.766  1.00  0.00    -0.040 A 
ATOM     20  C   UNL A   1      33.806  21.187  24.393  1.00  0.00     0.045 C 
BRANCH  15  21
ATOM     21  O   UNL A   1      38.456  21.230  25.707  1.00  0.00    -0.497 OA
ATOM     22  C   UNL A   1      39.517  21.906  26.375  1.00  0.00     0.278 C 
ENDBRANCH  15  21
ENDBRANCH   9  14
BRANCH  13  23
ATOM     23  N   UNL A   1      31.367  27.497  23.758  1.00  0.00    -0.383 N 
ATOM     24  H   UNL A   1      30.943  27.643  22.882  1.00  0.00     0.158 HD
ATOM     25  H   UNL A   1      31.380  28.220  24.426  1.00  0.00     0.158 HD
ENDBRANCH  13  23
ENDBRANCH   5   8
ENDBRANCH   3   4
ENDBRANCH   2   3
ENDBRANCH   1   2
BRANCH   1  26
ATOM     26  C   UNL A   1      34.376  30.139  27.644  1.00  0.00     0.116 C 
BRANCH  26  27
ATOM     27  N   UNL A   1      35.049  31.032  28.588  1.00  0.00    -0.352 N 
ATOM     28  C   UNL A   1      36.282  30.872  29.206  1.00  0.00     0.251 C 
ATOM     29  H   UNL A   1      34.562  31.858  28.814  1.00  0.00     0.163 HD
ATOM     30  O   UNL A   1      36.750  31.722  29.953  1.00  0.00    -0.269 OA
BRANCH  28  31
ATOM     31  C   UNL A   1      37.103  29.692  28.842  1.00  0.00     0.039 A 
ATOM     32  C   UNL A   1      37.358  28.747  29.842  1.00  0.00     0.014 A 
ATOM     33  C   UNL A   1      37.830  29.681  27.657  1.00  0.00     0.014 A 
ATOM     34  C   UNL A   1      38.522  27.987  29.773  1.00  0.00     0.010 A 
ATOM     35  C   UNL A   1      39.042  29.015  27.640  1.00  0.00     0.010 A 
ATOM     36  C   UNL A   1      39.423  28.231  28.733  1.00  0.00    -0.014 A 
BRANCH  36  37
ATOM     37  C   UNL A   1      40.830  27.850  28.813  1.00  0.00     0.031 A 
ATOM     38  C   UNL A   1      41.306  26.575  28.247  1.00  0.00     0.074 A 
ATOM     39  C   UNL A   1      41.727  28.666  29.413  1.00  0.00     0.049 A 
ATOM     40  N   UNL A   1      42.218  25.841  28.791  1.00  0.00    -0.248 NA
ATOM     41  C   UNL A   1      40.766  26.020  27.013  1.00  0.00     0.031 C 
ATOM     42  C   UNL A   1      43.180  28.506  29.438  1.00  0.00     0.029 A 
ATOM     43  N   UNL A   1      41.490  29.698  30.321  1.00  0.00    -0.354 N 
ATOM     44  C   UNL A   1      42.598  24.912  27.852  1.00  0.00     0.074 A 
ATOM     45  C   UNL A   1      41.608  25.004  26.801  1.00  0.00     0.031 C 
ATOM     46  C   UNL A   1      43.661  29.150  30.513  1.00  0.00     0.029 A 
ATOM     47  C   UNL A   1      42.521  29.639  31.269  1.00  0.00     0.049 A 
ATOM     48  H   UNL A   1      40.745  30.341  30.299  1.00  0.00     0.167 HD
ATOM     49  C   UNL A   1      43.799  24.274  27.951  1.00  0.00     0.034 A 
ATOM     50  C   UNL A   1      42.321  29.472  32.608  1.00  0.00     0.034 A 
ATOM     51  C   UNL A   1      44.578  24.739  29.092  1.00  0.00     0.049 A 
ATOM     52  C   UNL A   1      43.046  28.269  33.170  1.00  0.00     0.074 A 
ATOM     53  C   UNL A   1      45.633  25.632  29.196  1.00  0.00     0.029 A 
ATOM     54  N   UNL A   1      44.137  24.502  30.389  1.00  0.00    -0.354 N 
ATOM     55  N   UNL A   1      43.562  27.320  32.439  1.00  0.00    -0.248 NA
ATOM     56  C   UNL A   1      43.192  28.012  34.597  1.00  0.00     0.031 C 
ATOM     57  C   UNL A   1      45.804  25.958  30.564  1.00  0.00     0.029 A 
ATOM     58  C   UNL A   1      44.866  25.250  31.295  1.00  0.00     0.049 A 
ATOM     59  H   UNL A   1      43.408  23.886  30.629  1.00  0.00     0.167 HD
ATOM     60  C   UNL A   1      44.060  26.329  33.250  1.00  0.00     0.074 A 
ATOM     61  C   UNL A   1      43.831  26.830  34.594  1.00  0.00     0.031 C 
ATOM     62  C   UNL A   1      44.592  25.181  32.725  1.00  0.00     0.034 A 
BRANCH  49  63
ATOM     63  C   UNL A   1      44.389  23.487  26.806  1.00  0.00     0.023 A 
ATOM     64  C   UNL A   1      43.877  22.212  26.491  1.00  0.00     0.031 A 
ATOM     65  C   UNL A   1      45.466  23.924  26.013  1.00  0.00     0.131 A 
ATOM     66  C   UNL A   1      44.489  21.394  25.526  1.00  0.00     0.055 A 
ATOM     67  C   UNL A   1      46.113  23.091  25.090  1.00  0.00     0.041 A 
ATOM     68  F   UNL A   1      45.920  25.186  26.091  1.00  0.00    -0.206 F 
ATOM     69  C   UNL A   1      45.634  21.810  24.854  1.00  0.00     0.022 A 
BRANCH  66  70
ATOM     70  S   UNL A   1      43.760  19.772  25.161  1.00  0.00     0.124 S 
ATOM     71  O   UNL A   1      42.340  20.008  25.401  1.00  0.00    -0.237 OA
ATOM     72  O   UNL A   1      44.154  19.563  23.772  1.00  0.00    -0.237 OA
ATOM     73  O   UNL A   1      44.409  18.884  26.126  1.00  0.00    -0.744 OA
ENDBRANCH  66  70
ENDBRANCH  49  63
BRANCH  50  74
ATOM     74  C   UNL A   1      41.009  29.971  33.100  1.00  0.00     0.023 A 
ATOM     75  C   UNL A   1      40.846  31.366  33.210  1.00  0.00     0.031 A 
ATOM     76  C   UNL A   1      39.858  29.172  33.056  1.00  0.00     0.131 A 
ATOM     77  C   UNL A   1      39.570  31.935  33.103  1.00  0.00     0.055 A 
ATOM     78  C   UNL A   1      38.582  29.742  33.007  1.00  0.00     0.041 A 
ATOM     79  F   UNL A   1      39.954  27.843  32.905  1.00  0.00    -0.206 F 
ATOM     80  C   UNL A   1      38.436  31.129  32.983  1.00  0.00     0.022 A 
BRANCH  77  81
ATOM     81  S   UNL A   1      39.398  33.728  32.876  1.00  0.00     0.124 S 
ATOM     82  O   UNL A   1      40.727  34.212  33.188  1.00  0.00    -0.237 OA
ATOM     83  O   UNL A   1      38.988  33.846  31.474  1.00  0.00    -0.237 OA
ATOM     84  O   UNL A   1      38.343  34.075  33.829  1.00  0.00    -0.744 OA
ENDBRANCH  77  81
ENDBRANCH  50  74
BRANCH  62  85
ATOM     85  C   UNL A   1      44.993  23.932  33.495  1.00  0.00     0.023 A 
ATOM     86  C   UNL A   1      46.305  23.655  33.901  1.00  0.00     0.031 A 
ATOM     87  C   UNL A   1      44.025  22.976  33.896  1.00  0.00     0.131 A 
ATOM     88  C   UNL A   1      46.632  22.461  34.574  1.00  0.00     0.055 A 
ATOM     89  C   UNL A   1      44.337  21.828  34.633  1.00  0.00     0.041 A 
ATOM     90  F   UNL A   1      42.724  23.115  33.603  1.00  0.00    -0.206 F 
ATOM     91  C   UNL A   1      45.653  21.552  34.961  1.00  0.00     0.022 A 
BRANCH  88  92
ATOM     92  S   UNL A   1      48.383  22.096  34.867  1.00  0.00     0.124 S 
ATOM     93  O   UNL A   1      49.041  23.134  34.077  1.00  0.00    -0.237 OA
ATOM     94  O   UNL A   1      48.494  22.238  36.314  1.00  0.00    -0.237 OA
ATOM     95  O   UNL A   1      48.542  20.736  34.359  1.00  0.00    -0.744 OA
ENDBRANCH  88  92
ENDBRANCH  62  85
ENDBRANCH  36  37
ENDBRANCH  28  31
ENDBRANCH  26  27
ENDBRANCH   1  26
TORSDOF 17
ENDMDL
MODEL 2
REMARK VINA RESULT:     -12.4      1.276      1.955
REMARK SMILES COc1ccc(-c2cnc(N)c(C(=O)NCCCCNC(=O)c3ccc(-c4c5nc(c(-c6cc(S(=O)(=O)[O-])ccc6F)c6ccc([nH]6)c(-c6cc(S(=O)(=O)[O-])ccc6F)c6nc(c(-c7cc(S(=O)(=O)[O-])ccc7F)c7ccc4[nH]7)C=C6)C=C5)cc3)c2)c(C)c1
REMARK SMILES IDX 18 1 17 2 16 3 15 4 13 5 14 6 12 8 7 9 8 10 86 11 9 12 10 13
REMARK SMILES IDX 6 14 3 15 4 16 89 17 5 18 87 19 88 20 2 21 1 22 11 23 19 26
REMARK SMILES IDX 20 27 21 28 22 30 23 31 24 32 85 33 25 34 84 35 26 36 27 37
REMARK SMILES IDX 28 38 78 39 29 40 83 41 77 42 79 43 30 44 82 45 76 46 75 47
REMARK SMILES IDX 31 49 63 50 43 51 62 52 44 53 47 54 61 55 80 56 45 57 46 58
REMARK SMILES IDX 60 60 81 61 48 62 32 63 33 64 41 65 34 66 40 67 42 68 39 69
REMARK SMILES IDX 35 70 36 71 37 72 38 73 64 74 65 75 73 76 66 77 72 78 74 79
REMARK SMILES IDX 71 80 67 81 68 82 69 83 70 84 49 85 50 86 58 87 51 88 57 89
REMARK SMILES IDX 59 90 56 91 52 92 53 93 54 94 55 95
REMARK H PARENT 15 7 11 24 11 25 20 29 79 48 47 59
REMARK Flexibility Score: inf
ROOT
ATOM      1  C   UNL A   1      33.777  30.345  27.626  1.00  0.00     0.023 C 
ENDROOT
BRANCH   1   2
ATOM      2  C   UNL A   1      34.006  28.898  27.201  1.00  0.00     0.023 C 
BRANCH   2   3
ATOM      3  C   UNL A   1      33.765  28.579  25.724  1.00  0.00     0.116 C 
BRANCH   3   4
ATOM      4  N   UNL A   1      32.360  28.559  25.323  1.00  0.00    -0.352 N 
ATOM      5  C   UNL A   1      31.692  27.776  24.402  1.00  0.00     0.255 C 
ATOM      6  O   UNL A   1      30.489  27.985  24.226  1.00  0.00    -0.269 OA
ATOM      7  H   UNL A   1      31.792  29.215  25.789  1.00  0.00     0.163 HD
BRANCH   5   8
ATOM      8  C   UNL A   1      32.379  26.790  23.532  1.00  0.00     0.082 A 
ATOM      9  C   UNL A   1      33.001  24.449  23.206  1.00  0.00     0.001 A 
ATOM     10  C   UNL A   1      33.452  24.852  21.953  1.00  0.00     0.122 A 
ATOM     11  C   UNL A   1      32.416  25.453  23.986  1.00  0.00     0.028 A 
ATOM     12  N   UNL A   1      33.506  26.130  21.525  1.00  0.00    -0.238 NA
ATOM     13  C   UNL A   1      33.038  27.097  22.344  1.00  0.00     0.136 A 
BRANCH   9  14
ATOM     14  C   UNL A   1      33.272  23.081  23.689  1.00  0.00    -0.014 A 
ATOM     15  C   UNL A   1      33.578  20.373  24.488  1.00  0.00     0.119 A 
ATOM     16  C   UNL A   1      32.433  20.767  23.814  1.00  0.00     0.047 A 
ATOM     17  C   UNL A   1      34.552  21.327  24.791  1.00  0.00     0.050 A 
ATOM     18  C   UNL A   1      32.293  22.097  23.414  1.00  0.00     0.013 A 
ATOM     19  C   UNL A   1      34.418  22.679  24.402  1.00  0.00    -0.040 A 
ATOM     20  C   UNL A   1      35.548  23.610  24.751  1.00  0.00     0.045 C 
BRANCH  15  21
ATOM     21  O   UNL A   1      33.824  19.099  24.923  1.00  0.00    -0.497 OA
ATOM     22  C   UNL A   1      33.513  18.081  23.975  1.00  0.00     0.278 C 
ENDBRANCH  15  21
ENDBRANCH   9  14
BRANCH  13  23
ATOM     23  N   UNL A   1      33.454  28.359  21.988  1.00  0.00    -0.383 N 
ATOM     24  H   UNL A   1      34.411  28.539  21.845  1.00  0.00     0.158 HD
ATOM     25  H   UNL A   1      32.795  29.080  21.877  1.00  0.00     0.158 HD
ENDBRANCH  13  23
ENDBRANCH   5   8
ENDBRANCH   3   4
ENDBRANCH   2   3
ENDBRANCH   1   2
BRANCH   1  26
ATOM     26  C   UNL A   1      35.002  31.259  27.592  1.00  0.00     0.116 C 
BRANCH  26  27
ATOM     27  N   UNL A   1      35.441  31.743  28.902  1.00  0.00    -0.352 N 
ATOM     28  C   UNL A   1      36.316  31.145  29.799  1.00  0.00     0.251 C 
ATOM     29  H   UNL A   1      35.068  32.610  29.182  1.00  0.00     0.163 HD
ATOM     30  O   UNL A   1      36.632  31.681  30.854  1.00  0.00    -0.269 OA
BRANCH  28  31
ATOM     31  C   UNL A   1      36.980  29.881  29.398  1.00  0.00     0.039 A 
ATOM     32  C   UNL A   1      37.305  28.972  30.410  1.00  0.00     0.014 A 
ATOM     33  C   UNL A   1      37.523  29.746  28.125  1.00  0.00     0.014 A 
ATOM     34  C   UNL A   1      38.383  28.111  30.225  1.00  0.00     0.010 A 
ATOM     35  C   UNL A   1      38.662  28.978  27.978  1.00  0.00     0.010 A 
ATOM     36  C   UNL A   1      39.137  28.222  29.054  1.00  0.00    -0.014 A 
BRANCH  36  37
ATOM     37  C   UNL A   1      40.507  27.725  28.957  1.00  0.00     0.031 A 
ATOM     38  C   UNL A   1      40.788  26.354  28.497  1.00  0.00     0.074 A 
ATOM     39  C   UNL A   1      41.549  28.521  29.293  1.00  0.00     0.049 A 
ATOM     40  N   UNL A   1      41.725  25.608  28.980  1.00  0.00    -0.248 NA
ATOM     41  C   UNL A   1      40.008  25.708  27.449  1.00  0.00     0.031 C 
ATOM     42  C   UNL A   1      42.970  28.232  29.105  1.00  0.00     0.029 A 
ATOM     43  N   UNL A   1      41.544  29.670  30.081  1.00  0.00    -0.354 N 
ATOM     44  C   UNL A   1      41.873  24.543  28.123  1.00  0.00     0.074 A 
ATOM     45  C   UNL A   1      40.726  24.600  27.242  1.00  0.00     0.031 C 
ATOM     46  C   UNL A   1      43.672  28.952  29.994  1.00  0.00     0.029 A 
ATOM     47  C   UNL A   1      42.715  29.630  30.852  1.00  0.00     0.049 A 
ATOM     48  H   UNL A   1      40.854  30.372  30.094  1.00  0.00     0.167 HD
ATOM     49  C   UNL A   1      43.024  23.814  28.113  1.00  0.00     0.034 A 
ATOM     50  C   UNL A   1      42.735  29.643  32.215  1.00  0.00     0.034 A 
ATOM     51  C   UNL A   1      44.018  24.338  29.043  1.00  0.00     0.049 A 
ATOM     52  C   UNL A   1      43.458  28.453  32.808  1.00  0.00     0.074 A 
ATOM     53  C   UNL A   1      45.136  25.136  28.857  1.00  0.00     0.029 A 
ATOM     54  N   UNL A   1      43.789  24.298  30.413  1.00  0.00    -0.354 N 
ATOM     55  N   UNL A   1      43.773  27.381  32.137  1.00  0.00    -0.248 NA
ATOM     56  C   UNL A   1      43.826  28.356  34.215  1.00  0.00     0.031 C 
ATOM     57  C   UNL A   1      45.560  25.606  30.124  1.00  0.00     0.029 A 
ATOM     58  C   UNL A   1      44.713  25.079  31.083  1.00  0.00     0.049 A 
ATOM     59  H   UNL A   1      43.069  23.785  30.846  1.00  0.00     0.167 HD
ATOM     60  C   UNL A   1      44.330  26.452  32.981  1.00  0.00     0.074 A 
ATOM     61  C   UNL A   1      44.370  27.128  34.267  1.00  0.00     0.031 C 
ATOM     62  C   UNL A   1      44.682  25.205  32.535  1.00  0.00     0.034 A 
BRANCH  49  63
ATOM     63  C   UNL A   1      43.353  22.845  27.002  1.00  0.00     0.023 A 
ATOM     64  C   UNL A   1      42.829  21.538  27.032  1.00  0.00     0.031 A 
ATOM     65  C   UNL A   1      44.193  23.141  25.912  1.00  0.00     0.131 A 
ATOM     66  C   UNL A   1      43.223  20.568  26.094  1.00  0.00     0.055 A 
ATOM     67  C   UNL A   1      44.631  22.164  25.008  1.00  0.00     0.041 A 
ATOM     68  F   UNL A   1      44.605  24.397  25.673  1.00  0.00    -0.206 F 
ATOM     69  C   UNL A   1      44.158  20.863  25.106  1.00  0.00     0.022 A 
BRANCH  66  70
ATOM     70  S   UNL A   1      42.489  18.910  26.184  1.00  0.00     0.124 S 
ATOM     71  O   UNL A   1      43.358  18.136  25.304  1.00  0.00    -0.237 OA
ATOM     72  O   UNL A   1      42.581  18.611  27.609  1.00  0.00    -0.237 OA
ATOM     73  O   UNL A   1      41.130  19.115  25.684  1.00  0.00    -0.744 OA
ENDBRANCH  66  70
ENDBRANCH  49  63
BRANCH  50  74
ATOM     74  C   UNL A   1      41.564  30.315  32.841  1.00  0.00     0.023 A 
ATOM     75  C   UNL A   1      41.537  31.724  32.815  1.00  0.00     0.031 A 
ATOM     76  C   UNL A   1      40.360  29.633  33.063  1.00  0.00     0.131 A 
ATOM     77  C   UNL A   1      40.311  32.402  32.839  1.00  0.00     0.055 A 
ATOM     78  C   UNL A   1      39.144  30.319  33.143  1.00  0.00     0.041 A 
ATOM     79  F   UNL A   1      40.321  28.293  33.050  1.00  0.00    -0.206 F 
ATOM     80  C   UNL A   1      39.110  31.705  32.984  1.00  0.00     0.022 A 
BRANCH  77  81
ATOM     81  S   UNL A   1      40.252  34.172  32.438  1.00  0.00     0.124 S 
ATOM     82  O   UNL A   1      39.697  34.172  31.100  1.00  0.00    -0.237 OA
ATOM     83  O   UNL A   1      39.389  34.721  33.488  1.00  0.00    -0.237 OA
ATOM     84  O   UNL A   1      41.654  34.577  32.557  1.00  0.00    -0.744 OA
ENDBRANCH  77  81
ENDBRANCH  50  74
BRANCH  62  85
ATOM     85  C   UNL A   1      45.119  24.025  33.389  1.00  0.00     0.023 A 
ATOM     86  C   UNL A   1      46.401  23.894  33.940  1.00  0.00     0.031 A 
ATOM     87  C   UNL A   1      44.212  22.987  33.724  1.00  0.00     0.131 A 
ATOM     88  C   UNL A   1      46.769  22.759  34.689  1.00  0.00     0.055 A 
ATOM     89  C   UNL A   1      44.555  21.897  34.533  1.00  0.00     0.041 A 
ATOM     90  F   UNL A   1      42.943  22.986  33.292  1.00  0.00    -0.206 F 
ATOM     91  C   UNL A   1      45.849  21.766  35.006  1.00  0.00     0.022 A 
BRANCH  88  92
ATOM     92  S   UNL A   1      48.506  22.582  35.175  1.00  0.00     0.124 S 
ATOM     93  O   UNL A   1      49.041  23.905  34.864  1.00  0.00    -0.237 OA
ATOM     94  O   UNL A   1      48.401  22.260  36.594  1.00  0.00    -0.237 OA
ATOM     95  O   UNL A   1      48.995  21.500  34.324  1.00  0.00    -0.744 OA
ENDBRANCH  88  92
ENDBRANCH  62  85
ENDBRANCH  36  37
ENDBRANCH  28  31
ENDBRANCH  26  27
ENDBRANCH   1  26
TORSDOF 17
ENDMDL
MODEL 3
REMARK VINA RESULT:     -12.3      4.235     10.794
REMARK SMILES COc1ccc(-c2cnc(N)c(C(=O)NCCCCNC(=O)c3ccc(-c4c5nc(c(-c6cc(S(=O)(=O)[O-])ccc6F)c6ccc([nH]6)c(-c6cc(S(=O)(=O)[O-])ccc6F)c6nc(c(-c7cc(S(=O)(=O)[O-])ccc7F)c7ccc4[nH]7)C=C6)C=C5)cc3)c2)c(C)c1
REMARK SMILES IDX 18 1 17 2 16 3 15 4 13 5 14 6 12 8 7 9 8 10 86 11 9 12 10 13
REMARK SMILES IDX 6 14 3 15 4 16 89 17 5 18 87 19 88 20 2 21 1 22 11 23 19 26
REMARK SMILES IDX 20 27 21 28 22 30 23 31 24 32 85 33 25 34 84 35 26 36 27 37
REMARK SMILES IDX 28 38 78 39 29 40 83 41 77 42 79 43 30 44 82 45 76 46 75 47
REMARK SMILES IDX 31 49 63 50 43 51 62 52 44 53 47 54 61 55 80 56 45 57 46 58
REMARK SMILES IDX 60 60 81 61 48 62 32 63 33 64 41 65 34 66 40 67 42 68 39 69
REMARK SMILES IDX 35 70 36 71 37 72 38 73 64 74 65 75 73 76 66 77 72 78 74 79
REMARK SMILES IDX 71 80 67 81 68 82 69 83 70 84 49 85 50 86 58 87 51 88 57 89
REMARK SMILES IDX 59 90 56 91 52 92 53 93 54 94 55 95
REMARK H PARENT 15 7 11 24 11 25 20 29 79 48 47 59
REMARK Flexibility Score: inf
ROOT
ATOM      1  C   UNL A   1      38.408  22.570  25.664  1.00  0.00     0.023 C 
ENDROOT
BRANCH   1   2
ATOM      2  C   UNL A   1      37.389  23.691  25.483  1.00  0.00     0.023 C 
BRANCH   2   3
ATOM      3  C   UNL A   1      35.965  23.397  25.961  1.00  0.00     0.116 C 
BRANCH   3   4
ATOM      4  N   UNL A   1      35.258  22.379  25.187  1.00  0.00    -0.352 N 
ATOM      5  C   UNL A   1      33.908  22.184  24.967  1.00  0.00     0.255 C 
ATOM      6  O   UNL A   1      33.564  21.213  24.289  1.00  0.00    -0.269 OA
ATOM      7  H   UNL A   1      35.842  21.719  24.748  1.00  0.00     0.163 HD
BRANCH   5   8
ATOM      8  C   UNL A   1      32.858  23.014  25.609  1.00  0.00     0.082 A 
ATOM      9  C   UNL A   1      31.425  24.985  25.424  1.00  0.00     0.001 A 
ATOM     10  C   UNL A   1      30.818  24.523  26.589  1.00  0.00     0.122 A 
ATOM     11  C   UNL A   1      32.444  24.172  24.915  1.00  0.00     0.028 A 
ATOM     12  N   UNL A   1      31.242  23.469  27.316  1.00  0.00    -0.238 NA
ATOM     13  C   UNL A   1      32.303  22.767  26.862  1.00  0.00     0.136 A 
BRANCH   9  14
ATOM     14  C   UNL A   1      31.080  26.313  24.883  1.00  0.00    -0.014 A 
ATOM     15  C   UNL A   1      30.208  28.756  23.726  1.00  0.00     0.119 A 
ATOM     16  C   UNL A   1      29.579  27.569  23.384  1.00  0.00     0.047 A 
ATOM     17  C   UNL A   1      31.286  28.725  24.614  1.00  0.00     0.050 A 
ATOM     18  C   UNL A   1      30.005  26.372  23.964  1.00  0.00     0.013 A 
ATOM     19  C   UNL A   1      31.734  27.520  25.200  1.00  0.00    -0.040 A 
ATOM     20  C   UNL A   1      32.880  27.612  26.171  1.00  0.00     0.045 C 
BRANCH  15  21
ATOM     21  O   UNL A   1      29.873  29.985  23.225  1.00  0.00    -0.497 OA
ATOM     22  C   UNL A   1      29.228  29.948  21.955  1.00  0.00     0.278 C 
ENDBRANCH  15  21
ENDBRANCH   9  14
BRANCH  13  23
ATOM     23  N   UNL A   1      32.872  21.962  27.821  1.00  0.00    -0.383 N 
ATOM     24  H   UNL A   1      33.620  21.368  27.583  1.00  0.00     0.158 HD
ATOM     25  H   UNL A   1      32.532  21.980  28.744  1.00  0.00     0.158 HD
ENDBRANCH  13  23
ENDBRANCH   5   8
ENDBRANCH   3   4
ENDBRANCH   2   3
ENDBRANCH   1   2
BRANCH   1  26
ATOM     26  C   UNL A   1      39.336  22.691  26.872  1.00  0.00     0.116 C 
BRANCH  26  27
ATOM     27  N   UNL A   1      40.718  23.049  26.549  1.00  0.00    -0.352 N 
ATOM     28  C   UNL A   1      41.285  24.313  26.446  1.00  0.00     0.251 C 
ATOM     29  H   UNL A   1      41.327  22.293  26.383  1.00  0.00     0.163 HD
ATOM     30  O   UNL A   1      42.475  24.474  26.204  1.00  0.00    -0.269 OA
BRANCH  28  31
ATOM     31  C   UNL A   1      40.443  25.490  26.769  1.00  0.00     0.039 A 
ATOM     32  C   UNL A   1      40.781  26.710  26.172  1.00  0.00     0.014 A 
ATOM     33  C   UNL A   1      39.556  25.447  27.839  1.00  0.00     0.014 A 
ATOM     34  C   UNL A   1      40.458  27.895  26.827  1.00  0.00     0.010 A 
ATOM     35  C   UNL A   1      39.334  26.612  28.550  1.00  0.00     0.010 A 
ATOM     36  C   UNL A   1      39.854  27.824  28.085  1.00  0.00    -0.014 A 
BRANCH  36  37
ATOM     37  C   UNL A   1      39.895  28.931  29.036  1.00  0.00     0.031 A 
ATOM     38  C   UNL A   1      38.836  29.956  29.055  1.00  0.00     0.074 A 
ATOM     39  C   UNL A   1      40.914  29.037  29.920  1.00  0.00     0.049 A 
ATOM     40  N   UNL A   1      39.051  31.211  29.275  1.00  0.00    -0.248 NA
ATOM     41  C   UNL A   1      37.436  29.636  28.809  1.00  0.00     0.031 C 
ATOM     42  C   UNL A   1      41.020  29.986  31.027  1.00  0.00     0.029 A 
ATOM     43  N   UNL A   1      42.176  28.449  29.863  1.00  0.00    -0.354 N 
ATOM     44  C   UNL A   1      37.826  31.792  29.506  1.00  0.00     0.074 A 
ATOM     45  C   UNL A   1      36.851  30.798  29.116  1.00  0.00     0.031 C 
ATOM     46  C   UNL A   1      42.319  30.151  31.323  1.00  0.00     0.029 A 
ATOM     47  C   UNL A   1      43.084  29.406  30.338  1.00  0.00     0.049 A 
ATOM     48  H   UNL A   1      42.388  27.539  29.552  1.00  0.00     0.167 HD
ATOM     49  C   UNL A   1      37.736  32.982  30.165  1.00  0.00     0.034 A 
ATOM     50  C   UNL A   1      44.138  29.885  29.618  1.00  0.00     0.034 A 
ATOM     51  C   UNL A   1      39.038  33.473  30.600  1.00  0.00     0.049 A 
ATOM     52  C   UNL A   1      44.118  31.390  29.467  1.00  0.00     0.074 A 
ATOM     53  C   UNL A   1      39.682  33.438  31.827  1.00  0.00     0.029 A 
ATOM     54  N   UNL A   1      39.995  33.854  29.667  1.00  0.00    -0.354 N 
ATOM     55  N   UNL A   1      43.081  32.136  29.725  1.00  0.00    -0.248 NA
ATOM     56  C   UNL A   1      45.245  32.162  28.957  1.00  0.00     0.031 C 
ATOM     57  C   UNL A   1      41.044  33.767  31.621  1.00  0.00     0.029 A 
ATOM     58  C   UNL A   1      41.226  34.022  30.273  1.00  0.00     0.049 A 
ATOM     59  H   UNL A   1      39.819  33.985  28.707  1.00  0.00     0.167 HD
ATOM     60  C   UNL A   1      43.354  33.441  29.395  1.00  0.00     0.074 A 
ATOM     61  C   UNL A   1      44.736  33.406  28.949  1.00  0.00     0.031 C 
ATOM     62  C   UNL A   1      42.399  34.417  29.502  1.00  0.00     0.034 A 
BRANCH  49  63
ATOM     63  C   UNL A   1      36.427  33.505  30.706  1.00  0.00     0.023 A 
ATOM     64  C   UNL A   1      35.542  34.200  29.856  1.00  0.00     0.031 A 
ATOM     65  C   UNL A   1      36.011  33.375  32.044  1.00  0.00     0.131 A 
ATOM     66  C   UNL A   1      34.383  34.820  30.354  1.00  0.00     0.055 A 
ATOM     67  C   UNL A   1      34.887  34.037  32.555  1.00  0.00     0.041 A 
ATOM     68  F   UNL A   1      36.672  32.582  32.903  1.00  0.00    -0.206 F 
ATOM     69  C   UNL A   1      34.073  34.780  31.710  1.00  0.00     0.022 A 
BRANCH  66  70
ATOM     70  S   UNL A   1      33.283  35.681  29.195  1.00  0.00     0.124 S 
ATOM     71  O   UNL A   1      32.573  34.575  28.560  1.00  0.00    -0.237 OA
ATOM     72  O   UNL A   1      32.496  36.525  30.087  1.00  0.00    -0.237 OA
ATOM     73  O   UNL A   1      34.208  36.402  28.322  1.00  0.00    -0.744 OA
ENDBRANCH  66  70
ENDBRANCH  49  63
BRANCH  50  74
ATOM     74  C   UNL A   1      44.660  28.942  28.592  1.00  0.00     0.023 A 
ATOM     75  C   UNL A   1      45.466  27.876  29.042  1.00  0.00     0.031 A 
ATOM     76  C   UNL A   1      44.069  28.836  27.326  1.00  0.00     0.131 A 
ATOM     77  C   UNL A   1      45.523  26.683  28.311  1.00  0.00     0.055 A 
ATOM     78  C   UNL A   1      44.176  27.662  26.572  1.00  0.00     0.041 A 
ATOM     79  F   UNL A   1      43.256  29.800  26.868  1.00  0.00    -0.206 F 
ATOM     80  C   UNL A   1      44.866  26.563  27.084  1.00  0.00     0.022 A 
BRANCH  77  81
ATOM     81  S   UNL A   1      46.251  25.199  29.062  1.00  0.00     0.124 S 
ATOM     82  O   UNL A   1      45.984  25.398  30.472  1.00  0.00    -0.237 OA
ATOM     83  O   UNL A   1      45.514  24.107  28.420  1.00  0.00    -0.237 OA
ATOM     84  O   UNL A   1      47.654  25.284  28.651  1.00  0.00    -0.744 OA
ENDBRANCH  77  81
ENDBRANCH  50  74
BRANCH  62  85
ATOM     85  C   UNL A   1      42.500  35.846  28.992  1.00  0.00     0.023 A 
ATOM     86  C   UNL A   1      43.272  36.841  29.606  1.00  0.00     0.031 A 
ATOM     87  C   UNL A   1      41.836  36.249  27.805  1.00  0.00     0.131 A 
ATOM     88  C   UNL A   1      43.297  38.162  29.117  1.00  0.00     0.055 A 
ATOM     89  C   UNL A   1      41.923  37.542  27.275  1.00  0.00     0.041 A 
ATOM     90  F   UNL A   1      41.079  35.402  27.092  1.00  0.00    -0.206 F 
ATOM     91  C   UNL A   1      42.642  38.517  27.944  1.00  0.00     0.022 A 
BRANCH  88  92
ATOM     92  S   UNL A   1      44.153  39.421  30.101  1.00  0.00     0.124 S 
ATOM     93  O   UNL A   1      43.460  39.321  31.384  1.00  0.00    -0.237 OA
ATOM     94  O   UNL A   1      45.531  38.944  30.089  1.00  0.00    -0.237 OA
ATOM     95  O   UNL A   1      43.914  40.658  29.363  1.00  0.00    -0.744 OA
ENDBRANCH  88  92
ENDBRANCH  62  85
ENDBRANCH  36  37
ENDBRANCH  28  31
ENDBRANCH  26  27
ENDBRANCH   1  26
TORSDOF 17
ENDMDL
