MODEL 1
REMARK VINA RESULT:     -10.7      0.000      0.000
REMARK SMILES [NH3+][C@@H](C[NH+]1CCCCC1)C(=O)NCCCCNC(=O)c1ccc(-c2c3nc(c(-c4cc(S(=O)(=O)[O-])ccc4F)c4ccc([nH]4)c(-c4cc(S(=O)(=O)[O-])ccc4F)c4nc(c(-c5cc(S(=O)(=O)[O-])ccc5F)c5ccc2[nH]5)C=C4)C=C3)cc1
REMARK SMILES IDX 15 1 14 2 13 3 12 4 10 5 11 6 2 8 1 9 3 13 4 14 5 15 9 16
REMARK SMILES IDX 6 18 8 19 7 20 16 21 17 22 18 23 19 25 20 26 21 27 82 28
REMARK SMILES IDX 22 29 81 30 23 31 24 32 25 33 75 34 26 35 80 36 74 37 76 38
REMARK SMILES IDX 27 39 79 40 73 41 72 42 28 44 60 45 40 46 59 47 41 48 44 49
REMARK SMILES IDX 58 50 77 51 42 52 43 53 57 55 78 56 45 57 29 58 30 59 38 60
REMARK SMILES IDX 31 61 37 62 39 63 36 64 32 65 33 66 34 67 35 68 61 69 62 70
REMARK SMILES IDX 70 71 63 72 69 73 71 74 68 75 64 76 65 77 66 78 67 79 46 80
REMARK SMILES IDX 47 81 55 82 48 83 54 84 56 85 53 86 49 87 50 88 51 89 52 90
REMARK H PARENT 12 7 1 10 1 11 1 12 4 17 17 24 76 43 44 54
REMARK Flexibility Score: inf
ROOT
ATOM      1  C   UNL A   1      33.369  34.291  28.241  1.00  0.00     0.023 C 
ENDROOT
BRANCH   1   2
ATOM      2  C   UNL A   1      34.195  35.554  28.452  1.00  0.00     0.023 C 
BRANCH   2   3
ATOM      3  C   UNL A   1      33.450  36.732  29.065  1.00  0.00     0.116 C 
BRANCH   3   4
ATOM      4  N   UNL A   1      32.522  36.374  30.115  1.00  0.00    -0.351 N 
ATOM      5  C   UNL A   1      32.654  36.542  31.466  1.00  0.00     0.284 C 
ATOM      6  O   UNL A   1      31.635  36.409  32.155  1.00  0.00    -0.268 OA
ATOM      7  H   UNL A   1      31.683  35.953  29.816  1.00  0.00     0.163 HD
BRANCH   5   8
ATOM      8  C   UNL A   1      34.014  36.866  32.136  1.00  0.00     0.326 C 
BRANCH   8   9
ATOM      9  N   UNL A   1      34.181  38.319  32.365  1.00  0.00    -0.343 N 
ATOM     10  H   UNL A   1      34.130  38.514  33.364  1.00  0.00     0.345 HD
ATOM     11  H   UNL A   1      33.440  38.827  31.881  1.00  0.00     0.345 HD
ATOM     12  H   UNL A   1      35.088  38.619  32.007  1.00  0.00     0.345 HD
ENDBRANCH   8   9
BRANCH   8  13
ATOM     13  C   UNL A   1      34.417  35.895  33.288  1.00  0.00     0.338 C 
BRANCH  13  14
ATOM     14  N   UNL A   1      35.189  34.680  32.967  1.00  0.00    -0.330 N 
ATOM     15  C   UNL A   1      35.943  34.208  34.143  1.00  0.00     0.262 C 
ATOM     16  C   UNL A   1      34.383  33.580  32.423  1.00  0.00     0.262 C 
ATOM     17  H   UNL A   1      35.833  34.964  32.228  1.00  0.00     0.348 HD
ATOM     18  C   UNL A   1      36.915  33.096  33.748  1.00  0.00     0.062 C 
ATOM     19  C   UNL A   1      35.301  32.453  31.933  1.00  0.00     0.062 C 
ATOM     20  C   UNL A   1      36.204  31.942  33.049  1.00  0.00     0.012 C 
ENDBRANCH  13  14
ENDBRANCH   8  13
ENDBRANCH   5   8
ENDBRANCH   3   4
ENDBRANCH   2   3
ENDBRANCH   1   2
BRANCH   1  21
ATOM     21  C   UNL A   1      34.083  32.975  28.532  1.00  0.00     0.116 C 
BRANCH  21  22
ATOM     22  N   UNL A   1      33.712  31.891  27.635  1.00  0.00    -0.352 N 
ATOM     23  C   UNL A   1      34.368  30.703  27.365  1.00  0.00     0.251 C 
ATOM     24  H   UNL A   1      32.869  32.023  27.145  1.00  0.00     0.163 HD
ATOM     25  O   UNL A   1      33.937  29.951  26.508  1.00  0.00    -0.269 OA
BRANCH  23  26
ATOM     26  C   UNL A   1      35.618  30.382  28.094  1.00  0.00     0.039 A 
ATOM     27  C   UNL A   1      35.534  29.706  29.313  1.00  0.00     0.014 A 
ATOM     28  C   UNL A   1      36.865  30.696  27.550  1.00  0.00     0.014 A 
ATOM     29  C   UNL A   1      36.702  29.247  29.931  1.00  0.00     0.010 A 
ATOM     30  C   UNL A   1      38.018  30.164  28.120  1.00  0.00     0.010 A 
ATOM     31  C   UNL A   1      37.949  29.421  29.309  1.00  0.00    -0.014 A 
BRANCH  31  32
ATOM     32  C   UNL A   1      39.190  28.818  29.866  1.00  0.00     0.031 A 
ATOM     33  C   UNL A   1      39.838  29.417  31.085  1.00  0.00     0.074 A 
ATOM     34  C   UNL A   1      39.784  27.792  29.223  1.00  0.00     0.049 A 
ATOM     35  N   UNL A   1      40.979  29.116  31.651  1.00  0.00    -0.248 NA
ATOM     36  C   UNL A   1      39.124  30.530  31.728  1.00  0.00     0.031 C 
ATOM     37  C   UNL A   1      39.286  27.155  28.001  1.00  0.00     0.029 A 
ATOM     38  N   UNL A   1      40.946  27.112  29.497  1.00  0.00    -0.354 N 
ATOM     39  C   UNL A   1      41.132  30.018  32.699  1.00  0.00     0.074 A 
ATOM     40  C   UNL A   1      39.994  30.912  32.650  1.00  0.00     0.031 C 
ATOM     41  C   UNL A   1      40.121  26.164  27.647  1.00  0.00     0.029 A 
ATOM     42  C   UNL A   1      41.237  26.123  28.585  1.00  0.00     0.049 A 
ATOM     43  H   UNL A   1      41.517  27.314  30.272  1.00  0.00     0.167 HD
ATOM     44  C   UNL A   1      42.118  30.081  33.629  1.00  0.00     0.034 A 
ATOM     45  C   UNL A   1      42.291  25.286  28.506  1.00  0.00     0.034 A 
ATOM     46  C   UNL A   1      43.231  29.166  33.683  1.00  0.00     0.049 A 
ATOM     47  C   UNL A   1      43.374  25.373  29.551  1.00  0.00     0.074 A 
ATOM     48  C   UNL A   1      44.244  29.095  34.623  1.00  0.00     0.029 A 
ATOM     49  N   UNL A   1      43.482  28.164  32.754  1.00  0.00    -0.354 N 
ATOM     50  N   UNL A   1      43.475  26.198  30.567  1.00  0.00    -0.248 NA
ATOM     51  C   UNL A   1      44.478  24.411  29.443  1.00  0.00     0.031 C 
ATOM     52  C   UNL A   1      45.137  28.089  34.232  1.00  0.00     0.029 A 
ATOM     53  C   UNL A   1      44.646  27.488  33.085  1.00  0.00     0.049 A 
ATOM     54  H   UNL A   1      42.915  27.962  31.974  1.00  0.00     0.167 HD
ATOM     55  C   UNL A   1      44.641  25.831  31.236  1.00  0.00     0.074 A 
ATOM     56  C   UNL A   1      45.197  24.706  30.514  1.00  0.00     0.031 C 
ATOM     57  C   UNL A   1      45.195  26.372  32.350  1.00  0.00     0.034 A 
BRANCH  44  58
ATOM     58  C   UNL A   1      42.038  31.195  34.646  1.00  0.00     0.023 A 
ATOM     59  C   UNL A   1      40.977  31.281  35.565  1.00  0.00     0.031 A 
ATOM     60  C   UNL A   1      43.015  32.205  34.675  1.00  0.00     0.131 A 
ATOM     61  C   UNL A   1      40.871  32.395  36.412  1.00  0.00     0.055 A 
ATOM     62  C   UNL A   1      42.950  33.267  35.579  1.00  0.00     0.041 A 
ATOM     63  F   UNL A   1      44.042  32.187  33.811  1.00  0.00    -0.206 F 
ATOM     64  C   UNL A   1      41.864  33.376  36.443  1.00  0.00     0.022 A 
BRANCH  61  65
ATOM     65  S   UNL A   1      39.342  32.615  37.361  1.00  0.00     0.124 S 
ATOM     66  O   UNL A   1      38.829  33.866  36.806  1.00  0.00    -0.237 OA
ATOM     67  O   UNL A   1      38.588  31.412  37.030  1.00  0.00    -0.237 OA
ATOM     68  O   UNL A   1      39.807  32.702  38.744  1.00  0.00    -0.744 OA
ENDBRANCH  61  65
ENDBRANCH  44  58
BRANCH  45  69
ATOM     69  C   UNL A   1      42.386  24.292  27.399  1.00  0.00     0.023 A 
ATOM     70  C   UNL A   1      41.616  23.118  27.418  1.00  0.00     0.031 A 
ATOM     71  C   UNL A   1      43.279  24.478  26.330  1.00  0.00     0.131 A 
ATOM     72  C   UNL A   1      41.784  22.154  26.413  1.00  0.00     0.055 A 
ATOM     73  C   UNL A   1      43.409  23.538  25.306  1.00  0.00     0.041 A 
ATOM     74  F   UNL A   1      44.034  25.587  26.261  1.00  0.00    -0.206 F 
ATOM     75  C   UNL A   1      42.668  22.361  25.351  1.00  0.00     0.022 A 
BRANCH  72  76
ATOM     76  S   UNL A   1      40.883  20.586  26.554  1.00  0.00     0.124 S 
ATOM     77  O   UNL A   1      41.779  19.665  25.862  1.00  0.00    -0.237 OA
ATOM     78  O   UNL A   1      40.787  20.422  28.001  1.00  0.00    -0.237 OA
ATOM     79  O   UNL A   1      39.619  20.857  25.874  1.00  0.00    -0.744 OA
ENDBRANCH  72  76
ENDBRANCH  45  69
BRANCH  57  80
ATOM     80  C   UNL A   1      46.446  25.715  32.878  1.00  0.00     0.023 A 
ATOM     81  C   UNL A   1      46.395  24.686  33.834  1.00  0.00     0.031 A 
ATOM     82  C   UNL A   1      47.708  26.139  32.426  1.00  0.00     0.131 A 
ATOM     83  C   UNL A   1      47.587  24.150  34.346  1.00  0.00     0.055 A 
ATOM     84  C   UNL A   1      48.889  25.564  32.899  1.00  0.00     0.041 A 
ATOM     85  F   UNL A   1      47.814  27.120  31.515  1.00  0.00    -0.206 F 
ATOM     86  C   UNL A   1      48.832  24.573  33.873  1.00  0.00     0.022 A 
BRANCH  83  87
ATOM     87  S   UNL A   1      47.491  22.948  35.702  1.00  0.00     0.124 S 
ATOM     88  O   UNL A   1      47.526  21.678  34.984  1.00  0.00    -0.237 OA
ATOM     89  O   UNL A   1      48.678  23.270  36.488  1.00  0.00    -0.237 OA
ATOM     90  O   UNL A   1      46.218  23.260  36.349  1.00  0.00    -0.744 OA
ENDBRANCH  83  87
ENDBRANCH  57  80
ENDBRANCH  31  32
ENDBRANCH  23  26
ENDBRANCH  21  22
ENDBRANCH   1  21
TORSDOF 17
ENDMDL
MODEL 2
REMARK VINA RESULT:     -10.7      1.619      1.861
REMARK SMILES [NH3+][C@@H](C[NH+]1CCCCC1)C(=O)NCCCCNC(=O)c1ccc(-c2c3nc(c(-c4cc(S(=O)(=O)[O-])ccc4F)c4ccc([nH]4)c(-c4cc(S(=O)(=O)[O-])ccc4F)c4nc(c(-c5cc(S(=O)(=O)[O-])ccc5F)c5ccc2[nH]5)C=C4)C=C3)cc1
REMARK SMILES IDX 15 1 14 2 13 3 12 4 10 5 11 6 2 8 1 9 3 13 4 14 5 15 9 16
REMARK SMILES IDX 6 18 8 19 7 20 16 21 17 22 18 23 19 25 20 26 21 27 82 28
REMARK SMILES IDX 22 29 81 30 23 31 24 32 25 33 75 34 26 35 80 36 74 37 76 38
REMARK SMILES IDX 27 39 79 40 73 41 72 42 28 44 60 45 40 46 59 47 41 48 44 49
REMARK SMILES IDX 58 50 77 51 42 52 43 53 57 55 78 56 45 57 29 58 30 59 38 60
REMARK SMILES IDX 31 61 37 62 39 63 36 64 32 65 33 66 34 67 35 68 61 69 62 70
REMARK SMILES IDX 70 71 63 72 69 73 71 74 68 75 64 76 65 77 66 78 67 79 46 80
REMARK SMILES IDX 47 81 55 82 48 83 54 84 56 85 53 86 49 87 50 88 51 89 52 90
REMARK H PARENT 12 7 1 10 1 11 1 12 4 17 17 24 76 43 44 54
REMARK Flexibility Score: inf
ROOT
ATOM      1  C   UNL A   1      33.362  34.305  28.401  1.00  0.00     0.023 C 
ENDROOT
BRANCH   1   2
ATOM      2  C   UNL A   1      34.112  35.631  28.424  1.00  0.00     0.023 C 
BRANCH   2   3
ATOM      3  C   UNL A   1      33.406  36.773  29.141  1.00  0.00     0.116 C 
BRANCH   3   4
ATOM      4  N   UNL A   1      32.513  36.356  30.199  1.00  0.00    -0.351 N 
ATOM      5  C   UNL A   1      32.679  36.472  31.553  1.00  0.00     0.284 C 
ATOM      6  O   UNL A   1      31.681  36.293  32.262  1.00  0.00    -0.268 OA
ATOM      7  H   UNL A   1      31.674  35.932  29.906  1.00  0.00     0.163 HD
BRANCH   5   8
ATOM      8  C   UNL A   1      34.051  36.792  32.199  1.00  0.00     0.326 C 
BRANCH   8   9
ATOM      9  N   UNL A   1      34.235  38.248  32.403  1.00  0.00    -0.343 N 
ATOM     10  H   UNL A   1      34.937  38.596  31.752  1.00  0.00     0.345 HD
ATOM     11  H   UNL A   1      34.543  38.420  33.360  1.00  0.00     0.345 HD
ATOM     12  H   UNL A   1      33.350  38.729  32.239  1.00  0.00     0.345 HD
ENDBRANCH   8   9
BRANCH   8  13
ATOM     13  C   UNL A   1      34.459  35.836  33.361  1.00  0.00     0.338 C 
BRANCH  13  14
ATOM     14  N   UNL A   1      35.260  34.636  33.056  1.00  0.00    -0.330 N 
ATOM     15  C   UNL A   1      36.001  34.179  34.246  1.00  0.00     0.262 C 
ATOM     16  C   UNL A   1      34.485  33.519  32.499  1.00  0.00     0.262 C 
ATOM     17  H   UNL A   1      35.912  34.931  32.328  1.00  0.00     0.348 HD
ATOM     18  C   UNL A   1      37.002  33.086  33.870  1.00  0.00     0.062 C 
ATOM     19  C   UNL A   1      35.434  32.410  32.028  1.00  0.00     0.062 C 
ATOM     20  C   UNL A   1      36.326  31.918  33.160  1.00  0.00     0.012 C 
ENDBRANCH  13  14
ENDBRANCH   8  13
ENDBRANCH   5   8
ENDBRANCH   3   4
ENDBRANCH   2   3
ENDBRANCH   1   2
BRANCH   1  21
ATOM     21  C   UNL A   1      34.217  33.055  28.590  1.00  0.00     0.116 C 
BRANCH  21  22
ATOM     22  N   UNL A   1      33.777  31.914  27.802  1.00  0.00    -0.352 N 
ATOM     23  C   UNL A   1      34.401  30.700  27.581  1.00  0.00     0.251 C 
ATOM     24  H   UNL A   1      32.905  32.023  27.359  1.00  0.00     0.163 HD
ATOM     25  O   UNL A   1      33.907  29.893  26.812  1.00  0.00    -0.269 OA
BRANCH  23  26
ATOM     26  C   UNL A   1      35.692  30.413  28.250  1.00  0.00     0.039 A 
ATOM     27  C   UNL A   1      35.685  29.717  29.460  1.00  0.00     0.014 A 
ATOM     28  C   UNL A   1      36.902  30.781  27.658  1.00  0.00     0.014 A 
ATOM     29  C   UNL A   1      36.894  29.292  30.021  1.00  0.00     0.010 A 
ATOM     30  C   UNL A   1      38.097  30.283  28.169  1.00  0.00     0.010 A 
ATOM     31  C   UNL A   1      38.107  29.521  29.349  1.00  0.00    -0.014 A 
BRANCH  31  32
ATOM     32  C   UNL A   1      39.391  28.955  29.842  1.00  0.00     0.031 A 
ATOM     33  C   UNL A   1      40.122  29.621  30.977  1.00  0.00     0.074 A 
ATOM     34  C   UNL A   1      39.946  27.901  29.210  1.00  0.00     0.049 A 
ATOM     35  N   UNL A   1      41.304  29.358  31.471  1.00  0.00    -0.248 NA
ATOM     36  C   UNL A   1      39.446  30.763  31.612  1.00  0.00     0.031 C 
ATOM     37  C   UNL A   1      39.365  27.198  28.065  1.00  0.00     0.029 A 
ATOM     38  N   UNL A   1      41.132  27.243  29.432  1.00  0.00    -0.354 N 
ATOM     39  C   UNL A   1      41.526  30.315  32.456  1.00  0.00     0.074 A 
ATOM     40  C   UNL A   1      40.378  31.198  32.446  1.00  0.00     0.031 C 
ATOM     41  C   UNL A   1      40.182  26.195  27.701  1.00  0.00     0.029 A 
ATOM     42  C   UNL A   1      41.365  26.209  28.554  1.00  0.00     0.049 A 
ATOM     43  H   UNL A   1      41.756  27.489  30.152  1.00  0.00     0.167 HD
ATOM     44  C   UNL A   1      42.577  30.432  33.306  1.00  0.00     0.034 A 
ATOM     45  C   UNL A   1      42.418  25.376  28.440  1.00  0.00     0.034 A 
ATOM     46  C   UNL A   1      43.700  29.528  33.324  1.00  0.00     0.049 A 
ATOM     47  C   UNL A   1      43.575  25.525  29.396  1.00  0.00     0.074 A 
ATOM     48  C   UNL A   1      44.781  29.513  34.188  1.00  0.00     0.029 A 
ATOM     49  N   UNL A   1      43.891  28.480  32.433  1.00  0.00    -0.354 N 
ATOM     50  N   UNL A   1      43.742  26.402  30.357  1.00  0.00    -0.248 NA
ATOM     51  C   UNL A   1      44.677  24.564  29.256  1.00  0.00     0.031 C 
ATOM     52  C   UNL A   1      45.653  28.493  33.785  1.00  0.00     0.029 A 
ATOM     53  C   UNL A   1      45.084  27.830  32.711  1.00  0.00     0.049 A 
ATOM     54  H   UNL A   1      43.271  28.235  31.709  1.00  0.00     0.167 HD
ATOM     55  C   UNL A   1      44.958  26.078  30.956  1.00  0.00     0.074 A 
ATOM     56  C   UNL A   1      45.471  24.920  30.254  1.00  0.00     0.031 C 
ATOM     57  C   UNL A   1      45.588  26.680  31.996  1.00  0.00     0.034 A 
BRANCH  44  58
ATOM     58  C   UNL A   1      42.562  31.598  34.267  1.00  0.00     0.023 A 
ATOM     59  C   UNL A   1      41.929  31.514  35.520  1.00  0.00     0.031 A 
ATOM     60  C   UNL A   1      43.156  32.822  33.912  1.00  0.00     0.131 A 
ATOM     61  C   UNL A   1      41.829  32.652  36.333  1.00  0.00     0.055 A 
ATOM     62  C   UNL A   1      43.126  33.928  34.764  1.00  0.00     0.041 A 
ATOM     63  F   UNL A   1      43.759  32.969  32.723  1.00  0.00    -0.206 F 
ATOM     64  C   UNL A   1      42.445  33.853  35.975  1.00  0.00     0.022 A 
BRANCH  61  65
ATOM     65  S   UNL A   1      40.753  32.580  37.791  1.00  0.00     0.124 S 
ATOM     66  O   UNL A   1      39.616  31.818  37.281  1.00  0.00    -0.237 OA
ATOM     67  O   UNL A   1      41.592  31.898  38.770  1.00  0.00    -0.237 OA
ATOM     68  O   UNL A   1      40.473  33.985  38.080  1.00  0.00    -0.744 OA
ENDBRANCH  61  65
ENDBRANCH  44  58
BRANCH  45  69
ATOM     69  C   UNL A   1      42.441  24.325  27.383  1.00  0.00     0.023 A 
ATOM     70  C   UNL A   1      41.808  23.088  27.584  1.00  0.00     0.031 A 
ATOM     71  C   UNL A   1      43.132  24.525  26.175  1.00  0.00     0.131 A 
ATOM     72  C   UNL A   1      41.915  22.082  26.612  1.00  0.00     0.055 A 
ATOM     73  C   UNL A   1      43.196  23.537  25.191  1.00  0.00     0.041 A 
ATOM     74  F   UNL A   1      43.748  25.693  25.931  1.00  0.00    -0.206 F 
ATOM     75  C   UNL A   1      42.596  22.301  25.413  1.00  0.00     0.022 A 
BRANCH  72  76
ATOM     76  S   UNL A   1      41.214  20.449  26.974  1.00  0.00     0.124 S 
ATOM     77  O   UNL A   1      40.093  20.392  26.042  1.00  0.00    -0.237 OA
ATOM     78  O   UNL A   1      42.338  19.565  26.680  1.00  0.00    -0.237 OA
ATOM     79  O   UNL A   1      40.848  20.540  28.386  1.00  0.00    -0.744 OA
ENDBRANCH  72  76
ENDBRANCH  45  69
BRANCH  57  80
ATOM     80  C   UNL A   1      46.881  26.059  32.463  1.00  0.00     0.023 A 
ATOM     81  C   UNL A   1      48.115  26.393  31.881  1.00  0.00     0.031 A 
ATOM     82  C   UNL A   1      46.871  25.107  33.497  1.00  0.00     0.131 A 
ATOM     83  C   UNL A   1      49.284  25.741  32.302  1.00  0.00     0.055 A 
ATOM     84  C   UNL A   1      48.044  24.501  33.950  1.00  0.00     0.041 A 
ATOM     85  F   UNL A   1      45.718  24.749  34.086  1.00  0.00    -0.206 F 
ATOM     86  C   UNL A   1      49.258  24.808  33.343  1.00  0.00     0.022 A 
BRANCH  83  87
ATOM     87  S   UNL A   1      50.833  26.067  31.415  1.00  0.00     0.124 S 
ATOM     88  O   UNL A   1      50.917  24.918  30.518  1.00  0.00    -0.237 OA
ATOM     89  O   UNL A   1      50.565  27.353  30.780  1.00  0.00    -0.237 OA
ATOM     90  O   UNL A   1      51.837  26.099  32.477  1.00  0.00    -0.744 OA
ENDBRANCH  83  87
ENDBRANCH  57  80
ENDBRANCH  31  32
ENDBRANCH  23  26
ENDBRANCH  21  22
ENDBRANCH   1  21
TORSDOF 17
ENDMDL
MODEL 3
REMARK VINA RESULT:     -10.4      3.518      6.058
REMARK SMILES [NH3+][C@@H](C[NH+]1CCCCC1)C(=O)NCCCCNC(=O)c1ccc(-c2c3nc(c(-c4cc(S(=O)(=O)[O-])ccc4F)c4ccc([nH]4)c(-c4cc(S(=O)(=O)[O-])ccc4F)c4nc(c(-c5cc(S(=O)(=O)[O-])ccc5F)c5ccc2[nH]5)C=C4)C=C3)cc1
REMARK SMILES IDX 15 1 14 2 13 3 12 4 10 5 11 6 2 8 1 9 3 13 4 14 5 15 9 16
REMARK SMILES IDX 6 18 8 19 7 20 16 21 17 22 18 23 19 25 20 26 21 27 82 28
REMARK SMILES IDX 22 29 81 30 23 31 24 32 25 33 75 34 26 35 80 36 74 37 76 38
REMARK SMILES IDX 27 39 79 40 73 41 72 42 28 44 60 45 40 46 59 47 41 48 44 49
REMARK SMILES IDX 58 50 77 51 42 52 43 53 57 55 78 56 45 57 29 58 30 59 38 60
REMARK SMILES IDX 31 61 37 62 39 63 36 64 32 65 33 66 34 67 35 68 61 69 62 70
REMARK SMILES IDX 70 71 63 72 69 73 71 74 68 75 64 76 65 77 66 78 67 79 46 80
REMARK SMILES IDX 47 81 55 82 48 83 54 84 56 85 53 86 49 87 50 88 51 89 52 90
REMARK H PARENT 12 7 1 10 1 11 1 12 4 17 17 24 76 43 44 54
REMARK Flexibility Score: inf
ROOT
ATOM      1  C   UNL A   1      31.543  29.200  26.184  1.00  0.00     0.023 C 
ENDROOT
BRANCH   1   2
ATOM      2  C   UNL A   1      31.788  27.939  27.005  1.00  0.00     0.023 C 
BRANCH   2   3
ATOM      3  C   UNL A   1      32.211  26.711  26.212  1.00  0.00     0.116 C 
BRANCH   3   4
ATOM      4  N   UNL A   1      31.451  25.516  26.505  1.00  0.00    -0.351 N 
ATOM      5  C   UNL A   1      30.754  24.714  25.643  1.00  0.00     0.284 C 
ATOM      6  O   UNL A   1      30.401  23.605  26.064  1.00  0.00    -0.268 OA
ATOM      7  H   UNL A   1      31.433  25.245  27.452  1.00  0.00     0.163 HD
BRANCH   5   8
ATOM      8  C   UNL A   1      30.390  25.156  24.203  1.00  0.00     0.326 C 
BRANCH   8   9
ATOM      9  N   UNL A   1      30.377  24.011  23.264  1.00  0.00    -0.343 N 
ATOM     10  H   UNL A   1      30.095  24.333  22.339  1.00  0.00     0.345 HD
ATOM     11  H   UNL A   1      29.717  23.308  23.595  1.00  0.00     0.345 HD
ATOM     12  H   UNL A   1      31.311  23.603  23.211  1.00  0.00     0.345 HD
ENDBRANCH   8   9
BRANCH   8  13
ATOM     13  C   UNL A   1      29.221  26.184  24.117  1.00  0.00     0.338 C 
BRANCH  13  14
ATOM     14  N   UNL A   1      29.506  27.562  23.676  1.00  0.00    -0.330 N 
ATOM     15  C   UNL A   1      30.637  27.589  22.730  1.00  0.00     0.262 C 
ATOM     16  C   UNL A   1      28.354  28.258  23.088  1.00  0.00     0.262 C 
ATOM     17  H   UNL A   1      29.749  28.068  24.528  1.00  0.00     0.348 HD
ATOM     18  C   UNL A   1      31.077  29.029  22.458  1.00  0.00     0.062 C 
ATOM     19  C   UNL A   1      28.700  29.734  22.858  1.00  0.00     0.062 C 
ATOM     20  C   UNL A   1      29.921  29.891  21.962  1.00  0.00     0.012 C 
ENDBRANCH  13  14
ENDBRANCH   8  13
ENDBRANCH   5   8
ENDBRANCH   3   4
ENDBRANCH   2   3
ENDBRANCH   1   2
BRANCH   1  21
ATOM     21  C   UNL A   1      32.756  30.102  25.975  1.00  0.00     0.116 C 
BRANCH  21  22
ATOM     22  N   UNL A   1      32.585  31.451  26.490  1.00  0.00    -0.352 N 
ATOM     23  C   UNL A   1      33.380  32.172  27.363  1.00  0.00     0.251 C 
ATOM     24  H   UNL A   1      31.782  31.922  26.171  1.00  0.00     0.163 HD
ATOM     25  O   UNL A   1      33.021  33.271  27.748  1.00  0.00    -0.269 OA
BRANCH  23  26
ATOM     26  C   UNL A   1      34.643  31.574  27.858  1.00  0.00     0.039 A 
ATOM     27  C   UNL A   1      35.757  32.397  28.030  1.00  0.00     0.014 A 
ATOM     28  C   UNL A   1      34.709  30.222  28.202  1.00  0.00     0.014 A 
ATOM     29  C   UNL A   1      36.904  31.890  28.650  1.00  0.00     0.010 A 
ATOM     30  C   UNL A   1      35.815  29.742  28.897  1.00  0.00     0.010 A 
ATOM     31  C   UNL A   1      36.920  30.574  29.143  1.00  0.00    -0.014 A 
BRANCH  31  32
ATOM     32  C   UNL A   1      38.065  30.051  29.936  1.00  0.00     0.031 A 
ATOM     33  C   UNL A   1      38.287  30.530  31.345  1.00  0.00     0.074 A 
ATOM     34  C   UNL A   1      38.957  29.221  29.359  1.00  0.00     0.049 A 
ATOM     35  N   UNL A   1      39.285  30.290  32.156  1.00  0.00    -0.248 NA
ATOM     36  C   UNL A   1      37.266  31.432  31.900  1.00  0.00     0.031 C 
ATOM     37  C   UNL A   1      38.885  28.724  27.983  1.00  0.00     0.029 A 
ATOM     38  N   UNL A   1      40.109  28.657  29.851  1.00  0.00    -0.354 N 
ATOM     39  C   UNL A   1      39.027  31.031  33.305  1.00  0.00     0.074 A 
ATOM     40  C   UNL A   1      37.808  31.772  33.059  1.00  0.00     0.031 C 
ATOM     41  C   UNL A   1      39.931  27.913  27.750  1.00  0.00     0.029 A 
ATOM     42  C   UNL A   1      40.772  27.866  28.941  1.00  0.00     0.049 A 
ATOM     43  H   UNL A   1      40.430  28.806  30.769  1.00  0.00     0.167 HD
ATOM     44  C   UNL A   1      39.729  31.071  34.466  1.00  0.00     0.034 A 
ATOM     45  C   UNL A   1      41.934  27.190  29.048  1.00  0.00     0.034 A 
ATOM     46  C   UNL A   1      40.927  30.306  34.707  1.00  0.00     0.049 A 
ATOM     47  C   UNL A   1      42.696  27.249  30.347  1.00  0.00     0.074 A 
ATOM     48  C   UNL A   1      41.675  30.217  35.868  1.00  0.00     0.029 A 
ATOM     49  N   UNL A   1      41.558  29.500  33.768  1.00  0.00    -0.354 N 
ATOM     50  N   UNL A   1      42.409  27.912  31.443  1.00  0.00    -0.248 NA
ATOM     51  C   UNL A   1      43.933  26.461  30.426  1.00  0.00     0.031 C 
ATOM     52  C   UNL A   1      42.787  29.404  35.615  1.00  0.00     0.029 A 
ATOM     53  C   UNL A   1      42.698  28.932  34.316  1.00  0.00     0.049 A 
ATOM     54  H   UNL A   1      41.242  29.352  32.847  1.00  0.00     0.167 HD
ATOM     55  C   UNL A   1      43.416  27.595  32.351  1.00  0.00     0.074 A 
ATOM     56  C   UNL A   1      44.308  26.674  31.677  1.00  0.00     0.031 C 
ATOM     57  C   UNL A   1      43.584  28.021  33.628  1.00  0.00     0.034 A 
BRANCH  44  58
ATOM     58  C   UNL A   1      39.222  31.995  35.548  1.00  0.00     0.023 A 
ATOM     59  C   UNL A   1      39.630  33.339  35.622  1.00  0.00     0.031 A 
ATOM     60  C   UNL A   1      38.349  31.518  36.541  1.00  0.00     0.131 A 
ATOM     61  C   UNL A   1      39.235  34.132  36.710  1.00  0.00     0.055 A 
ATOM     62  C   UNL A   1      37.892  32.338  37.575  1.00  0.00     0.041 A 
ATOM     63  F   UNL A   1      37.939  30.240  36.534  1.00  0.00    -0.206 F 
ATOM     64  C   UNL A   1      38.349  33.648  37.674  1.00  0.00     0.022 A 
BRANCH  61  65
ATOM     65  S   UNL A   1      40.019  35.754  36.925  1.00  0.00     0.124 S 
ATOM     66  O   UNL A   1      41.428  35.387  37.045  1.00  0.00    -0.237 OA
ATOM     67  O   UNL A   1      39.642  36.452  35.701  1.00  0.00    -0.237 OA
ATOM     68  O   UNL A   1      39.411  36.268  38.151  1.00  0.00    -0.744 OA
ENDBRANCH  61  65
ENDBRANCH  44  58
BRANCH  45  69
ATOM     69  C   UNL A   1      42.458  26.400  27.898  1.00  0.00     0.023 A 
ATOM     70  C   UNL A   1      42.009  25.091  27.661  1.00  0.00     0.031 A 
ATOM     71  C   UNL A   1      43.446  26.924  27.047  1.00  0.00     0.131 A 
ATOM     72  C   UNL A   1      42.579  24.333  26.627  1.00  0.00     0.055 A 
ATOM     73  C   UNL A   1      43.977  26.182  25.990  1.00  0.00     0.041 A 
ATOM     74  F   UNL A   1      43.904  28.173  27.227  1.00  0.00    -0.206 F 
ATOM     75  C   UNL A   1      43.552  24.873  25.783  1.00  0.00     0.022 A 
BRANCH  72  76
ATOM     76  S   UNL A   1      42.083  22.597  26.448  1.00  0.00     0.124 S 
ATOM     77  O   UNL A   1      42.686  22.245  25.167  1.00  0.00    -0.237 OA
ATOM     78  O   UNL A   1      42.685  21.988  27.629  1.00  0.00    -0.237 OA
ATOM     79  O   UNL A   1      40.623  22.658  26.456  1.00  0.00    -0.744 OA
ENDBRANCH  72  76
ENDBRANCH  45  69
BRANCH  57  80
ATOM     80  C   UNL A   1      44.755  27.452  34.390  1.00  0.00     0.023 A 
ATOM     81  C   UNL A   1      44.654  26.253  35.116  1.00  0.00     0.031 A 
ATOM     82  C   UNL A   1      45.985  28.132  34.400  1.00  0.00     0.131 A 
ATOM     83  C   UNL A   1      45.749  25.796  35.864  1.00  0.00     0.055 A 
ATOM     84  C   UNL A   1      47.088  27.644  35.102  1.00  0.00     0.041 A 
ATOM     85  F   UNL A   1      46.135  29.284  33.726  1.00  0.00    -0.206 F 
ATOM     86  C   UNL A   1      46.970  26.476  35.850  1.00  0.00     0.022 A 
BRANCH  83  87
ATOM     87  S   UNL A   1      45.534  24.341  36.926  1.00  0.00     0.124 S 
ATOM     88  O   UNL A   1      44.842  23.415  36.036  1.00  0.00    -0.237 OA
ATOM     89  O   UNL A   1      46.911  23.994  37.262  1.00  0.00    -0.237 OA
ATOM     90  O   UNL A   1      44.734  24.844  38.042  1.00  0.00    -0.744 OA
ENDBRANCH  83  87
ENDBRANCH  57  80
ENDBRANCH  31  32
ENDBRANCH  23  26
ENDBRANCH  21  22
ENDBRANCH   1  21
TORSDOF 17
ENDMDL
