MODEL 1
REMARK VINA RESULT:     -12.6      0.000      0.000
REMARK SMILES CCc1cc(/C=C/C(=O)NCCCCNC(=O)c2ccc(-c3c4nc(c(-c5cc(S(=O)(=O)[O-])ccc5F)c5ccc([nH]5)c(-c5cc(S(=O)(=O)[O-])ccc5F)c5nc(c(-c6cc(S(=O)(=O)[O-])ccc6F)c6ccc3[nH]6)C=C5)C=C4)cc2)cc(C(=O)c2ccccc2)c1
REMARK SMILES IDX 12 1 11 2 10 3 8 4 9 5 7 7 6 8 5 9 3 10 4 11 91 12 82 13
REMARK SMILES IDX 81 14 2 15 1 16 83 17 84 18 85 19 86 20 90 21 87 22 89 23
REMARK SMILES IDX 88 24 13 25 14 26 15 27 16 28 17 30 18 31 19 32 80 33 20 34
REMARK SMILES IDX 79 35 21 36 22 37 23 38 73 39 24 40 78 41 72 42 74 43 25 44
REMARK SMILES IDX 77 45 71 46 70 47 26 49 58 50 38 51 57 52 39 53 42 54 56 55
REMARK SMILES IDX 75 56 40 57 41 58 55 60 76 61 43 62 27 63 28 64 36 65 29 66
REMARK SMILES IDX 35 67 37 68 34 69 30 70 31 71 32 72 33 73 59 74 60 75 68 76
REMARK SMILES IDX 61 77 67 78 69 79 66 80 62 81 63 82 64 83 65 84 44 85 45 86
REMARK SMILES IDX 53 87 46 88 52 89 54 90 51 91 47 92 48 93 49 94 50 95
REMARK H PARENT 10 6 15 29 74 48 42 59
REMARK Flexibility Score: inf
ROOT
ATOM      1  C   UNL A   1      34.035  21.686  24.619  1.00  0.00     0.023 C 
ENDROOT
BRANCH   1   2
ATOM      2  C   UNL A   1      33.573  22.163  25.997  1.00  0.00     0.116 C 
BRANCH   2   3
ATOM      3  N   UNL A   1      32.166  21.882  26.207  1.00  0.00    -0.353 N 
ATOM      4  C   UNL A   1      31.075  22.676  26.046  1.00  0.00     0.243 C 
ATOM      5  O   UNL A   1      29.948  22.205  26.183  1.00  0.00    -0.270 OA
ATOM      6  H   UNL A   1      31.969  20.969  26.517  1.00  0.00     0.163 HD
BRANCH   4   7
ATOM      7  C   UNL A   1      31.205  24.096  25.638  1.00  0.00     0.072 C 
ATOM      8  C   UNL A   1      31.195  25.141  26.478  1.00  0.00     0.014 C 
BRANCH   8   9
ATOM      9  C   UNL A   1      31.209  26.546  26.056  1.00  0.00    -0.024 A 
ATOM     10  C   UNL A   1      31.928  28.855  26.390  1.00  0.00    -0.047 A 
ATOM     11  C   UNL A   1      31.802  27.536  26.848  1.00  0.00     0.011 A 
ATOM     12  C   UNL A   1      31.412  29.186  25.130  1.00  0.00     0.016 A 
ATOM     13  C   UNL A   1      30.830  28.204  24.317  1.00  0.00     0.023 A 
ATOM     14  C   UNL A   1      30.728  26.888  24.787  1.00  0.00     0.020 A 
BRANCH  10  15
ATOM     15  C   UNL A   1      32.615  29.896  27.238  1.00  0.00     0.032 C 
ATOM     16  C   UNL A   1      34.109  29.995  26.948  1.00  0.00     0.009 C 
ENDBRANCH  10  15
BRANCH  13  17
ATOM     17  C   UNL A   1      30.284  28.516  22.967  1.00  0.00     0.193 C 
ATOM     18  O   UNL A   1      30.446  27.725  22.043  1.00  0.00    -0.289 OA
BRANCH  17  19
ATOM     19  C   UNL A   1      29.519  29.758  22.708  1.00  0.00     0.022 A 
ATOM     20  C   UNL A   1      29.272  30.124  21.381  1.00  0.00     0.012 A 
ATOM     21  C   UNL A   1      29.073  30.573  23.755  1.00  0.00     0.012 A 
ATOM     22  C   UNL A   1      28.537  31.277  21.101  1.00  0.00     0.001 A 
ATOM     23  C   UNL A   1      28.340  31.726  23.470  1.00  0.00     0.001 A 
ATOM     24  C   UNL A   1      28.067  32.072  22.146  1.00  0.00     0.000 A 
ENDBRANCH  17  19
ENDBRANCH  13  17
ENDBRANCH   8   9
ENDBRANCH   4   7
ENDBRANCH   2   3
ENDBRANCH   1   2
BRANCH   1  25
ATOM     25  C   UNL A   1      35.480  22.048  24.268  1.00  0.00     0.023 C 
BRANCH  25  26
ATOM     26  C   UNL A   1      36.448  22.053  25.445  1.00  0.00     0.116 C 
BRANCH  26  27
ATOM     27  N   UNL A   1      37.379  20.936  25.433  1.00  0.00    -0.352 N 
ATOM     28  C   UNL A   1      38.705  20.935  25.800  1.00  0.00     0.251 C 
ATOM     29  H   UNL A   1      37.015  20.074  25.126  1.00  0.00     0.163 HD
ATOM     30  O   UNL A   1      39.392  19.937  25.639  1.00  0.00    -0.269 OA
BRANCH  28  31
ATOM     31  C   UNL A   1      39.293  22.180  26.340  1.00  0.00     0.039 A 
ATOM     32  C   UNL A   1      40.383  22.087  27.206  1.00  0.00     0.014 A 
ATOM     33  C   UNL A   1      38.808  23.427  25.938  1.00  0.00     0.014 A 
ATOM     34  C   UNL A   1      41.036  23.251  27.616  1.00  0.00     0.010 A 
ATOM     35  C   UNL A   1      39.500  24.580  26.293  1.00  0.00     0.010 A 
ATOM     36  C   UNL A   1      40.622  24.503  27.132  1.00  0.00    -0.014 A 
BRANCH  36  37
ATOM     37  C   UNL A   1      41.352  25.744  27.491  1.00  0.00     0.031 A 
ATOM     38  C   UNL A   1      40.674  26.799  28.321  1.00  0.00     0.074 A 
ATOM     39  C   UNL A   1      42.595  25.950  27.010  1.00  0.00     0.049 A 
ATOM     40  N   UNL A   1      41.108  27.980  28.675  1.00  0.00    -0.248 NA
ATOM     41  C   UNL A   1      39.312  26.493  28.784  1.00  0.00     0.031 C 
ATOM     42  C   UNL A   1      43.333  25.020  26.152  1.00  0.00     0.029 A 
ATOM     43  N   UNL A   1      43.451  27.011  27.163  1.00  0.00    -0.354 N 
ATOM     44  C   UNL A   1      40.070  28.566  29.389  1.00  0.00     0.074 A 
ATOM     45  C   UNL A   1      38.963  27.633  29.361  1.00  0.00     0.031 C 
ATOM     46  C   UNL A   1      44.540  25.542  25.874  1.00  0.00     0.029 A 
ATOM     47  C   UNL A   1      44.646  26.858  26.497  1.00  0.00     0.049 A 
ATOM     48  H   UNL A   1      43.232  27.807  27.698  1.00  0.00     0.167 HD
ATOM     49  C   UNL A   1      40.049  29.762  30.030  1.00  0.00     0.034 A 
ATOM     50  C   UNL A   1      45.702  27.687  26.395  1.00  0.00     0.034 A 
ATOM     51  C   UNL A   1      41.168  30.671  30.061  1.00  0.00     0.049 A 
ATOM     52  C   UNL A   1      45.657  29.013  27.112  1.00  0.00     0.074 A 
ATOM     53  C   UNL A   1      41.281  31.879  30.727  1.00  0.00     0.029 A 
ATOM     54  N   UNL A   1      42.369  30.474  29.391  1.00  0.00    -0.354 N 
ATOM     55  N   UNL A   1      44.687  29.530  27.832  1.00  0.00    -0.248 NA
ATOM     56  C   UNL A   1      46.851  29.862  27.012  1.00  0.00     0.031 C 
ATOM     57  C   UNL A   1      42.525  32.438  30.414  1.00  0.00     0.029 A 
ATOM     58  C   UNL A   1      43.217  31.550  29.607  1.00  0.00     0.049 A 
ATOM     59  H   UNL A   1      42.586  29.687  28.842  1.00  0.00     0.167 HD
ATOM     60  C   UNL A   1      45.169  30.749  28.297  1.00  0.00     0.074 A 
ATOM     61  C   UNL A   1      46.518  30.887  27.783  1.00  0.00     0.031 C 
ATOM     62  C   UNL A   1      44.556  31.671  29.081  1.00  0.00     0.034 A 
BRANCH  49  63
ATOM     63  C   UNL A   1      38.767  30.151  30.725  1.00  0.00     0.023 A 
ATOM     64  C   UNL A   1      37.827  31.000  30.114  1.00  0.00     0.031 A 
ATOM     65  C   UNL A   1      38.496  29.700  32.028  1.00  0.00     0.131 A 
ATOM     66  C   UNL A   1      36.707  31.440  30.835  1.00  0.00     0.055 A 
ATOM     67  C   UNL A   1      37.336  30.075  32.711  1.00  0.00     0.041 A 
ATOM     68  F   UNL A   1      39.364  28.904  32.670  1.00  0.00    -0.206 F 
ATOM     69  C   UNL A   1      36.442  30.964  32.121  1.00  0.00     0.022 A 
BRANCH  66  70
ATOM     70  S   UNL A   1      35.685  32.758  30.126  1.00  0.00     0.124 S 
ATOM     71  O   UNL A   1      36.452  33.950  30.482  1.00  0.00    -0.237 OA
ATOM     72  O   UNL A   1      35.663  32.414  28.709  1.00  0.00    -0.237 OA
ATOM     73  O   UNL A   1      34.409  32.617  30.823  1.00  0.00    -0.744 OA
ENDBRANCH  66  70
ENDBRANCH  49  63
BRANCH  50  74
ATOM     74  C   UNL A   1      46.892  27.300  25.586  1.00  0.00     0.023 A 
ATOM     75  C   UNL A   1      47.047  27.753  24.266  1.00  0.00     0.031 A 
ATOM     76  C   UNL A   1      47.876  26.443  26.110  1.00  0.00     0.131 A 
ATOM     77  C   UNL A   1      48.135  27.310  23.498  1.00  0.00     0.055 A 
ATOM     78  C   UNL A   1      48.982  26.043  25.356  1.00  0.00     0.041 A 
ATOM     79  F   UNL A   1      47.781  25.988  27.369  1.00  0.00    -0.206 F 
ATOM     80  C   UNL A   1      49.109  26.467  24.037  1.00  0.00     0.022 A 
BRANCH  77  81
ATOM     81  S   UNL A   1      48.217  27.793  21.751  1.00  0.00     0.124 S 
ATOM     82  O   UNL A   1      46.906  28.400  21.548  1.00  0.00    -0.237 OA
ATOM     83  O   UNL A   1      49.355  28.706  21.743  1.00  0.00    -0.237 OA
ATOM     84  O   UNL A   1      48.433  26.525  21.058  1.00  0.00    -0.744 OA
ENDBRANCH  77  81
ENDBRANCH  50  74
BRANCH  62  85
ATOM     85  C   UNL A   1      45.363  32.884  29.470  1.00  0.00     0.023 A 
ATOM     86  C   UNL A   1      45.340  34.064  28.708  1.00  0.00     0.031 A 
ATOM     87  C   UNL A   1      46.170  32.852  30.622  1.00  0.00     0.131 A 
ATOM     88  C   UNL A   1      46.144  35.152  29.082  1.00  0.00     0.055 A 
ATOM     89  C   UNL A   1      46.927  33.955  31.018  1.00  0.00     0.041 A 
ATOM     90  F   UNL A   1      46.229  31.749  31.384  1.00  0.00    -0.206 F 
ATOM     91  C   UNL A   1      46.925  35.110  30.241  1.00  0.00     0.022 A 
BRANCH  88  92
ATOM     92  S   UNL A   1      46.214  36.600  27.993  1.00  0.00     0.124 S 
ATOM     93  O   UNL A   1      47.585  36.541  27.495  1.00  0.00    -0.237 OA
ATOM     94  O   UNL A   1      45.169  36.308  27.017  1.00  0.00    -0.237 OA
ATOM     95  O   UNL A   1      45.927  37.718  28.890  1.00  0.00    -0.744 OA
ENDBRANCH  88  92
ENDBRANCH  62  85
ENDBRANCH  36  37
ENDBRANCH  28  31
ENDBRANCH  26  27
ENDBRANCH  25  26
ENDBRANCH   1  25
TORSDOF 18
ENDMDL
MODEL 2
REMARK VINA RESULT:     -12.6      0.837      7.461
REMARK SMILES CCc1cc(/C=C/C(=O)NCCCCNC(=O)c2ccc(-c3c4nc(c(-c5cc(S(=O)(=O)[O-])ccc5F)c5ccc([nH]5)c(-c5cc(S(=O)(=O)[O-])ccc5F)c5nc(c(-c6cc(S(=O)(=O)[O-])ccc6F)c6ccc3[nH]6)C=C5)C=C4)cc2)cc(C(=O)c2ccccc2)c1
REMARK SMILES IDX 12 1 11 2 10 3 8 4 9 5 7 7 6 8 5 9 3 10 4 11 91 12 82 13
REMARK SMILES IDX 81 14 2 15 1 16 83 17 84 18 85 19 86 20 90 21 87 22 89 23
REMARK SMILES IDX 88 24 13 25 14 26 15 27 16 28 17 30 18 31 19 32 80 33 20 34
REMARK SMILES IDX 79 35 21 36 22 37 23 38 73 39 24 40 78 41 72 42 74 43 25 44
REMARK SMILES IDX 77 45 71 46 70 47 26 49 58 50 38 51 57 52 39 53 42 54 56 55
REMARK SMILES IDX 75 56 40 57 41 58 55 60 76 61 43 62 27 63 28 64 36 65 29 66
REMARK SMILES IDX 35 67 37 68 34 69 30 70 31 71 32 72 33 73 59 74 60 75 68 76
REMARK SMILES IDX 61 77 67 78 69 79 66 80 62 81 63 82 64 83 65 84 44 85 45 86
REMARK SMILES IDX 53 87 46 88 52 89 54 90 51 91 47 92 48 93 49 94 50 95
REMARK H PARENT 10 6 15 29 74 48 42 59
REMARK Flexibility Score: inf
ROOT
ATOM      1  C   UNL A   1      34.558  21.572  24.629  1.00  0.00     0.023 C 
ENDROOT
BRANCH   1   2
ATOM      2  C   UNL A   1      33.988  22.172  25.915  1.00  0.00     0.116 C 
BRANCH   2   3
ATOM      3  N   UNL A   1      32.624  21.734  26.141  1.00  0.00    -0.353 N 
ATOM      4  C   UNL A   1      31.448  22.394  25.976  1.00  0.00     0.243 C 
ATOM      5  O   UNL A   1      30.383  21.797  26.129  1.00  0.00    -0.270 OA
ATOM      6  H   UNL A   1      32.536  20.810  26.467  1.00  0.00     0.163 HD
BRANCH   4   7
ATOM      7  C   UNL A   1      31.410  23.811  25.543  1.00  0.00     0.072 C 
ATOM      8  C   UNL A   1      31.603  24.866  26.349  1.00  0.00     0.014 C 
BRANCH   8   9
ATOM      9  C   UNL A   1      31.451  26.265  25.936  1.00  0.00    -0.024 A 
ATOM     10  C   UNL A   1      31.861  28.643  26.305  1.00  0.00    -0.047 A 
ATOM     11  C   UNL A   1      31.890  27.315  26.752  1.00  0.00     0.011 A 
ATOM     12  C   UNL A   1      31.344  28.919  25.033  1.00  0.00     0.016 A 
ATOM     13  C   UNL A   1      30.914  27.879  24.197  1.00  0.00     0.023 A 
ATOM     14  C   UNL A   1      30.966  26.557  24.656  1.00  0.00     0.020 A 
BRANCH  10  15
ATOM     15  C   UNL A   1      32.386  29.755  27.180  1.00  0.00     0.032 C 
ATOM     16  C   UNL A   1      31.935  31.133  26.709  1.00  0.00     0.009 C 
ENDBRANCH  10  15
BRANCH  13  17
ATOM     17  C   UNL A   1      30.371  28.133  22.833  1.00  0.00     0.193 C 
ATOM     18  O   UNL A   1      30.701  27.409  21.899  1.00  0.00    -0.289 OA
BRANCH  17  19
ATOM     19  C   UNL A   1      29.414  29.233  22.572  1.00  0.00     0.022 A 
ATOM     20  C   UNL A   1      29.802  30.262  21.708  1.00  0.00     0.012 A 
ATOM     21  C   UNL A   1      28.158  29.270  23.189  1.00  0.00     0.012 A 
ATOM     22  C   UNL A   1      28.917  31.304  21.424  1.00  0.00     0.001 A 
ATOM     23  C   UNL A   1      27.277  30.314  22.902  1.00  0.00     0.001 A 
ATOM     24  C   UNL A   1      27.654  31.324  22.016  1.00  0.00     0.000 A 
ENDBRANCH  17  19
ENDBRANCH  13  17
ENDBRANCH   8   9
ENDBRANCH   4   7
ENDBRANCH   2   3
ENDBRANCH   1   2
BRANCH   1  25
ATOM     25  C   UNL A   1      36.021  21.927  24.352  1.00  0.00     0.023 C 
BRANCH  25  26
ATOM     26  C   UNL A   1      36.897  22.064  25.591  1.00  0.00     0.116 C 
BRANCH  26  27
ATOM     27  N   UNL A   1      37.933  21.047  25.684  1.00  0.00    -0.352 N 
ATOM     28  C   UNL A   1      39.228  21.194  26.126  1.00  0.00     0.251 C 
ATOM     29  H   UNL A   1      37.676  20.142  25.395  1.00  0.00     0.163 HD
ATOM     30  O   UNL A   1      40.018  20.265  26.051  1.00  0.00    -0.269 OA
BRANCH  28  31
ATOM     31  C   UNL A   1      39.655  22.512  26.643  1.00  0.00     0.039 A 
ATOM     32  C   UNL A   1      40.654  22.560  27.617  1.00  0.00     0.014 A 
ATOM     33  C   UNL A   1      39.116  23.690  26.119  1.00  0.00     0.014 A 
ATOM     34  C   UNL A   1      41.166  23.796  28.015  1.00  0.00     0.010 A 
ATOM     35  C   UNL A   1      39.673  24.916  26.468  1.00  0.00     0.010 A 
ATOM     36  C   UNL A   1      40.705  24.980  27.416  1.00  0.00    -0.014 A 
BRANCH  36  37
ATOM     37  C   UNL A   1      41.293  26.297  27.767  1.00  0.00     0.031 A 
ATOM     38  C   UNL A   1      42.704  26.620  27.359  1.00  0.00     0.074 A 
ATOM     39  C   UNL A   1      40.583  27.168  28.512  1.00  0.00     0.049 A 
ATOM     40  N   UNL A   1      43.425  27.675  27.633  1.00  0.00    -0.248 NA
ATOM     41  C   UNL A   1      43.406  25.600  26.564  1.00  0.00     0.031 C 
ATOM     42  C   UNL A   1      39.224  26.941  29.009  1.00  0.00     0.029 A 
ATOM     43  N   UNL A   1      40.909  28.411  28.991  1.00  0.00    -0.354 N 
ATOM     44  C   UNL A   1      44.669  27.443  27.059  1.00  0.00     0.074 A 
ATOM     45  C   UNL A   1      44.622  26.118  26.477  1.00  0.00     0.031 C 
ATOM     46  C   UNL A   1      38.825  28.020  29.704  1.00  0.00     0.029 A 
ATOM     47  C   UNL A   1      39.911  28.995  29.737  1.00  0.00     0.049 A 
ATOM     48  H   UNL A   1      41.775  28.845  28.818  1.00  0.00     0.167 HD
ATOM     49  C   UNL A   1      45.745  28.269  27.002  1.00  0.00     0.034 A 
ATOM     50  C   UNL A   1      39.878  30.179  30.379  1.00  0.00     0.034 A 
ATOM     51  C   UNL A   1      45.767  29.593  27.572  1.00  0.00     0.049 A 
ATOM     52  C   UNL A   1      41.085  31.079  30.306  1.00  0.00     0.074 A 
ATOM     53  C   UNL A   1      46.776  30.538  27.523  1.00  0.00     0.029 A 
ATOM     54  N   UNL A   1      44.731  30.159  28.304  1.00  0.00    -0.354 N 
ATOM     55  N   UNL A   1      42.237  30.868  29.710  1.00  0.00    -0.248 NA
ATOM     56  C   UNL A   1      40.984  32.380  30.980  1.00  0.00     0.031 C 
ATOM     57  C   UNL A   1      46.375  31.650  28.271  1.00  0.00     0.029 A 
ATOM     58  C   UNL A   1      45.088  31.429  28.733  1.00  0.00     0.049 A 
ATOM     59  H   UNL A   1      43.869  29.722  28.493  1.00  0.00     0.167 HD
ATOM     60  C   UNL A   1      42.984  32.025  29.912  1.00  0.00     0.074 A 
ATOM     61  C   UNL A   1      42.151  32.931  30.676  1.00  0.00     0.031 C 
ATOM     62  C   UNL A   1      44.244  32.315  29.499  1.00  0.00     0.034 A 
BRANCH  49  63
ATOM     63  C   UNL A   1      46.982  27.744  26.315  1.00  0.00     0.023 A 
ATOM     64  C   UNL A   1      47.247  28.021  24.962  1.00  0.00     0.031 A 
ATOM     65  C   UNL A   1      47.891  26.926  27.008  1.00  0.00     0.131 A 
ATOM     66  C   UNL A   1      48.340  27.417  24.323  1.00  0.00     0.055 A 
ATOM     67  C   UNL A   1      49.025  26.395  26.389  1.00  0.00     0.041 A 
ATOM     68  F   UNL A   1      47.682  26.611  28.296  1.00  0.00    -0.206 F 
ATOM     69  C   UNL A   1      49.245  26.625  25.034  1.00  0.00     0.022 A 
BRANCH  66  70
ATOM     70  S   UNL A   1      48.475  27.558  22.521  1.00  0.00     0.124 S 
ATOM     71  O   UNL A   1      48.530  26.154  22.119  1.00  0.00    -0.237 OA
ATOM     72  O   UNL A   1      47.256  28.276  22.168  1.00  0.00    -0.237 OA
ATOM     73  O   UNL A   1      49.717  28.303  22.327  1.00  0.00    -0.744 OA
ENDBRANCH  66  70
ENDBRANCH  49  63
BRANCH  50  74
ATOM     74  C   UNL A   1      38.670  30.588  31.150  1.00  0.00     0.023 A 
ATOM     75  C   UNL A   1      37.600  31.245  30.521  1.00  0.00     0.031 A 
ATOM     76  C   UNL A   1      38.582  30.357  32.534  1.00  0.00     0.131 A 
ATOM     77  C   UNL A   1      36.509  31.691  31.283  1.00  0.00     0.055 A 
ATOM     78  C   UNL A   1      37.472  30.761  33.279  1.00  0.00     0.041 A 
ATOM     79  F   UNL A   1      39.572  29.724  33.182  1.00  0.00    -0.206 F 
ATOM     80  C   UNL A   1      36.433  31.444  32.656  1.00  0.00     0.022 A 
BRANCH  77  81
ATOM     81  S   UNL A   1      35.222  32.672  30.463  1.00  0.00     0.124 S 
ATOM     82  O   UNL A   1      35.926  33.921  30.194  1.00  0.00    -0.237 OA
ATOM     83  O   UNL A   1      34.909  31.848  29.300  1.00  0.00    -0.237 OA
ATOM     84  O   UNL A   1      34.165  32.754  31.469  1.00  0.00    -0.744 OA
ENDBRANCH  77  81
ENDBRANCH  50  74
BRANCH  62  85
ATOM     85  C   UNL A   1      44.772  33.689  29.826  1.00  0.00     0.023 A 
ATOM     86  C   UNL A   1      44.566  34.784  28.970  1.00  0.00     0.031 A 
ATOM     87  C   UNL A   1      45.494  33.900  31.014  1.00  0.00     0.131 A 
ATOM     88  C   UNL A   1      45.117  36.034  29.293  1.00  0.00     0.055 A 
ATOM     89  C   UNL A   1      45.994  35.157  31.356  1.00  0.00     0.041 A 
ATOM     90  F   UNL A   1      45.720  32.887  31.866  1.00  0.00    -0.206 F 
ATOM     91  C   UNL A   1      45.816  36.231  30.487  1.00  0.00     0.022 A 
BRANCH  88  92
ATOM     92  S   UNL A   1      44.970  37.387  28.094  1.00  0.00     0.124 S 
ATOM     93  O   UNL A   1      44.546  38.498  28.940  1.00  0.00    -0.237 OA
ATOM     94  O   UNL A   1      46.324  37.477  27.557  1.00  0.00    -0.237 OA
ATOM     95  O   UNL A   1      43.962  36.904  27.152  1.00  0.00    -0.744 OA
ENDBRANCH  88  92
ENDBRANCH  62  85
ENDBRANCH  36  37
ENDBRANCH  28  31
ENDBRANCH  26  27
ENDBRANCH  25  26
ENDBRANCH   1  25
TORSDOF 18
ENDMDL
MODEL 3
REMARK VINA RESULT:     -12.5      3.338      9.167
REMARK SMILES CCc1cc(/C=C/C(=O)NCCCCNC(=O)c2ccc(-c3c4nc(c(-c5cc(S(=O)(=O)[O-])ccc5F)c5ccc([nH]5)c(-c5cc(S(=O)(=O)[O-])ccc5F)c5nc(c(-c6cc(S(=O)(=O)[O-])ccc6F)c6ccc3[nH]6)C=C5)C=C4)cc2)cc(C(=O)c2ccccc2)c1
REMARK SMILES IDX 12 1 11 2 10 3 8 4 9 5 7 7 6 8 5 9 3 10 4 11 91 12 82 13
REMARK SMILES IDX 81 14 2 15 1 16 83 17 84 18 85 19 86 20 90 21 87 22 89 23
REMARK SMILES IDX 88 24 13 25 14 26 15 27 16 28 17 30 18 31 19 32 80 33 20 34
REMARK SMILES IDX 79 35 21 36 22 37 23 38 73 39 24 40 78 41 72 42 74 43 25 44
REMARK SMILES IDX 77 45 71 46 70 47 26 49 58 50 38 51 57 52 39 53 42 54 56 55
REMARK SMILES IDX 75 56 40 57 41 58 55 60 76 61 43 62 27 63 28 64 36 65 29 66
REMARK SMILES IDX 35 67 37 68 34 69 30 70 31 71 32 72 33 73 59 74 60 75 68 76
REMARK SMILES IDX 61 77 67 78 69 79 66 80 62 81 63 82 64 83 65 84 44 85 45 86
REMARK SMILES IDX 53 87 46 88 52 89 54 90 51 91 47 92 48 93 49 94 50 95
REMARK H PARENT 10 6 15 29 74 48 42 59
REMARK Flexibility Score: inf
ROOT
ATOM      1  C   UNL A   1      40.626  20.820  26.863  1.00  0.00     0.023 C 
ENDROOT
BRANCH   1   2
ATOM      2  C   UNL A   1      39.602  21.641  26.077  1.00  0.00     0.116 C 
BRANCH   2   3
ATOM      3  N   UNL A   1      39.515  22.997  26.582  1.00  0.00    -0.353 N 
ATOM      4  C   UNL A   1      38.562  23.947  26.398  1.00  0.00     0.243 C 
ATOM      5  O   UNL A   1      38.631  25.012  27.007  1.00  0.00    -0.270 OA
ATOM      6  H   UNL A   1      40.270  23.275  27.150  1.00  0.00     0.163 HD
BRANCH   4   7
ATOM      7  C   UNL A   1      37.388  23.706  25.524  1.00  0.00     0.072 C 
ATOM      8  C   UNL A   1      36.112  23.923  25.874  1.00  0.00     0.014 C 
BRANCH   8   9
ATOM      9  C   UNL A   1      34.953  23.575  25.046  1.00  0.00    -0.024 A 
ATOM     10  C   UNL A   1      33.535  23.981  23.100  1.00  0.00    -0.047 A 
ATOM     11  C   UNL A   1      34.562  24.378  23.968  1.00  0.00     0.011 A 
ATOM     12  C   UNL A   1      32.866  22.775  23.349  1.00  0.00     0.016 A 
ATOM     13  C   UNL A   1      33.254  21.952  24.415  1.00  0.00     0.023 A 
ATOM     14  C   UNL A   1      34.294  22.358  25.261  1.00  0.00     0.020 A 
BRANCH  10  15
ATOM     15  C   UNL A   1      33.163  24.837  21.915  1.00  0.00     0.032 C 
ATOM     16  C   UNL A   1      33.506  26.308  22.125  1.00  0.00     0.009 C 
ENDBRANCH  10  15
BRANCH  13  17
ATOM     17  C   UNL A   1      32.576  20.657  24.702  1.00  0.00     0.193 C 
ATOM     18  O   UNL A   1      31.547  20.641  25.370  1.00  0.00    -0.289 OA
BRANCH  17  19
ATOM     19  C   UNL A   1      33.099  19.374  24.177  1.00  0.00     0.022 A 
ATOM     20  C   UNL A   1      34.312  18.894  24.679  1.00  0.00     0.012 A 
ATOM     21  C   UNL A   1      32.421  18.662  23.180  1.00  0.00     0.012 A 
ATOM     22  C   UNL A   1      34.824  17.680  24.221  1.00  0.00     0.001 A 
ATOM     23  C   UNL A   1      32.937  17.448  22.724  1.00  0.00     0.001 A 
ATOM     24  C   UNL A   1      34.132  16.955  23.250  1.00  0.00     0.000 A 
ENDBRANCH  17  19
ENDBRANCH  13  17
ENDBRANCH   8   9
ENDBRANCH   4   7
ENDBRANCH   2   3
ENDBRANCH   1   2
BRANCH   1  25
ATOM     25  C   UNL A   1      41.183  19.606  26.115  1.00  0.00     0.023 C 
BRANCH  25  26
ATOM     26  C   UNL A   1      42.620  19.238  26.463  1.00  0.00     0.116 C 
BRANCH  26  27
ATOM     27  N   UNL A   1      43.480  19.100  25.298  1.00  0.00    -0.352 N 
ATOM     28  C   UNL A   1      44.190  20.084  24.648  1.00  0.00     0.251 C 
ATOM     29  H   UNL A   1      43.564  18.191  24.929  1.00  0.00     0.163 HD
ATOM     30  O   UNL A   1      44.793  19.832  23.614  1.00  0.00    -0.269 OA
BRANCH  28  31
ATOM     31  C   UNL A   1      44.165  21.457  25.195  1.00  0.00     0.039 A 
ATOM     32  C   UNL A   1      44.709  21.686  26.460  1.00  0.00     0.014 A 
ATOM     33  C   UNL A   1      43.664  22.516  24.433  1.00  0.00     0.014 A 
ATOM     34  C   UNL A   1      44.818  22.995  26.933  1.00  0.00     0.010 A 
ATOM     35  C   UNL A   1      43.834  23.823  24.878  1.00  0.00     0.010 A 
ATOM     36  C   UNL A   1      44.416  24.075  26.130  1.00  0.00    -0.014 A 
BRANCH  36  37
ATOM     37  C   UNL A   1      44.598  25.477  26.582  1.00  0.00     0.031 A 
ATOM     38  C   UNL A   1      45.959  26.113  26.518  1.00  0.00     0.074 A 
ATOM     39  C   UNL A   1      43.557  26.147  27.114  1.00  0.00     0.049 A 
ATOM     40  N   UNL A   1      46.343  27.292  26.933  1.00  0.00    -0.248 NA
ATOM     41  C   UNL A   1      47.038  25.298  25.939  1.00  0.00     0.031 C 
ATOM     42  C   UNL A   1      42.202  25.613  27.274  1.00  0.00     0.029 A 
ATOM     43  N   UNL A   1      43.476  27.416  27.628  1.00  0.00    -0.354 N 
ATOM     44  C   UNL A   1      47.708  27.356  26.681  1.00  0.00     0.074 A 
ATOM     45  C   UNL A   1      48.094  26.072  26.135  1.00  0.00     0.031 C 
ATOM     46  C   UNL A   1      41.421  26.556  27.828  1.00  0.00     0.029 A 
ATOM     47  C   UNL A   1      42.225  27.744  28.099  1.00  0.00     0.049 A 
ATOM     48  H   UNL A   1      44.241  28.034  27.659  1.00  0.00     0.167 HD
ATOM     49  C   UNL A   1      48.557  28.398  26.865  1.00  0.00     0.034 A 
ATOM     50  C   UNL A   1      41.780  28.871  28.687  1.00  0.00     0.034 A 
ATOM     51  C   UNL A   1      48.150  29.677  27.394  1.00  0.00     0.049 A 
ATOM     52  C   UNL A   1      42.741  30.016  28.885  1.00  0.00     0.074 A 
ATOM     53  C   UNL A   1      48.908  30.821  27.567  1.00  0.00     0.029 A 
ATOM     54  N   UNL A   1      46.870  29.979  27.842  1.00  0.00    -0.354 N 
ATOM     55  N   UNL A   1      44.019  30.081  28.589  1.00  0.00    -0.248 NA
ATOM     56  C   UNL A   1      42.198  31.241  29.486  1.00  0.00     0.031 C 
ATOM     57  C   UNL A   1      48.105  31.794  28.171  1.00  0.00     0.029 A 
ATOM     58  C   UNL A   1      46.825  31.282  28.315  1.00  0.00     0.049 A 
ATOM     59  H   UNL A   1      46.106  29.358  27.827  1.00  0.00     0.167 HD
ATOM     60  C   UNL A   1      44.423  31.366  28.938  1.00  0.00     0.074 A 
ATOM     61  C   UNL A   1      43.252  32.043  29.458  1.00  0.00     0.031 C 
ATOM     62  C   UNL A   1      45.649  31.938  28.834  1.00  0.00     0.034 A 
BRANCH  49  63
ATOM     63  C   UNL A   1      50.007  28.179  26.509  1.00  0.00     0.023 A 
ATOM     64  C   UNL A   1      50.487  28.399  25.205  1.00  0.00     0.031 A 
ATOM     65  C   UNL A   1      50.916  27.709  27.472  1.00  0.00     0.131 A 
ATOM     66  C   UNL A   1      51.811  28.068  24.879  1.00  0.00     0.055 A 
ATOM     67  C   UNL A   1      52.256  27.461  27.162  1.00  0.00     0.041 A 
ATOM     68  F   UNL A   1      50.514  27.463  28.729  1.00  0.00    -0.206 F 
ATOM     69  C   UNL A   1      52.705  27.623  25.855  1.00  0.00     0.022 A 
BRANCH  66  70
ATOM     70  S   UNL A   1      52.301  28.082  23.134  1.00  0.00     0.124 S 
ATOM     71  O   UNL A   1      52.150  29.496  22.798  1.00  0.00    -0.237 OA
ATOM     72  O   UNL A   1      53.670  27.582  23.186  1.00  0.00    -0.237 OA
ATOM     73  O   UNL A   1      51.334  27.191  22.498  1.00  0.00    -0.744 OA
ENDBRANCH  66  70
ENDBRANCH  49  63
BRANCH  50  74
ATOM     74  C   UNL A   1      40.363  28.981  29.135  1.00  0.00     0.023 A 
ATOM     75  C   UNL A   1      40.020  28.834  30.489  1.00  0.00     0.031 A 
ATOM     76  C   UNL A   1      39.326  29.200  28.211  1.00  0.00     0.131 A 
ATOM     77  C   UNL A   1      38.671  28.862  30.875  1.00  0.00     0.055 A 
ATOM     78  C   UNL A   1      37.989  29.274  28.607  1.00  0.00     0.041 A 
ATOM     79  F   UNL A   1      39.600  29.357  26.906  1.00  0.00    -0.206 F 
ATOM     80  C   UNL A   1      37.654  29.092  29.946  1.00  0.00     0.022 A 
BRANCH  77  81
ATOM     81  S   UNL A   1      38.257  28.514  32.607  1.00  0.00     0.124 S 
ATOM     82  O   UNL A   1      36.933  29.113  32.723  1.00  0.00    -0.237 OA
ATOM     83  O   UNL A   1      38.308  27.056  32.642  1.00  0.00    -0.237 OA
ATOM     84  O   UNL A   1      39.317  29.190  33.352  1.00  0.00    -0.744 OA
ENDBRANCH  77  81
ENDBRANCH  50  74
BRANCH  62  85
ATOM     85  C   UNL A   1      45.767  33.383  29.247  1.00  0.00     0.023 A 
ATOM     86  C   UNL A   1      45.478  34.433  28.359  1.00  0.00     0.031 A 
ATOM     87  C   UNL A   1      46.179  33.710  30.551  1.00  0.00     0.131 A 
ATOM     88  C   UNL A   1      45.649  35.763  28.773  1.00  0.00     0.055 A 
ATOM     89  C   UNL A   1      46.296  35.034  30.974  1.00  0.00     0.041 A 
ATOM     90  F   UNL A   1      46.469  32.745  31.439  1.00  0.00    -0.206 F 
ATOM     91  C   UNL A   1      46.040  36.070  30.079  1.00  0.00     0.022 A 
BRANCH  88  92
ATOM     92  S   UNL A   1      45.421  37.090  27.558  1.00  0.00     0.124 S 
ATOM     93  O   UNL A   1      44.015  36.937  27.200  1.00  0.00    -0.237 OA
ATOM     94  O   UNL A   1      45.757  38.282  28.330  1.00  0.00    -0.237 OA
ATOM     95  O   UNL A   1      46.370  36.752  26.499  1.00  0.00    -0.744 OA
ENDBRANCH  88  92
ENDBRANCH  62  85
ENDBRANCH  36  37
ENDBRANCH  28  31
ENDBRANCH  26  27
ENDBRANCH  25  26
ENDBRANCH   1  25
TORSDOF 18
ENDMDL
