MODEL 1
REMARK VINA RESULT:     -11.8      0.000      0.000
REMARK SMILES Cc1cc(Br)cc(C(=O)NCCCCNC(=O)c2ccc(-c3c4nc(c(-c5cc(S(=O)(=O)[O-])ccc5F)c5ccc([nH]5)c(-c5cc(S(=O)(=O)[O-])ccc5F)c5nc(c(-c6cc(S(=O)(=O)[O-])ccc6F)c6ccc3[nH]6)C=C5)C=C4)cc2)c1Br
REMARK SMILES IDX 14 1 13 2 12 3 11 4 10 5 8 6 9 7 7 9 1 10 2 11 3 12 81 13
REMARK SMILES IDX 4 14 82 15 5 16 6 17 15 18 16 19 17 21 18 22 19 23 80 24
REMARK SMILES IDX 20 25 79 26 21 27 22 28 23 29 73 30 24 31 78 32 72 33 74 34
REMARK SMILES IDX 25 35 77 36 71 37 70 38 26 40 58 41 38 42 57 43 39 44 42 45
REMARK SMILES IDX 56 46 75 47 40 48 41 49 55 51 76 52 43 53 27 54 28 55 36 56
REMARK SMILES IDX 29 57 35 58 37 59 34 60 30 61 31 62 32 63 33 64 59 65 60 66
REMARK SMILES IDX 68 67 61 68 67 69 69 70 66 71 62 72 63 73 64 74 65 75 44 76
REMARK SMILES IDX 45 77 53 78 46 79 52 80 54 81 51 82 47 83 48 84 49 85 50 86
REMARK H PARENT 10 8 15 20 74 39 42 50
REMARK Flexibility Score: inf
ROOT
ATOM      1  C   UNL A   1      32.543  30.654  26.262  1.00  0.00     0.116 C 
ENDROOT
BRANCH   1   2
ATOM      2  C   UNL A   1      31.575  29.628  26.841  1.00  0.00     0.023 C 
BRANCH   2   3
ATOM      3  C   UNL A   1      32.158  28.278  27.247  1.00  0.00     0.023 C 
BRANCH   3   4
ATOM      4  C   UNL A   1      31.972  27.131  26.262  1.00  0.00     0.116 C 
BRANCH   4   5
ATOM      5  N   UNL A   1      31.335  25.942  26.803  1.00  0.00    -0.352 N 
ATOM      6  C   UNL A   1      31.663  24.615  26.628  1.00  0.00     0.252 C 
ATOM      7  O   UNL A   1      31.057  23.749  27.257  1.00  0.00    -0.269 OA
ATOM      8  H   UNL A   1      30.555  26.109  27.379  1.00  0.00     0.163 HD
BRANCH   6   9
ATOM      9  C   UNL A   1      32.636  24.193  25.593  1.00  0.00     0.055 A 
ATOM     10  C   UNL A   1      32.926  22.604  22.130  1.00  0.00     0.045 C 
ATOM     11  C   UNL A   1      33.275  23.222  23.457  1.00  0.00    -0.035 A 
ATOM     12  C   UNL A   1      34.605  23.157  23.904  1.00  0.00     0.020 A 
ATOM     13  C   UNL A   1      32.311  23.851  24.272  1.00  0.00     0.033 A 
ATOM     14  C   UNL A   1      34.953  23.654  25.157  1.00  0.00     0.019 A 
ATOM     15  Br  UNL A   1      30.651  24.386  23.491  1.00  0.00    -0.050 Br
ATOM     16  Br  UNL A   1      36.764  23.648  25.697  1.00  0.00    -0.051 Br
ATOM     17  C   UNL A   1      33.974  24.136  26.017  1.00  0.00     0.030 A 
ENDBRANCH   6   9
ENDBRANCH   4   5
ENDBRANCH   3   4
ENDBRANCH   2   3
ENDBRANCH   1   2
BRANCH   1  18
ATOM     18  N   UNL A   1      32.465  31.974  26.874  1.00  0.00    -0.352 N 
ATOM     19  C   UNL A   1      33.394  32.655  27.632  1.00  0.00     0.251 C 
ATOM     20  H   UNL A   1      31.618  32.454  26.723  1.00  0.00     0.163 HD
ATOM     21  O   UNL A   1      33.115  33.760  28.091  1.00  0.00    -0.269 OA
BRANCH  19  22
ATOM     22  C   UNL A   1      34.696  32.025  27.947  1.00  0.00     0.039 A 
ATOM     23  C   UNL A   1      34.782  30.664  28.237  1.00  0.00     0.014 A 
ATOM     24  C   UNL A   1      35.835  32.832  28.033  1.00  0.00     0.014 A 
ATOM     25  C   UNL A   1      35.932  30.165  28.841  1.00  0.00     0.010 A 
ATOM     26  C   UNL A   1      37.022  32.302  28.547  1.00  0.00     0.010 A 
ATOM     27  C   UNL A   1      37.057  30.985  29.031  1.00  0.00    -0.014 A 
BRANCH  27  28
ATOM     28  C   UNL A   1      38.234  30.463  29.779  1.00  0.00     0.031 A 
ATOM     29  C   UNL A   1      38.469  30.862  31.216  1.00  0.00     0.074 A 
ATOM     30  C   UNL A   1      39.058  29.577  29.188  1.00  0.00     0.049 A 
ATOM     31  N   UNL A   1      39.432  30.499  32.024  1.00  0.00    -0.248 NA
ATOM     32  C   UNL A   1      37.498  31.787  31.825  1.00  0.00     0.031 C 
ATOM     33  C   UNL A   1      38.919  29.101  27.813  1.00  0.00     0.029 A 
ATOM     34  N   UNL A   1      40.154  28.903  29.667  1.00  0.00    -0.354 N 
ATOM     35  C   UNL A   1      39.199  31.168  33.223  1.00  0.00     0.074 A 
ATOM     36  C   UNL A   1      38.022  31.982  33.029  1.00  0.00     0.031 C 
ATOM     37  C   UNL A   1      39.854  28.171  27.575  1.00  0.00     0.029 A 
ATOM     38  C   UNL A   1      40.711  28.039  28.752  1.00  0.00     0.049 A 
ATOM     39  H   UNL A   1      40.508  29.024  30.577  1.00  0.00     0.167 HD
ATOM     40  C   UNL A   1      39.896  31.094  34.383  1.00  0.00     0.034 A 
ATOM     41  C   UNL A   1      41.796  27.241  28.836  1.00  0.00     0.034 A 
ATOM     42  C   UNL A   1      41.049  30.252  34.576  1.00  0.00     0.049 A 
ATOM     43  C   UNL A   1      42.573  27.203  30.125  1.00  0.00     0.074 A 
ATOM     44  C   UNL A   1      41.805  30.091  35.725  1.00  0.00     0.029 A 
ATOM     45  N   UNL A   1      41.606  29.424  33.612  1.00  0.00    -0.354 N 
ATOM     46  N   UNL A   1      42.325  27.824  31.255  1.00  0.00    -0.248 NA
ATOM     47  C   UNL A   1      43.778  26.364  30.158  1.00  0.00     0.031 C 
ATOM     48  C   UNL A   1      42.849  29.210  35.439  1.00  0.00     0.029 A 
ATOM     49  C   UNL A   1      42.710  28.770  34.133  1.00  0.00     0.049 A 
ATOM     50  H   UNL A   1      41.267  29.318  32.694  1.00  0.00     0.167 HD
ATOM     51  C   UNL A   1      43.334  27.441  32.133  1.00  0.00     0.074 A 
ATOM     52  C   UNL A   1      44.180  26.512  31.414  1.00  0.00     0.031 C 
ATOM     53  C   UNL A   1      43.542  27.833  33.415  1.00  0.00     0.034 A 
BRANCH  40  54
ATOM     54  C   UNL A   1      39.443  31.927  35.557  1.00  0.00     0.023 A 
ATOM     55  C   UNL A   1      38.674  31.343  36.581  1.00  0.00     0.031 A 
ATOM     56  C   UNL A   1      39.654  33.317  35.596  1.00  0.00     0.131 A 
ATOM     57  C   UNL A   1      38.116  32.148  37.582  1.00  0.00     0.055 A 
ATOM     58  C   UNL A   1      39.127  34.111  36.615  1.00  0.00     0.041 A 
ATOM     59  F   UNL A   1      40.382  33.923  34.643  1.00  0.00    -0.206 F 
ATOM     60  C   UNL A   1      38.344  33.529  37.607  1.00  0.00     0.022 A 
BRANCH  57  61
ATOM     61  S   UNL A   1      37.026  31.451  38.852  1.00  0.00     0.124 S 
ATOM     62  O   UNL A   1      35.855  32.319  38.748  1.00  0.00    -0.237 OA
ATOM     63  O   UNL A   1      36.833  30.085  38.373  1.00  0.00    -0.237 OA
ATOM     64  O   UNL A   1      37.791  31.587  40.086  1.00  0.00    -0.744 OA
ENDBRANCH  57  61
ENDBRANCH  40  54
BRANCH  41  65
ATOM     65  C   UNL A   1      42.166  26.397  27.662  1.00  0.00     0.023 A 
ATOM     66  C   UNL A   1      41.671  25.087  27.530  1.00  0.00     0.031 A 
ATOM     67  C   UNL A   1      43.114  26.841  26.727  1.00  0.00     0.131 A 
ATOM     68  C   UNL A   1      42.189  24.240  26.543  1.00  0.00     0.055 A 
ATOM     69  C   UNL A   1      43.571  26.019  25.695  1.00  0.00     0.041 A 
ATOM     70  F   UNL A   1      43.623  28.081  26.815  1.00  0.00    -0.206 F 
ATOM     71  C   UNL A   1      43.125  24.704  25.614  1.00  0.00     0.022 A 
BRANCH  68  72
ATOM     72  S   UNL A   1      41.784  22.471  26.532  1.00  0.00     0.124 S 
ATOM     73  O   UNL A   1      40.335  22.491  26.371  1.00  0.00    -0.237 OA
ATOM     74  O   UNL A   1      42.543  21.999  25.376  1.00  0.00    -0.237 OA
ATOM     75  O   UNL A   1      42.271  21.999  27.825  1.00  0.00    -0.744 OA
ENDBRANCH  68  72
ENDBRANCH  41  65
BRANCH  53  76
ATOM     76  C   UNL A   1      44.731  27.275  34.158  1.00  0.00     0.023 A 
ATOM     77  C   UNL A   1      44.592  26.109  34.936  1.00  0.00     0.031 A 
ATOM     78  C   UNL A   1      45.943  27.983  34.228  1.00  0.00     0.131 A 
ATOM     79  C   UNL A   1      45.632  25.711  35.785  1.00  0.00     0.055 A 
ATOM     80  C   UNL A   1      46.992  27.558  35.043  1.00  0.00     0.041 A 
ATOM     81  F   UNL A   1      46.118  29.106  33.513  1.00  0.00    -0.206 F 
ATOM     82  C   UNL A   1      46.833  26.426  35.838  1.00  0.00     0.022 A 
BRANCH  79  83
ATOM     83  S   UNL A   1      45.432  24.308  36.917  1.00  0.00     0.124 S 
ATOM     84  O   UNL A   1      44.447  24.824  37.866  1.00  0.00    -0.237 OA
ATOM     85  O   UNL A   1      44.948  23.259  36.025  1.00  0.00    -0.237 OA
ATOM     86  O   UNL A   1      46.770  24.101  37.462  1.00  0.00    -0.744 OA
ENDBRANCH  79  83
ENDBRANCH  53  76
ENDBRANCH  27  28
ENDBRANCH  19  22
ENDBRANCH   1  18
TORSDOF 14
ENDMDL
MODEL 2
REMARK VINA RESULT:     -11.8      5.173     10.300
REMARK SMILES Cc1cc(Br)cc(C(=O)NCCCCNC(=O)c2ccc(-c3c4nc(c(-c5cc(S(=O)(=O)[O-])ccc5F)c5ccc([nH]5)c(-c5cc(S(=O)(=O)[O-])ccc5F)c5nc(c(-c6cc(S(=O)(=O)[O-])ccc6F)c6ccc3[nH]6)C=C5)C=C4)cc2)c1Br
REMARK SMILES IDX 14 1 13 2 12 3 11 4 10 5 8 6 9 7 7 9 1 10 2 11 3 12 81 13
REMARK SMILES IDX 4 14 82 15 5 16 6 17 15 18 16 19 17 21 18 22 19 23 80 24
REMARK SMILES IDX 20 25 79 26 21 27 22 28 23 29 73 30 24 31 78 32 72 33 74 34
REMARK SMILES IDX 25 35 77 36 71 37 70 38 26 40 58 41 38 42 57 43 39 44 42 45
REMARK SMILES IDX 56 46 75 47 40 48 41 49 55 51 76 52 43 53 27 54 28 55 36 56
REMARK SMILES IDX 29 57 35 58 37 59 34 60 30 61 31 62 32 63 33 64 59 65 60 66
REMARK SMILES IDX 68 67 61 68 67 69 69 70 66 71 62 72 63 73 64 74 65 75 44 76
REMARK SMILES IDX 45 77 53 78 46 79 52 80 54 81 51 82 47 83 48 84 49 85 50 86
REMARK H PARENT 10 8 15 20 74 39 42 50
REMARK Flexibility Score: inf
ROOT
ATOM      1  C   UNL A   1      37.352  21.053  24.795  1.00  0.00     0.116 C 
ENDROOT
BRANCH   1   2
ATOM      2  C   UNL A   1      35.937  20.575  25.106  1.00  0.00     0.023 C 
BRANCH   2   3
ATOM      3  C   UNL A   1      34.843  21.637  25.153  1.00  0.00     0.023 C 
BRANCH   3   4
ATOM      4  C   UNL A   1      34.897  22.621  26.315  1.00  0.00     0.116 C 
BRANCH   4   5
ATOM      5  N   UNL A   1      33.636  22.841  27.004  1.00  0.00    -0.352 N 
ATOM      6  C   UNL A   1      32.615  23.717  26.706  1.00  0.00     0.252 C 
ATOM      7  O   UNL A   1      31.574  23.684  27.358  1.00  0.00    -0.269 OA
ATOM      8  H   UNL A   1      33.490  22.283  27.800  1.00  0.00     0.163 HD
BRANCH   6   9
ATOM      9  C   UNL A   1      32.795  24.795  25.705  1.00  0.00     0.055 A 
ATOM     10  C   UNL A   1      33.119  25.473  21.958  1.00  0.00     0.045 C 
ATOM     11  C   UNL A   1      33.056  25.666  23.450  1.00  0.00    -0.035 A 
ATOM     12  C   UNL A   1      33.470  26.895  23.990  1.00  0.00     0.020 A 
ATOM     13  C   UNL A   1      32.609  24.653  24.322  1.00  0.00     0.033 A 
ATOM     14  C   UNL A   1      33.493  27.087  25.369  1.00  0.00     0.019 A 
ATOM     15  Br  UNL A   1      31.595  23.200  23.606  1.00  0.00    -0.050 Br
ATOM     16  Br  UNL A   1      33.956  28.779  26.071  1.00  0.00    -0.051 Br
ATOM     17  C   UNL A   1      33.195  26.036  26.228  1.00  0.00     0.030 A 
ENDBRANCH   6   9
ENDBRANCH   4   5
ENDBRANCH   3   4
ENDBRANCH   2   3
ENDBRANCH   1   2
BRANCH   1  18
ATOM     18  N   UNL A   1      38.398  20.081  25.087  1.00  0.00    -0.352 N 
ATOM     19  C   UNL A   1      39.527  20.203  25.867  1.00  0.00     0.251 C 
ATOM     20  H   UNL A   1      38.279  19.201  24.661  1.00  0.00     0.163 HD
ATOM     21  O   UNL A   1      40.312  19.262  25.956  1.00  0.00    -0.269 OA
BRANCH  19  22
ATOM     22  C   UNL A   1      39.827  21.489  26.539  1.00  0.00     0.039 A 
ATOM     23  C   UNL A   1      39.180  22.663  26.158  1.00  0.00     0.014 A 
ATOM     24  C   UNL A   1      40.833  21.527  27.509  1.00  0.00     0.014 A 
ATOM     25  C   UNL A   1      39.698  23.891  26.561  1.00  0.00     0.010 A 
ATOM     26  C   UNL A   1      41.285  22.759  27.990  1.00  0.00     0.010 A 
ATOM     27  C   UNL A   1      40.777  23.955  27.459  1.00  0.00    -0.014 A 
BRANCH  27  28
ATOM     28  C   UNL A   1      41.387  25.272  27.789  1.00  0.00     0.031 A 
ATOM     29  C   UNL A   1      42.780  25.612  27.320  1.00  0.00     0.074 A 
ATOM     30  C   UNL A   1      40.663  26.193  28.455  1.00  0.00     0.049 A 
ATOM     31  N   UNL A   1      43.467  26.711  27.504  1.00  0.00    -0.248 NA
ATOM     32  C   UNL A   1      43.499  24.586  26.544  1.00  0.00     0.031 C 
ATOM     33  C   UNL A   1      39.299  25.987  28.939  1.00  0.00     0.029 A 
ATOM     34  N   UNL A   1      40.956  27.483  28.818  1.00  0.00    -0.354 N 
ATOM     35  C   UNL A   1      44.700  26.502  26.892  1.00  0.00     0.074 A 
ATOM     36  C   UNL A   1      44.681  25.160  26.357  1.00  0.00     0.031 C 
ATOM     37  C   UNL A   1      38.851  27.126  29.483  1.00  0.00     0.029 A 
ATOM     38  C   UNL A   1      39.920  28.122  29.461  1.00  0.00     0.049 A 
ATOM     39  H   UNL A   1      41.822  27.913  28.636  1.00  0.00     0.167 HD
ATOM     40  C   UNL A   1      45.743  27.358  26.774  1.00  0.00     0.034 A 
ATOM     41  C   UNL A   1      39.838  29.361  29.989  1.00  0.00     0.034 A 
ATOM     42  C   UNL A   1      45.738  28.706  27.282  1.00  0.00     0.049 A 
ATOM     43  C   UNL A   1      41.024  30.281  29.876  1.00  0.00     0.074 A 
ATOM     44  C   UNL A   1      46.740  29.657  27.187  1.00  0.00     0.029 A 
ATOM     45  N   UNL A   1      44.686  29.301  27.964  1.00  0.00    -0.354 N 
ATOM     46  N   UNL A   1      42.172  30.073  29.274  1.00  0.00    -0.248 NA
ATOM     47  C   UNL A   1      40.913  31.601  30.512  1.00  0.00     0.031 C 
ATOM     48  C   UNL A   1      46.316  30.805  27.858  1.00  0.00     0.029 A 
ATOM     49  C   UNL A   1      45.025  30.596  28.317  1.00  0.00     0.049 A 
ATOM     50  H   UNL A   1      43.826  28.866  28.167  1.00  0.00     0.167 HD
ATOM     51  C   UNL A   1      42.913  31.238  29.449  1.00  0.00     0.074 A 
ATOM     52  C   UNL A   1      42.074  32.158  30.188  1.00  0.00     0.031 C 
ATOM     53  C   UNL A   1      44.178  31.514  29.041  1.00  0.00     0.034 A 
BRANCH  40  54
ATOM     54  C   UNL A   1      46.989  26.892  26.060  1.00  0.00     0.023 A 
ATOM     55  C   UNL A   1      48.033  26.289  26.786  1.00  0.00     0.031 A 
ATOM     56  C   UNL A   1      47.198  27.163  24.697  1.00  0.00     0.131 A 
ATOM     57  C   UNL A   1      49.251  26.007  26.154  1.00  0.00     0.055 A 
ATOM     58  C   UNL A   1      48.400  26.848  24.062  1.00  0.00     0.041 A 
ATOM     59  F   UNL A   1      46.232  27.736  23.959  1.00  0.00    -0.206 F 
ATOM     60  C   UNL A   1      49.437  26.278  24.794  1.00  0.00     0.022 A 
BRANCH  57  61
ATOM     61  S   UNL A   1      50.659  25.338  27.080  1.00  0.00     0.124 S 
ATOM     62  O   UNL A   1      51.077  26.497  27.866  1.00  0.00    -0.237 OA
ATOM     63  O   UNL A   1      50.038  24.259  27.843  1.00  0.00    -0.237 OA
ATOM     64  O   UNL A   1      51.595  24.921  26.043  1.00  0.00    -0.744 OA
ENDBRANCH  57  61
ENDBRANCH  40  54
BRANCH  41  65
ATOM     65  C   UNL A   1      38.563  29.788  30.636  1.00  0.00     0.023 A 
ATOM     66  C   UNL A   1      37.586  30.494  29.909  1.00  0.00     0.031 A 
ATOM     67  C   UNL A   1      38.358  29.608  32.013  1.00  0.00     0.131 A 
ATOM     68  C   UNL A   1      36.498  31.067  30.577  1.00  0.00     0.055 A 
ATOM     69  C   UNL A   1      37.231  30.115  32.663  1.00  0.00     0.041 A 
ATOM     70  F   UNL A   1      39.265  28.949  32.752  1.00  0.00    -0.206 F 
ATOM     71  C   UNL A   1      36.305  30.868  31.948  1.00  0.00     0.022 A 
BRANCH  68  72
ATOM     72  S   UNL A   1      35.385  32.219  29.721  1.00  0.00     0.124 S 
ATOM     73  O   UNL A   1      36.292  33.302  29.356  1.00  0.00    -0.237 OA
ATOM     74  O   UNL A   1      34.902  31.398  28.614  1.00  0.00    -0.237 OA
ATOM     75  O   UNL A   1      34.384  32.544  30.732  1.00  0.00    -0.744 OA
ENDBRANCH  68  72
ENDBRANCH  41  65
BRANCH  53  76
ATOM     76  C   UNL A   1      44.766  32.863  29.371  1.00  0.00     0.023 A 
ATOM     77  C   UNL A   1      44.695  33.912  28.433  1.00  0.00     0.031 A 
ATOM     78  C   UNL A   1      45.535  33.058  30.531  1.00  0.00     0.131 A 
ATOM     79  C   UNL A   1      45.417  35.091  28.651  1.00  0.00     0.055 A 
ATOM     80  C   UNL A   1      46.217  34.252  30.765  1.00  0.00     0.041 A 
ATOM     81  F   UNL A   1      45.641  32.084  31.449  1.00  0.00    -0.206 F 
ATOM     82  C   UNL A   1      46.172  35.269  29.815  1.00  0.00     0.022 A 
BRANCH  79  83
ATOM     83  S   UNL A   1      45.476  36.399  27.395  1.00  0.00     0.124 S 
ATOM     84  O   UNL A   1      46.134  35.718  26.282  1.00  0.00    -0.237 OA
ATOM     85  O   UNL A   1      44.061  36.698  27.195  1.00  0.00    -0.237 OA
ATOM     86  O   UNL A   1      46.259  37.458  28.026  1.00  0.00    -0.744 OA
ENDBRANCH  79  83
ENDBRANCH  53  76
ENDBRANCH  27  28
ENDBRANCH  19  22
ENDBRANCH   1  18
TORSDOF 14
ENDMDL
MODEL 3
REMARK VINA RESULT:     -11.7      5.170      7.859
REMARK SMILES Cc1cc(Br)cc(C(=O)NCCCCNC(=O)c2ccc(-c3c4nc(c(-c5cc(S(=O)(=O)[O-])ccc5F)c5ccc([nH]5)c(-c5cc(S(=O)(=O)[O-])ccc5F)c5nc(c(-c6cc(S(=O)(=O)[O-])ccc6F)c6ccc3[nH]6)C=C5)C=C4)cc2)c1Br
REMARK SMILES IDX 14 1 13 2 12 3 11 4 10 5 8 6 9 7 7 9 1 10 2 11 3 12 81 13
REMARK SMILES IDX 4 14 82 15 5 16 6 17 15 18 16 19 17 21 18 22 19 23 80 24
REMARK SMILES IDX 20 25 79 26 21 27 22 28 23 29 73 30 24 31 78 32 72 33 74 34
REMARK SMILES IDX 25 35 77 36 71 37 70 38 26 40 58 41 38 42 57 43 39 44 42 45
REMARK SMILES IDX 56 46 75 47 40 48 41 49 55 51 76 52 43 53 27 54 28 55 36 56
REMARK SMILES IDX 29 57 35 58 37 59 34 60 30 61 31 62 32 63 33 64 59 65 60 66
REMARK SMILES IDX 68 67 61 68 67 69 69 70 66 71 62 72 63 73 64 74 65 75 44 76
REMARK SMILES IDX 45 77 53 78 46 79 52 80 54 81 51 82 47 83 48 84 49 85 50 86
REMARK H PARENT 10 8 15 20 74 39 42 50
REMARK Flexibility Score: inf
ROOT
ATOM      1  C   UNL A   1      37.015  21.185  24.855  1.00  0.00     0.116 C 
ENDROOT
BRANCH   1   2
ATOM      2  C   UNL A   1      35.610  20.721  25.225  1.00  0.00     0.023 C 
BRANCH   2   3
ATOM      3  C   UNL A   1      34.529  21.793  25.319  1.00  0.00     0.023 C 
BRANCH   3   4
ATOM      4  C   UNL A   1      34.497  22.619  26.599  1.00  0.00     0.116 C 
BRANCH   4   5
ATOM      5  N   UNL A   1      33.173  22.882  27.137  1.00  0.00    -0.352 N 
ATOM      6  C   UNL A   1      32.229  23.801  26.733  1.00  0.00     0.252 C 
ATOM      7  O   UNL A   1      31.117  23.803  27.257  1.00  0.00    -0.269 OA
ATOM      8  H   UNL A   1      32.912  22.323  27.903  1.00  0.00     0.163 HD
BRANCH   6   9
ATOM      9  C   UNL A   1      32.567  24.881  25.776  1.00  0.00     0.055 A 
ATOM     10  C   UNL A   1      33.169  25.614  22.074  1.00  0.00     0.045 C 
ATOM     11  C   UNL A   1      33.039  25.776  23.565  1.00  0.00    -0.035 A 
ATOM     12  C   UNL A   1      33.535  26.946  24.163  1.00  0.00     0.020 A 
ATOM     13  C   UNL A   1      32.448  24.790  24.381  1.00  0.00     0.033 A 
ATOM     14  C   UNL A   1      33.497  27.102  25.546  1.00  0.00     0.019 A 
ATOM     15  Br  UNL A   1      31.345  23.458  23.568  1.00  0.00    -0.050 Br
ATOM     16  Br  UNL A   1      34.076  28.724  26.323  1.00  0.00    -0.051 Br
ATOM     17  C   UNL A   1      33.052  26.065  26.356  1.00  0.00     0.030 A 
ENDBRANCH   6   9
ENDBRANCH   4   5
ENDBRANCH   3   4
ENDBRANCH   2   3
ENDBRANCH   1   2
BRANCH   1  18
ATOM     18  N   UNL A   1      38.059  20.193  25.077  1.00  0.00    -0.352 N 
ATOM     19  C   UNL A   1      39.244  20.296  25.775  1.00  0.00     0.251 C 
ATOM     20  H   UNL A   1      37.893  19.314  24.666  1.00  0.00     0.163 HD
ATOM     21  O   UNL A   1      40.014  19.340  25.813  1.00  0.00    -0.269 OA
BRANCH  19  22
ATOM     22  C   UNL A   1      39.615  21.578  26.417  1.00  0.00     0.039 A 
ATOM     23  C   UNL A   1      38.922  22.752  26.125  1.00  0.00     0.014 A 
ATOM     24  C   UNL A   1      40.729  21.614  27.261  1.00  0.00     0.014 A 
ATOM     25  C   UNL A   1      39.480  23.979  26.473  1.00  0.00     0.010 A 
ATOM     26  C   UNL A   1      41.230  22.846  27.695  1.00  0.00     0.010 A 
ATOM     27  C   UNL A   1      40.657  24.042  27.238  1.00  0.00    -0.014 A 
BRANCH  27  28
ATOM     28  C   UNL A   1      41.297  25.361  27.503  1.00  0.00     0.031 A 
ATOM     29  C   UNL A   1      40.573  26.418  28.298  1.00  0.00     0.074 A 
ATOM     30  C   UNL A   1      42.557  25.585  27.084  1.00  0.00     0.049 A 
ATOM     31  N   UNL A   1      40.976  27.617  28.634  1.00  0.00    -0.248 NA
ATOM     32  C   UNL A   1      39.220  26.091  28.781  1.00  0.00     0.031 C 
ATOM     33  C   UNL A   1      43.364  24.630  26.325  1.00  0.00     0.029 A 
ATOM     34  N   UNL A   1      43.387  26.665  27.252  1.00  0.00    -0.354 N 
ATOM     35  C   UNL A   1      39.925  28.194  29.341  1.00  0.00     0.074 A 
ATOM     36  C   UNL A   1      38.852  27.226  29.361  1.00  0.00     0.031 C 
ATOM     37  C   UNL A   1      44.590  25.139  26.144  1.00  0.00     0.029 A 
ATOM     38  C   UNL A   1      44.636  26.490  26.701  1.00  0.00     0.049 A 
ATOM     39  H   UNL A   1      43.117  27.486  27.722  1.00  0.00     0.167 HD
ATOM     40  C   UNL A   1      39.868  29.411  29.933  1.00  0.00     0.034 A 
ATOM     41  C   UNL A   1      45.697  27.322  26.633  1.00  0.00     0.034 A 
ATOM     42  C   UNL A   1      40.957  30.355  29.936  1.00  0.00     0.049 A 
ATOM     43  C   UNL A   1      45.596  28.683  27.268  1.00  0.00     0.074 A 
ATOM     44  C   UNL A   1      41.002  31.603  30.531  1.00  0.00     0.029 A 
ATOM     45  N   UNL A   1      42.190  30.157  29.330  1.00  0.00    -0.354 N 
ATOM     46  N   UNL A   1      44.602  29.201  27.952  1.00  0.00    -0.248 NA
ATOM     47  C   UNL A   1      46.752  29.578  27.124  1.00  0.00     0.031 C 
ATOM     48  C   UNL A   1      42.238  32.181  30.240  1.00  0.00     0.029 A 
ATOM     49  C   UNL A   1      42.992  31.270  29.518  1.00  0.00     0.049 A 
ATOM     50  H   UNL A   1      42.455  29.345  28.840  1.00  0.00     0.167 HD
ATOM     51  C   UNL A   1      45.018  30.474  28.328  1.00  0.00     0.074 A 
ATOM     52  C   UNL A   1      46.365  30.638  27.822  1.00  0.00     0.031 C 
ATOM     53  C   UNL A   1      44.340  31.422  29.023  1.00  0.00     0.034 A 
BRANCH  40  54
ATOM     54  C   UNL A   1      38.601  29.814  30.646  1.00  0.00     0.023 A 
ATOM     55  C   UNL A   1      37.651  30.622  29.993  1.00  0.00     0.031 A 
ATOM     56  C   UNL A   1      38.397  29.515  32.005  1.00  0.00     0.131 A 
ATOM     57  C   UNL A   1      36.558  31.130  30.707  1.00  0.00     0.055 A 
ATOM     58  C   UNL A   1      37.287  29.994  32.703  1.00  0.00     0.041 A 
ATOM     59  F   UNL A   1      39.274  28.747  32.674  1.00  0.00    -0.206 F 
ATOM     60  C   UNL A   1      36.369  30.815  32.057  1.00  0.00     0.022 A 
BRANCH  57  61
ATOM     61  S   UNL A   1      35.375  32.267  29.933  1.00  0.00     0.124 S 
ATOM     62  O   UNL A   1      34.868  31.460  28.826  1.00  0.00    -0.237 OA
ATOM     63  O   UNL A   1      34.426  32.505  31.017  1.00  0.00    -0.237 OA
ATOM     64  O   UNL A   1      36.191  33.411  29.544  1.00  0.00    -0.744 OA
ENDBRANCH  57  61
ENDBRANCH  40  54
BRANCH  41  65
ATOM     65  C   UNL A   1      46.943  26.850  25.962  1.00  0.00     0.023 A 
ATOM     66  C   UNL A   1      47.943  26.177  26.688  1.00  0.00     0.031 A 
ATOM     67  C   UNL A   1      47.207  27.174  24.622  1.00  0.00     0.131 A 
ATOM     68  C   UNL A   1      49.188  25.930  26.098  1.00  0.00     0.055 A 
ATOM     69  C   UNL A   1      48.422  26.856  24.013  1.00  0.00     0.041 A 
ATOM     70  F   UNL A   1      46.288  27.824  23.890  1.00  0.00    -0.206 F 
ATOM     71  C   UNL A   1      49.429  26.251  24.759  1.00  0.00     0.022 A 
BRANCH  68  72
ATOM     72  S   UNL A   1      50.584  25.329  27.092  1.00  0.00     0.124 S 
ATOM     73  O   UNL A   1      49.961  24.274  27.884  1.00  0.00    -0.237 OA
ATOM     74  O   UNL A   1      51.514  24.881  26.060  1.00  0.00    -0.237 OA
ATOM     75  O   UNL A   1      51.009  26.511  27.836  1.00  0.00    -0.744 OA
ENDBRANCH  68  72
ENDBRANCH  41  65
BRANCH  53  76
ATOM     76  C   UNL A   1      45.017  32.742  29.295  1.00  0.00     0.023 A 
ATOM     77  C   UNL A   1      44.934  33.785  28.352  1.00  0.00     0.031 A 
ATOM     78  C   UNL A   1      45.872  32.907  30.398  1.00  0.00     0.131 A 
ATOM     79  C   UNL A   1      45.728  34.928  28.506  1.00  0.00     0.055 A 
ATOM     80  C   UNL A   1      46.629  34.067  30.570  1.00  0.00     0.041 A 
ATOM     81  F   UNL A   1      45.992  31.936  31.318  1.00  0.00    -0.206 F 
ATOM     82  C   UNL A   1      46.570  35.077  29.613  1.00  0.00     0.022 A 
BRANCH  79  83
ATOM     83  S   UNL A   1      45.767  36.220  27.234  1.00  0.00     0.124 S 
ATOM     84  O   UNL A   1      46.643  37.218  27.844  1.00  0.00    -0.237 OA
ATOM     85  O   UNL A   1      46.333  35.509  26.091  1.00  0.00    -0.237 OA
ATOM     86  O   UNL A   1      44.371  36.621  27.095  1.00  0.00    -0.744 OA
ENDBRANCH  79  83
ENDBRANCH  53  76
ENDBRANCH  27  28
ENDBRANCH  19  22
ENDBRANCH   1  18
TORSDOF 14
ENDMDL
