MODEL 1
REMARK VINA RESULT:     -11.3      0.000      0.000
REMARK SMILES C[C@H](NC(=O)c1ccncc1/C=C/C(=O)NCCCCNC(=O)c1ccc(-c2c3nc(c(-c4cc(S(=O)(=O)[O-])ccc4F)c4ccc([nH]4)c(-c4cc(S(=O)(=O)[O-])ccc4F)c4nc(c(-c5cc(S(=O)(=O)[O-])ccc5F)c5ccc2[nH]5)C=C4)C=C3)cc1)c1ccco1
REMARK SMILES IDX 18 1 17 2 16 3 14 4 15 5 13 7 12 8 11 9 6 10 7 11 8 12 10 13
REMARK SMILES IDX 9 14 4 15 3 16 5 18 2 19 1 20 87 21 88 22 91 23 89 24 90 25
REMARK SMILES IDX 19 26 20 27 21 28 22 29 23 31 24 32 25 33 86 34 26 35 85 36
REMARK SMILES IDX 27 37 28 38 29 39 79 40 30 41 84 42 78 43 80 44 31 45 83 46
REMARK SMILES IDX 77 47 76 48 32 50 64 51 44 52 63 53 45 54 48 55 62 56 81 57
REMARK SMILES IDX 46 58 47 59 61 61 82 62 49 63 33 64 34 65 42 66 35 67 41 68
REMARK SMILES IDX 43 69 40 70 36 71 37 72 38 73 39 74 65 75 66 76 74 77 67 78
REMARK SMILES IDX 73 79 75 80 72 81 68 82 69 83 70 84 71 85 50 86 51 87 59 88
REMARK SMILES IDX 52 89 58 90 60 91 57 92 53 93 54 94 55 95 56 96
REMARK H PARENT 16 6 3 17 21 30 80 49 48 60
REMARK Flexibility Score: inf
ROOT
ATOM      1  C   UNL A   1      34.528  31.077  27.932  1.00  0.00     0.023 C 
ENDROOT
BRANCH   1   2
ATOM      2  C   UNL A   1      34.093  29.848  27.134  1.00  0.00     0.116 C 
BRANCH   2   3
ATOM      3  N   UNL A   1      32.965  29.199  27.778  1.00  0.00    -0.353 N 
ATOM      4  C   UNL A   1      32.039  28.348  27.267  1.00  0.00     0.244 C 
ATOM      5  O   UNL A   1      31.177  27.860  27.995  1.00  0.00    -0.270 OA
ATOM      6  H   UNL A   1      32.856  29.408  28.735  1.00  0.00     0.163 HD
BRANCH   4   7
ATOM      7  C   UNL A   1      32.111  27.912  25.854  1.00  0.00     0.072 C 
ATOM      8  C   UNL A   1      32.703  26.791  25.410  1.00  0.00     0.016 C 
BRANCH   8   9
ATOM      9  C   UNL A   1      32.713  26.416  23.989  1.00  0.00     0.006 A 
ATOM     10  C   UNL A   1      31.790  25.532  23.412  1.00  0.00     0.050 A 
ATOM     11  C   UNL A   1      31.816  25.273  22.036  1.00  0.00     0.034 A 
ATOM     12  C   UNL A   1      32.826  25.838  21.286  1.00  0.00     0.112 A 
ATOM     13  C   UNL A   1      33.694  26.909  23.131  1.00  0.00     0.119 A 
ATOM     14  N   UNL A   1      33.780  26.633  21.806  1.00  0.00    -0.264 NA
BRANCH  10  15
ATOM     15  C   UNL A   1      30.722  24.883  24.203  1.00  0.00     0.252 C 
ATOM     16  N   UNL A   1      30.994  23.703  24.849  1.00  0.00    -0.342 N 
ATOM     17  H   UNL A   1      30.211  23.211  25.186  1.00  0.00     0.164 HD
ATOM     18  O   UNL A   1      29.609  25.392  24.260  1.00  0.00    -0.269 OA
BRANCH  16  19
ATOM     19  C   UNL A   1      32.288  23.082  25.103  1.00  0.00     0.145 C 
ATOM     20  C   UNL A   1      32.574  23.019  26.599  1.00  0.00     0.039 C 
BRANCH  19  21
ATOM     21  C   UNL A   1      32.301  21.725  24.483  1.00  0.00     0.125 A 
ATOM     22  C   UNL A   1      32.188  21.287  23.178  1.00  0.00     0.048 A 
ATOM     23  O   UNL A   1      32.470  20.657  25.316  1.00  0.00    -0.467 OA
ATOM     24  C   UNL A   1      32.312  19.877  23.216  1.00  0.00     0.042 A 
ATOM     25  C   UNL A   1      32.479  19.544  24.539  1.00  0.00     0.195 A 
ENDBRANCH  19  21
ENDBRANCH  16  19
ENDBRANCH  10  15
ENDBRANCH   8   9
ENDBRANCH   4   7
ENDBRANCH   2   3
ENDBRANCH   1   2
BRANCH   1  26
ATOM     26  C   UNL A   1      34.094  32.408  27.310  1.00  0.00     0.023 C 
BRANCH  26  27
ATOM     27  C   UNL A   1      32.727  32.908  27.762  1.00  0.00     0.116 C 
BRANCH  27  28
ATOM     28  N   UNL A   1      32.703  34.337  28.018  1.00  0.00    -0.352 N 
ATOM     29  C   UNL A   1      33.468  35.066  28.899  1.00  0.00     0.251 C 
ATOM     30  H   UNL A   1      32.051  34.854  27.492  1.00  0.00     0.163 HD
ATOM     31  O   UNL A   1      33.212  36.243  29.098  1.00  0.00    -0.269 OA
BRANCH  29  32
ATOM     32  C   UNL A   1      34.574  34.401  29.625  1.00  0.00     0.039 A 
ATOM     33  C   UNL A   1      34.268  33.617  30.740  1.00  0.00     0.014 A 
ATOM     34  C   UNL A   1      35.902  34.554  29.217  1.00  0.00     0.014 A 
ATOM     35  C   UNL A   1      35.293  32.963  31.424  1.00  0.00     0.010 A 
ATOM     36  C   UNL A   1      36.911  33.833  29.847  1.00  0.00     0.010 A 
ATOM     37  C   UNL A   1      36.620  33.050  30.974  1.00  0.00    -0.014 A 
BRANCH  37  38
ATOM     38  C   UNL A   1      37.721  32.376  31.710  1.00  0.00     0.031 A 
ATOM     39  C   UNL A   1      38.456  31.228  31.073  1.00  0.00     0.074 A 
ATOM     40  C   UNL A   1      38.035  32.775  32.958  1.00  0.00     0.049 A 
ATOM     41  N   UNL A   1      39.429  30.496  31.552  1.00  0.00    -0.248 NA
ATOM     42  C   UNL A   1      38.007  30.825  29.732  1.00  0.00     0.031 C 
ATOM     43  C   UNL A   1      37.353  33.837  33.702  1.00  0.00     0.029 A 
ATOM     44  N   UNL A   1      39.007  32.335  33.820  1.00  0.00    -0.354 N 
ATOM     45  C   UNL A   1      39.704  29.547  30.573  1.00  0.00     0.074 A 
ATOM     46  C   UNL A   1      38.732  29.740  29.520  1.00  0.00     0.031 C 
ATOM     47  C   UNL A   1      37.946  33.983  34.898  1.00  0.00     0.029 A 
ATOM     48  C   UNL A   1      39.024  33.008  35.020  1.00  0.00     0.049 A 
ATOM     49  H   UNL A   1      39.631  31.607  33.602  1.00  0.00     0.167 HD
ATOM     50  C   UNL A   1      40.700  28.624  30.537  1.00  0.00     0.034 A 
ATOM     51  C   UNL A   1      39.821  32.855  36.096  1.00  0.00     0.034 A 
ATOM     52  C   UNL A   1      41.659  28.447  31.601  1.00  0.00     0.049 A 
ATOM     53  C   UNL A   1      40.924  31.829  36.039  1.00  0.00     0.074 A 
ATOM     54  C   UNL A   1      42.724  27.566  31.669  1.00  0.00     0.029 A 
ATOM     55  N   UNL A   1      41.666  29.168  32.790  1.00  0.00    -0.354 N 
ATOM     56  N   UNL A   1      41.209  30.971  35.085  1.00  0.00    -0.248 NA
ATOM     57  C   UNL A   1      41.830  31.771  37.192  1.00  0.00     0.031 C 
ATOM     58  C   UNL A   1      43.334  27.709  32.922  1.00  0.00     0.029 A 
ATOM     59  C   UNL A   1      42.704  28.739  33.604  1.00  0.00     0.049 A 
ATOM     60  H   UNL A   1      41.026  29.879  33.021  1.00  0.00     0.167 HD
ATOM     61  C   UNL A   1      42.348  30.294  35.511  1.00  0.00     0.074 A 
ATOM     62  C   UNL A   1      42.705  30.857  36.798  1.00  0.00     0.031 C 
ATOM     63  C   UNL A   1      43.042  29.303  34.893  1.00  0.00     0.034 A 
BRANCH  50  64
ATOM     64  C   UNL A   1      40.769  27.737  29.313  1.00  0.00     0.023 A 
ATOM     65  C   UNL A   1      41.716  27.963  28.294  1.00  0.00     0.031 A 
ATOM     66  C   UNL A   1      39.839  26.702  29.119  1.00  0.00     0.131 A 
ATOM     67  C   UNL A   1      41.641  27.244  27.091  1.00  0.00     0.055 A 
ATOM     68  C   UNL A   1      39.835  25.920  27.960  1.00  0.00     0.041 A 
ATOM     69  F   UNL A   1      38.898  26.446  30.041  1.00  0.00    -0.206 F 
ATOM     70  C   UNL A   1      40.724  26.205  26.928  1.00  0.00     0.022 A 
BRANCH  67  71
ATOM     71  S   UNL A   1      42.628  27.818  25.681  1.00  0.00     0.124 S 
ATOM     72  O   UNL A   1      42.627  26.637  24.821  1.00  0.00    -0.237 OA
ATOM     73  O   UNL A   1      41.859  28.960  25.200  1.00  0.00    -0.237 OA
ATOM     74  O   UNL A   1      43.922  28.142  26.278  1.00  0.00    -0.744 OA
ENDBRANCH  67  71
ENDBRANCH  50  64
BRANCH  51  75
ATOM     75  C   UNL A   1      39.611  33.696  37.308  1.00  0.00     0.023 A 
ATOM     76  C   UNL A   1      38.934  33.201  38.433  1.00  0.00     0.031 A 
ATOM     77  C   UNL A   1      40.078  35.022  37.349  1.00  0.00     0.131 A 
ATOM     78  C   UNL A   1      38.707  34.040  39.538  1.00  0.00     0.055 A 
ATOM     79  C   UNL A   1      39.895  35.836  38.468  1.00  0.00     0.041 A 
ATOM     80  F   UNL A   1      40.742  35.541  36.303  1.00  0.00    -0.206 F 
ATOM     81  C   UNL A   1      39.194  35.349  39.568  1.00  0.00     0.022 A 
BRANCH  78  82
ATOM     82  S   UNL A   1      37.707  33.413  40.915  1.00  0.00     0.124 S 
ATOM     83  O   UNL A   1      37.058  34.630  41.389  1.00  0.00    -0.237 OA
ATOM     84  O   UNL A   1      36.846  32.443  40.248  1.00  0.00    -0.237 OA
ATOM     85  O   UNL A   1      38.700  32.840  41.823  1.00  0.00    -0.744 OA
ENDBRANCH  78  82
ENDBRANCH  51  75
BRANCH  63  86
ATOM     86  C   UNL A   1      44.290  28.805  35.584  1.00  0.00     0.023 A 
ATOM     87  C   UNL A   1      44.247  27.789  36.556  1.00  0.00     0.031 A 
ATOM     88  C   UNL A   1      45.538  29.379  35.283  1.00  0.00     0.131 A 
ATOM     89  C   UNL A   1      45.417  27.430  37.243  1.00  0.00     0.055 A 
ATOM     90  C   UNL A   1      46.710  28.969  35.920  1.00  0.00     0.041 A 
ATOM     91  F   UNL A   1      45.639  30.354  34.366  1.00  0.00    -0.206 F 
ATOM     92  C   UNL A   1      46.651  28.002  36.919  1.00  0.00     0.022 A 
BRANCH  89  93
ATOM     93  S   UNL A   1      45.286  26.297  38.654  1.00  0.00     0.124 S 
ATOM     94  O   UNL A   1      46.440  26.684  39.461  1.00  0.00    -0.237 OA
ATOM     95  O   UNL A   1      43.979  26.638  39.206  1.00  0.00    -0.237 OA
ATOM     96  O   UNL A   1      45.375  24.973  38.040  1.00  0.00    -0.744 OA
ENDBRANCH  89  93
ENDBRANCH  63  86
ENDBRANCH  37  38
ENDBRANCH  29  32
ENDBRANCH  27  28
ENDBRANCH  26  27
ENDBRANCH   1  26
TORSDOF 18
ENDMDL
MODEL 2
REMARK VINA RESULT:     -11.3      2.352      7.994
REMARK SMILES C[C@H](NC(=O)c1ccncc1/C=C/C(=O)NCCCCNC(=O)c1ccc(-c2c3nc(c(-c4cc(S(=O)(=O)[O-])ccc4F)c4ccc([nH]4)c(-c4cc(S(=O)(=O)[O-])ccc4F)c4nc(c(-c5cc(S(=O)(=O)[O-])ccc5F)c5ccc2[nH]5)C=C4)C=C3)cc1)c1ccco1
REMARK SMILES IDX 18 1 17 2 16 3 14 4 15 5 13 7 12 8 11 9 6 10 7 11 8 12 10 13
REMARK SMILES IDX 9 14 4 15 3 16 5 18 2 19 1 20 87 21 88 22 91 23 89 24 90 25
REMARK SMILES IDX 19 26 20 27 21 28 22 29 23 31 24 32 25 33 86 34 26 35 85 36
REMARK SMILES IDX 27 37 28 38 29 39 79 40 30 41 84 42 78 43 80 44 31 45 83 46
REMARK SMILES IDX 77 47 76 48 32 50 64 51 44 52 63 53 45 54 48 55 62 56 81 57
REMARK SMILES IDX 46 58 47 59 61 61 82 62 49 63 33 64 34 65 42 66 35 67 41 68
REMARK SMILES IDX 43 69 40 70 36 71 37 72 38 73 39 74 65 75 66 76 74 77 67 78
REMARK SMILES IDX 73 79 75 80 72 81 68 82 69 83 70 84 71 85 50 86 51 87 59 88
REMARK SMILES IDX 52 89 58 90 60 91 57 92 53 93 54 94 55 95 56 96
REMARK H PARENT 16 6 3 17 21 30 80 49 48 60
REMARK Flexibility Score: inf
ROOT
ATOM      1  C   UNL A   1      33.582  28.829  25.814  1.00  0.00     0.023 C 
ENDROOT
BRANCH   1   2
ATOM      2  C   UNL A   1      33.338  27.877  26.986  1.00  0.00     0.116 C 
BRANCH   2   3
ATOM      3  N   UNL A   1      32.091  27.157  26.802  1.00  0.00    -0.353 N 
ATOM      4  C   UNL A   1      31.874  25.874  26.415  1.00  0.00     0.244 C 
ATOM      5  O   UNL A   1      30.730  25.427  26.364  1.00  0.00    -0.270 OA
ATOM      6  H   UNL A   1      31.277  27.679  26.987  1.00  0.00     0.163 HD
BRANCH   4   7
ATOM      7  C   UNL A   1      33.010  24.961  26.150  1.00  0.00     0.072 C 
ATOM      8  C   UNL A   1      33.897  25.088  25.150  1.00  0.00     0.016 C 
BRANCH   8   9
ATOM      9  C   UNL A   1      35.014  24.149  24.965  1.00  0.00     0.006 A 
ATOM     10  C   UNL A   1      35.024  23.133  23.998  1.00  0.00     0.050 A 
ATOM     11  C   UNL A   1      36.151  22.319  23.833  1.00  0.00     0.034 A 
ATOM     12  C   UNL A   1      37.208  22.484  24.704  1.00  0.00     0.112 A 
ATOM     13  C   UNL A   1      36.133  24.205  25.794  1.00  0.00     0.119 A 
ATOM     14  N   UNL A   1      37.215  23.395  25.695  1.00  0.00    -0.264 NA
BRANCH  10  15
ATOM     15  C   UNL A   1      33.887  22.911  23.080  1.00  0.00     0.252 C 
ATOM     16  N   UNL A   1      32.898  22.031  23.443  1.00  0.00    -0.342 N 
ATOM     17  H   UNL A   1      32.280  21.763  22.725  1.00  0.00     0.164 HD
ATOM     18  O   UNL A   1      33.847  23.496  22.004  1.00  0.00    -0.269 OA
BRANCH  16  19
ATOM     19  C   UNL A   1      32.641  21.440  24.750  1.00  0.00     0.145 C 
ATOM     20  C   UNL A   1      31.328  21.955  25.329  1.00  0.00     0.039 C 
BRANCH  19  21
ATOM     21  C   UNL A   1      32.637  19.953  24.615  1.00  0.00     0.125 A 
ATOM     22  C   UNL A   1      32.487  19.109  23.533  1.00  0.00     0.048 A 
ATOM     23  O   UNL A   1      32.831  19.221  25.750  1.00  0.00    -0.467 OA
ATOM     24  C   UNL A   1      32.612  17.791  24.032  1.00  0.00     0.042 A 
ATOM     25  C   UNL A   1      32.818  17.913  25.386  1.00  0.00     0.195 A 
ENDBRANCH  19  21
ENDBRANCH  16  19
ENDBRANCH  10  15
ENDBRANCH   8   9
ENDBRANCH   4   7
ENDBRANCH   2   3
ENDBRANCH   1   2
BRANCH   1  26
ATOM     26  C   UNL A   1      33.814  30.284  26.232  1.00  0.00     0.023 C 
BRANCH  26  27
ATOM     27  C   UNL A   1      32.798  30.832  27.227  1.00  0.00     0.116 C 
BRANCH  27  28
ATOM     28  N   UNL A   1      32.800  32.282  27.299  1.00  0.00    -0.352 N 
ATOM     29  C   UNL A   1      33.700  33.110  27.929  1.00  0.00     0.251 C 
ATOM     30  H   UNL A   1      32.059  32.733  26.835  1.00  0.00     0.163 HD
ATOM     31  O   UNL A   1      33.467  34.306  28.018  1.00  0.00    -0.269 OA
BRANCH  29  32
ATOM     32  C   UNL A   1      34.926  32.533  28.526  1.00  0.00     0.039 A 
ATOM     33  C   UNL A   1      34.794  31.523  29.482  1.00  0.00     0.014 A 
ATOM     34  C   UNL A   1      36.194  32.989  28.156  1.00  0.00     0.014 A 
ATOM     35  C   UNL A   1      35.938  30.949  30.040  1.00  0.00     0.010 A 
ATOM     36  C   UNL A   1      37.331  32.357  28.648  1.00  0.00     0.010 A 
ATOM     37  C   UNL A   1      37.215  31.348  29.615  1.00  0.00    -0.014 A 
BRANCH  37  38
ATOM     38  C   UNL A   1      38.437  30.760  30.221  1.00  0.00     0.031 A 
ATOM     39  C   UNL A   1      38.850  31.160  31.612  1.00  0.00     0.074 A 
ATOM     40  C   UNL A   1      39.189  29.895  29.513  1.00  0.00     0.049 A 
ATOM     41  N   UNL A   1      39.888  30.780  32.313  1.00  0.00    -0.248 NA
ATOM     42  C   UNL A   1      38.000  32.151  32.289  1.00  0.00     0.031 C 
ATOM     43  C   UNL A   1      38.922  29.479  28.134  1.00  0.00     0.029 A 
ATOM     44  N   UNL A   1      40.328  29.212  29.852  1.00  0.00    -0.354 N 
ATOM     45  C   UNL A   1      39.816  31.488  33.508  1.00  0.00     0.074 A 
ATOM     46  C   UNL A   1      38.689  32.386  33.394  1.00  0.00     0.031 C 
ATOM     47  C   UNL A   1      39.856  28.591  27.756  1.00  0.00     0.029 A 
ATOM     48  C   UNL A   1      40.805  28.401  28.848  1.00  0.00     0.049 A 
ATOM     49  H   UNL A   1      40.765  29.295  30.730  1.00  0.00     0.167 HD
ATOM     50  C   UNL A   1      40.595  31.373  34.615  1.00  0.00     0.034 A 
ATOM     51  C   UNL A   1      41.884  27.595  28.815  1.00  0.00     0.034 A 
ATOM     52  C   UNL A   1      41.717  30.470  34.707  1.00  0.00     0.049 A 
ATOM     53  C   UNL A   1      42.737  27.476  30.052  1.00  0.00     0.074 A 
ATOM     54  C   UNL A   1      42.564  30.247  35.778  1.00  0.00     0.029 A 
ATOM     55  N   UNL A   1      42.153  29.640  33.681  1.00  0.00    -0.354 N 
ATOM     56  N   UNL A   1      42.629  28.112  31.197  1.00  0.00    -0.248 NA
ATOM     57  C   UNL A   1      43.838  26.508  30.002  1.00  0.00     0.031 C 
ATOM     58  C   UNL A   1      43.546  29.332  35.381  1.00  0.00     0.029 A 
ATOM     59  C   UNL A   1      43.265  28.918  34.088  1.00  0.00     0.049 A 
ATOM     60  H   UNL A   1      41.734  29.574  32.792  1.00  0.00     0.167 HD
ATOM     61  C   UNL A   1      43.630  27.595  32.015  1.00  0.00     0.074 A 
ATOM     62  C   UNL A   1      44.318  26.585  31.235  1.00  0.00     0.031 C 
ATOM     63  C   UNL A   1      43.949  27.920  33.294  1.00  0.00     0.034 A 
BRANCH  50  64
ATOM     64  C   UNL A   1      40.254  32.265  35.789  1.00  0.00     0.023 A 
ATOM     65  C   UNL A   1      39.277  31.895  36.734  1.00  0.00     0.031 A 
ATOM     66  C   UNL A   1      40.853  33.528  35.931  1.00  0.00     0.131 A 
ATOM     67  C   UNL A   1      38.852  32.815  37.704  1.00  0.00     0.055 A 
ATOM     68  C   UNL A   1      40.497  34.402  36.963  1.00  0.00     0.041 A 
ATOM     69  F   UNL A   1      41.776  33.952  35.054  1.00  0.00    -0.206 F 
ATOM     70  C   UNL A   1      39.475  34.057  37.843  1.00  0.00     0.022 A 
BRANCH  67  71
ATOM     71  S   UNL A   1      37.351  32.439  38.649  1.00  0.00     0.124 S 
ATOM     72  O   UNL A   1      37.267  30.987  38.504  1.00  0.00    -0.237 OA
ATOM     73  O   UNL A   1      37.683  32.929  39.982  1.00  0.00    -0.237 OA
ATOM     74  O   UNL A   1      36.308  33.187  37.950  1.00  0.00    -0.744 OA
ENDBRANCH  67  71
ENDBRANCH  50  64
BRANCH  51  75
ATOM     75  C   UNL A   1      42.212  26.835  27.575  1.00  0.00     0.023 A 
ATOM     76  C   UNL A   1      41.943  25.462  27.467  1.00  0.00     0.031 A 
ATOM     77  C   UNL A   1      42.817  27.478  26.480  1.00  0.00     0.131 A 
ATOM     78  C   UNL A   1      42.314  24.767  26.304  1.00  0.00     0.055 A 
ATOM     79  C   UNL A   1      43.138  26.793  25.307  1.00  0.00     0.041 A 
ATOM     80  F   UNL A   1      43.086  28.793  26.528  1.00  0.00    -0.206 F 
ATOM     81  C   UNL A   1      42.897  25.425  25.219  1.00  0.00     0.022 A 
BRANCH  78  82
ATOM     82  S   UNL A   1      42.081  22.969  26.254  1.00  0.00     0.124 S 
ATOM     83  O   UNL A   1      40.632  22.853  26.375  1.00  0.00    -0.237 OA
ATOM     84  O   UNL A   1      42.646  22.625  24.954  1.00  0.00    -0.237 OA
ATOM     85  O   UNL A   1      42.844  22.494  27.407  1.00  0.00    -0.744 OA
ENDBRANCH  78  82
ENDBRANCH  51  75
BRANCH  63  86
ATOM     86  C   UNL A   1      45.062  27.131  33.945  1.00  0.00     0.023 A 
ATOM     87  C   UNL A   1      44.804  26.021  34.769  1.00  0.00     0.031 A 
ATOM     88  C   UNL A   1      46.401  27.518  33.759  1.00  0.00     0.131 A 
ATOM     89  C   UNL A   1      45.862  25.382  35.433  1.00  0.00     0.055 A 
ATOM     90  C   UNL A   1      47.456  26.835  34.366  1.00  0.00     0.041 A 
ATOM     91  F   UNL A   1      46.707  28.571  32.987  1.00  0.00    -0.206 F 
ATOM     92  C   UNL A   1      47.188  25.771  35.223  1.00  0.00     0.022 A 
BRANCH  89  93
ATOM     93  S   UNL A   1      45.475  24.115  36.672  1.00  0.00     0.124 S 
ATOM     94  O   UNL A   1      46.469  24.389  37.706  1.00  0.00    -0.237 OA
ATOM     95  O   UNL A   1      44.093  24.430  37.017  1.00  0.00    -0.237 OA
ATOM     96  O   UNL A   1      45.664  22.859  35.949  1.00  0.00    -0.744 OA
ENDBRANCH  89  93
ENDBRANCH  63  86
ENDBRANCH  37  38
ENDBRANCH  29  32
ENDBRANCH  27  28
ENDBRANCH  26  27
ENDBRANCH   1  26
TORSDOF 18
ENDMDL
MODEL 3
REMARK VINA RESULT:     -10.9      8.642     15.340
REMARK SMILES C[C@H](NC(=O)c1ccncc1/C=C/C(=O)NCCCCNC(=O)c1ccc(-c2c3nc(c(-c4cc(S(=O)(=O)[O-])ccc4F)c4ccc([nH]4)c(-c4cc(S(=O)(=O)[O-])ccc4F)c4nc(c(-c5cc(S(=O)(=O)[O-])ccc5F)c5ccc2[nH]5)C=C4)C=C3)cc1)c1ccco1
REMARK SMILES IDX 18 1 17 2 16 3 14 4 15 5 13 7 12 8 11 9 6 10 7 11 8 12 10 13
REMARK SMILES IDX 9 14 4 15 3 16 5 18 2 19 1 20 87 21 88 22 91 23 89 24 90 25
REMARK SMILES IDX 19 26 20 27 21 28 22 29 23 31 24 32 25 33 86 34 26 35 85 36
REMARK SMILES IDX 27 37 28 38 29 39 79 40 30 41 84 42 78 43 80 44 31 45 83 46
REMARK SMILES IDX 77 47 76 48 32 50 64 51 44 52 63 53 45 54 48 55 62 56 81 57
REMARK SMILES IDX 46 58 47 59 61 61 82 62 49 63 33 64 34 65 42 66 35 67 41 68
REMARK SMILES IDX 43 69 40 70 36 71 37 72 38 73 39 74 65 75 66 76 74 77 67 78
REMARK SMILES IDX 73 79 75 80 72 81 68 82 69 83 70 84 71 85 50 86 51 87 59 88
REMARK SMILES IDX 52 89 58 90 60 91 57 92 53 93 54 94 55 95 56 96
REMARK H PARENT 16 6 3 17 21 30 80 49 48 60
REMARK Flexibility Score: inf
ROOT
ATOM      1  C   UNL A   1      43.409  40.093  27.786  1.00  0.00     0.023 C 
ENDROOT
BRANCH   1   2
ATOM      2  C   UNL A   1      44.068  40.352  26.431  1.00  0.00     0.116 C 
BRANCH   2   3
ATOM      3  N   UNL A   1      45.050  39.323  26.140  1.00  0.00    -0.353 N 
ATOM      4  C   UNL A   1      46.266  39.420  25.545  1.00  0.00     0.244 C 
ATOM      5  O   UNL A   1      46.981  38.427  25.431  1.00  0.00    -0.270 OA
ATOM      6  H   UNL A   1      44.794  38.413  26.419  1.00  0.00     0.163 HD
BRANCH   4   7
ATOM      7  C   UNL A   1      46.796  40.736  25.119  1.00  0.00     0.072 C 
ATOM      8  C   UNL A   1      46.548  41.335  23.943  1.00  0.00     0.016 C 
BRANCH   8   9
ATOM      9  C   UNL A   1      47.096  42.656  23.602  1.00  0.00     0.006 A 
ATOM     10  C   UNL A   1      47.346  43.078  22.288  1.00  0.00     0.050 A 
ATOM     11  C   UNL A   1      47.804  44.376  22.033  1.00  0.00     0.034 A 
ATOM     12  C   UNL A   1      48.089  45.191  23.109  1.00  0.00     0.112 A 
ATOM     13  C   UNL A   1      47.438  43.563  24.604  1.00  0.00     0.119 A 
ATOM     14  N   UNL A   1      47.937  44.805  24.390  1.00  0.00    -0.264 NA
BRANCH  10  15
ATOM     15  C   UNL A   1      47.086  42.209  21.121  1.00  0.00     0.252 C 
ATOM     16  N   UNL A   1      45.957  42.421  20.369  1.00  0.00    -0.342 N 
ATOM     17  H   UNL A   1      45.722  41.702  19.739  1.00  0.00     0.164 HD
ATOM     18  O   UNL A   1      47.865  41.304  20.847  1.00  0.00    -0.269 OA
BRANCH  16  19
ATOM     19  C   UNL A   1      45.059  43.569  20.380  1.00  0.00     0.145 C 
ATOM     20  C   UNL A   1      44.793  44.063  18.963  1.00  0.00     0.039 C 
BRANCH  19  21
ATOM     21  C   UNL A   1      43.795  43.186  21.075  1.00  0.00     0.125 A 
ATOM     22  C   UNL A   1      43.499  42.890  22.391  1.00  0.00     0.048 A 
ATOM     23  O   UNL A   1      42.663  43.108  20.317  1.00  0.00    -0.467 OA
ATOM     24  C   UNL A   1      42.107  42.634  22.441  1.00  0.00     0.042 A 
ATOM     25  C   UNL A   1      41.646  42.778  21.154  1.00  0.00     0.195 A 
ENDBRANCH  19  21
ENDBRANCH  16  19
ENDBRANCH  10  15
ENDBRANCH   8   9
ENDBRANCH   4   7
ENDBRANCH   2   3
ENDBRANCH   1   2
BRANCH   1  26
ATOM     26  C   UNL A   1      43.074  38.620  28.044  1.00  0.00     0.023 C 
BRANCH  26  27
ATOM     27  C   UNL A   1      43.649  38.051  29.336  1.00  0.00     0.116 C 
BRANCH  27  28
ATOM     28  N   UNL A   1      45.100  38.074  29.368  1.00  0.00    -0.352 N 
ATOM     29  C   UNL A   1      45.978  37.014  29.364  1.00  0.00     0.251 C 
ATOM     30  H   UNL A   1      45.512  38.967  29.398  1.00  0.00     0.163 HD
ATOM     31  O   UNL A   1      47.169  37.209  29.547  1.00  0.00    -0.269 OA
BRANCH  29  32
ATOM     32  C   UNL A   1      45.458  35.641  29.171  1.00  0.00     0.039 A 
ATOM     33  C   UNL A   1      44.868  35.314  27.947  1.00  0.00     0.014 A 
ATOM     34  C   UNL A   1      45.543  34.686  30.187  1.00  0.00     0.014 A 
ATOM     35  C   UNL A   1      44.394  34.018  27.736  1.00  0.00     0.010 A 
ATOM     36  C   UNL A   1      45.148  33.374  29.944  1.00  0.00     0.010 A 
ATOM     37  C   UNL A   1      44.545  33.033  28.724  1.00  0.00    -0.014 A 
BRANCH  37  38
ATOM     38  C   UNL A   1      44.021  31.659  28.517  1.00  0.00     0.031 A 
ATOM     39  C   UNL A   1      42.714  31.253  29.144  1.00  0.00     0.074 A 
ATOM     40  C   UNL A   1      44.732  30.771  27.796  1.00  0.00     0.049 A 
ATOM     41  N   UNL A   1      42.094  30.102  29.102  1.00  0.00    -0.248 NA
ATOM     42  C   UNL A   1      42.035  32.271  29.960  1.00  0.00     0.031 C 
ATOM     43  C   UNL A   1      46.041  31.030  27.190  1.00  0.00     0.029 A 
ATOM     44  N   UNL A   1      44.457  29.473  27.450  1.00  0.00    -0.354 N 
ATOM     45  C   UNL A   1      40.956  30.257  29.887  1.00  0.00     0.074 A 
ATOM     46  C   UNL A   1      41.026  31.581  30.466  1.00  0.00     0.031 C 
ATOM     47  C   UNL A   1      46.440  29.934  26.525  1.00  0.00     0.029 A 
ATOM     48  C   UNL A   1      45.437  28.886  26.684  1.00  0.00     0.049 A 
ATOM     49  H   UNL A   1      43.636  29.005  27.725  1.00  0.00     0.167 HD
ATOM     50  C   UNL A   1      39.928  29.391  30.078  1.00  0.00     0.034 A 
ATOM     51  C   UNL A   1      45.516  27.644  26.167  1.00  0.00     0.034 A 
ATOM     52  C   UNL A   1      39.879  28.073  29.491  1.00  0.00     0.049 A 
ATOM     53  C   UNL A   1      44.364  26.696  26.384  1.00  0.00     0.074 A 
ATOM     54  C   UNL A   1      38.884  27.117  29.591  1.00  0.00     0.029 A 
ATOM     55  N   UNL A   1      40.876  27.523  28.694  1.00  0.00    -0.354 N 
ATOM     56  N   UNL A   1      43.268  26.871  27.087  1.00  0.00    -0.248 NA
ATOM     57  C   UNL A   1      44.450  25.393  25.716  1.00  0.00     0.031 C 
ATOM     58  C   UNL A   1      39.305  25.970  28.909  1.00  0.00     0.029 A 
ATOM     59  C   UNL A   1      40.527  26.236  28.310  1.00  0.00     0.049 A 
ATOM     60  H   UNL A   1      41.710  27.980  28.439  1.00  0.00     0.167 HD
ATOM     61  C   UNL A   1      42.517  25.711  26.916  1.00  0.00     0.074 A 
ATOM     62  C   UNL A   1      43.281  24.853  26.031  1.00  0.00     0.031 C 
ATOM     63  C   UNL A   1      41.305  25.386  27.436  1.00  0.00     0.034 A 
BRANCH  50  64
ATOM     64  C   UNL A   1      38.799  29.854  30.973  1.00  0.00     0.023 A 
ATOM     65  C   UNL A   1      37.743  30.644  30.476  1.00  0.00     0.031 A 
ATOM     66  C   UNL A   1      38.807  29.569  32.349  1.00  0.00     0.131 A 
ATOM     67  C   UNL A   1      36.811  31.209  31.359  1.00  0.00     0.055 A 
ATOM     68  C   UNL A   1      37.816  30.052  33.209  1.00  0.00     0.041 A 
ATOM     69  F   UNL A   1      39.794  28.838  32.892  1.00  0.00    -0.206 F 
ATOM     70  C   UNL A   1      36.823  30.896  32.719  1.00  0.00     0.022 A 
BRANCH  67  71
ATOM     71  S   UNL A   1      35.708  32.506  30.733  1.00  0.00     0.124 S 
ATOM     72  O   UNL A   1      34.517  32.302  31.555  1.00  0.00    -0.237 OA
ATOM     73  O   UNL A   1      36.467  33.723  30.998  1.00  0.00    -0.237 OA
ATOM     74  O   UNL A   1      35.545  32.166  29.321  1.00  0.00    -0.744 OA
ENDBRANCH  67  71
ENDBRANCH  50  64
BRANCH  51  75
ATOM     75  C   UNL A   1      46.719  27.233  25.390  1.00  0.00     0.023 A 
ATOM     76  C   UNL A   1      46.937  27.693  24.082  1.00  0.00     0.031 A 
ATOM     77  C   UNL A   1      47.666  26.354  25.947  1.00  0.00     0.131 A 
ATOM     78  C   UNL A   1      48.055  27.242  23.359  1.00  0.00     0.055 A 
ATOM     79  C   UNL A   1      48.801  25.949  25.244  1.00  0.00     0.041 A 
ATOM     80  F   UNL A   1      47.511  25.893  27.199  1.00  0.00    -0.206 F 
ATOM     81  C   UNL A   1      48.994  26.384  23.935  1.00  0.00     0.022 A 
BRANCH  78  82
ATOM     82  S   UNL A   1      48.230  27.745  21.625  1.00  0.00     0.124 S 
ATOM     83  O   UNL A   1      49.364  28.659  21.693  1.00  0.00    -0.237 OA
ATOM     84  O   UNL A   1      48.472  26.469  20.962  1.00  0.00    -0.237 OA
ATOM     85  O   UNL A   1      46.943  28.369  21.320  1.00  0.00    -0.744 OA
ENDBRANCH  78  82
ENDBRANCH  51  75
BRANCH  63  86
ATOM     86  C   UNL A   1      40.710  24.064  27.012  1.00  0.00     0.023 A 
ATOM     87  C   UNL A   1      41.443  22.865  27.067  1.00  0.00     0.031 A 
ATOM     88  C   UNL A   1      39.394  24.010  26.518  1.00  0.00     0.131 A 
ATOM     89  C   UNL A   1      40.883  21.679  26.568  1.00  0.00     0.055 A 
ATOM     90  C   UNL A   1      38.817  22.815  26.089  1.00  0.00     0.041 A 
ATOM     91  F   UNL A   1      38.647  25.123  26.440  1.00  0.00    -0.206 F 
ATOM     92  C   UNL A   1      39.568  21.643  26.095  1.00  0.00     0.022 A 
BRANCH  89  93
ATOM     93  S   UNL A   1      41.936  20.209  26.428  1.00  0.00     0.124 S 
ATOM     94  O   UNL A   1      43.017  20.691  25.571  1.00  0.00    -0.237 OA
ATOM     95  O   UNL A   1      42.293  19.949  27.818  1.00  0.00    -0.237 OA
ATOM     96  O   UNL A   1      41.057  19.214  25.816  1.00  0.00    -0.744 OA
ENDBRANCH  89  93
ENDBRANCH  63  86
ENDBRANCH  37  38
ENDBRANCH  29  32
ENDBRANCH  27  28
ENDBRANCH  26  27
ENDBRANCH   1  26
TORSDOF 18
ENDMDL
