MODEL 1
REMARK VINA RESULT:     -12.6      0.000      0.000
REMARK SMILES Cc1ccc([C@@H](C(=O)N(CC(=O)NCCCCNC(=O)c2ccc(-c3c4nc(c(-c5cc(S(=O)(=O)[O-])ccc5F)c5ccc([nH]5)c(-c5cc(S(=O)(=O)[O-])ccc5F)c5nc(c(-c6cc(S(=O)(=O)[O-])ccc6F)c6ccc3[nH]6)C=C5)C=C4)cc2)C2CC[NH+](C)CC2)[NH+](C)C)cc1
REMARK SMILES IDX 15 1 14 2 13 3 11 4 12 5 10 7 9 8 7 9 8 10 6 11 5 12 1 13
REMARK SMILES IDX 2 14 3 15 95 16 4 17 94 18 91 19 92 20 93 21 84 23 85 24
REMARK SMILES IDX 90 25 86 26 89 27 87 28 88 29 16 31 17 32 18 33 19 34 20 36
REMARK SMILES IDX 21 37 22 38 83 39 23 40 82 41 24 42 25 43 26 44 76 45 27 46
REMARK SMILES IDX 81 47 75 48 77 49 28 50 80 51 74 52 73 53 29 55 61 56 41 57
REMARK SMILES IDX 60 58 42 59 45 60 59 61 78 62 43 63 44 64 58 66 79 67 46 68
REMARK SMILES IDX 30 69 31 70 39 71 32 72 38 73 40 74 37 75 33 76 34 77 35 78
REMARK SMILES IDX 36 79 62 80 63 81 71 82 64 83 70 84 72 85 69 86 65 87 66 88
REMARK SMILES IDX 67 89 68 90 47 91 48 92 56 93 49 94 55 95 57 96 54 97 50 98
REMARK SMILES IDX 51 99 52 100 53 101
REMARK H PARENT 13 6 91 22 87 30 18 35 77 54 45 65
REMARK Flexibility Score: inf
ROOT
ATOM      1  C   UNL A   1      31.947  29.809  27.084  1.00  0.00     0.023 C 
ENDROOT
BRANCH   1   2
ATOM      2  C   UNL A   1      32.090  28.348  27.503  1.00  0.00     0.116 C 
BRANCH   2   3
ATOM      3  N   UNL A   1      31.137  27.404  26.966  1.00  0.00    -0.355 N 
ATOM      4  C   UNL A   1      31.454  26.317  26.191  1.00  0.00     0.239 C 
ATOM      5  O   UNL A   1      30.696  25.343  26.215  1.00  0.00    -0.273 OA
ATOM      6  H   UNL A   1      30.185  27.553  27.172  1.00  0.00     0.163 HD
BRANCH   4   7
ATOM      7  C   UNL A   1      32.757  26.276  25.356  1.00  0.00     0.219 C 
BRANCH   7   8
ATOM      8  N   UNL A   1      32.744  25.564  24.064  1.00  0.00    -0.324 N 
BRANCH   8   9
ATOM      9  C   UNL A   1      32.854  24.145  23.983  1.00  0.00     0.286 C 
ATOM     10  O   UNL A   1      32.250  23.559  23.076  1.00  0.00    -0.267 OA
BRANCH   9  11
ATOM     11  C   UNL A   1      33.631  23.343  25.135  1.00  0.00     0.305 C 
BRANCH  11  12
ATOM     12  C   UNL A   1      35.147  23.314  24.927  1.00  0.00     0.019 A 
ATOM     13  C   UNL A   1      38.926  21.675  25.876  1.00  0.00     0.044 C 
ATOM     14  C   UNL A   1      37.758  22.436  25.329  1.00  0.00    -0.051 A 
ATOM     15  C   UNL A   1      37.310  23.595  25.964  1.00  0.00     0.004 A 
ATOM     16  C   UNL A   1      37.004  21.904  24.282  1.00  0.00     0.004 A 
ATOM     17  C   UNL A   1      36.004  24.032  25.766  1.00  0.00     0.011 A 
ATOM     18  C   UNL A   1      35.710  22.368  24.054  1.00  0.00     0.011 A 
ENDBRANCH  11  12
BRANCH  11  19
ATOM     19  N   UNL A   1      33.043  22.011  25.472  1.00  0.00    -0.326 N 
ATOM     20  C   UNL A   1      33.728  21.344  26.570  1.00  0.00     0.333 C 
ATOM     21  C   UNL A   1      31.596  22.041  25.705  1.00  0.00     0.333 C 
ATOM     22  H   UNL A   1      33.195  21.456  24.630  1.00  0.00     0.348 HD
ENDBRANCH  11  19
ENDBRANCH   9  11
ENDBRANCH   8   9
BRANCH   8  23
ATOM     23  C   UNL A   1      32.934  26.346  22.799  1.00  0.00     0.097 C 
ATOM     24  C   UNL A   1      33.463  27.796  22.902  1.00  0.00     0.086 C 
ATOM     25  C   UNL A   1      31.632  26.465  21.987  1.00  0.00     0.086 C 
ATOM     26  C   UNL A   1      32.463  28.758  23.544  1.00  0.00     0.264 C 
ATOM     27  C   UNL A   1      30.631  27.359  22.710  1.00  0.00     0.264 C 
ATOM     28  N   UNL A   1      31.138  28.724  22.909  1.00  0.00    -0.337 N 
ATOM     29  C   UNL A   1      30.186  29.485  23.723  1.00  0.00     0.332 C 
ATOM     30  H   UNL A   1      31.240  29.145  21.986  1.00  0.00     0.347 HD
ENDBRANCH   8  23
ENDBRANCH   7   8
ENDBRANCH   4   7
ENDBRANCH   2   3
ENDBRANCH   1   2
BRANCH   1  31
ATOM     31  C   UNL A   1      33.250  30.513  26.718  1.00  0.00     0.023 C 
BRANCH  31  32
ATOM     32  C   UNL A   1      34.458  30.128  27.568  1.00  0.00     0.116 C 
BRANCH  32  33
ATOM     33  N   UNL A   1      35.276  31.209  28.090  1.00  0.00    -0.352 N 
ATOM     34  C   UNL A   1      36.507  31.133  28.728  1.00  0.00     0.251 C 
ATOM     35  H   UNL A   1      34.908  32.115  27.977  1.00  0.00     0.163 HD
ATOM     36  O   UNL A   1      36.977  32.112  29.300  1.00  0.00    -0.269 OA
BRANCH  34  37
ATOM     37  C   UNL A   1      37.337  29.899  28.614  1.00  0.00     0.039 A 
ATOM     38  C   UNL A   1      37.393  29.043  29.727  1.00  0.00     0.014 A 
ATOM     39  C   UNL A   1      38.200  29.684  27.546  1.00  0.00     0.014 A 
ATOM     40  C   UNL A   1      38.461  28.160  29.869  1.00  0.00     0.010 A 
ATOM     41  C   UNL A   1      39.324  28.920  27.738  1.00  0.00     0.010 A 
ATOM     42  C   UNL A   1      39.478  28.208  28.926  1.00  0.00    -0.014 A 
BRANCH  42  43
ATOM     43  C   UNL A   1      40.789  27.612  29.101  1.00  0.00     0.031 A 
ATOM     44  C   UNL A   1      41.018  26.242  28.641  1.00  0.00     0.074 A 
ATOM     45  C   UNL A   1      41.799  28.424  29.470  1.00  0.00     0.049 A 
ATOM     46  N   UNL A   1      42.021  25.517  28.977  1.00  0.00    -0.248 NA
ATOM     47  C   UNL A   1      40.079  25.558  27.763  1.00  0.00     0.031 C 
ATOM     48  C   UNL A   1      43.239  28.194  29.390  1.00  0.00     0.029 A 
ATOM     49  N   UNL A   1      41.694  29.646  30.123  1.00  0.00    -0.354 N 
ATOM     50  C   UNL A   1      42.031  24.409  28.159  1.00  0.00     0.074 A 
ATOM     51  C   UNL A   1      40.750  24.435  27.498  1.00  0.00     0.031 C 
ATOM     52  C   UNL A   1      43.860  29.084  30.188  1.00  0.00     0.029 A 
ATOM     53  C   UNL A   1      42.817  29.768  30.944  1.00  0.00     0.049 A 
ATOM     54  H   UNL A   1      40.966  30.302  30.024  1.00  0.00     0.167 HD
ATOM     55  C   UNL A   1      43.189  23.697  28.047  1.00  0.00     0.034 A 
ATOM     56  C   UNL A   1      42.699  29.752  32.304  1.00  0.00     0.034 A 
ATOM     57  C   UNL A   1      44.202  24.232  28.972  1.00  0.00     0.049 A 
ATOM     58  C   UNL A   1      43.384  28.505  32.857  1.00  0.00     0.074 A 
ATOM     59  C   UNL A   1      45.305  25.052  28.793  1.00  0.00     0.029 A 
ATOM     60  N   UNL A   1      43.945  24.227  30.345  1.00  0.00    -0.354 N 
ATOM     61  N   UNL A   1      43.591  27.408  32.172  1.00  0.00    -0.248 NA
ATOM     62  C   UNL A   1      43.921  28.425  34.210  1.00  0.00     0.031 C 
ATOM     63  C   UNL A   1      45.632  25.627  30.056  1.00  0.00     0.029 A 
ATOM     64  C   UNL A   1      44.762  25.123  31.011  1.00  0.00     0.049 A 
ATOM     65  H   UNL A   1      43.269  23.659  30.781  1.00  0.00     0.167 HD
ATOM     66  C   UNL A   1      44.295  26.511  32.930  1.00  0.00     0.074 A 
ATOM     67  C   UNL A   1      44.470  27.198  34.203  1.00  0.00     0.031 C 
ATOM     68  C   UNL A   1      44.680  25.279  32.463  1.00  0.00     0.034 A 
BRANCH  55  69
ATOM     69  C   UNL A   1      43.510  22.723  26.923  1.00  0.00     0.023 A 
ATOM     70  C   UNL A   1      42.952  21.426  26.964  1.00  0.00     0.031 A 
ATOM     71  C   UNL A   1      44.374  22.953  25.831  1.00  0.00     0.131 A 
ATOM     72  C   UNL A   1      43.311  20.432  26.028  1.00  0.00     0.055 A 
ATOM     73  C   UNL A   1      44.766  21.957  24.925  1.00  0.00     0.041 A 
ATOM     74  F   UNL A   1      44.848  24.165  25.533  1.00  0.00    -0.206 F 
ATOM     75  C   UNL A   1      44.239  20.684  25.023  1.00  0.00     0.022 A 
BRANCH  72  76
ATOM     76  S   UNL A   1      42.541  18.795  26.132  1.00  0.00     0.124 S 
ATOM     77  O   UNL A   1      43.384  18.002  25.244  1.00  0.00    -0.237 OA
ATOM     78  O   UNL A   1      42.637  18.497  27.556  1.00  0.00    -0.237 OA
ATOM     79  O   UNL A   1      41.180  19.027  25.644  1.00  0.00    -0.744 OA
ENDBRANCH  72  76
ENDBRANCH  55  69
BRANCH  56  80
ATOM     80  C   UNL A   1      41.391  30.310  32.794  1.00  0.00     0.023 A 
ATOM     81  C   UNL A   1      41.164  31.711  32.721  1.00  0.00     0.031 A 
ATOM     82  C   UNL A   1      40.265  29.479  32.917  1.00  0.00     0.131 A 
ATOM     83  C   UNL A   1      39.851  32.215  32.650  1.00  0.00     0.055 A 
ATOM     84  C   UNL A   1      38.963  29.993  32.860  1.00  0.00     0.041 A 
ATOM     85  F   UNL A   1      40.400  28.146  32.939  1.00  0.00    -0.206 F 
ATOM     86  C   UNL A   1      38.751  31.357  32.686  1.00  0.00     0.022 A 
BRANCH  83  87
ATOM     87  S   UNL A   1      39.503  33.979  32.369  1.00  0.00     0.124 S 
ATOM     88  O   UNL A   1      40.328  34.287  31.235  1.00  0.00    -0.237 OA
ATOM     89  O   UNL A   1      38.055  33.998  32.123  1.00  0.00    -0.237 OA
ATOM     90  O   UNL A   1      39.894  34.584  33.648  1.00  0.00    -0.744 OA
ENDBRANCH  83  87
ENDBRANCH  56  80
BRANCH  68  91
ATOM     91  C   UNL A   1      45.101  24.123  33.348  1.00  0.00     0.023 A 
ATOM     92  C   UNL A   1      46.341  24.079  33.998  1.00  0.00     0.031 A 
ATOM     93  C   UNL A   1      44.216  23.061  33.660  1.00  0.00     0.131 A 
ATOM     94  C   UNL A   1      46.705  22.993  34.809  1.00  0.00     0.055 A 
ATOM     95  C   UNL A   1      44.538  22.037  34.556  1.00  0.00     0.041 A 
ATOM     96  F   UNL A   1      42.989  22.977  33.125  1.00  0.00    -0.206 F 
ATOM     97  C   UNL A   1      45.802  21.984  35.120  1.00  0.00     0.022 A 
BRANCH  94  98
ATOM     98  S   UNL A   1      48.426  22.894  35.359  1.00  0.00     0.124 S 
ATOM     99  O   UNL A   1      48.779  24.306  35.484  1.00  0.00    -0.237 OA
ATOM    100  O   UNL A   1      48.314  22.159  36.614  1.00  0.00    -0.237 OA
ATOM    101  O   UNL A   1      49.094  22.179  34.275  1.00  0.00    -0.744 OA
ENDBRANCH  94  98
ENDBRANCH  68  91
ENDBRANCH  42  43
ENDBRANCH  34  37
ENDBRANCH  32  33
ENDBRANCH  31  32
ENDBRANCH   1  31
TORSDOF 20
ENDMDL
MODEL 2
REMARK VINA RESULT:     -12.3      3.912     10.431
REMARK SMILES Cc1ccc([C@@H](C(=O)N(CC(=O)NCCCCNC(=O)c2ccc(-c3c4nc(c(-c5cc(S(=O)(=O)[O-])ccc5F)c5ccc([nH]5)c(-c5cc(S(=O)(=O)[O-])ccc5F)c5nc(c(-c6cc(S(=O)(=O)[O-])ccc6F)c6ccc3[nH]6)C=C5)C=C4)cc2)C2CC[NH+](C)CC2)[NH+](C)C)cc1
REMARK SMILES IDX 15 1 14 2 13 3 11 4 12 5 10 7 9 8 7 9 8 10 6 11 5 12 1 13
REMARK SMILES IDX 2 14 3 15 95 16 4 17 94 18 91 19 92 20 93 21 84 23 85 24
REMARK SMILES IDX 90 25 86 26 89 27 87 28 88 29 16 31 17 32 18 33 19 34 20 36
REMARK SMILES IDX 21 37 22 38 83 39 23 40 82 41 24 42 25 43 26 44 76 45 27 46
REMARK SMILES IDX 81 47 75 48 77 49 28 50 80 51 74 52 73 53 29 55 61 56 41 57
REMARK SMILES IDX 60 58 42 59 45 60 59 61 78 62 43 63 44 64 58 66 79 67 46 68
REMARK SMILES IDX 30 69 31 70 39 71 32 72 38 73 40 74 37 75 33 76 34 77 35 78
REMARK SMILES IDX 36 79 62 80 63 81 71 82 64 83 70 84 72 85 69 86 65 87 66 88
REMARK SMILES IDX 67 89 68 90 47 91 48 92 56 93 49 94 55 95 57 96 54 97 50 98
REMARK SMILES IDX 51 99 52 100 53 101
REMARK H PARENT 13 6 91 22 87 30 18 35 77 54 45 65
REMARK Flexibility Score: inf
ROOT
ATOM      1  C   UNL A   1      36.930  21.864  25.071  1.00  0.00     0.023 C 
ENDROOT
BRANCH   1   2
ATOM      2  C   UNL A   1      36.543  22.898  24.017  1.00  0.00     0.116 C 
BRANCH   2   3
ATOM      3  N   UNL A   1      35.297  22.698  23.313  1.00  0.00    -0.355 N 
ATOM      4  C   UNL A   1      34.151  23.427  23.515  1.00  0.00     0.239 C 
ATOM      5  O   UNL A   1      33.356  23.535  22.577  1.00  0.00    -0.273 OA
ATOM      6  H   UNL A   1      35.268  21.983  22.637  1.00  0.00     0.163 HD
BRANCH   4   7
ATOM      7  C   UNL A   1      33.883  24.152  24.856  1.00  0.00     0.219 C 
BRANCH   7   8
ATOM      8  N   UNL A   1      32.485  24.358  25.279  1.00  0.00    -0.324 N 
BRANCH   8   9
ATOM      9  C   UNL A   1      31.727  25.488  24.853  1.00  0.00     0.286 C 
ATOM     10  O   UNL A   1      30.524  25.331  24.611  1.00  0.00    -0.267 OA
BRANCH   9  11
ATOM     11  C   UNL A   1      32.472  26.880  24.567  1.00  0.00     0.305 C 
BRANCH  11  12
ATOM     12  C   UNL A   1      32.724  27.696  25.837  1.00  0.00     0.019 A 
ATOM     13  C   UNL A   1      33.735  31.371  27.667  1.00  0.00     0.044 C 
ATOM     14  C   UNL A   1      33.347  29.964  27.326  1.00  0.00    -0.051 A 
ATOM     15  C   UNL A   1      34.328  29.000  27.085  1.00  0.00     0.004 A 
ATOM     16  C   UNL A   1      32.012  29.645  27.080  1.00  0.00     0.004 A 
ATOM     17  C   UNL A   1      34.018  27.869  26.338  1.00  0.00     0.011 A 
ATOM     18  C   UNL A   1      31.694  28.490  26.367  1.00  0.00     0.011 A 
ENDBRANCH  11  12
BRANCH  11  19
ATOM     19  N   UNL A   1      31.892  27.676  23.443  1.00  0.00    -0.326 N 
ATOM     20  C   UNL A   1      32.818  28.661  22.902  1.00  0.00     0.333 C 
ATOM     21  C   UNL A   1      31.317  26.860  22.369  1.00  0.00     0.333 C 
ATOM     22  H   UNL A   1      31.119  28.183  23.875  1.00  0.00     0.348 HD
ENDBRANCH  11  19
ENDBRANCH   9  11
ENDBRANCH   8   9
BRANCH   8  23
ATOM     23  C   UNL A   1      31.941  23.549  26.418  1.00  0.00     0.097 C 
ATOM     24  C   UNL A   1      32.939  22.801  27.333  1.00  0.00     0.086 C 
ATOM     25  C   UNL A   1      30.961  22.461  25.943  1.00  0.00     0.086 C 
ATOM     26  C   UNL A   1      33.650  21.644  26.631  1.00  0.00     0.264 C 
ATOM     27  C   UNL A   1      31.701  21.376  25.169  1.00  0.00     0.264 C 
ATOM     28  N   UNL A   1      32.725  20.704  25.982  1.00  0.00    -0.337 N 
ATOM     29  C   UNL A   1      33.483  19.773  25.142  1.00  0.00     0.332 C 
ATOM     30  H   UNL A   1      32.238  20.205  26.726  1.00  0.00     0.347 HD
ENDBRANCH   8  23
ENDBRANCH   7   8
ENDBRANCH   4   7
ENDBRANCH   2   3
ENDBRANCH   1   2
BRANCH   1  31
ATOM     31  C   UNL A   1      38.417  21.801  25.407  1.00  0.00     0.023 C 
BRANCH  31  32
ATOM     32  C   UNL A   1      38.914  22.879  26.366  1.00  0.00     0.116 C 
BRANCH  32  33
ATOM     33  N   UNL A   1      40.350  22.994  26.552  1.00  0.00    -0.352 N 
ATOM     34  C   UNL A   1      41.113  24.143  26.712  1.00  0.00     0.251 C 
ATOM     35  H   UNL A   1      40.848  22.145  26.567  1.00  0.00     0.163 HD
ATOM     36  O   UNL A   1      42.338  24.094  26.648  1.00  0.00    -0.269 OA
BRANCH  34  37
ATOM     37  C   UNL A   1      40.464  25.430  27.096  1.00  0.00     0.039 A 
ATOM     38  C   UNL A   1      40.699  26.550  26.281  1.00  0.00     0.014 A 
ATOM     39  C   UNL A   1      39.821  25.599  28.316  1.00  0.00     0.014 A 
ATOM     40  C   UNL A   1      40.526  27.832  26.798  1.00  0.00     0.010 A 
ATOM     41  C   UNL A   1      39.777  26.849  28.881  1.00  0.00     0.010 A 
ATOM     42  C   UNL A   1      40.187  27.955  28.138  1.00  0.00    -0.014 A 
BRANCH  42  43
ATOM     43  C   UNL A   1      40.294  29.183  28.903  1.00  0.00     0.031 A 
ATOM     44  C   UNL A   1      39.180  30.133  28.889  1.00  0.00     0.074 A 
ATOM     45  C   UNL A   1      41.318  29.289  29.773  1.00  0.00     0.049 A 
ATOM     46  N   UNL A   1      39.255  31.351  29.284  1.00  0.00    -0.248 NA
ATOM     47  C   UNL A   1      37.866  29.770  28.378  1.00  0.00     0.031 C 
ATOM     48  C   UNL A   1      41.484  30.218  30.887  1.00  0.00     0.029 A 
ATOM     49  N   UNL A   1      42.520  28.593  29.739  1.00  0.00    -0.354 N 
ATOM     50  C   UNL A   1      37.971  31.844  29.364  1.00  0.00     0.074 A 
ATOM     51  C   UNL A   1      37.161  30.858  28.694  1.00  0.00     0.031 C 
ATOM     52  C   UNL A   1      42.781  30.223  31.251  1.00  0.00     0.029 A 
ATOM     53  C   UNL A   1      43.500  29.448  30.248  1.00  0.00     0.049 A 
ATOM     54  H   UNL A   1      42.654  27.671  29.419  1.00  0.00     0.167 HD
ATOM     55  C   UNL A   1      37.753  32.959  30.118  1.00  0.00     0.034 A 
ATOM     56  C   UNL A   1      44.492  29.935  29.446  1.00  0.00     0.034 A 
ATOM     57  C   UNL A   1      39.032  33.491  30.616  1.00  0.00     0.049 A 
ATOM     58  C   UNL A   1      44.337  31.448  29.312  1.00  0.00     0.074 A 
ATOM     59  C   UNL A   1      39.668  33.424  31.846  1.00  0.00     0.029 A 
ATOM     60  N   UNL A   1      40.006  33.900  29.701  1.00  0.00    -0.354 N 
ATOM     61  N   UNL A   1      43.211  32.095  29.483  1.00  0.00    -0.248 NA
ATOM     62  C   UNL A   1      45.451  32.340  29.015  1.00  0.00     0.031 C 
ATOM     63  C   UNL A   1      41.054  33.684  31.637  1.00  0.00     0.029 A 
ATOM     64  C   UNL A   1      41.256  33.956  30.291  1.00  0.00     0.049 A 
ATOM     65  H   UNL A   1      39.824  34.119  28.758  1.00  0.00     0.167 HD
ATOM     66  C   UNL A   1      43.426  33.443  29.368  1.00  0.00     0.074 A 
ATOM     67  C   UNL A   1      44.848  33.540  29.068  1.00  0.00     0.031 C 
ATOM     68  C   UNL A   1      42.430  34.373  29.526  1.00  0.00     0.034 A 
BRANCH  55  69
ATOM     69  C   UNL A   1      36.396  33.405  30.646  1.00  0.00     0.023 A 
ATOM     70  C   UNL A   1      35.541  34.140  29.795  1.00  0.00     0.031 A 
ATOM     71  C   UNL A   1      35.895  33.208  31.950  1.00  0.00     0.131 A 
ATOM     72  C   UNL A   1      34.329  34.696  30.260  1.00  0.00     0.055 A 
ATOM     73  C   UNL A   1      34.714  33.794  32.426  1.00  0.00     0.041 A 
ATOM     74  F   UNL A   1      36.480  32.390  32.829  1.00  0.00    -0.206 F 
ATOM     75  C   UNL A   1      33.924  34.550  31.582  1.00  0.00     0.022 A 
BRANCH  72  76
ATOM     76  S   UNL A   1      33.274  35.614  29.106  1.00  0.00     0.124 S 
ATOM     77  O   UNL A   1      32.505  36.466  30.006  1.00  0.00    -0.237 OA
ATOM     78  O   UNL A   1      34.253  36.283  28.256  1.00  0.00    -0.237 OA
ATOM     79  O   UNL A   1      32.502  34.563  28.443  1.00  0.00    -0.744 OA
ENDBRANCH  72  76
ENDBRANCH  55  69
BRANCH  56  80
ATOM     80  C   UNL A   1      44.868  29.001  28.329  1.00  0.00     0.023 A 
ATOM     81  C   UNL A   1      45.680  27.871  28.614  1.00  0.00     0.031 A 
ATOM     82  C   UNL A   1      44.116  28.973  27.143  1.00  0.00     0.131 A 
ATOM     83  C   UNL A   1      45.622  26.729  27.792  1.00  0.00     0.055 A 
ATOM     84  C   UNL A   1      44.077  27.838  26.324  1.00  0.00     0.041 A 
ATOM     85  F   UNL A   1      43.289  29.982  26.836  1.00  0.00    -0.206 F 
ATOM     86  C   UNL A   1      44.798  26.698  26.666  1.00  0.00     0.022 A 
BRANCH  83  87
ATOM     87  S   UNL A   1      46.495  25.188  28.208  1.00  0.00     0.124 S 
ATOM     88  O   UNL A   1      45.760  24.199  27.470  1.00  0.00    -0.237 OA
ATOM     89  O   UNL A   1      47.863  25.441  27.738  1.00  0.00    -0.237 OA
ATOM     90  O   UNL A   1      46.371  25.141  29.671  1.00  0.00    -0.744 OA
ENDBRANCH  83  87
ENDBRANCH  56  80
BRANCH  68  91
ATOM     91  C   UNL A   1      42.514  35.806  29.039  1.00  0.00     0.023 A 
ATOM     92  C   UNL A   1      43.320  36.770  29.656  1.00  0.00     0.031 A 
ATOM     93  C   UNL A   1      41.862  36.231  27.854  1.00  0.00     0.131 A 
ATOM     94  C   UNL A   1      43.374  38.091  29.185  1.00  0.00     0.055 A 
ATOM     95  C   UNL A   1      42.005  37.516  27.323  1.00  0.00     0.041 A 
ATOM     96  F   UNL A   1      41.068  35.413  27.146  1.00  0.00    -0.206 F 
ATOM     97  C   UNL A   1      42.748  38.466  28.003  1.00  0.00     0.022 A 
BRANCH  94  98
ATOM     98  S   UNL A   1      44.206  39.320  30.220  1.00  0.00     0.124 S 
ATOM     99  O   UNL A   1      44.966  40.078  29.227  1.00  0.00    -0.237 OA
ATOM    100  O   UNL A   1      43.086  40.028  30.831  1.00  0.00    -0.237 OA
ATOM    101  O   UNL A   1      45.009  38.514  31.134  1.00  0.00    -0.744 OA
ENDBRANCH  94  98
ENDBRANCH  68  91
ENDBRANCH  42  43
ENDBRANCH  34  37
ENDBRANCH  32  33
ENDBRANCH  31  32
ENDBRANCH   1  31
TORSDOF 20
ENDMDL
MODEL 3
REMARK VINA RESULT:     -11.9      4.113     10.013
REMARK SMILES Cc1ccc([C@@H](C(=O)N(CC(=O)NCCCCNC(=O)c2ccc(-c3c4nc(c(-c5cc(S(=O)(=O)[O-])ccc5F)c5ccc([nH]5)c(-c5cc(S(=O)(=O)[O-])ccc5F)c5nc(c(-c6cc(S(=O)(=O)[O-])ccc6F)c6ccc3[nH]6)C=C5)C=C4)cc2)C2CC[NH+](C)CC2)[NH+](C)C)cc1
REMARK SMILES IDX 15 1 14 2 13 3 11 4 12 5 10 7 9 8 7 9 8 10 6 11 5 12 1 13
REMARK SMILES IDX 2 14 3 15 95 16 4 17 94 18 91 19 92 20 93 21 84 23 85 24
REMARK SMILES IDX 90 25 86 26 89 27 87 28 88 29 16 31 17 32 18 33 19 34 20 36
REMARK SMILES IDX 21 37 22 38 83 39 23 40 82 41 24 42 25 43 26 44 76 45 27 46
REMARK SMILES IDX 81 47 75 48 77 49 28 50 80 51 74 52 73 53 29 55 61 56 41 57
REMARK SMILES IDX 60 58 42 59 45 60 59 61 78 62 43 63 44 64 58 66 79 67 46 68
REMARK SMILES IDX 30 69 31 70 39 71 32 72 38 73 40 74 37 75 33 76 34 77 35 78
REMARK SMILES IDX 36 79 62 80 63 81 71 82 64 83 70 84 72 85 69 86 65 87 66 88
REMARK SMILES IDX 67 89 68 90 47 91 48 92 56 93 49 94 55 95 57 96 54 97 50 98
REMARK SMILES IDX 51 99 52 100 53 101
REMARK H PARENT 13 6 91 22 87 30 18 35 77 54 45 65
REMARK Flexibility Score: inf
ROOT
ATOM      1  C   UNL A   1      36.967  20.755  25.090  1.00  0.00     0.023 C 
ENDROOT
BRANCH   1   2
ATOM      2  C   UNL A   1      35.483  20.938  25.401  1.00  0.00     0.116 C 
BRANCH   2   3
ATOM      3  N   UNL A   1      35.134  21.435  26.712  1.00  0.00    -0.355 N 
ATOM      4  C   UNL A   1      34.245  22.452  26.959  1.00  0.00     0.239 C 
ATOM      5  O   UNL A   1      33.652  22.458  28.042  1.00  0.00    -0.273 OA
ATOM      6  H   UNL A   1      35.568  21.012  27.489  1.00  0.00     0.163 HD
BRANCH   4   7
ATOM      7  C   UNL A   1      33.938  23.530  25.892  1.00  0.00     0.219 C 
BRANCH   7   8
ATOM      8  N   UNL A   1      32.529  23.833  25.581  1.00  0.00    -0.324 N 
BRANCH   8   9
ATOM      9  C   UNL A   1      31.825  24.893  26.225  1.00  0.00     0.286 C 
ATOM     10  O   UNL A   1      31.096  24.615  27.186  1.00  0.00    -0.267 OA
BRANCH   9  11
ATOM     11  C   UNL A   1      31.883  26.373  25.609  1.00  0.00     0.305 C 
BRANCH  11  12
ATOM     12  C   UNL A   1      32.584  27.376  26.527  1.00  0.00     0.019 A 
ATOM     13  C   UNL A   1      34.066  31.277  27.208  1.00  0.00     0.044 C 
ATOM     14  C   UNL A   1      33.643  29.841  27.272  1.00  0.00    -0.051 A 
ATOM     15  C   UNL A   1      34.490  28.833  26.806  1.00  0.00     0.004 A 
ATOM     16  C   UNL A   1      32.338  29.511  27.638  1.00  0.00     0.004 A 
ATOM     17  C   UNL A   1      33.960  27.603  26.431  1.00  0.00     0.011 A 
ATOM     18  C   UNL A   1      31.816  28.263  27.300  1.00  0.00     0.011 A 
ENDBRANCH  11  12
BRANCH  11  19
ATOM     19  N   UNL A   1      30.587  26.867  25.052  1.00  0.00    -0.326 N 
ATOM     20  C   UNL A   1      30.703  27.366  23.690  1.00  0.00     0.333 C 
ATOM     21  C   UNL A   1      29.487  25.904  25.160  1.00  0.00     0.333 C 
ATOM     22  H   UNL A   1      30.348  27.657  25.652  1.00  0.00     0.348 HD
ENDBRANCH  11  19
ENDBRANCH   9  11
ENDBRANCH   8   9
BRANCH   8  23
ATOM     23  C   UNL A   1      31.720  22.830  24.815  1.00  0.00     0.097 C 
ATOM     24  C   UNL A   1      32.467  21.716  24.044  1.00  0.00     0.086 C 
ATOM     25  C   UNL A   1      30.817  23.493  23.759  1.00  0.00     0.086 C 
ATOM     26  C   UNL A   1      33.260  22.239  22.847  1.00  0.00     0.264 C 
ATOM     27  C   UNL A   1      31.658  24.081  22.631  1.00  0.00     0.264 C 
ATOM     28  N   UNL A   1      32.455  23.062  21.934  1.00  0.00    -0.337 N 
ATOM     29  C   UNL A   1      33.334  23.713  20.957  1.00  0.00     0.332 C 
ATOM     30  H   UNL A   1      31.800  22.435  21.467  1.00  0.00     0.347 HD
ENDBRANCH   8  23
ENDBRANCH   7   8
ENDBRANCH   4   7
ENDBRANCH   2   3
ENDBRANCH   1   2
BRANCH   1  31
ATOM     31  C   UNL A   1      37.716  22.032  24.722  1.00  0.00     0.023 C 
BRANCH  31  32
ATOM     32  C   UNL A   1      38.218  22.855  25.905  1.00  0.00     0.116 C 
BRANCH  32  33
ATOM     33  N   UNL A   1      39.625  22.739  26.248  1.00  0.00    -0.352 N 
ATOM     34  C   UNL A   1      40.527  23.748  26.558  1.00  0.00     0.251 C 
ATOM     35  H   UNL A   1      39.986  21.823  26.263  1.00  0.00     0.163 HD
ATOM     36  O   UNL A   1      41.730  23.513  26.621  1.00  0.00    -0.269 OA
BRANCH  34  37
ATOM     37  C   UNL A   1      40.036  25.101  26.949  1.00  0.00     0.039 A 
ATOM     38  C   UNL A   1      40.615  26.214  26.317  1.00  0.00     0.014 A 
ATOM     39  C   UNL A   1      39.197  25.296  28.040  1.00  0.00     0.014 A 
ATOM     40  C   UNL A   1      40.556  27.466  26.927  1.00  0.00     0.010 A 
ATOM     41  C   UNL A   1      39.248  26.489  28.716  1.00  0.00     0.010 A 
ATOM     42  C   UNL A   1      39.978  27.552  28.186  1.00  0.00    -0.014 A 
BRANCH  42  43
ATOM     43  C   UNL A   1      40.131  28.681  29.084  1.00  0.00     0.031 A 
ATOM     44  C   UNL A   1      39.141  29.758  29.053  1.00  0.00     0.074 A 
ATOM     45  C   UNL A   1      41.049  28.578  30.066  1.00  0.00     0.049 A 
ATOM     46  N   UNL A   1      39.304  30.916  29.581  1.00  0.00    -0.248 NA
ATOM     47  C   UNL A   1      37.865  29.610  28.368  1.00  0.00     0.031 C 
ATOM     48  C   UNL A   1      41.185  29.371  31.283  1.00  0.00     0.029 A 
ATOM     49  N   UNL A   1      42.160  27.744  30.086  1.00  0.00    -0.354 N 
ATOM     50  C   UNL A   1      38.084  31.555  29.574  1.00  0.00     0.074 A 
ATOM     51  C   UNL A   1      37.254  30.743  28.720  1.00  0.00     0.031 C 
ATOM     52  C   UNL A   1      42.421  29.182  31.783  1.00  0.00     0.029 A 
ATOM     53  C   UNL A   1      43.164  28.419  30.785  1.00  0.00     0.049 A 
ATOM     54  H   UNL A   1      42.228  26.847  29.686  1.00  0.00     0.167 HD
ATOM     55  C   UNL A   1      37.905  32.613  30.416  1.00  0.00     0.034 A 
ATOM     56  C   UNL A   1      44.292  28.853  30.151  1.00  0.00     0.034 A 
ATOM     57  C   UNL A   1      39.167  32.934  31.101  1.00  0.00     0.049 A 
ATOM     58  C   UNL A   1      44.326  30.379  30.163  1.00  0.00     0.074 A 
ATOM     59  C   UNL A   1      39.641  32.674  32.378  1.00  0.00     0.029 A 
ATOM     60  N   UNL A   1      40.282  33.302  30.345  1.00  0.00    -0.354 N 
ATOM     61  N   UNL A   1      43.267  31.142  30.280  1.00  0.00    -0.248 NA
ATOM     62  C   UNL A   1      45.560  31.150  30.084  1.00  0.00     0.031 C 
ATOM     63  C   UNL A   1      41.062  32.779  32.347  1.00  0.00     0.029 A 
ATOM     64  C   UNL A   1      41.452  33.148  31.068  1.00  0.00     0.049 A 
ATOM     65  H   UNL A   1      40.240  33.628  29.417  1.00  0.00     0.167 HD
ATOM     66  C   UNL A   1      43.645  32.457  30.333  1.00  0.00     0.074 A 
ATOM     67  C   UNL A   1      45.094  32.406  30.200  1.00  0.00     0.031 C 
ATOM     68  C   UNL A   1      42.748  33.485  30.482  1.00  0.00     0.034 A 
BRANCH  55  69
ATOM     69  C   UNL A   1      36.553  33.173  30.839  1.00  0.00     0.023 A 
ATOM     70  C   UNL A   1      35.764  33.848  29.882  1.00  0.00     0.031 A 
ATOM     71  C   UNL A   1      35.999  33.140  32.136  1.00  0.00     0.131 A 
ATOM     72  C   UNL A   1      34.566  34.504  30.237  1.00  0.00     0.055 A 
ATOM     73  C   UNL A   1      34.831  33.826  32.501  1.00  0.00     0.041 A 
ATOM     74  F   UNL A   1      36.513  32.397  33.119  1.00  0.00    -0.206 F 
ATOM     75  C   UNL A   1      34.109  34.520  31.550  1.00  0.00     0.022 A 
BRANCH  72  76
ATOM     76  S   UNL A   1      33.596  35.338  28.952  1.00  0.00     0.124 S 
ATOM     77  O   UNL A   1      34.634  35.816  28.046  1.00  0.00    -0.237 OA
ATOM     78  O   UNL A   1      32.747  34.260  28.456  1.00  0.00    -0.237 OA
ATOM     79  O   UNL A   1      32.889  36.387  29.687  1.00  0.00    -0.744 OA
ENDBRANCH  72  76
ENDBRANCH  55  69
BRANCH  56  80
ATOM     80  C   UNL A   1      44.691  27.987  28.987  1.00  0.00     0.023 A 
ATOM     81  C   UNL A   1      45.063  28.602  27.761  1.00  0.00     0.031 A 
ATOM     82  C   UNL A   1      45.104  26.661  29.197  1.00  0.00     0.131 A 
ATOM     83  C   UNL A   1      45.919  27.934  26.864  1.00  0.00     0.055 A 
ATOM     84  C   UNL A   1      45.942  26.001  28.290  1.00  0.00     0.041 A 
ATOM     85  F   UNL A   1      44.832  26.037  30.351  1.00  0.00    -0.206 F 
ATOM     86  C   UNL A   1      46.385  26.648  27.140  1.00  0.00     0.022 A 
BRANCH  83  87
ATOM     87  S   UNL A   1      46.579  28.739  25.372  1.00  0.00     0.124 S 
ATOM     88  O   UNL A   1      45.988  27.971  24.311  1.00  0.00    -0.237 OA
ATOM     89  O   UNL A   1      46.097  30.121  25.496  1.00  0.00    -0.237 OA
ATOM     90  O   UNL A   1      48.029  28.599  25.554  1.00  0.00    -0.744 OA
ENDBRANCH  83  87
ENDBRANCH  56  80
BRANCH  68  91
ATOM     91  C   UNL A   1      43.050  34.936  30.161  1.00  0.00     0.023 A 
ATOM     92  C   UNL A   1      42.759  35.514  28.919  1.00  0.00     0.031 A 
ATOM     93  C   UNL A   1      43.546  35.829  31.143  1.00  0.00     0.131 A 
ATOM     94  C   UNL A   1      43.054  36.859  28.650  1.00  0.00     0.055 A 
ATOM     95  C   UNL A   1      43.735  37.194  30.908  1.00  0.00     0.041 A 
ATOM     96  F   UNL A   1      43.855  35.423  32.384  1.00  0.00    -0.206 F 
ATOM     97  C   UNL A   1      43.510  37.715  29.645  1.00  0.00     0.022 A 
BRANCH  94  98
ATOM     98  S   UNL A   1      42.915  37.425  26.937  1.00  0.00     0.124 S 
ATOM     99  O   UNL A   1      44.231  38.021  26.714  1.00  0.00    -0.237 OA
ATOM    100  O   UNL A   1      42.655  36.183  26.215  1.00  0.00    -0.237 OA
ATOM    101  O   UNL A   1      41.802  38.369  26.974  1.00  0.00    -0.744 OA
ENDBRANCH  94  98
ENDBRANCH  68  91
ENDBRANCH  42  43
ENDBRANCH  34  37
ENDBRANCH  32  33
ENDBRANCH  31  32
ENDBRANCH   1  31
TORSDOF 20
ENDMDL
