MODEL 1
REMARK VINA RESULT:     -10.9      0.000      0.000
REMARK SMILES Cc1cc(Br)cnc1SCC1(CC(=O)NCCCCNC(=O)c2ccc(-c3c4nc(c(-c5cc(S(=O)(=O)[O-])ccc5F)c5ccc([nH]5)c(-c5cc(S(=O)(=O)[O-])ccc5F)c5nc(c(-c6cc(S(=O)(=O)[O-])ccc6F)c6ccc3[nH]6)C=C5)C=C4)cc2)CC1
REMARK SMILES IDX 17 1 16 2 15 3 13 4 14 5 12 7 11 8 86 9 87 10 10 11 9 12
REMARK SMILES IDX 8 13 1 14 2 15 3 16 4 17 7 18 5 19 6 20 18 21 19 22 20 23
REMARK SMILES IDX 21 24 22 26 23 27 24 28 85 29 25 30 84 31 26 32 27 33 28 34
REMARK SMILES IDX 78 35 29 36 83 37 77 38 79 39 30 40 82 41 76 42 75 43 31 45
REMARK SMILES IDX 63 46 43 47 62 48 44 49 47 50 61 51 80 52 45 53 46 54 60 56
REMARK SMILES IDX 81 57 48 58 32 59 33 60 41 61 34 62 40 63 42 64 39 65 35 66
REMARK SMILES IDX 36 67 37 68 38 69 64 70 65 71 73 72 66 73 72 74 74 75 71 76
REMARK SMILES IDX 67 77 68 78 69 79 70 80 49 81 50 82 58 83 51 84 57 85 59 86
REMARK SMILES IDX 56 87 52 88 53 89 54 90 55 91
REMARK H PARENT 15 6 20 25 79 44 47 55
REMARK Flexibility Score: inf
ROOT
ATOM      1  C   UNL A   1      31.811  30.105  26.785  1.00  0.00     0.023 C 
ENDROOT
BRANCH   1   2
ATOM      2  C   UNL A   1      33.284  29.856  26.455  1.00  0.00     0.116 C 
BRANCH   2   3
ATOM      3  N   UNL A   1      33.453  29.445  25.079  1.00  0.00    -0.356 N 
ATOM      4  C   UNL A   1      33.663  28.195  24.574  1.00  0.00     0.220 C 
ATOM      5  O   UNL A   1      33.841  28.081  23.360  1.00  0.00    -0.275 OA
ATOM      6  H   UNL A   1      33.410  30.169  24.412  1.00  0.00     0.163 HD
BRANCH   4   7
ATOM      7  C   UNL A   1      33.657  26.982  25.492  1.00  0.00     0.107 C 
BRANCH   7   8
ATOM      8  C   UNL A   1      32.701  25.851  25.114  1.00  0.00    -0.011 C 
ATOM      9  C   UNL A   1      31.217  26.200  25.118  1.00  0.00     0.009 C 
ATOM     10  C   UNL A   1      31.755  25.317  26.188  1.00  0.00     0.009 C 
BRANCH   8  11
ATOM     11  C   UNL A   1      33.237  24.828  24.137  1.00  0.00     0.084 C 
BRANCH  11  12
ATOM     12  S   UNL A   1      34.770  23.960  24.528  1.00  0.00    -0.106 SA
BRANCH  12  13
ATOM     13  C   UNL A   1      34.347  22.256  24.800  1.00  0.00     0.099 A 
ATOM     14  C   UNL A   1      36.722  21.235  24.825  1.00  0.00     0.047 C 
ATOM     15  C   UNL A   1      35.225  21.167  24.897  1.00  0.00    -0.018 A 
ATOM     16  C   UNL A   1      34.667  19.876  25.002  1.00  0.00     0.023 A 
ATOM     17  C   UNL A   1      33.293  19.697  24.963  1.00  0.00     0.036 A 
ATOM     18  N   UNL A   1      32.998  22.073  24.770  1.00  0.00    -0.248 NA
ATOM     19  Br  UNL A   1      32.539  17.974  25.047  1.00  0.00    -0.049 Br
ATOM     20  C   UNL A   1      32.502  20.818  24.837  1.00  0.00     0.128 A 
ENDBRANCH  12  13
ENDBRANCH  11  12
ENDBRANCH   8  11
ENDBRANCH   7   8
ENDBRANCH   4   7
ENDBRANCH   2   3
ENDBRANCH   1   2
BRANCH   1  21
ATOM     21  C   UNL A   1      31.392  31.574  26.800  1.00  0.00     0.023 C 
BRANCH  21  22
ATOM     22  C   UNL A   1      32.528  32.574  26.631  1.00  0.00     0.116 C 
BRANCH  22  23
ATOM     23  N   UNL A   1      32.317  33.829  27.340  1.00  0.00    -0.352 N 
ATOM     24  C   UNL A   1      33.064  34.356  28.366  1.00  0.00     0.251 C 
ATOM     25  H   UNL A   1      31.545  34.365  27.048  1.00  0.00     0.163 HD
ATOM     26  O   UNL A   1      32.705  35.388  28.926  1.00  0.00    -0.269 OA
BRANCH  24  27
ATOM     27  C   UNL A   1      34.269  33.629  28.815  1.00  0.00     0.039 A 
ATOM     28  C   UNL A   1      35.519  34.235  28.672  1.00  0.00     0.014 A 
ATOM     29  C   UNL A   1      34.151  32.389  29.448  1.00  0.00     0.014 A 
ATOM     30  C   UNL A   1      36.643  33.634  29.241  1.00  0.00     0.010 A 
ATOM     31  C   UNL A   1      35.255  31.834  30.082  1.00  0.00     0.010 A 
ATOM     32  C   UNL A   1      36.512  32.452  29.989  1.00  0.00    -0.014 A 
BRANCH  32  33
ATOM     33  C   UNL A   1      37.674  31.838  30.679  1.00  0.00     0.031 A 
ATOM     34  C   UNL A   1      38.483  30.780  29.980  1.00  0.00     0.074 A 
ATOM     35  C   UNL A   1      37.946  32.171  31.956  1.00  0.00     0.049 A 
ATOM     36  N   UNL A   1      39.464  30.048  30.440  1.00  0.00    -0.248 NA
ATOM     37  C   UNL A   1      38.105  30.478  28.592  1.00  0.00     0.031 C 
ATOM     38  C   UNL A   1      37.197  33.144  32.755  1.00  0.00     0.029 A 
ATOM     39  N   UNL A   1      38.918  31.719  32.813  1.00  0.00    -0.354 N 
ATOM     40  C   UNL A   1      39.809  29.186  29.405  1.00  0.00     0.074 A 
ATOM     41  C   UNL A   1      38.883  29.441  28.322  1.00  0.00     0.031 C 
ATOM     42  C   UNL A   1      37.751  33.230  33.976  1.00  0.00     0.029 A 
ATOM     43  C   UNL A   1      38.866  32.291  34.062  1.00  0.00     0.049 A 
ATOM     44  H   UNL A   1      39.590  31.046  32.557  1.00  0.00     0.167 HD
ATOM     45  C   UNL A   1      40.819  28.282  29.353  1.00  0.00     0.034 A 
ATOM     46  C   UNL A   1      39.624  32.078  35.155  1.00  0.00     0.034 A 
ATOM     47  C   UNL A   1      41.744  28.056  30.437  1.00  0.00     0.049 A 
ATOM     48  C   UNL A   1      40.744  31.072  35.076  1.00  0.00     0.074 A 
ATOM     49  C   UNL A   1      42.841  27.215  30.475  1.00  0.00     0.029 A 
ATOM     50  N   UNL A   1      41.675  28.674  31.680  1.00  0.00    -0.354 N 
ATOM     51  N   UNL A   1      41.093  30.302  34.071  1.00  0.00    -0.248 NA
ATOM     52  C   UNL A   1      41.578  30.917  36.273  1.00  0.00     0.031 C 
ATOM     53  C   UNL A   1      43.401  27.280  31.756  1.00  0.00     0.029 A 
ATOM     54  C   UNL A   1      42.695  28.214  32.499  1.00  0.00     0.049 A 
ATOM     55  H   UNL A   1      41.001  29.341  31.941  1.00  0.00     0.167 HD
ATOM     56  C   UNL A   1      42.205  29.591  34.509  1.00  0.00     0.074 A 
ATOM     57  C   UNL A   1      42.476  30.033  35.862  1.00  0.00     0.031 C 
ATOM     58  C   UNL A   1      42.942  28.659  33.850  1.00  0.00     0.034 A 
BRANCH  45  59
ATOM     59  C   UNL A   1      40.950  27.466  28.089  1.00  0.00     0.023 A 
ATOM     60  C   UNL A   1      40.604  26.103  28.051  1.00  0.00     0.031 A 
ATOM     61  C   UNL A   1      41.478  28.041  26.919  1.00  0.00     0.131 A 
ATOM     62  C   UNL A   1      40.874  25.341  26.906  1.00  0.00     0.055 A 
ATOM     63  C   UNL A   1      41.661  27.297  25.751  1.00  0.00     0.041 A 
ATOM     64  F   UNL A   1      41.846  29.331  26.897  1.00  0.00    -0.206 F 
ATOM     65  C   UNL A   1      41.377  25.934  25.745  1.00  0.00     0.022 A 
BRANCH  62  66
ATOM     66  S   UNL A   1      40.715  23.537  27.012  1.00  0.00     0.124 S 
ATOM     67  O   UNL A   1      41.506  23.104  25.862  1.00  0.00    -0.237 OA
ATOM     68  O   UNL A   1      41.282  23.247  28.323  1.00  0.00    -0.237 OA
ATOM     69  O   UNL A   1      39.277  23.312  26.888  1.00  0.00    -0.744 OA
ENDBRANCH  62  66
ENDBRANCH  45  59
BRANCH  46  70
ATOM     70  C   UNL A   1      39.356  32.825  36.416  1.00  0.00     0.023 A 
ATOM     71  C   UNL A   1      38.463  32.322  37.375  1.00  0.00     0.031 A 
ATOM     72  C   UNL A   1      39.969  34.064  36.669  1.00  0.00     0.131 A 
ATOM     73  C   UNL A   1      38.176  33.074  38.525  1.00  0.00     0.055 A 
ATOM     74  C   UNL A   1      39.715  34.787  37.836  1.00  0.00     0.041 A 
ATOM     75  F   UNL A   1      40.840  34.583  35.789  1.00  0.00    -0.206 F 
ATOM     76  C   UNL A   1      38.804  34.298  38.767  1.00  0.00     0.022 A 
BRANCH  73  77
ATOM     77  S   UNL A   1      36.915  32.458  39.674  1.00  0.00     0.124 S 
ATOM     78  O   UNL A   1      37.037  33.399  40.782  1.00  0.00    -0.237 OA
ATOM     79  O   UNL A   1      35.699  32.564  38.874  1.00  0.00    -0.237 OA
ATOM     80  O   UNL A   1      37.352  31.094  39.961  1.00  0.00    -0.744 OA
ENDBRANCH  73  77
ENDBRANCH  46  70
BRANCH  58  81
ATOM     81  C   UNL A   1      44.136  28.094  34.578  1.00  0.00     0.023 A 
ATOM     82  C   UNL A   1      44.039  26.940  35.374  1.00  0.00     0.031 A 
ATOM     83  C   UNL A   1      45.386  28.729  34.480  1.00  0.00     0.131 A 
ATOM     84  C   UNL A   1      45.162  26.485  36.082  1.00  0.00     0.055 A 
ATOM     85  C   UNL A   1      46.513  28.239  35.141  1.00  0.00     0.041 A 
ATOM     86  F   UNL A   1      45.533  29.837  33.734  1.00  0.00    -0.206 F 
ATOM     87  C   UNL A   1      46.401  27.118  35.958  1.00  0.00     0.022 A 
BRANCH  84  88
ATOM     88  S   UNL A   1      44.962  25.099  37.236  1.00  0.00     0.124 S 
ATOM     89  O   UNL A   1      45.938  25.424  38.271  1.00  0.00    -0.237 OA
ATOM     90  O   UNL A   1      43.560  25.216  37.623  1.00  0.00    -0.237 OA
ATOM     91  O   UNL A   1      45.285  23.927  36.424  1.00  0.00    -0.744 OA
ENDBRANCH  84  88
ENDBRANCH  58  81
ENDBRANCH  32  33
ENDBRANCH  24  27
ENDBRANCH  22  23
ENDBRANCH  21  22
ENDBRANCH   1  21
TORSDOF 18
ENDMDL
MODEL 2
REMARK VINA RESULT:     -10.9      2.436      8.282
REMARK SMILES Cc1cc(Br)cnc1SCC1(CC(=O)NCCCCNC(=O)c2ccc(-c3c4nc(c(-c5cc(S(=O)(=O)[O-])ccc5F)c5ccc([nH]5)c(-c5cc(S(=O)(=O)[O-])ccc5F)c5nc(c(-c6cc(S(=O)(=O)[O-])ccc6F)c6ccc3[nH]6)C=C5)C=C4)cc2)CC1
REMARK SMILES IDX 17 1 16 2 15 3 13 4 14 5 12 7 11 8 86 9 87 10 10 11 9 12
REMARK SMILES IDX 8 13 1 14 2 15 3 16 4 17 7 18 5 19 6 20 18 21 19 22 20 23
REMARK SMILES IDX 21 24 22 26 23 27 24 28 85 29 25 30 84 31 26 32 27 33 28 34
REMARK SMILES IDX 78 35 29 36 83 37 77 38 79 39 30 40 82 41 76 42 75 43 31 45
REMARK SMILES IDX 63 46 43 47 62 48 44 49 47 50 61 51 80 52 45 53 46 54 60 56
REMARK SMILES IDX 81 57 48 58 32 59 33 60 41 61 34 62 40 63 42 64 39 65 35 66
REMARK SMILES IDX 36 67 37 68 38 69 64 70 65 71 73 72 66 73 72 74 74 75 71 76
REMARK SMILES IDX 67 77 68 78 69 79 70 80 49 81 50 82 58 83 51 84 57 85 59 86
REMARK SMILES IDX 56 87 52 88 53 89 54 90 55 91
REMARK H PARENT 15 6 20 25 79 44 47 55
REMARK Flexibility Score: inf
ROOT
ATOM      1  C   UNL A   1      31.401  28.144  26.742  1.00  0.00     0.023 C 
ENDROOT
BRANCH   1   2
ATOM      2  C   UNL A   1      31.956  26.726  26.598  1.00  0.00     0.116 C 
BRANCH   2   3
ATOM      3  N   UNL A   1      30.909  25.736  26.728  1.00  0.00    -0.356 N 
ATOM      4  C   UNL A   1      31.016  24.381  26.839  1.00  0.00     0.220 C 
ATOM      5  O   UNL A   1      29.979  23.717  26.880  1.00  0.00    -0.275 OA
ATOM      6  H   UNL A   1      29.990  26.090  26.739  1.00  0.00     0.163 HD
BRANCH   4   7
ATOM      7  C   UNL A   1      32.384  23.720  26.928  1.00  0.00     0.107 C 
BRANCH   7   8
ATOM      8  C   UNL A   1      32.856  22.970  25.684  1.00  0.00    -0.011 C 
ATOM      9  C   UNL A   1      32.654  21.459  25.697  1.00  0.00     0.009 C 
ATOM     10  C   UNL A   1      34.033  22.006  25.825  1.00  0.00     0.009 C 
BRANCH   8  11
ATOM     11  C   UNL A   1      32.781  23.734  24.379  1.00  0.00     0.084 C 
BRANCH  11  12
ATOM     12  S   UNL A   1      31.272  23.641  23.394  1.00  0.00    -0.106 SA
BRANCH  12  13
ATOM     13  C   UNL A   1      30.765  25.311  23.064  1.00  0.00     0.099 A 
ATOM     14  C   UNL A   1      32.657  26.009  21.446  1.00  0.00     0.047 C 
ATOM     15  C   UNL A   1      31.411  26.249  22.245  1.00  0.00    -0.018 A 
ATOM     16  C   UNL A   1      30.895  27.562  22.212  1.00  0.00     0.023 A 
ATOM     17  C   UNL A   1      29.812  27.914  23.002  1.00  0.00     0.036 A 
ATOM     18  N   UNL A   1      29.697  25.663  23.831  1.00  0.00    -0.248 NA
ATOM     19  Br  UNL A   1      29.151  29.677  23.007  1.00  0.00    -0.049 Br
ATOM     20  C   UNL A   1      29.255  26.940  23.800  1.00  0.00     0.128 A 
ENDBRANCH  12  13
ENDBRANCH  11  12
ENDBRANCH   8  11
ENDBRANCH   7   8
ENDBRANCH   4   7
ENDBRANCH   2   3
ENDBRANCH   1   2
BRANCH   1  21
ATOM     21  C   UNL A   1      31.837  29.122  25.651  1.00  0.00     0.023 C 
BRANCH  21  22
ATOM     22  C   UNL A   1      33.094  29.923  25.962  1.00  0.00     0.116 C 
BRANCH  22  23
ATOM     23  N   UNL A   1      32.828  31.221  26.567  1.00  0.00    -0.352 N 
ATOM     24  C   UNL A   1      33.596  31.898  27.485  1.00  0.00     0.251 C 
ATOM     25  H   UNL A   1      31.998  31.667  26.285  1.00  0.00     0.163 HD
ATOM     26  O   UNL A   1      33.192  32.950  27.973  1.00  0.00    -0.269 OA
BRANCH  24  27
ATOM     27  C   UNL A   1      34.882  31.310  27.910  1.00  0.00     0.039 A 
ATOM     28  C   UNL A   1      36.013  32.126  27.972  1.00  0.00     0.014 A 
ATOM     29  C   UNL A   1      34.947  29.976  28.321  1.00  0.00     0.014 A 
ATOM     30  C   UNL A   1      37.191  31.626  28.528  1.00  0.00     0.010 A 
ATOM     31  C   UNL A   1      36.094  29.506  28.948  1.00  0.00     0.010 A 
ATOM     32  C   UNL A   1      37.227  30.327  29.061  1.00  0.00    -0.014 A 
BRANCH  32  33
ATOM     33  C   UNL A   1      38.439  29.799  29.738  1.00  0.00     0.031 A 
ATOM     34  C   UNL A   1      38.821  30.321  31.096  1.00  0.00     0.074 A 
ATOM     35  C   UNL A   1      39.234  28.920  29.098  1.00  0.00     0.049 A 
ATOM     36  N   UNL A   1      39.888  30.073  31.810  1.00  0.00    -0.248 NA
ATOM     37  C   UNL A   1      37.896  31.284  31.711  1.00  0.00     0.031 C 
ATOM     38  C   UNL A   1      38.995  28.385  27.755  1.00  0.00     0.029 A 
ATOM     39  N   UNL A   1      40.412  28.331  29.483  1.00  0.00    -0.354 N 
ATOM     40  C   UNL A   1      39.773  30.862  32.948  1.00  0.00     0.074 A 
ATOM     41  C   UNL A   1      38.567  31.647  32.793  1.00  0.00     0.031 C 
ATOM     42  C   UNL A   1      39.983  27.531  27.440  1.00  0.00     0.029 A 
ATOM     43  C   UNL A   1      40.946  27.488  28.536  1.00  0.00     0.049 A 
ATOM     44  H   UNL A   1      40.836  28.497  30.356  1.00  0.00     0.167 HD
ATOM     45  C   UNL A   1      40.585  30.910  34.034  1.00  0.00     0.034 A 
ATOM     46  C   UNL A   1      42.086  26.770  28.547  1.00  0.00     0.034 A 
ATOM     47  C   UNL A   1      41.772  30.104  34.179  1.00  0.00     0.049 A 
ATOM     48  C   UNL A   1      42.972  26.835  29.764  1.00  0.00     0.074 A 
ATOM     49  C   UNL A   1      42.634  30.021  35.257  1.00  0.00     0.029 A 
ATOM     50  N   UNL A   1      42.269  29.242  33.208  1.00  0.00    -0.354 N 
ATOM     51  N   UNL A   1      42.823  27.545  30.858  1.00  0.00    -0.248 NA
ATOM     52  C   UNL A   1      44.173  25.991  29.752  1.00  0.00     0.031 C 
ATOM     53  C   UNL A   1      43.681  29.156  34.918  1.00  0.00     0.029 A 
ATOM     54  C   UNL A   1      43.438  28.644  33.654  1.00  0.00     0.049 A 
ATOM     55  H   UNL A   1      41.852  29.080  32.332  1.00  0.00     0.167 HD
ATOM     56  C   UNL A   1      43.898  27.212  31.675  1.00  0.00     0.074 A 
ATOM     57  C   UNL A   1      44.679  26.227  30.954  1.00  0.00     0.031 C 
ATOM     58  C   UNL A   1      44.209  27.673  32.914  1.00  0.00     0.034 A 
BRANCH  45  59
ATOM     59  C   UNL A   1      40.215  31.882  35.129  1.00  0.00     0.023 A 
ATOM     60  C   UNL A   1      39.351  31.518  36.178  1.00  0.00     0.031 A 
ATOM     61  C   UNL A   1      40.688  33.206  35.099  1.00  0.00     0.131 A 
ATOM     62  C   UNL A   1      38.913  32.484  37.094  1.00  0.00     0.055 A 
ATOM     63  C   UNL A   1      40.320  34.142  36.069  1.00  0.00     0.041 A 
ATOM     64  F   UNL A   1      41.500  33.620  34.114  1.00  0.00    -0.206 F 
ATOM     65  C   UNL A   1      39.411  33.789  37.063  1.00  0.00     0.022 A 
BRANCH  62  66
ATOM     66  S   UNL A   1      37.559  32.053  38.222  1.00  0.00     0.124 S 
ATOM     67  O   UNL A   1      37.245  30.690  37.798  1.00  0.00    -0.237 OA
ATOM     68  O   UNL A   1      38.185  32.187  39.532  1.00  0.00    -0.237 OA
ATOM     69  O   UNL A   1      36.530  33.045  37.917  1.00  0.00    -0.744 OA
ENDBRANCH  62  66
ENDBRANCH  45  59
BRANCH  46  70
ATOM     70  C   UNL A   1      42.460  25.931  27.374  1.00  0.00     0.023 A 
ATOM     71  C   UNL A   1      42.098  24.576  27.312  1.00  0.00     0.031 A 
ATOM     72  C   UNL A   1      43.206  26.466  26.309  1.00  0.00     0.131 A 
ATOM     73  C   UNL A   1      42.519  23.789  26.228  1.00  0.00     0.055 A 
ATOM     74  C   UNL A   1      43.582  25.690  25.211  1.00  0.00     0.041 A 
ATOM     75  F   UNL A   1      43.567  27.759  26.314  1.00  0.00    -0.206 F 
ATOM     76  C   UNL A   1      43.248  24.340  25.172  1.00  0.00     0.022 A 
BRANCH  73  77
ATOM     77  S   UNL A   1      42.152  22.013  26.250  1.00  0.00     0.124 S 
ATOM     78  O   UNL A   1      42.648  21.623  27.565  1.00  0.00    -0.237 OA
ATOM     79  O   UNL A   1      40.702  22.002  26.081  1.00  0.00    -0.237 OA
ATOM     80  O   UNL A   1      42.912  21.494  25.115  1.00  0.00    -0.744 OA
ENDBRANCH  73  77
ENDBRANCH  46  70
BRANCH  58  81
ATOM     81  C   UNL A   1      45.426  27.078  33.577  1.00  0.00     0.023 A 
ATOM     82  C   UNL A   1      45.341  25.934  34.390  1.00  0.00     0.031 A 
ATOM     83  C   UNL A   1      46.688  27.672  33.399  1.00  0.00     0.131 A 
ATOM     84  C   UNL A   1      46.489  25.450  35.036  1.00  0.00     0.055 A 
ATOM     85  C   UNL A   1      47.835  27.153  33.999  1.00  0.00     0.041 A 
ATOM     86  F   UNL A   1      46.825  28.767  32.635  1.00  0.00    -0.206 F 
ATOM     87  C   UNL A   1      47.738  26.043  34.833  1.00  0.00     0.022 A 
BRANCH  84  88
ATOM     88  S   UNL A   1      46.314  24.082  36.216  1.00  0.00     0.124 S 
ATOM     89  O   UNL A   1      47.614  23.428  36.114  1.00  0.00    -0.237 OA
ATOM     90  O   UNL A   1      46.048  24.782  37.468  1.00  0.00    -0.237 OA
ATOM     91  O   UNL A   1      45.190  23.314  35.685  1.00  0.00    -0.744 OA
ENDBRANCH  84  88
ENDBRANCH  58  81
ENDBRANCH  32  33
ENDBRANCH  24  27
ENDBRANCH  22  23
ENDBRANCH  21  22
ENDBRANCH   1  21
TORSDOF 18
ENDMDL
MODEL 3
REMARK VINA RESULT:     -10.8      5.240      8.265
REMARK SMILES Cc1cc(Br)cnc1SCC1(CC(=O)NCCCCNC(=O)c2ccc(-c3c4nc(c(-c5cc(S(=O)(=O)[O-])ccc5F)c5ccc([nH]5)c(-c5cc(S(=O)(=O)[O-])ccc5F)c5nc(c(-c6cc(S(=O)(=O)[O-])ccc6F)c6ccc3[nH]6)C=C5)C=C4)cc2)CC1
REMARK SMILES IDX 17 1 16 2 15 3 13 4 14 5 12 7 11 8 86 9 87 10 10 11 9 12
REMARK SMILES IDX 8 13 1 14 2 15 3 16 4 17 7 18 5 19 6 20 18 21 19 22 20 23
REMARK SMILES IDX 21 24 22 26 23 27 24 28 85 29 25 30 84 31 26 32 27 33 28 34
REMARK SMILES IDX 78 35 29 36 83 37 77 38 79 39 30 40 82 41 76 42 75 43 31 45
REMARK SMILES IDX 63 46 43 47 62 48 44 49 47 50 61 51 80 52 45 53 46 54 60 56
REMARK SMILES IDX 81 57 48 58 32 59 33 60 41 61 34 62 40 63 42 64 39 65 35 66
REMARK SMILES IDX 36 67 37 68 38 69 64 70 65 71 73 72 66 73 72 74 74 75 71 76
REMARK SMILES IDX 67 77 68 78 69 79 70 80 49 81 50 82 58 83 51 84 57 85 59 86
REMARK SMILES IDX 56 87 52 88 53 89 54 90 55 91
REMARK H PARENT 15 6 20 25 79 44 47 55
REMARK Flexibility Score: inf
ROOT
ATOM      1  C   UNL A   1      36.219  22.932  23.406  1.00  0.00     0.023 C 
ENDROOT
BRANCH   1   2
ATOM      2  C   UNL A   1      35.132  23.795  24.049  1.00  0.00     0.116 C 
BRANCH   2   3
ATOM      3  N   UNL A   1      34.066  24.081  23.113  1.00  0.00    -0.356 N 
ATOM      4  C   UNL A   1      33.311  25.210  22.989  1.00  0.00     0.220 C 
ATOM      5  O   UNL A   1      32.407  25.215  22.153  1.00  0.00    -0.275 OA
ATOM      6  H   UNL A   1      33.857  23.360  22.476  1.00  0.00     0.163 HD
BRANCH   4   7
ATOM      7  C   UNL A   1      33.598  26.429  23.853  1.00  0.00     0.107 C 
BRANCH   7   8
ATOM      8  C   UNL A   1      32.684  26.635  25.059  1.00  0.00    -0.011 C 
ATOM      9  C   UNL A   1      31.385  27.388  24.793  1.00  0.00     0.009 C 
ATOM     10  C   UNL A   1      32.466  28.061  25.565  1.00  0.00     0.009 C 
BRANCH   8  11
ATOM     11  C   UNL A   1      32.732  25.558  26.121  1.00  0.00     0.084 C 
BRANCH  11  12
ATOM     12  S   UNL A   1      31.398  24.345  26.202  1.00  0.00    -0.106 SA
BRANCH  12  13
ATOM     13  C   UNL A   1      32.129  22.750  25.923  1.00  0.00     0.099 A 
ATOM     14  C   UNL A   1      33.632  22.607  28.022  1.00  0.00     0.047 C 
ATOM     15  C   UNL A   1      33.073  22.096  26.727  1.00  0.00    -0.018 A 
ATOM     16  C   UNL A   1      33.608  20.877  26.259  1.00  0.00     0.023 A 
ATOM     17  C   UNL A   1      33.240  20.376  25.020  1.00  0.00     0.036 A 
ATOM     18  N   UNL A   1      31.767  22.247  24.711  1.00  0.00    -0.248 NA
ATOM     19  Br  UNL A   1      33.990  18.779  24.361  1.00  0.00    -0.049 Br
ATOM     20  C   UNL A   1      32.329  21.096  24.280  1.00  0.00     0.128 A 
ENDBRANCH  12  13
ENDBRANCH  11  12
ENDBRANCH   8  11
ENDBRANCH   7   8
ENDBRANCH   4   7
ENDBRANCH   2   3
ENDBRANCH   1   2
BRANCH   1  21
ATOM     21  C   UNL A   1      36.708  21.765  24.264  1.00  0.00     0.023 C 
BRANCH  21  22
ATOM     22  C   UNL A   1      37.544  22.156  25.475  1.00  0.00     0.116 C 
BRANCH  22  23
ATOM     23  N   UNL A   1      38.572  21.183  25.819  1.00  0.00    -0.352 N 
ATOM     24  C   UNL A   1      39.754  21.403  26.485  1.00  0.00     0.251 C 
ATOM     25  H   UNL A   1      38.398  20.255  25.541  1.00  0.00     0.163 HD
ATOM     26  O   UNL A   1      40.565  20.491  26.622  1.00  0.00    -0.269 OA
BRANCH  24  27
ATOM     27  C   UNL A   1      40.051  22.763  26.979  1.00  0.00     0.039 A 
ATOM     28  C   UNL A   1      40.989  22.923  28.000  1.00  0.00     0.014 A 
ATOM     29  C   UNL A   1      39.462  23.877  26.376  1.00  0.00     0.014 A 
ATOM     30  C   UNL A   1      41.400  24.207  28.360  1.00  0.00     0.010 A 
ATOM     31  C   UNL A   1      39.931  25.149  26.678  1.00  0.00     0.010 A 
ATOM     32  C   UNL A   1      40.907  25.328  27.671  1.00  0.00    -0.014 A 
BRANCH  32  33
ATOM     33  C   UNL A   1      41.392  26.698  27.972  1.00  0.00     0.031 A 
ATOM     34  C   UNL A   1      42.810  27.077  27.641  1.00  0.00     0.074 A 
ATOM     35  C   UNL A   1      40.588  27.567  28.615  1.00  0.00     0.049 A 
ATOM     36  N   UNL A   1      43.459  28.179  27.914  1.00  0.00    -0.248 NA
ATOM     37  C   UNL A   1      43.614  26.060  26.948  1.00  0.00     0.031 C 
ATOM     38  C   UNL A   1      39.212  27.293  29.037  1.00  0.00     0.029 A 
ATOM     39  N   UNL A   1      40.813  28.852  29.041  1.00  0.00    -0.354 N 
ATOM     40  C   UNL A   1      44.752  27.982  27.443  1.00  0.00     0.074 A 
ATOM     41  C   UNL A   1      44.809  26.628  26.933  1.00  0.00     0.031 C 
ATOM     42  C   UNL A   1      38.711  28.384  29.640  1.00  0.00     0.029 A 
ATOM     43  C   UNL A   1      39.739  29.419  29.686  1.00  0.00     0.049 A 
ATOM     44  H   UNL A   1      41.666  29.324  28.898  1.00  0.00     0.167 HD
ATOM     45  C   UNL A   1      45.789  28.855  27.417  1.00  0.00     0.034 A 
ATOM     46  C   UNL A   1      39.602  30.631  30.256  1.00  0.00     0.034 A 
ATOM     47  C   UNL A   1      45.706  30.207  27.913  1.00  0.00     0.049 A 
ATOM     48  C   UNL A   1      40.765  31.589  30.214  1.00  0.00     0.074 A 
ATOM     49  C   UNL A   1      46.668  31.200  27.881  1.00  0.00     0.029 A 
ATOM     50  N   UNL A   1      44.592  30.755  28.539  1.00  0.00    -0.354 N 
ATOM     51  N   UNL A   1      41.966  31.408  29.716  1.00  0.00    -0.248 NA
ATOM     52  C   UNL A   1      40.548  32.919  30.798  1.00  0.00     0.031 C 
ATOM     53  C   UNL A   1      46.159  32.327  28.537  1.00  0.00     0.029 A 
ATOM     54  C   UNL A   1      44.853  32.064  28.918  1.00  0.00     0.049 A 
ATOM     55  H   UNL A   1      43.742  30.284  28.689  1.00  0.00     0.167 HD
ATOM     56  C   UNL A   1      42.639  32.611  29.904  1.00  0.00     0.074 A 
ATOM     57  C   UNL A   1      41.705  33.514  30.547  1.00  0.00     0.031 C 
ATOM     58  C   UNL A   1      43.913  32.944  29.570  1.00  0.00     0.034 A 
BRANCH  45  59
ATOM     59  C   UNL A   1      47.097  28.357  26.851  1.00  0.00     0.023 A 
ATOM     60  C   UNL A   1      47.293  28.209  25.466  1.00  0.00     0.031 A 
ATOM     61  C   UNL A   1      48.146  27.973  27.705  1.00  0.00     0.131 A 
ATOM     62  C   UNL A   1      48.463  27.608  24.982  1.00  0.00     0.055 A 
ATOM     63  C   UNL A   1      49.347  27.457  27.212  1.00  0.00     0.041 A 
ATOM     64  F   UNL A   1      48.014  28.071  29.037  1.00  0.00    -0.206 F 
ATOM     65  C   UNL A   1      49.504  27.253  25.844  1.00  0.00     0.022 A 
BRANCH  62  66
ATOM     66  S   UNL A   1      48.535  27.144  23.230  1.00  0.00     0.124 S 
ATOM     67  O   UNL A   1      47.570  28.070  22.641  1.00  0.00    -0.237 OA
ATOM     68  O   UNL A   1      49.934  27.382  22.897  1.00  0.00    -0.237 OA
ATOM     69  O   UNL A   1      48.122  25.743  23.229  1.00  0.00    -0.744 OA
ENDBRANCH  62  66
ENDBRANCH  45  59
BRANCH  46  70
ATOM     70  C   UNL A   1      38.322  31.013  30.918  1.00  0.00     0.023 A 
ATOM     71  C   UNL A   1      37.312  31.677  30.206  1.00  0.00     0.031 A 
ATOM     72  C   UNL A   1      38.102  30.741  32.280  1.00  0.00     0.131 A 
ATOM     73  C   UNL A   1      36.143  32.085  30.867  1.00  0.00     0.055 A 
ATOM     74  C   UNL A   1      36.919  31.109  32.923  1.00  0.00     0.041 A 
ATOM     75  F   UNL A   1      39.033  30.099  33.004  1.00  0.00    -0.206 F 
ATOM     76  C   UNL A   1      35.935  31.795  32.218  1.00  0.00     0.022 A 
BRANCH  73  77
ATOM     77  S   UNL A   1      34.920  33.060  29.949  1.00  0.00     0.124 S 
ATOM     78  O   UNL A   1      34.038  33.515  31.018  1.00  0.00    -0.237 OA
ATOM     79  O   UNL A   1      35.755  34.083  29.327  1.00  0.00    -0.237 OA
ATOM     80  O   UNL A   1      34.335  32.092  29.025  1.00  0.00    -0.744 OA
ENDBRANCH  73  77
ENDBRANCH  46  70
BRANCH  58  81
ATOM     81  C   UNL A   1      44.346  34.359  29.859  1.00  0.00     0.023 A 
ATOM     82  C   UNL A   1      44.180  35.391  28.918  1.00  0.00     0.031 A 
ATOM     83  C   UNL A   1      44.943  34.676  31.091  1.00  0.00     0.131 A 
ATOM     84  C   UNL A   1      44.653  36.680  29.205  1.00  0.00     0.055 A 
ATOM     85  C   UNL A   1      45.360  35.973  31.393  1.00  0.00     0.041 A 
ATOM     86  F   UNL A   1      45.127  33.728  32.024  1.00  0.00    -0.206 F 
ATOM     87  C   UNL A   1      45.227  36.981  30.443  1.00  0.00     0.022 A 
BRANCH  84  88
ATOM     88  S   UNL A   1      44.584  37.944  27.905  1.00  0.00     0.124 S 
ATOM     89  O   UNL A   1      45.884  37.788  27.262  1.00  0.00    -0.237 OA
ATOM     90  O   UNL A   1      43.429  37.520  27.121  1.00  0.00    -0.237 OA
ATOM     91  O   UNL A   1      44.404  39.190  28.648  1.00  0.00    -0.744 OA
ENDBRANCH  84  88
ENDBRANCH  58  81
ENDBRANCH  32  33
ENDBRANCH  24  27
ENDBRANCH  22  23
ENDBRANCH  21  22
ENDBRANCH   1  21
TORSDOF 18
ENDMDL
