MODEL 1
REMARK VINA RESULT:     -13.1      0.000      0.000
REMARK SMILES N#Cc1cccnc1N1CC[NH+]([C@@H](C(=O)NCCCCNC(=O)c2ccc(-c3c4nc(c(-c5cc(S(=O)(=O)[O-])ccc5F)c5ccc([nH]5)c(-c5cc(S(=O)(=O)[O-])ccc5F)c5nc(c(-c6cc(S(=O)(=O)[O-])ccc6F)c6ccc3[nH]6)C=C5)C=C4)cc2)c2c[nH]c3cc(CO)ccc23)CC1
REMARK SMILES IDX 18 1 17 2 16 3 14 4 15 5 13 7 12 8 9 9 10 10 99 11 11 12
REMARK SMILES IDX 98 13 8 15 3 16 4 17 5 18 7 19 6 20 2 21 1 22 87 23 88 24
REMARK SMILES IDX 97 25 89 26 90 27 96 28 91 30 95 31 92 32 93 33 94 34 19 36
REMARK SMILES IDX 20 37 21 38 22 39 23 41 24 42 25 43 86 44 26 45 85 46 27 47
REMARK SMILES IDX 28 48 29 49 79 50 30 51 84 52 78 53 80 54 31 55 83 56 77 57
REMARK SMILES IDX 76 58 32 60 64 61 44 62 63 63 45 64 48 65 62 66 81 67 46 68
REMARK SMILES IDX 47 69 61 71 82 72 49 73 33 74 34 75 42 76 35 77 41 78 43 79
REMARK SMILES IDX 40 80 36 81 37 82 38 83 39 84 65 85 66 86 74 87 67 88 73 89
REMARK SMILES IDX 75 90 72 91 68 92 69 93 70 94 71 95 50 96 51 97 59 98 52 99
REMARK SMILES IDX 58 100 60 101 57 102 53 103 54 104 55 105 56 106
REMARK H PARENT 16 6 12 14 89 29 94 35 21 40 80 59 48 70
REMARK Flexibility Score: inf
ROOT
ATOM      1  C   UNL A   1      31.554  30.460  25.929  1.00  0.00     0.023 C 
ENDROOT
BRANCH   1   2
ATOM      2  C   UNL A   1      31.955  29.317  26.903  1.00  0.00     0.116 C 
BRANCH   2   3
ATOM      3  N   UNL A   1      32.666  28.180  26.322  1.00  0.00    -0.351 N 
ATOM      4  C   UNL A   1      32.368  27.135  25.479  1.00  0.00     0.283 C 
ATOM      5  O   UNL A   1      33.365  26.484  25.148  1.00  0.00    -0.268 OA
ATOM      6  H   UNL A   1      33.607  28.157  26.608  1.00  0.00     0.163 HD
BRANCH   4   7
ATOM      7  C   UNL A   1      30.939  26.825  24.944  1.00  0.00     0.307 C 
BRANCH   7   8
ATOM      8  N   UNL A   1      30.431  25.393  25.068  1.00  0.00    -0.318 N 
ATOM      9  N   UNL A   1      32.545  23.306  24.855  1.00  0.00    -0.344 N 
ATOM     10  C   UNL A   1      32.045  24.015  23.672  1.00  0.00     0.179 C 
ATOM     11  C   UNL A   1      32.308  24.015  26.126  1.00  0.00     0.179 C 
ATOM     12  C   UNL A   1      30.597  24.452  23.940  1.00  0.00     0.284 C 
ATOM     13  C   UNL A   1      30.886  24.635  26.233  1.00  0.00     0.284 C 
ATOM     14  H   UNL A   1      29.452  25.674  25.130  1.00  0.00     0.349 HD
BRANCH   9  15
ATOM     15  C   UNL A   1      33.853  22.810  24.733  1.00  0.00     0.146 A 
ATOM     16  C   UNL A   1      34.124  21.438  24.821  1.00  0.00     0.095 A 
ATOM     17  C   UNL A   1      35.452  20.998  24.799  1.00  0.00     0.025 A 
ATOM     18  C   UNL A   1      36.481  21.924  24.681  1.00  0.00     0.022 A 
ATOM     19  N   UNL A   1      34.861  23.705  24.575  1.00  0.00    -0.238 NA
ATOM     20  C   UNL A   1      36.137  23.256  24.566  1.00  0.00     0.113 A 
BRANCH  16  21
ATOM     21  C   UNL A   1      33.063  20.471  24.908  1.00  0.00     0.103 C 
ATOM     22  N   UNL A   1      32.212  19.700  24.999  1.00  0.00    -0.192 NA
ENDBRANCH  16  21
ENDBRANCH   9  15
ENDBRANCH   7   8
BRANCH   7  23
ATOM     23  C   UNL A   1      30.641  27.302  23.494  1.00  0.00     0.044 A 
ATOM     24  C   UNL A   1      31.613  27.468  22.513  1.00  0.00     0.094 A 
ATOM     25  C   UNL A   1      29.522  28.062  22.987  1.00  0.00     0.009 A 
ATOM     26  N   UNL A   1      31.392  28.738  22.018  1.00  0.00    -0.361 N 
ATOM     27  C   UNL A   1      30.128  29.159  22.367  1.00  0.00     0.046 A 
ATOM     28  C   UNL A   1      28.138  28.136  23.222  1.00  0.00     0.011 A 
ATOM     29  H   UNL A   1      32.041  29.262  21.496  1.00  0.00     0.166 HD
ATOM     30  C   UNL A   1      29.523  30.428  22.343  1.00  0.00     0.032 A 
ATOM     31  C   UNL A   1      27.478  29.361  23.080  1.00  0.00     0.007 A 
ATOM     32  C   UNL A   1      28.200  30.527  22.808  1.00  0.00    -0.021 A 
BRANCH  32  33
ATOM     33  C   UNL A   1      27.568  31.872  23.073  1.00  0.00     0.191 C 
BRANCH  33  34
ATOM     34  O   UNL A   1      27.846  32.808  22.032  1.00  0.00    -0.392 OA
ATOM     35  H   UNL A   1      28.795  32.797  21.832  1.00  0.00     0.211 HD
ENDBRANCH  33  34
ENDBRANCH  32  33
ENDBRANCH   7  23
ENDBRANCH   4   7
ENDBRANCH   2   3
ENDBRANCH   1   2
BRANCH   1  36
ATOM     36  C   UNL A   1      31.397  31.869  26.514  1.00  0.00     0.023 C 
BRANCH  36  37
ATOM     37  C   UNL A   1      32.659  32.425  27.141  1.00  0.00     0.116 C 
BRANCH  37  38
ATOM     38  N   UNL A   1      32.505  33.800  27.585  1.00  0.00    -0.352 N 
ATOM     39  C   UNL A   1      33.195  34.475  28.567  1.00  0.00     0.251 C 
ATOM     40  H   UNL A   1      31.811  34.321  27.120  1.00  0.00     0.163 HD
ATOM     41  O   UNL A   1      32.828  35.600  28.895  1.00  0.00    -0.269 OA
BRANCH  39  42
ATOM     42  C   UNL A   1      34.345  33.834  29.251  1.00  0.00     0.039 A 
ATOM     43  C   UNL A   1      35.638  34.293  28.980  1.00  0.00     0.014 A 
ATOM     44  C   UNL A   1      34.160  32.789  30.159  1.00  0.00     0.014 A 
ATOM     45  C   UNL A   1      36.729  33.737  29.654  1.00  0.00     0.010 A 
ATOM     46  C   UNL A   1      35.230  32.316  30.910  1.00  0.00     0.010 A 
ATOM     47  C   UNL A   1      36.529  32.765  30.646  1.00  0.00    -0.014 A 
BRANCH  47  48
ATOM     48  C   UNL A   1      37.667  32.168  31.389  1.00  0.00     0.031 A 
ATOM     49  C   UNL A   1      38.458  31.045  30.769  1.00  0.00     0.074 A 
ATOM     50  C   UNL A   1      37.945  32.592  32.636  1.00  0.00     0.049 A 
ATOM     51  N   UNL A   1      39.457  30.361  31.264  1.00  0.00    -0.248 NA
ATOM     52  C   UNL A   1      38.037  30.607  29.431  1.00  0.00     0.031 C 
ATOM     53  C   UNL A   1      37.207  33.633  33.357  1.00  0.00     0.029 A 
ATOM     54  N   UNL A   1      38.921  32.209  33.517  1.00  0.00    -0.354 N 
ATOM     55  C   UNL A   1      39.767  29.398  30.306  1.00  0.00     0.074 A 
ATOM     56  C   UNL A   1      38.794  29.538  29.245  1.00  0.00     0.031 C 
ATOM     57  C   UNL A   1      37.790  33.838  34.549  1.00  0.00     0.029 A 
ATOM     58  C   UNL A   1      38.911  32.918  34.696  1.00  0.00     0.049 A 
ATOM     59  H   UNL A   1      39.569  31.492  33.326  1.00  0.00     0.167 HD
ATOM     60  C   UNL A   1      40.787  28.504  30.299  1.00  0.00     0.034 A 
ATOM     61  C   UNL A   1      39.723  32.837  35.768  1.00  0.00     0.034 A 
ATOM     62  C   UNL A   1      41.754  28.401  31.365  1.00  0.00     0.049 A 
ATOM     63  C   UNL A   1      40.849  31.837  35.744  1.00  0.00     0.074 A 
ATOM     64  C   UNL A   1      42.871  27.590  31.444  1.00  0.00     0.029 A 
ATOM     65  N   UNL A   1      41.710  29.131  32.547  1.00  0.00    -0.354 N 
ATOM     66  N   UNL A   1      41.175  30.981  34.802  1.00  0.00    -0.248 NA
ATOM     67  C   UNL A   1      41.723  31.803  36.921  1.00  0.00     0.031 C 
ATOM     68  C   UNL A   1      43.460  27.776  32.701  1.00  0.00     0.029 A 
ATOM     69  C   UNL A   1      42.758  28.762  33.377  1.00  0.00     0.049 A 
ATOM     70  H   UNL A   1      41.033  29.813  32.764  1.00  0.00     0.167 HD
ATOM     71  C   UNL A   1      42.309  30.321  35.266  1.00  0.00     0.074 A 
ATOM     72  C   UNL A   1      42.619  30.898  36.561  1.00  0.00     0.031 C 
ATOM     73  C   UNL A   1      43.032  29.331  34.678  1.00  0.00     0.034 A 
BRANCH  60  74
ATOM     74  C   UNL A   1      40.872  27.560  29.118  1.00  0.00     0.023 A 
ATOM     75  C   UNL A   1      41.807  27.750  28.083  1.00  0.00     0.031 A 
ATOM     76  C   UNL A   1      39.961  26.498  28.984  1.00  0.00     0.131 A 
ATOM     77  C   UNL A   1      41.736  26.970  26.918  1.00  0.00     0.055 A 
ATOM     78  C   UNL A   1      39.961  25.661  27.866  1.00  0.00     0.041 A 
ATOM     79  F   UNL A   1      39.030  26.273  29.925  1.00  0.00    -0.206 F 
ATOM     80  C   UNL A   1      40.837  25.909  26.813  1.00  0.00     0.022 A 
BRANCH  77  81
ATOM     81  S   UNL A   1      42.701  27.491  25.471  1.00  0.00     0.124 S 
ATOM     82  O   UNL A   1      44.023  27.698  26.058  1.00  0.00    -0.237 OA
ATOM     83  O   UNL A   1      42.570  26.347  24.577  1.00  0.00    -0.237 OA
ATOM     84  O   UNL A   1      42.028  28.711  25.031  1.00  0.00    -0.744 OA
ENDBRANCH  77  81
ENDBRANCH  60  74
BRANCH  61  85
ATOM     85  C   UNL A   1      39.520  33.742  36.934  1.00  0.00     0.023 A 
ATOM     86  C   UNL A   1      38.914  33.275  38.110  1.00  0.00     0.031 A 
ATOM     87  C   UNL A   1      39.922  35.090  36.890  1.00  0.00     0.131 A 
ATOM     88  C   UNL A   1      38.697  34.152  39.184  1.00  0.00     0.055 A 
ATOM     89  C   UNL A   1      39.745  35.948  37.977  1.00  0.00     0.041 A 
ATOM     90  F   UNL A   1      40.519  35.585  35.794  1.00  0.00    -0.206 F 
ATOM     91  C   UNL A   1      39.120  35.482  39.130  1.00  0.00     0.022 A 
BRANCH  88  92
ATOM     92  S   UNL A   1      37.803  33.541  40.639  1.00  0.00     0.124 S 
ATOM     93  O   UNL A   1      38.773  32.620  41.219  1.00  0.00    -0.237 OA
ATOM     94  O   UNL A   1      37.561  34.773  41.384  1.00  0.00    -0.237 OA
ATOM     95  O   UNL A   1      36.612  32.917  40.069  1.00  0.00    -0.744 OA
ENDBRANCH  88  92
ENDBRANCH  61  85
BRANCH  73  96
ATOM     96  C   UNL A   1      44.241  28.837  35.435  1.00  0.00     0.023 A 
ATOM     97  C   UNL A   1      44.153  27.765  36.340  1.00  0.00     0.031 A 
ATOM     98  C   UNL A   1      45.487  29.466  35.271  1.00  0.00     0.131 A 
ATOM     99  C   UNL A   1      45.275  27.400  37.100  1.00  0.00     0.055 A 
ATOM    100  C   UNL A   1      46.616  29.051  35.979  1.00  0.00     0.041 A 
ATOM    101  F   UNL A   1      45.628  30.496  34.422  1.00  0.00    -0.206 F 
ATOM    102  C   UNL A   1      46.510  28.024  36.912  1.00  0.00     0.022 A 
BRANCH  99 103
ATOM    103  S   UNL A   1      45.066  26.176  38.422  1.00  0.00     0.124 S 
ATOM    104  O   UNL A   1      44.165  25.210  37.801  1.00  0.00    -0.237 OA
ATOM    105  O   UNL A   1      46.434  25.720  38.645  1.00  0.00    -0.237 OA
ATOM    106  O   UNL A   1      44.484  26.951  39.517  1.00  0.00    -0.744 OA
ENDBRANCH  99 103
ENDBRANCH  73  96
ENDBRANCH  47  48
ENDBRANCH  39  42
ENDBRANCH  37  38
ENDBRANCH  36  37
ENDBRANCH   1  36
TORSDOF 20
ENDMDL
MODEL 2
REMARK VINA RESULT:     -13.0      2.094      7.359
REMARK SMILES N#Cc1cccnc1N1CC[NH+]([C@@H](C(=O)NCCCCNC(=O)c2ccc(-c3c4nc(c(-c5cc(S(=O)(=O)[O-])ccc5F)c5ccc([nH]5)c(-c5cc(S(=O)(=O)[O-])ccc5F)c5nc(c(-c6cc(S(=O)(=O)[O-])ccc6F)c6ccc3[nH]6)C=C5)C=C4)cc2)c2c[nH]c3cc(CO)ccc23)CC1
REMARK SMILES IDX 18 1 17 2 16 3 14 4 15 5 13 7 12 8 9 9 10 10 99 11 11 12
REMARK SMILES IDX 98 13 8 15 3 16 4 17 5 18 7 19 6 20 2 21 1 22 87 23 88 24
REMARK SMILES IDX 97 25 89 26 90 27 96 28 91 30 95 31 92 32 93 33 94 34 19 36
REMARK SMILES IDX 20 37 21 38 22 39 23 41 24 42 25 43 86 44 26 45 85 46 27 47
REMARK SMILES IDX 28 48 29 49 79 50 30 51 84 52 78 53 80 54 31 55 83 56 77 57
REMARK SMILES IDX 76 58 32 60 64 61 44 62 63 63 45 64 48 65 62 66 81 67 46 68
REMARK SMILES IDX 47 69 61 71 82 72 49 73 33 74 34 75 42 76 35 77 41 78 43 79
REMARK SMILES IDX 40 80 36 81 37 82 38 83 39 84 65 85 66 86 74 87 67 88 73 89
REMARK SMILES IDX 75 90 72 91 68 92 69 93 70 94 71 95 50 96 51 97 59 98 52 99
REMARK SMILES IDX 58 100 60 101 57 102 53 103 54 104 55 105 56 106
REMARK H PARENT 16 6 12 14 89 29 94 35 21 40 80 59 48 70
REMARK Flexibility Score: inf
ROOT
ATOM      1  C   UNL A   1      31.355  28.678  27.136  1.00  0.00     0.023 C 
ENDROOT
BRANCH   1   2
ATOM      2  C   UNL A   1      32.318  27.501  27.460  1.00  0.00     0.116 C 
BRANCH   2   3
ATOM      3  N   UNL A   1      32.971  26.857  26.322  1.00  0.00    -0.351 N 
ATOM      4  C   UNL A   1      32.581  26.286  25.134  1.00  0.00     0.283 C 
ATOM      5  O   UNL A   1      33.535  25.990  24.406  1.00  0.00    -0.268 OA
ATOM      6  H   UNL A   1      33.948  26.823  26.436  1.00  0.00     0.163 HD
BRANCH   4   7
ATOM      7  C   UNL A   1      31.096  26.079  24.710  1.00  0.00     0.307 C 
BRANCH   7   8
ATOM      8  N   UNL A   1      30.538  24.661  24.755  1.00  0.00    -0.318 N 
ATOM      9  N   UNL A   1      32.601  22.513  24.668  1.00  0.00    -0.344 N 
ATOM     10  C   UNL A   1      32.223  23.264  23.465  1.00  0.00     0.179 C 
ATOM     11  C   UNL A   1      32.278  23.200  25.931  1.00  0.00     0.179 C 
ATOM     12  C   UNL A   1      30.772  23.741  23.621  1.00  0.00     0.284 C 
ATOM     13  C   UNL A   1      30.871  23.862  25.934  1.00  0.00     0.284 C 
ATOM     14  H   UNL A   1      29.566  24.970  24.742  1.00  0.00     0.349 HD
BRANCH   9  15
ATOM     15  C   UNL A   1      33.899  21.980  24.643  1.00  0.00     0.146 A 
ATOM     16  C   UNL A   1      34.134  20.619  24.884  1.00  0.00     0.095 A 
ATOM     17  C   UNL A   1      35.450  20.151  24.953  1.00  0.00     0.025 A 
ATOM     18  C   UNL A   1      36.505  21.038  24.773  1.00  0.00     0.022 A 
ATOM     19  N   UNL A   1      34.933  22.832  24.425  1.00  0.00    -0.238 NA
ATOM     20  C   UNL A   1      36.198  22.358  24.507  1.00  0.00     0.113 A 
BRANCH  16  21
ATOM     21  C   UNL A   1      33.047  19.691  25.037  1.00  0.00     0.103 C 
ATOM     22  N   UNL A   1      32.179  18.940  25.138  1.00  0.00    -0.192 NA
ENDBRANCH  16  21
ENDBRANCH   9  15
ENDBRANCH   7   8
BRANCH   7  23
ATOM     23  C   UNL A   1      30.690  26.697  23.342  1.00  0.00     0.044 A 
ATOM     24  C   UNL A   1      31.580  26.932  22.298  1.00  0.00     0.094 A 
ATOM     25  C   UNL A   1      29.557  27.527  23.007  1.00  0.00     0.009 A 
ATOM     26  N   UNL A   1      31.357  28.248  21.944  1.00  0.00    -0.361 N 
ATOM     27  C   UNL A   1      30.141  28.663  22.440  1.00  0.00     0.046 A 
ATOM     28  C   UNL A   1      28.200  27.609  23.370  1.00  0.00     0.011 A 
ATOM     29  H   UNL A   1      31.975  28.804  21.417  1.00  0.00     0.166 HD
ATOM     30  C   UNL A   1      29.576  29.942  22.586  1.00  0.00     0.032 A 
ATOM     31  C   UNL A   1      27.569  28.857  23.399  1.00  0.00     0.007 A 
ATOM     32  C   UNL A   1      28.301  30.027  23.173  1.00  0.00    -0.021 A 
BRANCH  32  33
ATOM     33  C   UNL A   1      27.736  31.355  23.616  1.00  0.00     0.191 C 
BRANCH  33  34
ATOM     34  O   UNL A   1      27.682  32.296  22.544  1.00  0.00    -0.392 OA
ATOM     35  H   UNL A   1      28.545  32.335  22.104  1.00  0.00     0.211 HD
ENDBRANCH  33  34
ENDBRANCH  32  33
ENDBRANCH   7  23
ENDBRANCH   4   7
ENDBRANCH   2   3
ENDBRANCH   1   2
BRANCH   1  36
ATOM     36  C   UNL A   1      31.548  29.405  25.800  1.00  0.00     0.023 C 
BRANCH  36  37
ATOM     37  C   UNL A   1      32.740  30.340  25.769  1.00  0.00     0.116 C 
BRANCH  37  38
ATOM     38  N   UNL A   1      32.422  31.670  26.262  1.00  0.00    -0.352 N 
ATOM     39  C   UNL A   1      33.045  32.398  27.252  1.00  0.00     0.251 C 
ATOM     40  H   UNL A   1      31.656  32.111  25.830  1.00  0.00     0.163 HD
ATOM     41  O   UNL A   1      32.545  33.456  27.625  1.00  0.00    -0.269 OA
BRANCH  39  42
ATOM     42  C   UNL A   1      34.285  31.890  27.889  1.00  0.00     0.039 A 
ATOM     43  C   UNL A   1      35.368  32.760  28.056  1.00  0.00     0.014 A 
ATOM     44  C   UNL A   1      34.388  30.568  28.326  1.00  0.00     0.014 A 
ATOM     45  C   UNL A   1      36.524  32.314  28.702  1.00  0.00     0.010 A 
ATOM     46  C   UNL A   1      35.491  30.159  29.067  1.00  0.00     0.010 A 
ATOM     47  C   UNL A   1      36.583  31.018  29.239  1.00  0.00    -0.014 A 
BRANCH  47  48
ATOM     48  C   UNL A   1      37.792  30.523  29.943  1.00  0.00     0.031 A 
ATOM     49  C   UNL A   1      38.070  30.968  31.355  1.00  0.00     0.074 A 
ATOM     50  C   UNL A   1      38.663  29.729  29.291  1.00  0.00     0.049 A 
ATOM     51  N   UNL A   1      39.086  30.687  32.130  1.00  0.00    -0.248 NA
ATOM     52  C   UNL A   1      37.094  31.887  31.958  1.00  0.00     0.031 C 
ATOM     53  C   UNL A   1      38.524  29.284  27.902  1.00  0.00     0.029 A 
ATOM     54  N   UNL A   1      39.834  29.152  29.707  1.00  0.00    -0.354 N 
ATOM     55  C   UNL A   1      38.881  31.413  33.300  1.00  0.00     0.074 A 
ATOM     56  C   UNL A   1      37.690  32.208  33.095  1.00  0.00     0.031 C 
ATOM     57  C   UNL A   1      39.542  28.464  27.600  1.00  0.00     0.029 A 
ATOM     58  C   UNL A   1      40.428  28.359  28.754  1.00  0.00     0.049 A 
ATOM     59  H   UNL A   1      40.216  29.293  30.605  1.00  0.00     0.167 HD
ATOM     60  C   UNL A   1      39.601  31.393  34.450  1.00  0.00     0.034 A 
ATOM     61  C   UNL A   1      41.556  27.624  28.812  1.00  0.00     0.034 A 
ATOM     62  C   UNL A   1      40.775  30.575  34.632  1.00  0.00     0.049 A 
ATOM     63  C   UNL A   1      42.344  27.615  30.095  1.00  0.00     0.074 A 
ATOM     64  C   UNL A   1      41.548  30.410  35.767  1.00  0.00     0.029 A 
ATOM     65  N   UNL A   1      41.352  29.787  33.642  1.00  0.00    -0.354 N 
ATOM     66  N   UNL A   1      42.101  28.250  31.219  1.00  0.00    -0.248 NA
ATOM     67  C   UNL A   1      43.549  26.780  30.121  1.00  0.00     0.031 C 
ATOM     68  C   UNL A   1      42.630  29.583  35.444  1.00  0.00     0.029 A 
ATOM     69  C   UNL A   1      42.492  29.165  34.129  1.00  0.00     0.049 A 
ATOM     70  H   UNL A   1      41.002  29.685  32.727  1.00  0.00     0.167 HD
ATOM     71  C   UNL A   1      43.114  27.872  32.095  1.00  0.00     0.074 A 
ATOM     72  C   UNL A   1      43.954  26.936  31.371  1.00  0.00     0.031 C 
ATOM     73  C   UNL A   1      43.332  28.257  33.380  1.00  0.00     0.034 A 
BRANCH  60  74
ATOM     74  C   UNL A   1      39.145  32.306  35.568  1.00  0.00     0.023 A 
ATOM     75  C   UNL A   1      39.541  33.655  35.633  1.00  0.00     0.031 A 
ATOM     76  C   UNL A   1      38.361  31.807  36.623  1.00  0.00     0.131 A 
ATOM     77  C   UNL A   1      39.254  34.419  36.775  1.00  0.00     0.055 A 
ATOM     78  C   UNL A   1      37.992  32.603  37.710  1.00  0.00     0.041 A 
ATOM     79  F   UNL A   1      37.964  30.525  36.634  1.00  0.00    -0.206 F 
ATOM     80  C   UNL A   1      38.459  33.911  37.803  1.00  0.00     0.022 A 
BRANCH  77  81
ATOM     81  S   UNL A   1      40.098  36.013  36.982  1.00  0.00     0.124 S 
ATOM     82  O   UNL A   1      39.819  36.662  35.703  1.00  0.00    -0.237 OA
ATOM     83  O   UNL A   1      39.427  36.577  38.146  1.00  0.00    -0.237 OA
ATOM     84  O   UNL A   1      41.496  35.637  37.185  1.00  0.00    -0.744 OA
ENDBRANCH  77  81
ENDBRANCH  60  74
BRANCH  61  85
ATOM     85  C   UNL A   1      41.988  26.818  27.635  1.00  0.00     0.023 A 
ATOM     86  C   UNL A   1      41.681  25.452  27.548  1.00  0.00     0.031 A 
ATOM     87  C   UNL A   1      42.719  27.399  26.582  1.00  0.00     0.131 A 
ATOM     88  C   UNL A   1      42.129  24.701  26.450  1.00  0.00     0.055 A 
ATOM     89  C   UNL A   1      43.124  26.658  25.470  1.00  0.00     0.041 A 
ATOM     90  F   UNL A   1      43.027  28.706  26.609  1.00  0.00    -0.206 F 
ATOM     91  C   UNL A   1      42.837  25.298  25.404  1.00  0.00     0.022 A 
BRANCH  88  92
ATOM     92  S   UNL A   1      41.817  22.915  26.432  1.00  0.00     0.124 S 
ATOM     93  O   UNL A   1      42.506  22.480  27.641  1.00  0.00    -0.237 OA
ATOM     94  O   UNL A   1      40.359  22.863  26.470  1.00  0.00    -0.237 OA
ATOM     95  O   UNL A   1      42.420  22.477  25.176  1.00  0.00    -0.744 OA
ENDBRANCH  88  92
ENDBRANCH  61  85
BRANCH  73  96
ATOM     96  C   UNL A   1      44.518  27.639  34.079  1.00  0.00     0.023 A 
ATOM     97  C   UNL A   1      44.397  26.451  34.822  1.00  0.00     0.031 A 
ATOM     98  C   UNL A   1      45.777  28.262  34.027  1.00  0.00     0.131 A 
ATOM     99  C   UNL A   1      45.498  25.962  35.541  1.00  0.00     0.055 A 
ATOM    100  C   UNL A   1      46.886  27.731  34.689  1.00  0.00     0.041 A 
ATOM    101  F   UNL A   1      45.950  29.399  33.336  1.00  0.00    -0.206 F 
ATOM    102  C   UNL A   1      46.746  26.584  35.464  1.00  0.00     0.022 A 
BRANCH  99 103
ATOM    103  S   UNL A   1      45.244  24.568  36.673  1.00  0.00     0.124 S 
ATOM    104  O   UNL A   1      46.590  24.356  37.198  1.00  0.00    -0.237 OA
ATOM    105  O   UNL A   1      44.269  25.105  37.617  1.00  0.00    -0.237 OA
ATOM    106  O   UNL A   1      44.744  23.506  35.802  1.00  0.00    -0.744 OA
ENDBRANCH  99 103
ENDBRANCH  73  96
ENDBRANCH  47  48
ENDBRANCH  39  42
ENDBRANCH  37  38
ENDBRANCH  36  37
ENDBRANCH   1  36
TORSDOF 20
ENDMDL
MODEL 3
REMARK VINA RESULT:     -12.8      2.130      7.578
REMARK SMILES N#Cc1cccnc1N1CC[NH+]([C@@H](C(=O)NCCCCNC(=O)c2ccc(-c3c4nc(c(-c5cc(S(=O)(=O)[O-])ccc5F)c5ccc([nH]5)c(-c5cc(S(=O)(=O)[O-])ccc5F)c5nc(c(-c6cc(S(=O)(=O)[O-])ccc6F)c6ccc3[nH]6)C=C5)C=C4)cc2)c2c[nH]c3cc(CO)ccc23)CC1
REMARK SMILES IDX 18 1 17 2 16 3 14 4 15 5 13 7 12 8 9 9 10 10 99 11 11 12
REMARK SMILES IDX 98 13 8 15 3 16 4 17 5 18 7 19 6 20 2 21 1 22 87 23 88 24
REMARK SMILES IDX 97 25 89 26 90 27 96 28 91 30 95 31 92 32 93 33 94 34 19 36
REMARK SMILES IDX 20 37 21 38 22 39 23 41 24 42 25 43 86 44 26 45 85 46 27 47
REMARK SMILES IDX 28 48 29 49 79 50 30 51 84 52 78 53 80 54 31 55 83 56 77 57
REMARK SMILES IDX 76 58 32 60 64 61 44 62 63 63 45 64 48 65 62 66 81 67 46 68
REMARK SMILES IDX 47 69 61 71 82 72 49 73 33 74 34 75 42 76 35 77 41 78 43 79
REMARK SMILES IDX 40 80 36 81 37 82 38 83 39 84 65 85 66 86 74 87 67 88 73 89
REMARK SMILES IDX 75 90 72 91 68 92 69 93 70 94 71 95 50 96 51 97 59 98 52 99
REMARK SMILES IDX 58 100 60 101 57 102 53 103 54 104 55 105 56 106
REMARK H PARENT 16 6 12 14 89 29 94 35 21 40 80 59 48 70
REMARK Flexibility Score: inf
ROOT
ATOM      1  C   UNL A   1      31.350  28.615  27.053  1.00  0.00     0.023 C 
ENDROOT
BRANCH   1   2
ATOM      2  C   UNL A   1      32.374  27.532  27.494  1.00  0.00     0.116 C 
BRANCH   2   3
ATOM      3  N   UNL A   1      33.059  26.805  26.427  1.00  0.00    -0.351 N 
ATOM      4  C   UNL A   1      32.705  26.160  25.266  1.00  0.00     0.283 C 
ATOM      5  O   UNL A   1      33.681  25.805  24.595  1.00  0.00    -0.268 OA
ATOM      6  H   UNL A   1      34.031  26.768  26.580  1.00  0.00     0.163 HD
BRANCH   4   7
ATOM      7  C   UNL A   1      31.235  25.941  24.801  1.00  0.00     0.307 C 
BRANCH   7   8
ATOM      8  N   UNL A   1      30.668  24.528  24.884  1.00  0.00    -0.318 N 
ATOM      9  N   UNL A   1      32.713  22.365  24.781  1.00  0.00    -0.344 N 
ATOM     10  C   UNL A   1      32.310  23.098  23.575  1.00  0.00     0.179 C 
ATOM     11  C   UNL A   1      32.427  23.075  26.041  1.00  0.00     0.179 C 
ATOM     12  C   UNL A   1      30.866  23.588  23.761  1.00  0.00     0.284 C 
ATOM     13  C   UNL A   1      31.025  23.748  26.068  1.00  0.00     0.284 C 
ATOM     14  H   UNL A   1      29.698  24.845  24.891  1.00  0.00     0.349 HD
BRANCH   9  15
ATOM     15  C   UNL A   1      34.006  21.821  24.732  1.00  0.00     0.146 A 
ATOM     16  C   UNL A   1      34.232  20.454  24.943  1.00  0.00     0.095 A 
ATOM     17  C   UNL A   1      35.545  19.974  24.989  1.00  0.00     0.025 A 
ATOM     18  C   UNL A   1      36.605  20.856  24.817  1.00  0.00     0.022 A 
ATOM     19  N   UNL A   1      35.046  22.669  24.523  1.00  0.00    -0.238 NA
ATOM     20  C   UNL A   1      36.307  22.183  24.581  1.00  0.00     0.113 A 
BRANCH  16  21
ATOM     21  C   UNL A   1      33.139  19.531  25.086  1.00  0.00     0.103 C 
ATOM     22  N   UNL A   1      32.251  18.808  25.209  1.00  0.00    -0.192 NA
ENDBRANCH  16  21
ENDBRANCH   9  15
ENDBRANCH   7   8
BRANCH   7  23
ATOM     23  C   UNL A   1      30.878  26.505  23.396  1.00  0.00     0.044 A 
ATOM     24  C   UNL A   1      31.785  26.615  22.347  1.00  0.00     0.094 A 
ATOM     25  C   UNL A   1      29.807  27.393  23.006  1.00  0.00     0.009 A 
ATOM     26  N   UNL A   1      31.657  27.920  21.915  1.00  0.00    -0.361 N 
ATOM     27  C   UNL A   1      30.472  28.449  22.377  1.00  0.00     0.046 A 
ATOM     28  C   UNL A   1      28.459  27.593  23.354  1.00  0.00     0.011 A 
ATOM     29  H   UNL A   1      32.314  28.399  21.360  1.00  0.00     0.166 HD
ATOM     30  C   UNL A   1      30.000  29.772  22.444  1.00  0.00     0.032 A 
ATOM     31  C   UNL A   1      27.918  28.882  23.306  1.00  0.00     0.007 A 
ATOM     32  C   UNL A   1      28.733  29.981  23.017  1.00  0.00    -0.021 A 
BRANCH  32  33
ATOM     33  C   UNL A   1      28.263  31.370  23.377  1.00  0.00     0.191 C 
BRANCH  33  34
ATOM     34  O   UNL A   1      26.939  31.364  23.913  1.00  0.00    -0.392 OA
ATOM     35  H   UNL A   1      26.672  30.452  24.107  1.00  0.00     0.211 HD
ENDBRANCH  33  34
ENDBRANCH  32  33
ENDBRANCH   7  23
ENDBRANCH   4   7
ENDBRANCH   2   3
ENDBRANCH   1   2
BRANCH   1  36
ATOM     36  C   UNL A   1      31.842  29.711  26.100  1.00  0.00     0.023 C 
BRANCH  36  37
ATOM     37  C   UNL A   1      33.178  30.312  26.483  1.00  0.00     0.116 C 
BRANCH  37  38
ATOM     38  N   UNL A   1      33.071  31.701  26.895  1.00  0.00    -0.352 N 
ATOM     39  C   UNL A   1      33.877  32.415  27.754  1.00  0.00     0.251 C 
ATOM     40  H   UNL A   1      32.317  32.202  26.508  1.00  0.00     0.163 HD
ATOM     41  O   UNL A   1      33.546  33.549  28.088  1.00  0.00    -0.269 OA
BRANCH  39  42
ATOM     42  C   UNL A   1      35.114  31.805  28.302  1.00  0.00     0.039 A 
ATOM     43  C   UNL A   1      36.300  32.545  28.289  1.00  0.00     0.014 A 
ATOM     44  C   UNL A   1      35.113  30.512  28.832  1.00  0.00     0.014 A 
ATOM     45  C   UNL A   1      37.462  32.007  28.849  1.00  0.00     0.010 A 
ATOM     46  C   UNL A   1      36.236  30.023  29.489  1.00  0.00     0.010 A 
ATOM     47  C   UNL A   1      37.431  30.753  29.480  1.00  0.00    -0.014 A 
BRANCH  47  48
ATOM     48  C   UNL A   1      38.646  30.164  30.097  1.00  0.00     0.031 A 
ATOM     49  C   UNL A   1      39.065  30.590  31.479  1.00  0.00     0.074 A 
ATOM     50  C   UNL A   1      39.398  29.299  29.390  1.00  0.00     0.049 A 
ATOM     51  N   UNL A   1      40.110  30.231  32.179  1.00  0.00    -0.248 NA
ATOM     52  C   UNL A   1      38.215  31.589  32.144  1.00  0.00     0.031 C 
ATOM     53  C   UNL A   1      39.119  28.861  28.020  1.00  0.00     0.029 A 
ATOM     54  N   UNL A   1      40.546  28.630  29.723  1.00  0.00    -0.354 N 
ATOM     55  C   UNL A   1      40.054  30.976  33.353  1.00  0.00     0.074 A 
ATOM     56  C   UNL A   1      38.919  31.865  33.230  1.00  0.00     0.031 C 
ATOM     57  C   UNL A   1      40.041  27.959  27.651  1.00  0.00     0.029 A 
ATOM     58  C   UNL A   1      41.000  27.786  28.736  1.00  0.00     0.049 A 
ATOM     59  H   UNL A   1      41.005  28.743  30.588  1.00  0.00     0.167 HD
ATOM     60  C   UNL A   1      40.855  30.903  34.446  1.00  0.00     0.034 A 
ATOM     61  C   UNL A   1      42.066  26.962  28.717  1.00  0.00     0.034 A 
ATOM     62  C   UNL A   1      41.969  29.992  34.548  1.00  0.00     0.049 A 
ATOM     63  C   UNL A   1      42.945  26.894  29.938  1.00  0.00     0.074 A 
ATOM     64  C   UNL A   1      42.809  29.769  35.624  1.00  0.00     0.029 A 
ATOM     65  N   UNL A   1      42.404  29.155  33.526  1.00  0.00    -0.354 N 
ATOM     66  N   UNL A   1      42.840  27.552  31.070  1.00  0.00    -0.248 NA
ATOM     67  C   UNL A   1      44.077  25.963  29.882  1.00  0.00     0.031 C 
ATOM     68  C   UNL A   1      43.794  28.855  35.229  1.00  0.00     0.029 A 
ATOM     69  C   UNL A   1      43.523  28.444  33.933  1.00  0.00     0.049 A 
ATOM     70  H   UNL A   1      41.979  29.078  32.641  1.00  0.00     0.167 HD
ATOM     71  C   UNL A   1      43.883  27.096  31.872  1.00  0.00     0.074 A 
ATOM     72  C   UNL A   1      44.587  26.091  31.097  1.00  0.00     0.031 C 
ATOM     73  C   UNL A   1      44.227  27.467  33.133  1.00  0.00     0.034 A 
BRANCH  60  74
ATOM     74  C   UNL A   1      40.560  31.855  35.586  1.00  0.00     0.023 A 
ATOM     75  C   UNL A   1      39.464  31.664  36.447  1.00  0.00     0.031 A 
ATOM     76  C   UNL A   1      41.341  33.010  35.772  1.00  0.00     0.131 A 
ATOM     77  C   UNL A   1      39.113  32.660  37.372  1.00  0.00     0.055 A 
ATOM     78  C   UNL A   1      41.045  33.949  36.763  1.00  0.00     0.041 A 
ATOM     79  F   UNL A   1      42.389  33.263  34.973  1.00  0.00    -0.206 F 
ATOM     80  C   UNL A   1      39.912  33.789  37.555  1.00  0.00     0.022 A 
BRANCH  77  81
ATOM     81  S   UNL A   1      37.495  32.549  38.188  1.00  0.00     0.124 S 
ATOM     82  O   UNL A   1      36.629  33.213  37.217  1.00  0.00    -0.237 OA
ATOM     83  O   UNL A   1      37.312  31.110  38.330  1.00  0.00    -0.237 OA
ATOM     84  O   UNL A   1      37.691  33.282  39.438  1.00  0.00    -0.744 OA
ENDBRANCH  77  81
ENDBRANCH  60  74
BRANCH  61  85
ATOM     85  C   UNL A   1      42.341  26.119  27.520  1.00  0.00     0.023 A 
ATOM     86  C   UNL A   1      41.924  24.780  27.473  1.00  0.00     0.031 A 
ATOM     87  C   UNL A   1      43.029  26.635  26.406  1.00  0.00     0.131 A 
ATOM     88  C   UNL A   1      42.226  23.990  26.352  1.00  0.00     0.055 A 
ATOM     89  C   UNL A   1      43.287  25.859  25.275  1.00  0.00     0.041 A 
ATOM     90  F   UNL A   1      43.438  27.914  26.394  1.00  0.00    -0.206 F 
ATOM     91  C   UNL A   1      42.893  24.525  25.247  1.00  0.00     0.022 A 
BRANCH  88  92
ATOM     92  S   UNL A   1      41.776  22.233  26.380  1.00  0.00     0.124 S 
ATOM     93  O   UNL A   1      42.511  21.721  25.230  1.00  0.00    -0.237 OA
ATOM     94  O   UNL A   1      42.264  21.817  27.691  1.00  0.00    -0.237 OA
ATOM     95  O   UNL A   1      40.323  22.253  26.236  1.00  0.00    -0.744 OA
ENDBRANCH  88  92
ENDBRANCH  61  85
BRANCH  73  96
ATOM     96  C   UNL A   1      45.409  26.757  33.747  1.00  0.00     0.023 A 
ATOM     97  C   UNL A   1      45.253  25.560  34.468  1.00  0.00     0.031 A 
ATOM     98  C   UNL A   1      46.700  27.301  33.637  1.00  0.00     0.131 A 
ATOM     99  C   UNL A   1      46.359  24.983  35.111  1.00  0.00     0.055 A 
ATOM    100  C   UNL A   1      47.808  26.684  34.221  1.00  0.00     0.041 A 
ATOM    101  F   UNL A   1      46.907  28.443  32.964  1.00  0.00    -0.206 F 
ATOM    102  C   UNL A   1      47.639  25.528  34.976  1.00  0.00     0.022 A 
BRANCH  99 103
ATOM    103  S   UNL A   1      46.081  23.578  36.222  1.00  0.00     0.124 S 
ATOM    104  O   UNL A   1      44.789  23.079  35.761  1.00  0.00    -0.237 OA
ATOM    105  O   UNL A   1      47.231  22.724  35.941  1.00  0.00    -0.237 OA
ATOM    106  O   UNL A   1      46.071  24.188  37.550  1.00  0.00    -0.744 OA
ENDBRANCH  99 103
ENDBRANCH  73  96
ENDBRANCH  47  48
ENDBRANCH  39  42
ENDBRANCH  37  38
ENDBRANCH  36  37
ENDBRANCH   1  36
TORSDOF 20
ENDMDL
