MODEL 1
REMARK VINA RESULT:     -13.6      0.000      0.000
REMARK SMILES Cc1ccc([C@H](C)NC(=O)[C@H]2[C@@H]3CC[C@@H](C3)[C@@H]2C(=O)NCCCCNC(=O)c2ccc(-c3c4nc(c(-c5cc(S(=O)(=O)[O-])ccc5F)c5ccc([nH]5)c(-c5cc(S(=O)(=O)[O-])ccc5F)c5nc(c(-c6cc(S(=O)(=O)[O-])ccc6F)c6ccc3[nH]6)C=C5)C=C4)cc2)cc1
REMARK SMILES IDX 22 1 21 2 20 3 18 4 19 5 17 7 11 8 12 9 13 10 16 11 15 12
REMARK SMILES IDX 14 13 9 14 8 15 10 17 6 18 7 19 5 20 1 21 2 22 3 23 92 24
REMARK SMILES IDX 4 25 91 26 23 27 24 28 25 29 26 30 27 32 28 33 29 34 90 35
REMARK SMILES IDX 30 36 89 37 31 38 32 39 33 40 83 41 34 42 88 43 82 44 84 45
REMARK SMILES IDX 35 46 87 47 81 48 80 49 36 51 68 52 48 53 67 54 49 55 52 56
REMARK SMILES IDX 66 57 85 58 50 59 51 60 65 62 86 63 53 64 37 65 38 66 46 67
REMARK SMILES IDX 39 68 45 69 47 70 44 71 40 72 41 73 42 74 43 75 69 76 70 77
REMARK SMILES IDX 78 78 71 79 77 80 79 81 76 82 72 83 73 84 74 85 75 86 54 87
REMARK SMILES IDX 55 88 63 89 56 90 62 91 64 92 61 93 57 94 58 95 59 96 60 97
REMARK H PARENT 20 6 8 16 25 31 84 50 52 61
REMARK Flexibility Score: inf
ROOT
ATOM      1  C   UNL A   1      37.966  23.946  26.049  1.00  0.00     0.023 C 
ENDROOT
BRANCH   1   2
ATOM      2  C   UNL A   1      36.500  23.683  25.667  1.00  0.00     0.116 C 
BRANCH   2   3
ATOM      3  N   UNL A   1      35.898  22.710  26.564  1.00  0.00    -0.356 N 
ATOM      4  C   UNL A   1      34.607  22.419  26.847  1.00  0.00     0.224 C 
ATOM      5  O   UNL A   1      34.424  21.570  27.729  1.00  0.00    -0.275 OA
ATOM      6  H   UNL A   1      36.550  22.162  27.058  1.00  0.00     0.163 HD
BRANCH   4   7
ATOM      7  C   UNL A   1      33.414  22.955  26.048  1.00  0.00     0.094 C 
ATOM      8  C   UNL A   1      31.961  22.561  26.369  1.00  0.00     0.094 C 
ATOM      9  C   UNL A   1      31.454  21.937  25.043  1.00  0.00     0.002 C 
ATOM     10  C   UNL A   1      32.154  20.584  24.830  1.00  0.00     0.005 C 
ATOM     11  C   UNL A   1      32.133  22.819  24.002  1.00  0.00     0.009 C 
ATOM     12  C   UNL A   1      33.532  22.535  24.547  1.00  0.00     0.002 C 
ATOM     13  C   UNL A   1      33.571  20.998  24.418  1.00  0.00     0.005 C 
BRANCH   8  14
ATOM     14  C   UNL A   1      30.956  23.632  26.823  1.00  0.00     0.224 C 
ATOM     15  N   UNL A   1      31.258  24.959  26.761  1.00  0.00    -0.349 N 
ATOM     16  H   UNL A   1      31.454  25.425  27.606  1.00  0.00     0.164 HD
ATOM     17  O   UNL A   1      29.877  23.303  27.322  1.00  0.00    -0.275 OA
BRANCH  15  18
ATOM     18  C   UNL A   1      31.311  25.737  25.529  1.00  0.00     0.109 C 
ATOM     19  C   UNL A   1      30.095  25.449  24.640  1.00  0.00     0.036 C 
BRANCH  18  20
ATOM     20  C   UNL A   1      31.461  27.216  25.820  1.00  0.00    -0.026 A 
ATOM     21  C   UNL A   1      31.770  31.462  26.592  1.00  0.00     0.044 C 
ATOM     22  C   UNL A   1      31.672  29.989  26.331  1.00  0.00    -0.051 A 
ATOM     23  C   UNL A   1      31.369  29.526  25.048  1.00  0.00     0.004 A 
ATOM     24  C   UNL A   1      31.895  29.059  27.350  1.00  0.00     0.004 A 
ATOM     25  C   UNL A   1      31.263  28.155  24.795  1.00  0.00     0.006 A 
ATOM     26  C   UNL A   1      31.796  27.688  27.097  1.00  0.00     0.006 A 
ENDBRANCH  18  20
ENDBRANCH  15  18
ENDBRANCH   8  14
ENDBRANCH   4   7
ENDBRANCH   2   3
ENDBRANCH   1   2
BRANCH   1  27
ATOM     27  C   UNL A   1      38.830  22.694  26.207  1.00  0.00     0.023 C 
BRANCH  27  28
ATOM     28  C   UNL A   1      39.958  22.849  27.220  1.00  0.00     0.116 C 
BRANCH  28  29
ATOM     29  N   UNL A   1      41.226  23.317  26.674  1.00  0.00    -0.352 N 
ATOM     30  C   UNL A   1      41.634  24.630  26.478  1.00  0.00     0.251 C 
ATOM     31  H   UNL A   1      41.870  22.619  26.412  1.00  0.00     0.163 HD
ATOM     32  O   UNL A   1      42.715  24.906  25.990  1.00  0.00    -0.269 OA
BRANCH  30  33
ATOM     33  C   UNL A   1      40.758  25.711  26.999  1.00  0.00     0.039 A 
ATOM     34  C   UNL A   1      40.812  26.950  26.353  1.00  0.00     0.014 A 
ATOM     35  C   UNL A   1      40.137  25.586  28.240  1.00  0.00     0.014 A 
ATOM     36  C   UNL A   1      40.463  28.099  27.058  1.00  0.00     0.010 A 
ATOM     37  C   UNL A   1      39.887  26.731  28.974  1.00  0.00     0.010 A 
ATOM     38  C   UNL A   1      40.113  27.989  28.407  1.00  0.00    -0.014 A 
BRANCH  38  39
ATOM     39  C   UNL A   1      40.128  29.136  29.312  1.00  0.00     0.031 A 
ATOM     40  C   UNL A   1      39.034  30.126  29.307  1.00  0.00     0.074 A 
ATOM     41  C   UNL A   1      41.171  29.328  30.149  1.00  0.00     0.049 A 
ATOM     42  N   UNL A   1      39.205  31.392  29.511  1.00  0.00    -0.248 NA
ATOM     43  C   UNL A   1      37.648  29.760  29.036  1.00  0.00     0.031 C 
ATOM     44  C   UNL A   1      41.281  30.323  31.214  1.00  0.00     0.029 A 
ATOM     45  N   UNL A   1      42.457  28.809  30.025  1.00  0.00    -0.354 N 
ATOM     46  C   UNL A   1      37.960  31.950  29.665  1.00  0.00     0.074 A 
ATOM     47  C   UNL A   1      37.023  30.912  29.294  1.00  0.00     0.031 C 
ATOM     48  C   UNL A   1      42.580  30.537  31.471  1.00  0.00     0.029 A 
ATOM     49  C   UNL A   1      43.351  29.780  30.501  1.00  0.00     0.049 A 
ATOM     50  H   UNL A   1      42.694  27.923  29.669  1.00  0.00     0.167 HD
ATOM     51  C   UNL A   1      37.809  33.179  30.228  1.00  0.00     0.034 A 
ATOM     52  C   UNL A   1      44.334  30.284  29.700  1.00  0.00     0.034 A 
ATOM     53  C   UNL A   1      39.076  33.777  30.626  1.00  0.00     0.049 A 
ATOM     54  C   UNL A   1      44.232  31.773  29.473  1.00  0.00     0.074 A 
ATOM     55  C   UNL A   1      39.734  33.843  31.842  1.00  0.00     0.029 A 
ATOM     56  N   UNL A   1      39.999  34.159  29.658  1.00  0.00    -0.354 N 
ATOM     57  N   UNL A   1      43.186  32.492  29.773  1.00  0.00    -0.248 NA
ATOM     58  C   UNL A   1      45.292  32.559  28.848  1.00  0.00     0.031 C 
ATOM     59  C   UNL A   1      41.088  34.184  31.590  1.00  0.00     0.029 A 
ATOM     60  C   UNL A   1      41.242  34.366  30.226  1.00  0.00     0.049 A 
ATOM     61  H   UNL A   1      39.795  34.266  28.701  1.00  0.00     0.167 HD
ATOM     62  C   UNL A   1      43.377  33.775  29.334  1.00  0.00     0.074 A 
ATOM     63  C   UNL A   1      44.732  33.778  28.810  1.00  0.00     0.031 C 
ATOM     64  C   UNL A   1      42.393  34.722  29.406  1.00  0.00     0.034 A 
BRANCH  51  65
ATOM     65  C   UNL A   1      36.456  33.637  30.699  1.00  0.00     0.023 A 
ATOM     66  C   UNL A   1      35.576  34.285  29.812  1.00  0.00     0.031 A 
ATOM     67  C   UNL A   1      36.023  33.519  32.033  1.00  0.00     0.131 A 
ATOM     68  C   UNL A   1      34.382  34.865  30.274  1.00  0.00     0.055 A 
ATOM     69  C   UNL A   1      34.863  34.142  32.505  1.00  0.00     0.041 A 
ATOM     70  F   UNL A   1      36.730  32.806  32.927  1.00  0.00    -0.206 F 
ATOM     71  C   UNL A   1      34.041  34.835  31.625  1.00  0.00     0.022 A 
BRANCH  68  72
ATOM     72  S   UNL A   1      33.281  35.676  29.081  1.00  0.00     0.124 S 
ATOM     73  O   UNL A   1      32.602  34.543  28.461  1.00  0.00    -0.237 OA
ATOM     74  O   UNL A   1      32.462  36.521  29.945  1.00  0.00    -0.237 OA
ATOM     75  O   UNL A   1      34.201  36.399  28.205  1.00  0.00    -0.744 OA
ENDBRANCH  68  72
ENDBRANCH  51  65
BRANCH  52  76
ATOM     76  C   UNL A   1      44.860  29.300  28.713  1.00  0.00     0.023 A 
ATOM     77  C   UNL A   1      45.767  28.337  29.197  1.00  0.00     0.031 A 
ATOM     78  C   UNL A   1      44.233  29.053  27.486  1.00  0.00     0.131 A 
ATOM     79  C   UNL A   1      45.887  27.097  28.558  1.00  0.00     0.055 A 
ATOM     80  C   UNL A   1      44.416  27.841  26.807  1.00  0.00     0.041 A 
ATOM     81  F   UNL A   1      43.338  29.919  26.988  1.00  0.00    -0.206 F 
ATOM     82  C   UNL A   1      45.208  26.836  27.368  1.00  0.00     0.022 A 
BRANCH  79  83
ATOM     83  S   UNL A   1      46.698  25.747  29.459  1.00  0.00     0.124 S 
ATOM     84  O   UNL A   1      47.863  26.416  30.022  1.00  0.00    -0.237 OA
ATOM     85  O   UNL A   1      45.664  25.342  30.411  1.00  0.00    -0.237 OA
ATOM     86  O   UNL A   1      46.971  24.759  28.416  1.00  0.00    -0.744 OA
ENDBRANCH  79  83
ENDBRANCH  52  76
BRANCH  64  87
ATOM     87  C   UNL A   1      42.476  36.096  28.785  1.00  0.00     0.023 A 
ATOM     88  C   UNL A   1      43.043  37.199  29.442  1.00  0.00     0.031 A 
ATOM     89  C   UNL A   1      42.030  36.327  27.464  1.00  0.00     0.131 A 
ATOM     90  C   UNL A   1      43.044  38.475  28.851  1.00  0.00     0.055 A 
ATOM     91  C   UNL A   1      42.114  37.578  26.844  1.00  0.00     0.041 A 
ATOM     92  F   UNL A   1      41.492  35.348  26.722  1.00  0.00    -0.206 F 
ATOM     93  C   UNL A   1      42.601  38.669  27.546  1.00  0.00     0.022 A 
BRANCH  90  94
ATOM     94  S   UNL A   1      43.549  39.888  29.868  1.00  0.00     0.124 S 
ATOM     95  O   UNL A   1      42.430  40.807  29.676  1.00  0.00    -0.237 OA
ATOM     96  O   UNL A   1      43.662  39.296  31.195  1.00  0.00    -0.237 OA
ATOM     97  O   UNL A   1      44.810  40.313  29.264  1.00  0.00    -0.744 OA
ENDBRANCH  90  94
ENDBRANCH  64  87
ENDBRANCH  38  39
ENDBRANCH  30  33
ENDBRANCH  28  29
ENDBRANCH  27  28
ENDBRANCH   1  27
TORSDOF 17
ENDMDL
MODEL 2
REMARK VINA RESULT:     -13.4      4.017     10.568
REMARK SMILES Cc1ccc([C@H](C)NC(=O)[C@H]2[C@@H]3CC[C@@H](C3)[C@@H]2C(=O)NCCCCNC(=O)c2ccc(-c3c4nc(c(-c5cc(S(=O)(=O)[O-])ccc5F)c5ccc([nH]5)c(-c5cc(S(=O)(=O)[O-])ccc5F)c5nc(c(-c6cc(S(=O)(=O)[O-])ccc6F)c6ccc3[nH]6)C=C5)C=C4)cc2)cc1
REMARK SMILES IDX 22 1 21 2 20 3 18 4 19 5 17 7 11 8 12 9 13 10 16 11 15 12
REMARK SMILES IDX 14 13 9 14 8 15 10 17 6 18 7 19 5 20 1 21 2 22 3 23 92 24
REMARK SMILES IDX 4 25 91 26 23 27 24 28 25 29 26 30 27 32 28 33 29 34 90 35
REMARK SMILES IDX 30 36 89 37 31 38 32 39 33 40 83 41 34 42 88 43 82 44 84 45
REMARK SMILES IDX 35 46 87 47 81 48 80 49 36 51 68 52 48 53 67 54 49 55 52 56
REMARK SMILES IDX 66 57 85 58 50 59 51 60 65 62 86 63 53 64 37 65 38 66 46 67
REMARK SMILES IDX 39 68 45 69 47 70 44 71 40 72 41 73 42 74 43 75 69 76 70 77
REMARK SMILES IDX 78 78 71 79 77 80 79 81 76 82 72 83 73 84 74 85 75 86 54 87
REMARK SMILES IDX 55 88 63 89 56 90 62 91 64 92 61 93 57 94 58 95 59 96 60 97
REMARK H PARENT 20 6 8 16 25 31 84 50 52 61
REMARK Flexibility Score: inf
ROOT
ATOM      1  C   UNL A   1      32.659  29.920  27.065  1.00  0.00     0.023 C 
ENDROOT
BRANCH   1   2
ATOM      2  C   UNL A   1      33.466  28.616  27.192  1.00  0.00     0.116 C 
BRANCH   2   3
ATOM      3  N   UNL A   1      33.828  28.102  25.882  1.00  0.00    -0.356 N 
ATOM      4  C   UNL A   1      33.475  26.972  25.226  1.00  0.00     0.224 C 
ATOM      5  O   UNL A   1      34.026  26.787  24.132  1.00  0.00    -0.275 OA
ATOM      6  H   UNL A   1      34.444  28.682  25.379  1.00  0.00     0.163 HD
BRANCH   4   7
ATOM      7  C   UNL A   1      32.356  26.030  25.683  1.00  0.00     0.094 C 
ATOM      8  C   UNL A   1      31.958  24.774  24.888  1.00  0.00     0.094 C 
ATOM      9  C   UNL A   1      30.454  25.000  24.583  1.00  0.00     0.002 C 
ATOM     10  C   UNL A   1      30.321  26.135  23.552  1.00  0.00     0.005 C 
ATOM     11  C   UNL A   1      29.972  25.670  25.864  1.00  0.00     0.009 C 
ATOM     12  C   UNL A   1      30.998  26.799  25.763  1.00  0.00     0.002 C 
ATOM     13  C   UNL A   1      30.626  27.385  24.384  1.00  0.00     0.005 C 
BRANCH   8  14
ATOM     14  C   UNL A   1      32.126  23.381  25.516  1.00  0.00     0.224 C 
ATOM     15  N   UNL A   1      31.927  22.247  24.788  1.00  0.00    -0.349 N 
ATOM     16  H   UNL A   1      31.106  21.731  24.957  1.00  0.00     0.164 HD
ATOM     17  O   UNL A   1      32.377  23.265  26.718  1.00  0.00    -0.275 OA
BRANCH  15  18
ATOM     18  C   UNL A   1      32.849  21.743  23.776  1.00  0.00     0.109 C 
ATOM     19  C   UNL A   1      32.635  22.450  22.432  1.00  0.00     0.036 C 
BRANCH  18  20
ATOM     20  C   UNL A   1      34.286  21.841  24.245  1.00  0.00    -0.026 A 
ATOM     21  C   UNL A   1      38.413  21.994  25.535  1.00  0.00     0.044 C 
ATOM     22  C   UNL A   1      36.981  21.952  25.091  1.00  0.00    -0.051 A 
ATOM     23  C   UNL A   1      36.183  20.850  25.411  1.00  0.00     0.004 A 
ATOM     24  C   UNL A   1      36.419  23.008  24.369  1.00  0.00     0.004 A 
ATOM     25  C   UNL A   1      34.851  20.794  24.992  1.00  0.00     0.006 A 
ATOM     26  C   UNL A   1      35.084  22.956  23.955  1.00  0.00     0.006 A 
ENDBRANCH  18  20
ENDBRANCH  15  18
ENDBRANCH   8  14
ENDBRANCH   4   7
ENDBRANCH   2   3
ENDBRANCH   1   2
BRANCH   1  27
ATOM     27  C   UNL A   1      33.364  31.172  27.588  1.00  0.00     0.023 C 
BRANCH  27  28
ATOM     28  C   UNL A   1      34.847  30.969  27.872  1.00  0.00     0.116 C 
BRANCH  28  29
ATOM     29  N   UNL A   1      35.322  31.521  29.135  1.00  0.00    -0.352 N 
ATOM     30  C   UNL A   1      36.309  31.010  29.967  1.00  0.00     0.251 C 
ATOM     31  H   UNL A   1      34.891  32.355  29.433  1.00  0.00     0.163 HD
ATOM     32  O   UNL A   1      36.612  31.548  31.018  1.00  0.00    -0.269 OA
BRANCH  30  33
ATOM     33  C   UNL A   1      37.089  29.843  29.481  1.00  0.00     0.039 A 
ATOM     34  C   UNL A   1      37.409  28.850  30.412  1.00  0.00     0.014 A 
ATOM     35  C   UNL A   1      37.714  29.875  28.236  1.00  0.00     0.014 A 
ATOM     36  C   UNL A   1      38.525  28.046  30.191  1.00  0.00     0.010 A 
ATOM     37  C   UNL A   1      38.878  29.149  28.062  1.00  0.00     0.010 A 
ATOM     38  C   UNL A   1      39.321  28.284  29.067  1.00  0.00    -0.014 A 
BRANCH  38  39
ATOM     39  C   UNL A   1      40.691  27.786  28.963  1.00  0.00     0.031 A 
ATOM     40  C   UNL A   1      40.971  26.415  28.494  1.00  0.00     0.074 A 
ATOM     41  C   UNL A   1      41.728  28.568  29.333  1.00  0.00     0.049 A 
ATOM     42  N   UNL A   1      41.935  25.681  28.947  1.00  0.00    -0.248 NA
ATOM     43  C   UNL A   1      40.152  25.749  27.487  1.00  0.00     0.031 C 
ATOM     44  C   UNL A   1      43.153  28.293  29.157  1.00  0.00     0.029 A 
ATOM     45  N   UNL A   1      41.691  29.671  30.182  1.00  0.00    -0.354 N 
ATOM     46  C   UNL A   1      42.030  24.585  28.125  1.00  0.00     0.074 A 
ATOM     47  C   UNL A   1      40.861  24.636  27.275  1.00  0.00     0.031 C 
ATOM     48  C   UNL A   1      43.845  29.010  30.055  1.00  0.00     0.029 A 
ATOM     49  C   UNL A   1      42.886  29.678  30.918  1.00  0.00     0.049 A 
ATOM     50  H   UNL A   1      40.959  30.326  30.254  1.00  0.00     0.167 HD
ATOM     51  C   UNL A   1      43.147  23.808  28.120  1.00  0.00     0.034 A 
ATOM     52  C   UNL A   1      42.873  29.627  32.282  1.00  0.00     0.034 A 
ATOM     53  C   UNL A   1      44.166  24.281  29.048  1.00  0.00     0.049 A 
ATOM     54  C   UNL A   1      43.572  28.416  32.852  1.00  0.00     0.074 A 
ATOM     55  C   UNL A   1      45.300  25.055  28.872  1.00  0.00     0.029 A 
ATOM     56  N   UNL A   1      43.938  24.222  30.419  1.00  0.00    -0.354 N 
ATOM     57  N   UNL A   1      43.930  27.376  32.151  1.00  0.00    -0.248 NA
ATOM     58  C   UNL A   1      43.884  28.271  34.271  1.00  0.00     0.031 C 
ATOM     59  C   UNL A   1      45.704  25.536  30.144  1.00  0.00     0.029 A 
ATOM     60  C   UNL A   1      44.842  25.020  31.096  1.00  0.00     0.049 A 
ATOM     61  H   UNL A   1      43.232  23.688  30.847  1.00  0.00     0.167 HD
ATOM     62  C   UNL A   1      44.431  26.415  32.990  1.00  0.00     0.074 A 
ATOM     63  C   UNL A   1      44.430  27.045  34.299  1.00  0.00     0.031 C 
ATOM     64  C   UNL A   1      44.775  25.170  32.544  1.00  0.00     0.034 A 
BRANCH  51  65
ATOM     65  C   UNL A   1      43.388  22.831  27.003  1.00  0.00     0.023 A 
ATOM     66  C   UNL A   1      42.822  21.544  27.051  1.00  0.00     0.031 A 
ATOM     67  C   UNL A   1      44.229  23.104  25.907  1.00  0.00     0.131 A 
ATOM     68  C   UNL A   1      43.169  20.566  26.102  1.00  0.00     0.055 A 
ATOM     69  C   UNL A   1      44.618  22.117  24.995  1.00  0.00     0.041 A 
ATOM     70  F   UNL A   1      44.714  24.340  25.702  1.00  0.00    -0.206 F 
ATOM     71  C   UNL A   1      44.099  20.832  25.099  1.00  0.00     0.022 A 
BRANCH  68  72
ATOM     72  S   UNL A   1      42.396  18.927  26.206  1.00  0.00     0.124 S 
ATOM     73  O   UNL A   1      41.040  19.191  25.737  1.00  0.00    -0.237 OA
ATOM     74  O   UNL A   1      43.240  18.133  25.320  1.00  0.00    -0.237 OA
ATOM     75  O   UNL A   1      42.502  18.590  27.625  1.00  0.00    -0.744 OA
ENDBRANCH  68  72
ENDBRANCH  51  65
BRANCH  52  76
ATOM     76  C   UNL A   1      41.695  30.304  32.892  1.00  0.00     0.023 A 
ATOM     77  C   UNL A   1      41.727  31.711  32.942  1.00  0.00     0.031 A 
ATOM     78  C   UNL A   1      40.458  29.668  33.049  1.00  0.00     0.131 A 
ATOM     79  C   UNL A   1      40.533  32.443  32.963  1.00  0.00     0.055 A 
ATOM     80  C   UNL A   1      39.270  30.407  33.149  1.00  0.00     0.041 A 
ATOM     81  F   UNL A   1      40.360  28.333  32.981  1.00  0.00    -0.206 F 
ATOM     82  C   UNL A   1      39.300  31.799  33.056  1.00  0.00     0.022 A 
BRANCH  79  83
ATOM     83  S   UNL A   1      40.610  34.212  32.565  1.00  0.00     0.124 S 
ATOM     84  O   UNL A   1      39.209  34.529  32.325  1.00  0.00    -0.237 OA
ATOM     85  O   UNL A   1      41.200  34.780  33.778  1.00  0.00    -0.237 OA
ATOM     86  O   UNL A   1      41.485  34.259  31.395  1.00  0.00    -0.744 OA
ENDBRANCH  79  83
ENDBRANCH  52  76
BRANCH  64  87
ATOM     87  C   UNL A   1      45.163  24.016  33.437  1.00  0.00     0.023 A 
ATOM     88  C   UNL A   1      46.447  23.872  33.985  1.00  0.00     0.031 A 
ATOM     89  C   UNL A   1      44.217  23.036  33.817  1.00  0.00     0.131 A 
ATOM     90  C   UNL A   1      46.785  22.748  34.761  1.00  0.00     0.055 A 
ATOM     91  C   UNL A   1      44.531  21.968  34.663  1.00  0.00     0.041 A 
ATOM     92  F   UNL A   1      42.949  23.077  33.380  1.00  0.00    -0.206 F 
ATOM     93  C   UNL A   1      45.829  21.804  35.122  1.00  0.00     0.022 A 
BRANCH  90  94
ATOM     94  S   UNL A   1      48.525  22.506  35.204  1.00  0.00     0.124 S 
ATOM     95  O   UNL A   1      49.197  23.413  34.275  1.00  0.00    -0.237 OA
ATOM     96  O   UNL A   1      48.550  22.903  36.607  1.00  0.00    -0.237 OA
ATOM     97  O   UNL A   1      48.750  21.085  34.953  1.00  0.00    -0.744 OA
ENDBRANCH  90  94
ENDBRANCH  64  87
ENDBRANCH  38  39
ENDBRANCH  30  33
ENDBRANCH  28  29
ENDBRANCH  27  28
ENDBRANCH   1  27
TORSDOF 17
ENDMDL
MODEL 3
REMARK VINA RESULT:     -12.9      1.274      2.003
REMARK SMILES Cc1ccc([C@H](C)NC(=O)[C@H]2[C@@H]3CC[C@@H](C3)[C@@H]2C(=O)NCCCCNC(=O)c2ccc(-c3c4nc(c(-c5cc(S(=O)(=O)[O-])ccc5F)c5ccc([nH]5)c(-c5cc(S(=O)(=O)[O-])ccc5F)c5nc(c(-c6cc(S(=O)(=O)[O-])ccc6F)c6ccc3[nH]6)C=C5)C=C4)cc2)cc1
REMARK SMILES IDX 22 1 21 2 20 3 18 4 19 5 17 7 11 8 12 9 13 10 16 11 15 12
REMARK SMILES IDX 14 13 9 14 8 15 10 17 6 18 7 19 5 20 1 21 2 22 3 23 92 24
REMARK SMILES IDX 4 25 91 26 23 27 24 28 25 29 26 30 27 32 28 33 29 34 90 35
REMARK SMILES IDX 30 36 89 37 31 38 32 39 33 40 83 41 34 42 88 43 82 44 84 45
REMARK SMILES IDX 35 46 87 47 81 48 80 49 36 51 68 52 48 53 67 54 49 55 52 56
REMARK SMILES IDX 66 57 85 58 50 59 51 60 65 62 86 63 53 64 37 65 38 66 46 67
REMARK SMILES IDX 39 68 45 69 47 70 44 71 40 72 41 73 42 74 43 75 69 76 70 77
REMARK SMILES IDX 78 78 71 79 77 80 79 81 76 82 72 83 73 84 74 85 75 86 54 87
REMARK SMILES IDX 55 88 63 89 56 90 62 91 64 92 61 93 57 94 58 95 59 96 60 97
REMARK H PARENT 20 6 8 16 25 31 84 50 52 61
REMARK Flexibility Score: inf
ROOT
ATOM      1  C   UNL A   1      40.365  21.387  26.501  1.00  0.00     0.023 C 
ENDROOT
BRANCH   1   2
ATOM      2  C   UNL A   1      39.071  22.077  26.039  1.00  0.00     0.116 C 
BRANCH   2   3
ATOM      3  N   UNL A   1      38.132  21.109  25.498  1.00  0.00    -0.356 N 
ATOM      4  C   UNL A   1      36.780  21.093  25.445  1.00  0.00     0.224 C 
ATOM      5  O   UNL A   1      36.269  20.068  24.974  1.00  0.00    -0.275 OA
ATOM      6  H   UNL A   1      38.558  20.318  25.095  1.00  0.00     0.163 HD
BRANCH   4   7
ATOM      7  C   UNL A   1      35.896  22.298  25.783  1.00  0.00     0.094 C 
ATOM      8  C   UNL A   1      34.367  22.276  25.606  1.00  0.00     0.094 C 
ATOM      9  C   UNL A   1      34.098  23.455  24.634  1.00  0.00     0.002 C 
ATOM     10  C   UNL A   1      34.627  23.080  23.239  1.00  0.00     0.005 C 
ATOM     11  C   UNL A   1      35.121  24.484  25.101  1.00  0.00     0.009 C 
ATOM     12  C   UNL A   1      36.298  23.529  24.910  1.00  0.00     0.002 C 
ATOM     13  C   UNL A   1      36.145  23.201  23.409  1.00  0.00     0.005 C 
BRANCH   8  14
ATOM     14  C   UNL A   1      33.448  22.430  26.829  1.00  0.00     0.224 C 
ATOM     15  N   UNL A   1      32.409  23.310  26.828  1.00  0.00    -0.349 N 
ATOM     16  H   UNL A   1      32.505  24.134  27.357  1.00  0.00     0.164 HD
ATOM     17  O   UNL A   1      33.682  21.805  27.866  1.00  0.00    -0.275 OA
BRANCH  15  18
ATOM     18  C   UNL A   1      31.162  23.115  26.097  1.00  0.00     0.109 C 
ATOM     19  C   UNL A   1      30.013  22.760  27.047  1.00  0.00     0.036 C 
BRANCH  18  20
ATOM     20  C   UNL A   1      30.835  24.320  25.238  1.00  0.00    -0.026 A 
ATOM     21  C   UNL A   1      30.006  27.829  22.846  1.00  0.00     0.044 C 
ATOM     22  C   UNL A   1      30.286  26.607  23.670  1.00  0.00    -0.051 A 
ATOM     23  C   UNL A   1      30.437  26.717  25.054  1.00  0.00     0.004 A 
ATOM     24  C   UNL A   1      30.385  25.345  23.077  1.00  0.00     0.004 A 
ATOM     25  C   UNL A   1      30.710  25.587  25.830  1.00  0.00     0.006 A 
ATOM     26  C   UNL A   1      30.651  24.213  23.853  1.00  0.00     0.006 A 
ENDBRANCH  18  20
ENDBRANCH  15  18
ENDBRANCH   8  14
ENDBRANCH   4   7
ENDBRANCH   2   3
ENDBRANCH   1   2
BRANCH   1  27
ATOM     27  C   UNL A   1      40.830  21.757  27.910  1.00  0.00     0.023 C 
BRANCH  27  28
ATOM     28  C   UNL A   1      41.464  23.140  28.005  1.00  0.00     0.116 C 
BRANCH  28  29
ATOM     29  N   UNL A   1      42.208  23.566  26.827  1.00  0.00    -0.352 N 
ATOM     30  C   UNL A   1      42.055  24.744  26.106  1.00  0.00     0.251 C 
ATOM     31  H   UNL A   1      42.901  22.946  26.503  1.00  0.00     0.163 HD
ATOM     32  O   UNL A   1      42.723  24.988  25.116  1.00  0.00    -0.269 OA
BRANCH  30  33
ATOM     33  C   UNL A   1      41.131  25.772  26.649  1.00  0.00     0.039 A 
ATOM     34  C   UNL A   1      41.137  27.029  26.037  1.00  0.00     0.014 A 
ATOM     35  C   UNL A   1      40.505  25.586  27.879  1.00  0.00     0.014 A 
ATOM     36  C   UNL A   1      40.734  28.143  26.770  1.00  0.00     0.010 A 
ATOM     37  C   UNL A   1      40.201  26.699  28.642  1.00  0.00     0.010 A 
ATOM     38  C   UNL A   1      40.378  27.981  28.112  1.00  0.00    -0.014 A 
BRANCH  38  39
ATOM     39  C   UNL A   1      40.337  29.102  29.048  1.00  0.00     0.031 A 
ATOM     40  C   UNL A   1      39.207  30.050  29.054  1.00  0.00     0.074 A 
ATOM     41  C   UNL A   1      41.360  29.310  29.906  1.00  0.00     0.049 A 
ATOM     42  N   UNL A   1      39.327  31.315  29.295  1.00  0.00    -0.248 NA
ATOM     43  C   UNL A   1      37.839  29.640  28.752  1.00  0.00     0.031 C 
ATOM     44  C   UNL A   1      41.418  30.277  30.999  1.00  0.00     0.029 A 
ATOM     45  N   UNL A   1      42.667  28.842  29.787  1.00  0.00    -0.354 N 
ATOM     46  C   UNL A   1      38.060  31.822  29.445  1.00  0.00     0.074 A 
ATOM     47  C   UNL A   1      37.168  30.761  29.032  1.00  0.00     0.031 C 
ATOM     48  C   UNL A   1      42.704  30.533  31.281  1.00  0.00     0.029 A 
ATOM     49  C   UNL A   1      43.517  29.833  30.302  1.00  0.00     0.049 A 
ATOM     50  H   UNL A   1      42.943  27.976  29.410  1.00  0.00     0.167 HD
ATOM     51  C   UNL A   1      37.854  33.028  30.040  1.00  0.00     0.034 A 
ATOM     52  C   UNL A   1      44.492  30.395  29.530  1.00  0.00     0.034 A 
ATOM     53  C   UNL A   1      39.093  33.662  30.473  1.00  0.00     0.049 A 
ATOM     54  C   UNL A   1      44.336  31.885  29.342  1.00  0.00     0.074 A 
ATOM     55  C   UNL A   1      39.731  33.718  31.700  1.00  0.00     0.029 A 
ATOM     56  N   UNL A   1      40.014  34.105  29.529  1.00  0.00    -0.354 N 
ATOM     57  N   UNL A   1      43.259  32.555  29.647  1.00  0.00    -0.248 NA
ATOM     58  C   UNL A   1      45.374  32.727  28.755  1.00  0.00     0.031 C 
ATOM     59  C   UNL A   1      41.074  34.116  31.477  1.00  0.00     0.029 A 
ATOM     60  C   UNL A   1      41.240  34.342  30.121  1.00  0.00     0.049 A 
ATOM     61  H   UNL A   1      39.819  34.231  28.573  1.00  0.00     0.167 HD
ATOM     62  C   UNL A   1      43.408  33.857  29.245  1.00  0.00     0.074 A 
ATOM     63  C   UNL A   1      44.769  33.926  28.742  1.00  0.00     0.031 C 
ATOM     64  C   UNL A   1      42.388  34.764  29.329  1.00  0.00     0.034 A 
BRANCH  51  65
ATOM     65  C   UNL A   1      36.479  33.422  30.504  1.00  0.00     0.023 A 
ATOM     66  C   UNL A   1      35.611  34.118  29.642  1.00  0.00     0.031 A 
ATOM     67  C   UNL A   1      36.011  33.194  31.811  1.00  0.00     0.131 A 
ATOM     68  C   UNL A   1      34.391  34.637  30.110  1.00  0.00     0.055 A 
ATOM     69  C   UNL A   1      34.824  33.757  32.293  1.00  0.00     0.041 A 
ATOM     70  F   UNL A   1      36.708  32.430  32.669  1.00  0.00    -0.206 F 
ATOM     71  C   UNL A   1      34.012  34.498  31.444  1.00  0.00     0.022 A 
BRANCH  68  72
ATOM     72  S   UNL A   1      33.306  35.513  28.948  1.00  0.00     0.124 S 
ATOM     73  O   UNL A   1      34.261  36.164  28.058  1.00  0.00    -0.237 OA
ATOM     74  O   UNL A   1      32.529  34.421  28.370  1.00  0.00    -0.237 OA
ATOM     75  O   UNL A   1      32.548  36.420  29.809  1.00  0.00    -0.744 OA
ENDBRANCH  68  72
ENDBRANCH  51  65
BRANCH  52  76
ATOM     76  C   UNL A   1      45.068  29.460  28.524  1.00  0.00     0.023 A 
ATOM     77  C   UNL A   1      45.886  28.423  29.015  1.00  0.00     0.031 A 
ATOM     78  C   UNL A   1      44.549  29.330  27.230  1.00  0.00     0.131 A 
ATOM     79  C   UNL A   1      46.016  27.227  28.299  1.00  0.00     0.055 A 
ATOM     80  C   UNL A   1      44.747  28.160  26.483  1.00  0.00     0.041 A 
ATOM     81  F   UNL A   1      43.740  30.269  26.719  1.00  0.00    -0.206 F 
ATOM     82  C   UNL A   1      45.441  27.083  27.036  1.00  0.00     0.022 A 
BRANCH  79  83
ATOM     83  S   UNL A   1      46.683  25.781  29.167  1.00  0.00     0.124 S 
ATOM     84  O   UNL A   1      46.194  25.989  30.523  1.00  0.00    -0.237 OA
ATOM     85  O   UNL A   1      46.082  24.669  28.430  1.00  0.00    -0.237 OA
ATOM     86  O   UNL A   1      48.127  25.911  28.982  1.00  0.00    -0.744 OA
ENDBRANCH  79  83
ENDBRANCH  52  76
BRANCH  64  87
ATOM     87  C   UNL A   1      42.428  36.157  28.747  1.00  0.00     0.023 A 
ATOM     88  C   UNL A   1      43.034  37.241  29.399  1.00  0.00     0.031 A 
ATOM     89  C   UNL A   1      41.896  36.427  27.465  1.00  0.00     0.131 A 
ATOM     90  C   UNL A   1      42.993  38.535  28.851  1.00  0.00     0.055 A 
ATOM     91  C   UNL A   1      41.937  37.697  26.880  1.00  0.00     0.041 A 
ATOM     92  F   UNL A   1      41.313  35.469  26.730  1.00  0.00    -0.206 F 
ATOM     93  C   UNL A   1      42.466  38.768  27.584  1.00  0.00     0.022 A 
BRANCH  90  94
ATOM     94  S   UNL A   1      43.560  39.918  29.876  1.00  0.00     0.124 S 
ATOM     95  O   UNL A   1      44.562  40.538  29.011  1.00  0.00    -0.237 OA
ATOM     96  O   UNL A   1      42.335  40.683  30.076  1.00  0.00    -0.237 OA
ATOM     97  O   UNL A   1      44.092  39.266  31.070  1.00  0.00    -0.744 OA
ENDBRANCH  90  94
ENDBRANCH  64  87
ENDBRANCH  38  39
ENDBRANCH  30  33
ENDBRANCH  28  29
ENDBRANCH  27  28
ENDBRANCH   1  27
TORSDOF 17
ENDMDL
