MODEL 1
REMARK VINA RESULT:     -12.5      0.000      0.000
REMARK SMILES C[C@@H]1CC[C@H](C)[N@H+]1Cc1cc2c(cc1Cl)C=C(C(=O)NCCCCNC(=O)c1ccc(-c3c4nc(c(-c5cc(S(=O)(=O)[O-])ccc5F)c5ccc([nH]5)c(-c5cc(S(=O)(=O)[O-])ccc5F)c5nc(c(-c6cc(S(=O)(=O)[O-])ccc6F)c6ccc3[nH]6)C=C5)C=C4)cc1)[C@@H](C(F)(F)F)O2
REMARK SMILES IDX 23 1 22 2 21 3 20 4 18 5 19 6 17 8 9 9 10 10 14 11 11 12
REMARK SMILES IDX 13 13 15 14 12 15 96 16 16 17 91 18 8 19 7 20 6 21 5 22 4 23
REMARK SMILES IDX 3 24 2 25 1 27 92 28 93 29 94 30 95 31 24 32 25 33 26 34
REMARK SMILES IDX 27 36 28 37 29 38 90 39 30 40 89 41 31 42 32 43 33 44 83 45
REMARK SMILES IDX 34 46 88 47 82 48 84 49 35 50 87 51 81 52 80 53 36 55 68 56
REMARK SMILES IDX 48 57 67 58 49 59 52 60 66 61 85 62 50 63 51 64 65 66 86 67
REMARK SMILES IDX 53 68 37 69 38 70 46 71 39 72 45 73 47 74 44 75 40 76 41 77
REMARK SMILES IDX 42 78 43 79 69 80 70 81 78 82 71 83 77 84 79 85 76 86 72 87
REMARK SMILES IDX 73 88 74 89 75 90 54 91 55 92 63 93 56 94 62 95 64 96 61 97
REMARK SMILES IDX 57 98 58 99 59 100 60 101
REMARK H PARENT 20 7 7 26 25 35 84 54 52 65
REMARK Flexibility Score: inf
ROOT
ATOM      1  C   UNL A   1      31.142  31.990  26.763  1.00  0.00     0.023 C 
ENDROOT
BRANCH   1   2
ATOM      2  C   UNL A   1      30.661  31.845  25.319  1.00  0.00     0.023 C 
BRANCH   2   3
ATOM      3  C   UNL A   1      30.430  30.403  24.877  1.00  0.00     0.116 C 
BRANCH   3   4
ATOM      4  N   UNL A   1      30.065  30.319  23.474  1.00  0.00    -0.352 N 
ATOM      5  C   UNL A   1      30.252  29.443  22.460  1.00  0.00     0.251 C 
ATOM      6  O   UNL A   1      29.748  29.766  21.381  1.00  0.00    -0.270 OA
ATOM      7  H   UNL A   1      29.549  31.106  23.185  1.00  0.00     0.163 HD
BRANCH   5   8
ATOM      8  C   UNL A   1      31.009  28.163  22.560  1.00  0.00     0.067 C 
ATOM      9  C   UNL A   1      32.285  23.331  23.318  1.00  0.00     0.029 A 
ATOM     10  C   UNL A   1      32.706  24.342  22.435  1.00  0.00     0.058 A 
ATOM     11  C   UNL A   1      31.325  23.670  24.288  1.00  0.00     0.050 A 
ATOM     12  C   UNL A   1      32.121  25.604  22.461  1.00  0.00     0.128 A 
ATOM     13  C   UNL A   1      30.695  24.922  24.269  1.00  0.00     0.033 A 
ATOM     14  Cl  UNL A   1      30.907  22.620  25.598  1.00  0.00    -0.084 Cl
ATOM     15  C   UNL A   1      31.076  25.884  23.337  1.00  0.00     0.019 A 
ATOM     16  O   UNL A   1      32.592  26.532  21.574  1.00  0.00    -0.475 OA
ATOM     17  C   UNL A   1      30.395  27.169  23.231  1.00  0.00     0.025 C 
ATOM     18  C   UNL A   1      32.376  27.916  21.985  1.00  0.00     0.314 C 
BRANCH   9  19
ATOM     19  C   UNL A   1      32.872  21.942  23.146  1.00  0.00     0.301 C 
BRANCH  19  20
ATOM     20  N   UNL A   1      34.076  21.626  23.936  1.00  0.00    -0.327 N 
ATOM     21  C   UNL A   1      34.053  19.301  24.789  1.00  0.00     0.075 C 
ATOM     22  C   UNL A   1      33.891  20.778  25.123  1.00  0.00     0.181 C 
ATOM     23  C   UNL A   1      34.945  21.253  26.120  1.00  0.00     0.071 C 
ATOM     24  C   UNL A   1      35.053  22.730  25.806  1.00  0.00     0.071 C 
ATOM     25  C   UNL A   1      34.916  22.777  24.290  1.00  0.00     0.181 C 
ATOM     26  H   UNL A   1      34.574  21.063  23.248  1.00  0.00     0.348 HD
ATOM     27  C   UNL A   1      36.266  22.629  23.586  1.00  0.00     0.075 C 
ENDBRANCH  19  20
ENDBRANCH   9  19
BRANCH  18  28
ATOM     28  C   UNL A   1      33.500  28.369  22.943  1.00  0.00     0.429 C 
ATOM     29  F   UNL A   1      34.664  28.530  22.266  1.00  0.00    -0.167 F 
ATOM     30  F   UNL A   1      33.227  29.557  23.534  1.00  0.00    -0.167 F 
ATOM     31  F   UNL A   1      33.733  27.485  23.939  1.00  0.00    -0.167 F 
ENDBRANCH  18  28
ENDBRANCH   5   8
ENDBRANCH   3   4
ENDBRANCH   2   3
ENDBRANCH   1   2
BRANCH   1  32
ATOM     32  C   UNL A   1      32.541  32.577  26.930  1.00  0.00     0.116 C 
BRANCH  32  33
ATOM     33  N   UNL A   1      32.573  33.864  27.613  1.00  0.00    -0.352 N 
ATOM     34  C   UNL A   1      33.546  34.328  28.475  1.00  0.00     0.251 C 
ATOM     35  H   UNL A   1      31.818  34.470  27.441  1.00  0.00     0.163 HD
ATOM     36  O   UNL A   1      33.426  35.407  29.037  1.00  0.00    -0.269 OA
BRANCH  34  37
ATOM     37  C   UNL A   1      34.702  33.448  28.741  1.00  0.00     0.039 A 
ATOM     38  C   UNL A   1      34.526  32.289  29.496  1.00  0.00     0.014 A 
ATOM     39  C   UNL A   1      35.978  33.874  28.365  1.00  0.00     0.014 A 
ATOM     40  C   UNL A   1      35.639  31.659  30.036  1.00  0.00     0.010 A 
ATOM     41  C   UNL A   1      37.094  33.186  28.841  1.00  0.00     0.010 A 
ATOM     42  C   UNL A   1      36.934  32.113  29.732  1.00  0.00    -0.014 A 
BRANCH  42  43
ATOM     43  C   UNL A   1      38.101  31.458  30.376  1.00  0.00     0.031 A 
ATOM     44  C   UNL A   1      38.481  31.781  31.796  1.00  0.00     0.074 A 
ATOM     45  C   UNL A   1      38.782  30.522  29.689  1.00  0.00     0.049 A 
ATOM     46  N   UNL A   1      39.444  31.274  32.523  1.00  0.00    -0.248 NA
ATOM     47  C   UNL A   1      37.683  32.802  32.493  1.00  0.00     0.031 C 
ATOM     48  C   UNL A   1      38.490  30.129  28.311  1.00  0.00     0.029 A 
ATOM     49  N   UNL A   1      39.829  29.715  30.054  1.00  0.00    -0.354 N 
ATOM     50  C   UNL A   1      39.384  31.928  33.749  1.00  0.00     0.074 A 
ATOM     51  C   UNL A   1      38.306  32.888  33.661  1.00  0.00     0.031 C 
ATOM     52  C   UNL A   1      39.298  29.119  27.964  1.00  0.00     0.029 A 
ATOM     53  C   UNL A   1      40.216  28.840  29.066  1.00  0.00     0.049 A 
ATOM     54  H   UNL A   1      40.262  29.759  30.937  1.00  0.00     0.167 HD
ATOM     55  C   UNL A   1      40.151  31.734  34.848  1.00  0.00     0.034 A 
ATOM     56  C   UNL A   1      41.204  27.923  29.041  1.00  0.00     0.034 A 
ATOM     57  C   UNL A   1      41.204  30.753  34.929  1.00  0.00     0.049 A 
ATOM     58  C   UNL A   1      42.051  27.736  30.269  1.00  0.00     0.074 A 
ATOM     59  C   UNL A   1      42.014  30.456  36.011  1.00  0.00     0.029 A 
ATOM     60  N   UNL A   1      41.592  29.910  33.897  1.00  0.00    -0.354 N 
ATOM     61  N   UNL A   1      41.955  28.337  31.432  1.00  0.00    -0.248 NA
ATOM     62  C   UNL A   1      43.141  26.754  30.189  1.00  0.00     0.031 C 
ATOM     63  C   UNL A   1      42.923  29.472  35.619  1.00  0.00     0.029 A 
ATOM     64  C   UNL A   1      42.645  29.110  34.309  1.00  0.00     0.049 A 
ATOM     65  H   UNL A   1      41.179  29.883  33.003  1.00  0.00     0.167 HD
ATOM     66  C   UNL A   1      42.967  27.803  32.224  1.00  0.00     0.074 A 
ATOM     67  C   UNL A   1      43.642  26.807  31.417  1.00  0.00     0.031 C 
ATOM     68  C   UNL A   1      43.310  28.118  33.498  1.00  0.00     0.034 A 
BRANCH  55  69
ATOM     69  C   UNL A   1      39.893  32.581  36.070  1.00  0.00     0.023 A 
ATOM     70  C   UNL A   1      38.938  32.173  37.020  1.00  0.00     0.031 A 
ATOM     71  C   UNL A   1      40.498  33.840  36.231  1.00  0.00     0.131 A 
ATOM     72  C   UNL A   1      38.595  33.029  38.075  1.00  0.00     0.055 A 
ATOM     73  C   UNL A   1      40.176  34.676  37.303  1.00  0.00     0.041 A 
ATOM     74  F   UNL A   1      41.416  34.273  35.353  1.00  0.00    -0.206 F 
ATOM     75  C   UNL A   1      39.212  34.275  38.224  1.00  0.00     0.022 A 
BRANCH  72  76
ATOM     76  S   UNL A   1      37.297  32.585  39.262  1.00  0.00     0.124 S 
ATOM     77  O   UNL A   1      36.089  32.751  38.457  1.00  0.00    -0.237 OA
ATOM     78  O   UNL A   1      37.642  31.205  39.589  1.00  0.00    -0.237 OA
ATOM     79  O   UNL A   1      37.462  33.550  40.342  1.00  0.00    -0.744 OA
ENDBRANCH  72  76
ENDBRANCH  55  69
BRANCH  56  80
ATOM     80  C   UNL A   1      41.387  27.101  27.810  1.00  0.00     0.023 A 
ATOM     81  C   UNL A   1      40.947  25.764  27.767  1.00  0.00     0.031 A 
ATOM     82  C   UNL A   1      42.129  27.590  26.723  1.00  0.00     0.131 A 
ATOM     83  C   UNL A   1      41.335  24.938  26.704  1.00  0.00     0.055 A 
ATOM     84  C   UNL A   1      42.446  26.783  25.629  1.00  0.00     0.041 A 
ATOM     85  F   UNL A   1      42.579  28.854  26.725  1.00  0.00    -0.206 F 
ATOM     86  C   UNL A   1      42.068  25.443  25.627  1.00  0.00     0.022 A 
BRANCH  83  87
ATOM     87  S   UNL A   1      41.042  23.148  26.770  1.00  0.00     0.124 S 
ATOM     88  O   UNL A   1      41.931  22.656  25.722  1.00  0.00    -0.237 OA
ATOM     89  O   UNL A   1      41.441  22.831  28.139  1.00  0.00    -0.237 OA
ATOM     90  O   UNL A   1      39.613  23.022  26.497  1.00  0.00    -0.744 OA
ENDBRANCH  83  87
ENDBRANCH  56  80
BRANCH  68  91
ATOM     91  C   UNL A   1      44.481  27.401  34.123  1.00  0.00     0.023 A 
ATOM     92  C   UNL A   1      44.284  26.181  34.797  1.00  0.00     0.031 A 
ATOM     93  C   UNL A   1      45.753  27.998  34.179  1.00  0.00     0.131 A 
ATOM     94  C   UNL A   1      45.335  25.616  35.532  1.00  0.00     0.055 A 
ATOM     95  C   UNL A   1      46.806  27.409  34.878  1.00  0.00     0.041 A 
ATOM     96  F   UNL A   1      45.984  29.166  33.559  1.00  0.00    -0.206 F 
ATOM     97  C   UNL A   1      46.596  26.220  35.571  1.00  0.00     0.022 A 
BRANCH  94  98
ATOM     98  S   UNL A   1      45.080  24.124  36.534  1.00  0.00     0.124 S 
ATOM     99  O   UNL A   1      46.422  23.547  36.560  1.00  0.00    -0.237 OA
ATOM    100  O   UNL A   1      44.615  24.681  37.801  1.00  0.00    -0.237 OA
ATOM    101  O   UNL A   1      44.090  23.361  35.783  1.00  0.00    -0.744 OA
ENDBRANCH  94  98
ENDBRANCH  68  91
ENDBRANCH  42  43
ENDBRANCH  34  37
ENDBRANCH  32  33
ENDBRANCH   1  32
TORSDOF 17
ENDMDL
MODEL 2
REMARK VINA RESULT:     -12.4      1.934      2.470
REMARK SMILES C[C@@H]1CC[C@H](C)[N@H+]1Cc1cc2c(cc1Cl)C=C(C(=O)NCCCCNC(=O)c1ccc(-c3c4nc(c(-c5cc(S(=O)(=O)[O-])ccc5F)c5ccc([nH]5)c(-c5cc(S(=O)(=O)[O-])ccc5F)c5nc(c(-c6cc(S(=O)(=O)[O-])ccc6F)c6ccc3[nH]6)C=C5)C=C4)cc1)[C@@H](C(F)(F)F)O2
REMARK SMILES IDX 23 1 22 2 21 3 20 4 18 5 19 6 17 8 9 9 10 10 14 11 11 12
REMARK SMILES IDX 13 13 15 14 12 15 96 16 16 17 91 18 8 19 7 20 6 21 5 22 4 23
REMARK SMILES IDX 3 24 2 25 1 27 92 28 93 29 94 30 95 31 24 32 25 33 26 34
REMARK SMILES IDX 27 36 28 37 29 38 90 39 30 40 89 41 31 42 32 43 33 44 83 45
REMARK SMILES IDX 34 46 88 47 82 48 84 49 35 50 87 51 81 52 80 53 36 55 68 56
REMARK SMILES IDX 48 57 67 58 49 59 52 60 66 61 85 62 50 63 51 64 65 66 86 67
REMARK SMILES IDX 53 68 37 69 38 70 46 71 39 72 45 73 47 74 44 75 40 76 41 77
REMARK SMILES IDX 42 78 43 79 69 80 70 81 78 82 71 83 77 84 79 85 76 86 72 87
REMARK SMILES IDX 73 88 74 89 75 90 54 91 55 92 63 93 56 94 62 95 64 96 61 97
REMARK SMILES IDX 57 98 58 99 59 100 60 101
REMARK H PARENT 20 7 7 26 25 35 84 54 52 65
REMARK Flexibility Score: inf
ROOT
ATOM      1  C   UNL A   1      32.921  31.165  27.592  1.00  0.00     0.023 C 
ENDROOT
BRANCH   1   2
ATOM      2  C   UNL A   1      31.799  31.100  26.555  1.00  0.00     0.023 C 
BRANCH   2   3
ATOM      3  C   UNL A   1      32.090  30.181  25.372  1.00  0.00     0.116 C 
BRANCH   3   4
ATOM      4  N   UNL A   1      30.927  30.011  24.520  1.00  0.00    -0.352 N 
ATOM      5  C   UNL A   1      30.329  28.989  23.866  1.00  0.00     0.251 C 
ATOM      6  O   UNL A   1      29.311  29.287  23.234  1.00  0.00    -0.270 OA
ATOM      7  H   UNL A   1      30.450  30.860  24.382  1.00  0.00     0.163 HD
BRANCH   5   8
ATOM      8  C   UNL A   1      30.811  27.579  23.853  1.00  0.00     0.067 C 
ATOM      9  C   UNL A   1      31.746  22.762  25.071  1.00  0.00     0.029 A 
ATOM     10  C   UNL A   1      31.554  23.462  23.865  1.00  0.00     0.058 A 
ATOM     11  C   UNL A   1      31.749  23.507  26.264  1.00  0.00     0.050 A 
ATOM     12  C   UNL A   1      31.280  24.826  23.866  1.00  0.00     0.128 A 
ATOM     13  C   UNL A   1      31.411  24.867  26.264  1.00  0.00     0.033 A 
ATOM     14  Cl  UNL A   1      32.231  22.836  27.784  1.00  0.00    -0.084 Cl
ATOM     15  C   UNL A   1      31.152  25.524  25.063  1.00  0.00     0.019 A 
ATOM     16  O   UNL A   1      31.113  25.433  22.651  1.00  0.00    -0.475 OA
ATOM     17  C   UNL A   1      30.721  26.917  25.023  1.00  0.00     0.025 C 
ATOM     18  C   UNL A   1      31.381  26.867  22.657  1.00  0.00     0.314 C 
BRANCH   9  19
ATOM     19  C   UNL A   1      31.909  21.255  25.004  1.00  0.00     0.301 C 
BRANCH  19  20
ATOM     20  N   UNL A   1      33.168  20.747  24.432  1.00  0.00    -0.327 N 
ATOM     21  C   UNL A   1      32.884  18.528  23.366  1.00  0.00     0.075 C 
ATOM     22  C   UNL A   1      33.424  19.303  24.560  1.00  0.00     0.181 C 
ATOM     23  C   UNL A   1      34.941  19.178  24.679  1.00  0.00     0.071 C 
ATOM     24  C   UNL A   1      35.322  20.451  25.405  1.00  0.00     0.071 C 
ATOM     25  C   UNL A   1      34.377  21.488  24.811  1.00  0.00     0.181 C 
ATOM     26  H   UNL A   1      32.978  20.923  23.446  1.00  0.00     0.348 HD
ATOM     27  C   UNL A   1      34.959  22.145  23.559  1.00  0.00     0.075 C 
ENDBRANCH  19  20
ENDBRANCH   9  19
BRANCH  18  28
ATOM     28  C   UNL A   1      32.896  27.127  22.495  1.00  0.00     0.429 C 
ATOM     29  F   UNL A   1      33.438  26.239  21.625  1.00  0.00    -0.167 F 
ATOM     30  F   UNL A   1      33.159  28.362  22.005  1.00  0.00    -0.167 F 
ATOM     31  F   UNL A   1      33.578  27.018  23.658  1.00  0.00    -0.167 F 
ENDBRANCH  18  28
ENDBRANCH   5   8
ENDBRANCH   3   4
ENDBRANCH   2   3
ENDBRANCH   1   2
BRANCH   1  32
ATOM     32  C   UNL A   1      33.785  32.422  27.540  1.00  0.00     0.116 C 
BRANCH  32  33
ATOM     33  N   UNL A   1      33.061  33.657  27.813  1.00  0.00    -0.352 N 
ATOM     34  C   UNL A   1      33.320  34.573  28.813  1.00  0.00     0.251 C 
ATOM     35  H   UNL A   1      32.305  33.863  27.219  1.00  0.00     0.163 HD
ATOM     36  O   UNL A   1      32.597  35.545  28.978  1.00  0.00    -0.269 OA
BRANCH  34  37
ATOM     37  C   UNL A   1      34.460  34.303  29.711  1.00  0.00     0.039 A 
ATOM     38  C   UNL A   1      35.753  34.627  29.301  1.00  0.00     0.014 A 
ATOM     39  C   UNL A   1      34.240  33.584  30.888  1.00  0.00     0.014 A 
ATOM     40  C   UNL A   1      36.834  34.069  29.968  1.00  0.00     0.010 A 
ATOM     41  C   UNL A   1      35.333  33.095  31.604  1.00  0.00     0.010 A 
ATOM     42  C   UNL A   1      36.635  33.280  31.114  1.00  0.00    -0.014 A 
BRANCH  42  43
ATOM     43  C   UNL A   1      37.808  32.643  31.768  1.00  0.00     0.031 A 
ATOM     44  C   UNL A   1      38.259  33.078  33.136  1.00  0.00     0.074 A 
ATOM     45  C   UNL A   1      38.427  31.625  31.142  1.00  0.00     0.049 A 
ATOM     46  N   UNL A   1      39.235  32.604  33.867  1.00  0.00    -0.248 NA
ATOM     47  C   UNL A   1      37.525  34.186  33.768  1.00  0.00     0.031 C 
ATOM     48  C   UNL A   1      38.063  31.121  29.818  1.00  0.00     0.029 A 
ATOM     49  N   UNL A   1      39.463  30.817  31.537  1.00  0.00    -0.354 N 
ATOM     50  C   UNL A   1      39.249  33.367  35.030  1.00  0.00     0.074 A 
ATOM     51  C   UNL A   1      38.200  34.353  34.898  1.00  0.00     0.031 C 
ATOM     52  C   UNL A   1      38.823  30.055  29.533  1.00  0.00     0.029 A 
ATOM     53  C   UNL A   1      39.778  29.844  30.618  1.00  0.00     0.049 A 
ATOM     54  H   UNL A   1      39.935  30.924  32.394  1.00  0.00     0.167 HD
ATOM     55  C   UNL A   1      40.056  33.245  36.111  1.00  0.00     0.034 A 
ATOM     56  C   UNL A   1      40.733  28.893  30.637  1.00  0.00     0.034 A 
ATOM     57  C   UNL A   1      41.080  32.238  36.238  1.00  0.00     0.049 A 
ATOM     58  C   UNL A   1      41.626  28.786  31.842  1.00  0.00     0.074 A 
ATOM     59  C   UNL A   1      41.925  32.009  37.309  1.00  0.00     0.029 A 
ATOM     60  N   UNL A   1      41.395  31.292  35.272  1.00  0.00    -0.354 N 
ATOM     61  N   UNL A   1      41.601  29.491  32.949  1.00  0.00    -0.248 NA
ATOM     62  C   UNL A   1      42.679  27.762  31.809  1.00  0.00     0.031 C 
ATOM     63  C   UNL A   1      42.785  30.962  36.973  1.00  0.00     0.029 A 
ATOM     64  C   UNL A   1      42.438  30.495  35.714  1.00  0.00     0.049 A 
ATOM     65  H   UNL A   1      40.944  31.200  34.402  1.00  0.00     0.167 HD
ATOM     66  C   UNL A   1      42.628  28.994  33.745  1.00  0.00     0.074 A 
ATOM     67  C   UNL A   1      43.235  27.906  33.005  1.00  0.00     0.031 C 
ATOM     68  C   UNL A   1      43.035  29.411  34.971  1.00  0.00     0.034 A 
BRANCH  55  69
ATOM     69  C   UNL A   1      39.879  34.207  37.260  1.00  0.00     0.023 A 
ATOM     70  C   UNL A   1      39.266  33.775  38.451  1.00  0.00     0.031 A 
ATOM     71  C   UNL A   1      40.202  35.569  37.133  1.00  0.00     0.131 A 
ATOM     72  C   UNL A   1      38.971  34.702  39.459  1.00  0.00     0.055 A 
ATOM     73  C   UNL A   1      39.935  36.484  38.153  1.00  0.00     0.041 A 
ATOM     74  F   UNL A   1      40.789  36.030  36.017  1.00  0.00    -0.206 F 
ATOM     75  C   UNL A   1      39.305  36.052  39.318  1.00  0.00     0.022 A 
BRANCH  72  76
ATOM     76  S   UNL A   1      38.090  34.205  40.965  1.00  0.00     0.124 S 
ATOM     77  O   UNL A   1      37.017  33.375  40.422  1.00  0.00    -0.237 OA
ATOM     78  O   UNL A   1      39.125  33.483  41.699  1.00  0.00    -0.237 OA
ATOM     79  O   UNL A   1      37.662  35.467  41.555  1.00  0.00    -0.744 OA
ENDBRANCH  72  76
ENDBRANCH  55  69
BRANCH  56  80
ATOM     80  C   UNL A   1      40.836  27.958  29.480  1.00  0.00     0.023 A 
ATOM     81  C   UNL A   1      41.788  28.174  28.464  1.00  0.00     0.031 A 
ATOM     82  C   UNL A   1      39.895  26.932  29.298  1.00  0.00     0.131 A 
ATOM     83  C   UNL A   1      41.717  27.437  27.276  1.00  0.00     0.055 A 
ATOM     84  C   UNL A   1      39.879  26.147  28.144  1.00  0.00     0.041 A 
ATOM     85  F   UNL A   1      38.963  26.697  30.233  1.00  0.00    -0.206 F 
ATOM     86  C   UNL A   1      40.779  26.414  27.115  1.00  0.00     0.022 A 
BRANCH  83  87
ATOM     87  S   UNL A   1      42.730  27.894  25.841  1.00  0.00     0.124 S 
ATOM     88  O   UNL A   1      42.128  27.098  24.777  1.00  0.00    -0.237 OA
ATOM     89  O   UNL A   1      42.500  29.335  25.762  1.00  0.00    -0.237 OA
ATOM     90  O   UNL A   1      44.081  27.505  26.235  1.00  0.00    -0.744 OA
ENDBRANCH  83  87
ENDBRANCH  56  80
BRANCH  68  91
ATOM     91  C   UNL A   1      44.208  28.710  35.611  1.00  0.00     0.023 A 
ATOM     92  C   UNL A   1      43.992  27.655  36.518  1.00  0.00     0.031 A 
ATOM     93  C   UNL A   1      45.520  29.185  35.437  1.00  0.00     0.131 A 
ATOM     94  C   UNL A   1      45.069  27.136  37.248  1.00  0.00     0.055 A 
ATOM     95  C   UNL A   1      46.594  28.635  36.137  1.00  0.00     0.041 A 
ATOM     96  F   UNL A   1      45.772  30.194  34.589  1.00  0.00    -0.206 F 
ATOM     97  C   UNL A   1      46.369  27.615  37.057  1.00  0.00     0.022 A 
BRANCH  94  98
ATOM     98  S   UNL A   1      44.810  25.880  38.532  1.00  0.00     0.124 S 
ATOM     99  O   UNL A   1      44.025  26.616  39.520  1.00  0.00    -0.237 OA
ATOM    100  O   UNL A   1      44.084  24.843  37.805  1.00  0.00    -0.237 OA
ATOM    101  O   UNL A   1      46.161  25.523  38.953  1.00  0.00    -0.744 OA
ENDBRANCH  94  98
ENDBRANCH  68  91
ENDBRANCH  42  43
ENDBRANCH  34  37
ENDBRANCH  32  33
ENDBRANCH   1  32
TORSDOF 17
ENDMDL
MODEL 3
REMARK VINA RESULT:     -12.4      5.913      9.747
REMARK SMILES C[C@@H]1CC[C@H](C)[N@H+]1Cc1cc2c(cc1Cl)C=C(C(=O)NCCCCNC(=O)c1ccc(-c3c4nc(c(-c5cc(S(=O)(=O)[O-])ccc5F)c5ccc([nH]5)c(-c5cc(S(=O)(=O)[O-])ccc5F)c5nc(c(-c6cc(S(=O)(=O)[O-])ccc6F)c6ccc3[nH]6)C=C5)C=C4)cc1)[C@@H](C(F)(F)F)O2
REMARK SMILES IDX 23 1 22 2 21 3 20 4 18 5 19 6 17 8 9 9 10 10 14 11 11 12
REMARK SMILES IDX 13 13 15 14 12 15 96 16 16 17 91 18 8 19 7 20 6 21 5 22 4 23
REMARK SMILES IDX 3 24 2 25 1 27 92 28 93 29 94 30 95 31 24 32 25 33 26 34
REMARK SMILES IDX 27 36 28 37 29 38 90 39 30 40 89 41 31 42 32 43 33 44 83 45
REMARK SMILES IDX 34 46 88 47 82 48 84 49 35 50 87 51 81 52 80 53 36 55 68 56
REMARK SMILES IDX 48 57 67 58 49 59 52 60 66 61 85 62 50 63 51 64 65 66 86 67
REMARK SMILES IDX 53 68 37 69 38 70 46 71 39 72 45 73 47 74 44 75 40 76 41 77
REMARK SMILES IDX 42 78 43 79 69 80 70 81 78 82 71 83 77 84 79 85 76 86 72 87
REMARK SMILES IDX 73 88 74 89 75 90 54 91 55 92 63 93 56 94 62 95 64 96 61 97
REMARK SMILES IDX 57 98 58 99 59 100 60 101
REMARK H PARENT 20 7 7 26 25 35 84 54 52 65
REMARK Flexibility Score: inf
ROOT
ATOM      1  C   UNL A   1      38.250  21.041  25.113  1.00  0.00     0.023 C 
ENDROOT
BRANCH   1   2
ATOM      2  C   UNL A   1      37.226  22.143  25.391  1.00  0.00     0.023 C 
BRANCH   2   3
ATOM      3  C   UNL A   1      36.067  21.710  26.285  1.00  0.00     0.116 C 
BRANCH   3   4
ATOM      4  N   UNL A   1      35.204  20.749  25.623  1.00  0.00    -0.352 N 
ATOM      5  C   UNL A   1      34.043  20.785  24.929  1.00  0.00     0.251 C 
ATOM      6  O   UNL A   1      33.638  19.695  24.514  1.00  0.00    -0.270 OA
ATOM      7  H   UNL A   1      35.553  19.832  25.701  1.00  0.00     0.163 HD
BRANCH   5   8
ATOM      8  C   UNL A   1      33.247  22.014  24.650  1.00  0.00     0.067 C 
ATOM      9  C   UNL A   1      31.552  26.352  22.684  1.00  0.00     0.029 A 
ATOM     10  C   UNL A   1      30.948  25.231  23.285  1.00  0.00     0.058 A 
ATOM     11  C   UNL A   1      32.957  26.382  22.623  1.00  0.00     0.050 A 
ATOM     12  C   UNL A   1      31.713  24.151  23.713  1.00  0.00     0.128 A 
ATOM     13  C   UNL A   1      33.717  25.266  22.998  1.00  0.00     0.033 A 
ATOM     14  Cl  UNL A   1      33.842  27.793  22.160  1.00  0.00    -0.084 Cl
ATOM     15  C   UNL A   1      33.092  24.137  23.522  1.00  0.00     0.019 A 
ATOM     16  O   UNL A   1      31.050  23.104  24.293  1.00  0.00    -0.475 OA
ATOM     17  C   UNL A   1      33.835  22.926  23.853  1.00  0.00     0.025 C 
ATOM     18  C   UNL A   1      31.873  22.298  25.191  1.00  0.00     0.314 C 
BRANCH   9  19
ATOM     19  C   UNL A   1      30.648  27.433  22.121  1.00  0.00     0.301 C 
BRANCH  19  20
ATOM     20  N   UNL A   1      29.937  28.279  23.096  1.00  0.00    -0.327 N 
ATOM     21  C   UNL A   1      27.722  27.349  23.702  1.00  0.00     0.075 C 
ATOM     22  C   UNL A   1      28.482  28.415  22.924  1.00  0.00     0.181 C 
ATOM     23  C   UNL A   1      28.152  29.821  23.419  1.00  0.00     0.071 C 
ATOM     24  C   UNL A   1      29.400  30.599  23.055  1.00  0.00     0.071 C 
ATOM     25  C   UNL A   1      30.522  29.606  23.324  1.00  0.00     0.181 C 
ATOM     26  H   UNL A   1      30.081  27.715  23.931  1.00  0.00     0.348 HD
ATOM     27  C   UNL A   1      31.019  29.677  24.769  1.00  0.00     0.075 C 
ENDBRANCH  19  20
ENDBRANCH   9  19
BRANCH  18  28
ATOM     28  C   UNL A   1      31.923  22.946  26.593  1.00  0.00     0.429 C 
ATOM     29  F   UNL A   1      32.472  24.185  26.523  1.00  0.00    -0.167 F 
ATOM     30  F   UNL A   1      30.692  23.097  27.137  1.00  0.00    -0.167 F 
ATOM     31  F   UNL A   1      32.654  22.232  27.479  1.00  0.00    -0.167 F 
ENDBRANCH  18  28
ENDBRANCH   5   8
ENDBRANCH   3   4
ENDBRANCH   2   3
ENDBRANCH   1   2
BRANCH   1  32
ATOM     32  C   UNL A   1      39.408  20.963  26.104  1.00  0.00     0.116 C 
BRANCH  32  33
ATOM     33  N   UNL A   1      40.154  19.712  26.055  1.00  0.00    -0.352 N 
ATOM     34  C   UNL A   1      41.521  19.549  26.159  1.00  0.00     0.251 C 
ATOM     35  H   UNL A   1      39.625  18.891  25.936  1.00  0.00     0.163 HD
ATOM     36  O   UNL A   1      42.034  18.446  26.040  1.00  0.00    -0.269 OA
BRANCH  34  37
ATOM     37  C   UNL A   1      42.341  20.760  26.357  1.00  0.00     0.039 A 
ATOM     38  C   UNL A   1      42.581  21.228  27.649  1.00  0.00     0.014 A 
ATOM     39  C   UNL A   1      42.731  21.504  25.241  1.00  0.00     0.014 A 
ATOM     40  C   UNL A   1      43.039  22.526  27.824  1.00  0.00     0.010 A 
ATOM     41  C   UNL A   1      43.270  22.778  25.424  1.00  0.00     0.010 A 
ATOM     42  C   UNL A   1      43.368  23.322  26.714  1.00  0.00    -0.014 A 
BRANCH  42  43
ATOM     43  C   UNL A   1      43.794  24.729  26.932  1.00  0.00     0.031 A 
ATOM     44  C   UNL A   1      42.832  25.752  27.474  1.00  0.00     0.074 A 
ATOM     45  C   UNL A   1      45.076  25.064  26.694  1.00  0.00     0.049 A 
ATOM     46  N   UNL A   1      43.048  27.010  27.760  1.00  0.00    -0.248 NA
ATOM     47  C   UNL A   1      41.451  25.312  27.727  1.00  0.00     0.031 C 
ATOM     48  C   UNL A   1      46.090  24.146  26.176  1.00  0.00     0.029 A 
ATOM     49  N   UNL A   1      45.752  26.243  26.878  1.00  0.00    -0.354 N 
ATOM     50  C   UNL A   1      41.832  27.517  28.202  1.00  0.00     0.074 A 
ATOM     51  C   UNL A   1      40.873  26.438  28.123  1.00  0.00     0.031 C 
ATOM     52  C   UNL A   1      47.271  24.777  26.138  1.00  0.00     0.029 A 
ATOM     53  C   UNL A   1      47.086  26.164  26.557  1.00  0.00     0.049 A 
ATOM     54  H   UNL A   1      45.323  27.065  27.209  1.00  0.00     0.167 HD
ATOM     55  C   UNL A   1      41.547  28.766  28.645  1.00  0.00     0.034 A 
ATOM     56  C   UNL A   1      48.054  27.103  26.583  1.00  0.00     0.034 A 
ATOM     57  C   UNL A   1      42.522  29.823  28.744  1.00  0.00     0.049 A 
ATOM     58  C   UNL A   1      47.711  28.485  27.065  1.00  0.00     0.074 A 
ATOM     59  C   UNL A   1      42.339  31.111  29.215  1.00  0.00     0.029 A 
ATOM     60  N   UNL A   1      43.856  29.718  28.375  1.00  0.00    -0.354 N 
ATOM     61  N   UNL A   1      46.563  28.937  27.516  1.00  0.00    -0.248 NA
ATOM     62  C   UNL A   1      48.783  29.489  27.043  1.00  0.00     0.031 C 
ATOM     63  C   UNL A   1      43.547  31.800  29.082  1.00  0.00     0.029 A 
ATOM     64  C   UNL A   1      44.501  30.926  28.584  1.00  0.00     0.049 A 
ATOM     65  H   UNL A   1      44.281  28.905  28.018  1.00  0.00     0.167 HD
ATOM     66  C   UNL A   1      46.776  30.274  27.836  1.00  0.00     0.074 A 
ATOM     67  C   UNL A   1      48.171  30.549  27.558  1.00  0.00     0.031 C 
ATOM     68  C   UNL A   1      45.892  31.190  28.306  1.00  0.00     0.034 A 
BRANCH  55  69
ATOM     69  C   UNL A   1      40.134  29.079  29.071  1.00  0.00     0.023 A 
ATOM     70  C   UNL A   1      39.780  29.020  30.432  1.00  0.00     0.031 A 
ATOM     71  C   UNL A   1      39.118  29.313  28.127  1.00  0.00     0.131 A 
ATOM     72  C   UNL A   1      38.438  29.168  30.810  1.00  0.00     0.055 A 
ATOM     73  C   UNL A   1      37.787  29.491  28.512  1.00  0.00     0.041 A 
ATOM     74  F   UNL A   1      39.406  29.379  26.818  1.00  0.00    -0.206 F 
ATOM     75  C   UNL A   1      37.442  29.406  29.858  1.00  0.00     0.022 A 
BRANCH  72  76
ATOM     76  S   UNL A   1      37.926  28.998  32.541  1.00  0.00     0.124 S 
ATOM     77  O   UNL A   1      37.991  27.550  32.730  1.00  0.00    -0.237 OA
ATOM     78  O   UNL A   1      38.954  29.764  33.241  1.00  0.00    -0.237 OA
ATOM     79  O   UNL A   1      36.585  29.569  32.569  1.00  0.00    -0.744 OA
ENDBRANCH  72  76
ENDBRANCH  55  69
BRANCH  56  80
ATOM     80  C   UNL A   1      49.436  26.718  26.174  1.00  0.00     0.023 A 
ATOM     81  C   UNL A   1      50.451  26.556  27.136  1.00  0.00     0.031 A 
ATOM     82  C   UNL A   1      49.792  26.655  24.818  1.00  0.00     0.131 A 
ATOM     83  C   UNL A   1      51.785  26.432  26.727  1.00  0.00     0.055 A 
ATOM     84  C   UNL A   1      51.113  26.452  24.415  1.00  0.00     0.041 A 
ATOM     85  F   UNL A   1      48.861  26.815  23.865  1.00  0.00    -0.206 F 
ATOM     86  C   UNL A   1      52.121  26.363  25.373  1.00  0.00     0.022 A 
BRANCH  83  87
ATOM     87  S   UNL A   1      53.136  26.525  27.935  1.00  0.00     0.124 S 
ATOM     88  O   UNL A   1      54.084  25.550  27.406  1.00  0.00    -0.237 OA
ATOM     89  O   UNL A   1      53.539  27.925  27.824  1.00  0.00    -0.237 OA
ATOM     90  O   UNL A   1      52.495  26.165  29.196  1.00  0.00    -0.744 OA
ENDBRANCH  83  87
ENDBRANCH  56  80
BRANCH  68  91
ATOM     91  C   UNL A   1      46.380  32.597  28.546  1.00  0.00     0.023 A 
ATOM     92  C   UNL A   1      46.564  33.476  27.461  1.00  0.00     0.031 A 
ATOM     93  C   UNL A   1      46.801  33.012  29.821  1.00  0.00     0.131 A 
ATOM     94  C   UNL A   1      47.192  34.711  27.666  1.00  0.00     0.055 A 
ATOM     95  C   UNL A   1      47.387  34.262  30.026  1.00  0.00     0.041 A 
ATOM     96  F   UNL A   1      46.654  32.205  30.883  1.00  0.00    -0.206 F 
ATOM     97  C   UNL A   1      47.597  35.111  28.943  1.00  0.00     0.022 A 
BRANCH  94  98
ATOM     98  S   UNL A   1      47.580  35.807  26.273  1.00  0.00     0.124 S 
ATOM     99  O   UNL A   1      48.898  36.314  26.647  1.00  0.00    -0.237 OA
ATOM    100  O   UNL A   1      47.564  34.883  25.142  1.00  0.00    -0.237 OA
ATOM    101  O   UNL A   1      46.506  36.795  26.291  1.00  0.00    -0.744 OA
ENDBRANCH  94  98
ENDBRANCH  68  91
ENDBRANCH  42  43
ENDBRANCH  34  37
ENDBRANCH  32  33
ENDBRANCH   1  32
TORSDOF 17
ENDMDL
