MODEL 1
REMARK VINA RESULT:     -11.6      0.000      0.000
REMARK SMILES O=C(NCCCCNC(=O)C1(Cc2cccc(Cl)c2)CCCC1)c1ccc(-c2c3nc(c(-c4cc(S(=O)(=O)[O-])ccc4F)c4ccc([nH]4)c(-c4cc(S(=O)(=O)[O-])ccc4F)c4nc(c(-c5cc(S(=O)(=O)[O-])ccc5F)c5ccc2[nH]5)C=C4)C=C3)cc1
REMARK SMILES IDX 5 1 4 2 3 3 1 4 2 5 24 7 25 8 86 9 26 10 85 11 27 12 28 13
REMARK SMILES IDX 29 14 79 15 30 16 84 17 78 18 80 19 31 20 83 21 77 22 76 23
REMARK SMILES IDX 32 25 64 26 44 27 63 28 45 29 48 30 62 31 81 32 46 33 47 34
REMARK SMILES IDX 61 36 82 37 49 38 33 39 34 40 42 41 35 42 41 43 43 44 40 45
REMARK SMILES IDX 36 46 37 47 38 48 39 49 65 50 66 51 74 52 67 53 73 54 75 55
REMARK SMILES IDX 72 56 68 57 69 58 70 59 71 60 50 61 51 62 59 63 52 64 58 65
REMARK SMILES IDX 60 66 57 67 53 68 54 69 55 70 56 71 6 72 7 73 8 74 9 75
REMARK SMILES IDX 10 77 11 78 20 79 23 80 21 81 22 82 12 83 13 84 14 85 19 86
REMARK SMILES IDX 15 87 17 88 16 89 18 90
REMARK H PARENT 3 6 80 24 48 35 8 76
REMARK Flexibility Score: inf
ROOT
ATOM      1  C   UNL A   1      35.690  23.067  25.086  1.00  0.00     0.023 C 
ENDROOT
BRANCH   1   2
ATOM      2  C   UNL A   1      36.382  22.552  26.337  1.00  0.00     0.116 C 
BRANCH   2   3
ATOM      3  N   UNL A   1      37.422  21.575  26.040  1.00  0.00    -0.352 N 
ATOM      4  O   UNL A   1      39.519  20.834  25.669  1.00  0.00    -0.269 OA
ATOM      5  C   UNL A   1      38.790  21.722  26.087  1.00  0.00     0.251 C 
ATOM      6  H   UNL A   1      37.102  20.685  25.766  1.00  0.00     0.163 HD
BRANCH   5   7
ATOM      7  C   UNL A   1      39.360  22.974  26.628  1.00  0.00     0.039 A 
ATOM      8  C   UNL A   1      38.951  24.209  26.122  1.00  0.00     0.014 A 
ATOM      9  C   UNL A   1      40.329  22.907  27.632  1.00  0.00     0.014 A 
ATOM     10  C   UNL A   1      39.621  25.361  26.503  1.00  0.00     0.010 A 
ATOM     11  C   UNL A   1      40.932  24.082  28.088  1.00  0.00     0.010 A 
ATOM     12  C   UNL A   1      40.606  25.314  27.502  1.00  0.00    -0.014 A 
BRANCH  12  13
ATOM     13  C   UNL A   1      41.246  26.582  27.935  1.00  0.00     0.031 A 
ATOM     14  C   UNL A   1      42.657  26.913  27.539  1.00  0.00     0.074 A 
ATOM     15  C   UNL A   1      40.510  27.456  28.650  1.00  0.00     0.049 A 
ATOM     16  N   UNL A   1      43.358  27.985  27.805  1.00  0.00    -0.248 NA
ATOM     17  C   UNL A   1      43.381  25.903  26.755  1.00  0.00     0.031 C 
ATOM     18  C   UNL A   1      39.128  27.229  29.085  1.00  0.00     0.029 A 
ATOM     19  N   UNL A   1      40.797  28.714  29.105  1.00  0.00    -0.354 N 
ATOM     20  C   UNL A   1      44.614  27.770  27.249  1.00  0.00     0.074 A 
ATOM     21  C   UNL A   1      44.584  26.449  26.654  1.00  0.00     0.031 C 
ATOM     22  C   UNL A   1      38.667  28.338  29.680  1.00  0.00     0.029 A 
ATOM     23  C   UNL A   1      39.740  29.323  29.740  1.00  0.00     0.049 A 
ATOM     24  H   UNL A   1      41.676  29.144  28.989  1.00  0.00     0.167 HD
ATOM     25  C   UNL A   1      45.688  28.600  27.238  1.00  0.00     0.034 A 
ATOM     26  C   UNL A   1      39.646  30.533  30.319  1.00  0.00     0.034 A 
ATOM     27  C   UNL A   1      45.685  29.919  27.829  1.00  0.00     0.049 A 
ATOM     28  C   UNL A   1      40.853  31.428  30.303  1.00  0.00     0.074 A 
ATOM     29  C   UNL A   1      46.704  30.857  27.859  1.00  0.00     0.029 A 
ATOM     30  N   UNL A   1      44.608  30.487  28.503  1.00  0.00    -0.354 N 
ATOM     31  N   UNL A   1      42.035  31.210  29.774  1.00  0.00    -0.248 NA
ATOM     32  C   UNL A   1      40.713  32.732  30.960  1.00  0.00     0.031 C 
ATOM     33  C   UNL A   1      46.266  31.961  28.600  1.00  0.00     0.029 A 
ATOM     34  C   UNL A   1      44.948  31.749  28.971  1.00  0.00     0.049 A 
ATOM     35  H   UNL A   1      43.732  30.058  28.628  1.00  0.00     0.167 HD
ATOM     36  C   UNL A   1      42.775  32.361  30.017  1.00  0.00     0.074 A 
ATOM     37  C   UNL A   1      41.897  33.276  30.721  1.00  0.00     0.031 C 
ATOM     38  C   UNL A   1      44.063  32.640  29.687  1.00  0.00     0.034 A 
BRANCH  25  39
ATOM     39  C   UNL A   1      46.966  28.076  26.621  1.00  0.00     0.023 A 
ATOM     40  C   UNL A   1      47.224  28.170  25.241  1.00  0.00     0.031 A 
ATOM     41  C   UNL A   1      47.926  27.432  27.423  1.00  0.00     0.131 A 
ATOM     42  C   UNL A   1      48.367  27.562  24.697  1.00  0.00     0.055 A 
ATOM     43  C   UNL A   1      49.101  26.900  26.887  1.00  0.00     0.041 A 
ATOM     44  F   UNL A   1      47.728  27.289  28.743  1.00  0.00    -0.206 F 
ATOM     45  C   UNL A   1      49.319  26.948  25.514  1.00  0.00     0.022 A 
BRANCH  42  46
ATOM     46  S   UNL A   1      48.512  27.446  22.892  1.00  0.00     0.124 S 
ATOM     47  O   UNL A   1      48.442  26.001  22.681  1.00  0.00    -0.237 OA
ATOM     48  O   UNL A   1      47.362  28.215  22.433  1.00  0.00    -0.237 OA
ATOM     49  O   UNL A   1      49.816  28.044  22.613  1.00  0.00    -0.744 OA
ENDBRANCH  42  46
ENDBRANCH  25  39
BRANCH  26  50
ATOM     50  C   UNL A   1      38.375  30.956  30.973  1.00  0.00     0.023 A 
ATOM     51  C   UNL A   1      37.368  31.607  30.245  1.00  0.00     0.031 A 
ATOM     52  C   UNL A   1      38.152  30.715  32.341  1.00  0.00     0.131 A 
ATOM     53  C   UNL A   1      36.197  32.024  30.895  1.00  0.00     0.055 A 
ATOM     54  C   UNL A   1      36.964  31.086  32.971  1.00  0.00     0.041 A 
ATOM     55  F   UNL A   1      39.081  30.088  33.080  1.00  0.00    -0.206 F 
ATOM     56  C   UNL A   1      35.982  31.755  32.249  1.00  0.00     0.022 A 
BRANCH  53  57
ATOM     57  S   UNL A   1      34.978  32.984  29.955  1.00  0.00     0.124 S 
ATOM     58  O   UNL A   1      34.461  31.984  29.029  1.00  0.00    -0.237 OA
ATOM     59  O   UNL A   1      34.064  33.422  31.005  1.00  0.00    -0.237 OA
ATOM     60  O   UNL A   1      35.778  34.045  29.346  1.00  0.00    -0.744 OA
ENDBRANCH  53  57
ENDBRANCH  26  50
BRANCH  38  61
ATOM     61  C   UNL A   1      44.568  34.013  30.055  1.00  0.00     0.023 A 
ATOM     62  C   UNL A   1      44.433  35.108  29.185  1.00  0.00     0.031 A 
ATOM     63  C   UNL A   1      45.234  34.214  31.277  1.00  0.00     0.131 A 
ATOM     64  C   UNL A   1      45.016  36.339  29.518  1.00  0.00     0.055 A 
ATOM     65  C   UNL A   1      45.758  35.457  31.630  1.00  0.00     0.041 A 
ATOM     66  F   UNL A   1      45.394  33.200  32.143  1.00  0.00    -0.206 F 
ATOM     67  C   UNL A   1      45.665  36.525  30.742  1.00  0.00     0.022 A 
BRANCH  64  68
ATOM     68  S   UNL A   1      45.015  37.666  28.280  1.00  0.00     0.124 S 
ATOM     69  O   UNL A   1      44.675  38.834  29.086  1.00  0.00    -0.237 OA
ATOM     70  O   UNL A   1      46.381  37.617  27.771  1.00  0.00    -0.237 OA
ATOM     71  O   UNL A   1      43.985  37.247  27.330  1.00  0.00    -0.744 OA
ENDBRANCH  64  68
ENDBRANCH  38  61
ENDBRANCH  12  13
ENDBRANCH   5   7
ENDBRANCH   2   3
ENDBRANCH   1   2
BRANCH   1  72
ATOM     72  C   UNL A   1      35.172  24.499  25.206  1.00  0.00     0.023 C 
BRANCH  72  73
ATOM     73  C   UNL A   1      33.818  24.769  24.548  1.00  0.00     0.116 C 
BRANCH  73  74
ATOM     74  N   UNL A   1      32.711  24.755  25.484  1.00  0.00    -0.356 N 
ATOM     75  C   UNL A   1      32.027  25.730  26.135  1.00  0.00     0.226 C 
ATOM     76  H   UNL A   1      32.387  23.849  25.691  1.00  0.00     0.163 HD
ATOM     77  O   UNL A   1      31.121  25.336  26.878  1.00  0.00    -0.274 OA
BRANCH  75  78
ATOM     78  C   UNL A   1      32.296  27.237  25.951  1.00  0.00     0.053 C 
ATOM     79  C   UNL A   1      31.406  28.017  26.947  1.00  0.00     0.017 C 
ATOM     80  C   UNL A   1      33.698  27.617  26.496  1.00  0.00     0.017 C 
ATOM     81  C   UNL A   1      32.142  29.322  27.249  1.00  0.00     0.001 C 
ATOM     82  C   UNL A   1      33.602  29.090  26.882  1.00  0.00     0.001 C 
BRANCH  78  83
ATOM     83  C   UNL A   1      32.129  27.791  24.514  1.00  0.00     0.052 C 
BRANCH  83  84
ATOM     84  C   UNL A   1      30.758  28.048  23.916  1.00  0.00    -0.045 A 
ATOM     85  C   UNL A   1      29.744  27.089  23.796  1.00  0.00     0.004 A 
ATOM     86  C   UNL A   1      30.449  29.380  23.577  1.00  0.00     0.024 A 
ATOM     87  C   UNL A   1      28.450  27.458  23.409  1.00  0.00     0.002 A 
ATOM     88  C   UNL A   1      29.161  29.740  23.178  1.00  0.00     0.041 A 
ATOM     89  C   UNL A   1      28.155  28.784  23.107  1.00  0.00     0.020 A 
ATOM     90  Cl  UNL A   1      28.815  31.384  22.806  1.00  0.00    -0.084 Cl
ENDBRANCH  83  84
ENDBRANCH  78  83
ENDBRANCH  75  78
ENDBRANCH  73  74
ENDBRANCH  72  73
ENDBRANCH   1  72
TORSDOF 16
ENDMDL
MODEL 2
REMARK VINA RESULT:     -11.5      5.325     10.190
REMARK SMILES O=C(NCCCCNC(=O)C1(Cc2cccc(Cl)c2)CCCC1)c1ccc(-c2c3nc(c(-c4cc(S(=O)(=O)[O-])ccc4F)c4ccc([nH]4)c(-c4cc(S(=O)(=O)[O-])ccc4F)c4nc(c(-c5cc(S(=O)(=O)[O-])ccc5F)c5ccc2[nH]5)C=C4)C=C3)cc1
REMARK SMILES IDX 5 1 4 2 3 3 1 4 2 5 24 7 25 8 86 9 26 10 85 11 27 12 28 13
REMARK SMILES IDX 29 14 79 15 30 16 84 17 78 18 80 19 31 20 83 21 77 22 76 23
REMARK SMILES IDX 32 25 64 26 44 27 63 28 45 29 48 30 62 31 81 32 46 33 47 34
REMARK SMILES IDX 61 36 82 37 49 38 33 39 34 40 42 41 35 42 41 43 43 44 40 45
REMARK SMILES IDX 36 46 37 47 38 48 39 49 65 50 66 51 74 52 67 53 73 54 75 55
REMARK SMILES IDX 72 56 68 57 69 58 70 59 71 60 50 61 51 62 59 63 52 64 58 65
REMARK SMILES IDX 60 66 57 67 53 68 54 69 55 70 56 71 6 72 7 73 8 74 9 75
REMARK SMILES IDX 10 77 11 78 20 79 23 80 21 81 22 82 12 83 13 84 14 85 19 86
REMARK SMILES IDX 15 87 17 88 16 89 18 90
REMARK H PARENT 3 6 80 24 48 35 8 76
REMARK Flexibility Score: inf
ROOT
ATOM      1  C   UNL A   1      32.182  28.303  24.896  1.00  0.00     0.023 C 
ENDROOT
BRANCH   1   2
ATOM      2  C   UNL A   1      33.261  29.230  25.429  1.00  0.00     0.116 C 
BRANCH   2   3
ATOM      3  N   UNL A   1      32.723  30.495  25.914  1.00  0.00    -0.352 N 
ATOM      4  O   UNL A   1      32.520  32.260  27.301  1.00  0.00    -0.269 OA
ATOM      5  C   UNL A   1      33.178  31.296  26.937  1.00  0.00     0.251 C 
ATOM      6  H   UNL A   1      31.922  30.822  25.444  1.00  0.00     0.163 HD
BRANCH   5   7
ATOM      7  C   UNL A   1      34.456  30.960  27.599  1.00  0.00     0.039 A 
ATOM      8  C   UNL A   1      34.711  29.652  28.012  1.00  0.00     0.014 A 
ATOM      9  C   UNL A   1      35.393  31.971  27.828  1.00  0.00     0.014 A 
ATOM     10  C   UNL A   1      35.825  29.386  28.792  1.00  0.00     0.010 A 
ATOM     11  C   UNL A   1      36.566  31.676  28.528  1.00  0.00     0.010 A 
ATOM     12  C   UNL A   1      36.774  30.389  29.045  1.00  0.00    -0.014 A 
BRANCH  12  13
ATOM     13  C   UNL A   1      37.991  30.042  29.821  1.00  0.00     0.031 A 
ATOM     14  C   UNL A   1      38.191  30.554  31.220  1.00  0.00     0.074 A 
ATOM     15  C   UNL A   1      38.892  29.213  29.259  1.00  0.00     0.049 A 
ATOM     16  N   UNL A   1      39.178  30.326  32.048  1.00  0.00    -0.248 NA
ATOM     17  C   UNL A   1      37.154  31.448  31.754  1.00  0.00     0.031 C 
ATOM     18  C   UNL A   1      38.791  28.660  27.904  1.00  0.00     0.029 A 
ATOM     19  N   UNL A   1      40.042  28.661  29.755  1.00  0.00    -0.354 N 
ATOM     20  C   UNL A   1      38.900  31.071  33.189  1.00  0.00     0.074 A 
ATOM     21  C   UNL A   1      37.663  31.779  32.932  1.00  0.00     0.031 C 
ATOM     22  C   UNL A   1      39.795  27.795  27.706  1.00  0.00     0.029 A 
ATOM     23  C   UNL A   1      40.654  27.791  28.884  1.00  0.00     0.049 A 
ATOM     24  H   UNL A   1      40.397  28.867  30.650  1.00  0.00     0.167 HD
ATOM     25  C   UNL A   1      39.614  31.153  34.341  1.00  0.00     0.034 A 
ATOM     26  C   UNL A   1      41.787  27.078  29.011  1.00  0.00     0.034 A 
ATOM     27  C   UNL A   1      40.840  30.424  34.574  1.00  0.00     0.049 A 
ATOM     28  C   UNL A   1      42.564  27.194  30.292  1.00  0.00     0.074 A 
ATOM     29  C   UNL A   1      41.635  30.408  35.708  1.00  0.00     0.029 A 
ATOM     30  N   UNL A   1      41.454  29.582  33.652  1.00  0.00    -0.354 N 
ATOM     31  N   UNL A   1      42.290  27.904  31.362  1.00  0.00    -0.248 NA
ATOM     32  C   UNL A   1      43.802  26.413  30.382  1.00  0.00     0.031 C 
ATOM     33  C   UNL A   1      42.757  29.610  35.450  1.00  0.00     0.029 A 
ATOM     34  C   UNL A   1      42.628  29.066  34.182  1.00  0.00     0.049 A 
ATOM     35  H   UNL A   1      41.107  29.382  32.754  1.00  0.00     0.167 HD
ATOM     36  C   UNL A   1      43.313  27.637  32.264  1.00  0.00     0.074 A 
ATOM     37  C   UNL A   1      44.196  26.687  31.617  1.00  0.00     0.031 C 
ATOM     38  C   UNL A   1      43.506  28.131  33.514  1.00  0.00     0.034 A 
BRANCH  25  39
ATOM     39  C   UNL A   1      39.115  32.107  35.403  1.00  0.00     0.023 A 
ATOM     40  C   UNL A   1      39.549  33.443  35.472  1.00  0.00     0.031 A 
ATOM     41  C   UNL A   1      38.221  31.657  36.393  1.00  0.00     0.131 A 
ATOM     42  C   UNL A   1      39.153  34.255  36.547  1.00  0.00     0.055 A 
ATOM     43  C   UNL A   1      37.766  32.495  37.414  1.00  0.00     0.041 A 
ATOM     44  F   UNL A   1      37.787  30.387  36.396  1.00  0.00    -0.206 F 
ATOM     45  C   UNL A   1      38.246  33.798  37.505  1.00  0.00     0.022 A 
BRANCH  42  46
ATOM     46  S   UNL A   1      39.963  35.865  36.763  1.00  0.00     0.124 S 
ATOM     47  O   UNL A   1      41.357  35.471  36.959  1.00  0.00    -0.237 OA
ATOM     48  O   UNL A   1      39.660  36.541  35.508  1.00  0.00    -0.237 OA
ATOM     49  O   UNL A   1      39.311  36.422  37.947  1.00  0.00    -0.744 OA
ENDBRANCH  42  46
ENDBRANCH  25  39
BRANCH  26  50
ATOM     50  C   UNL A   1      42.258  26.211  27.893  1.00  0.00     0.023 A 
ATOM     51  C   UNL A   1      41.829  24.880  27.779  1.00  0.00     0.031 A 
ATOM     52  C   UNL A   1      43.148  26.705  26.923  1.00  0.00     0.131 A 
ATOM     53  C   UNL A   1      42.316  24.078  26.736  1.00  0.00     0.055 A 
ATOM     54  C   UNL A   1      43.590  25.919  25.859  1.00  0.00     0.041 A 
ATOM     55  F   UNL A   1      43.582  27.974  26.983  1.00  0.00    -0.206 F 
ATOM     56  C   UNL A   1      43.182  24.593  25.767  1.00  0.00     0.022 A 
BRANCH  53  57
ATOM     57  S   UNL A   1      41.849  22.326  26.698  1.00  0.00     0.124 S 
ATOM     58  O   UNL A   1      42.284  21.931  25.363  1.00  0.00    -0.237 OA
ATOM     59  O   UNL A   1      42.620  21.783  27.812  1.00  0.00    -0.237 OA
ATOM     60  O   UNL A   1      40.402  22.355  26.901  1.00  0.00    -0.744 OA
ENDBRANCH  53  57
ENDBRANCH  26  50
BRANCH  38  61
ATOM     61  C   UNL A   1      44.703  27.605  34.267  1.00  0.00     0.023 A 
ATOM     62  C   UNL A   1      44.616  26.472  35.095  1.00  0.00     0.031 A 
ATOM     63  C   UNL A   1      45.935  28.276  34.186  1.00  0.00     0.131 A 
ATOM     64  C   UNL A   1      45.723  26.084  35.863  1.00  0.00     0.055 A 
ATOM     65  C   UNL A   1      47.051  27.847  34.905  1.00  0.00     0.041 A 
ATOM     66  F   UNL A   1      46.071  29.365  33.413  1.00  0.00    -0.206 F 
ATOM     67  C   UNL A   1      46.945  26.756  35.762  1.00  0.00     0.022 A 
BRANCH  64  68
ATOM     68  S   UNL A   1      45.514  24.758  37.083  1.00  0.00     0.124 S 
ATOM     69  O   UNL A   1      45.938  23.582  36.330  1.00  0.00    -0.237 OA
ATOM     70  O   UNL A   1      46.403  25.182  38.159  1.00  0.00    -0.237 OA
ATOM     71  O   UNL A   1      44.088  24.808  37.403  1.00  0.00    -0.744 OA
ENDBRANCH  64  68
ENDBRANCH  38  61
ENDBRANCH  12  13
ENDBRANCH   5   7
ENDBRANCH   2   3
ENDBRANCH   1   2
BRANCH   1  72
ATOM     72  C   UNL A   1      31.938  27.067  25.760  1.00  0.00     0.023 C 
BRANCH  72  73
ATOM     73  C   UNL A   1      32.973  25.949  25.620  1.00  0.00     0.116 C 
BRANCH  73  74
ATOM     74  N   UNL A   1      33.339  25.672  24.245  1.00  0.00    -0.356 N 
ATOM     75  C   UNL A   1      34.100  24.714  23.657  1.00  0.00     0.226 C 
ATOM     76  H   UNL A   1      32.955  26.312  23.604  1.00  0.00     0.163 HD
ATOM     77  O   UNL A   1      34.194  24.794  22.427  1.00  0.00    -0.274 OA
BRANCH  75  78
ATOM     78  C   UNL A   1      34.773  23.559  24.426  1.00  0.00     0.053 C 
ATOM     79  C   UNL A   1      35.699  22.798  23.449  1.00  0.00     0.017 C 
ATOM     80  C   UNL A   1      35.830  24.104  25.421  1.00  0.00     0.017 C 
ATOM     81  C   UNL A   1      36.812  22.187  24.299  1.00  0.00     0.001 C 
ATOM     82  C   UNL A   1      36.842  22.976  25.602  1.00  0.00     0.001 C 
BRANCH  78  83
ATOM     83  C   UNL A   1      33.823  22.580  25.160  1.00  0.00     0.052 C 
BRANCH  83  84
ATOM     84  C   UNL A   1      33.258  21.354  24.468  1.00  0.00    -0.045 A 
ATOM     85  C   UNL A   1      32.459  21.379  23.318  1.00  0.00     0.004 A 
ATOM     86  C   UNL A   1      33.676  20.098  24.952  1.00  0.00     0.024 A 
ATOM     87  C   UNL A   1      32.139  20.197  22.640  1.00  0.00     0.002 A 
ATOM     88  C   UNL A   1      33.343  18.921  24.280  1.00  0.00     0.041 A 
ATOM     89  C   UNL A   1      32.588  18.968  23.115  1.00  0.00     0.020 A 
ATOM     90  Cl  UNL A   1      33.905  17.410  24.883  1.00  0.00    -0.084 Cl
ENDBRANCH  83  84
ENDBRANCH  78  83
ENDBRANCH  75  78
ENDBRANCH  73  74
ENDBRANCH  72  73
ENDBRANCH   1  72
TORSDOF 16
ENDMDL
MODEL 3
REMARK VINA RESULT:     -11.4      1.765      2.233
REMARK SMILES O=C(NCCCCNC(=O)C1(Cc2cccc(Cl)c2)CCCC1)c1ccc(-c2c3nc(c(-c4cc(S(=O)(=O)[O-])ccc4F)c4ccc([nH]4)c(-c4cc(S(=O)(=O)[O-])ccc4F)c4nc(c(-c5cc(S(=O)(=O)[O-])ccc5F)c5ccc2[nH]5)C=C4)C=C3)cc1
REMARK SMILES IDX 5 1 4 2 3 3 1 4 2 5 24 7 25 8 86 9 26 10 85 11 27 12 28 13
REMARK SMILES IDX 29 14 79 15 30 16 84 17 78 18 80 19 31 20 83 21 77 22 76 23
REMARK SMILES IDX 32 25 64 26 44 27 63 28 45 29 48 30 62 31 81 32 46 33 47 34
REMARK SMILES IDX 61 36 82 37 49 38 33 39 34 40 42 41 35 42 41 43 43 44 40 45
REMARK SMILES IDX 36 46 37 47 38 48 39 49 65 50 66 51 74 52 67 53 73 54 75 55
REMARK SMILES IDX 72 56 68 57 69 58 70 59 71 60 50 61 51 62 59 63 52 64 58 65
REMARK SMILES IDX 60 66 57 67 53 68 54 69 55 70 56 71 6 72 7 73 8 74 9 75
REMARK SMILES IDX 10 77 11 78 20 79 23 80 21 81 22 82 12 83 13 84 14 85 19 86
REMARK SMILES IDX 15 87 17 88 16 89 18 90
REMARK H PARENT 3 6 80 24 48 35 8 76
REMARK Flexibility Score: inf
ROOT
ATOM      1  C   UNL A   1      35.177  21.521  24.936  1.00  0.00     0.023 C 
ENDROOT
BRANCH   1   2
ATOM      2  C   UNL A   1      36.461  21.910  25.648  1.00  0.00     0.116 C 
BRANCH   2   3
ATOM      3  N   UNL A   1      37.449  20.838  25.647  1.00  0.00    -0.352 N 
ATOM      4  O   UNL A   1      39.508  19.923  25.722  1.00  0.00    -0.269 OA
ATOM      5  C   UNL A   1      38.800  20.903  25.904  1.00  0.00     0.251 C 
ATOM      6  H   UNL A   1      37.102  19.943  25.432  1.00  0.00     0.163 HD
BRANCH   5   7
ATOM      7  C   UNL A   1      39.380  22.176  26.379  1.00  0.00     0.039 A 
ATOM      8  C   UNL A   1      38.914  23.392  25.878  1.00  0.00     0.014 A 
ATOM      9  C   UNL A   1      40.418  22.147  27.316  1.00  0.00     0.014 A 
ATOM     10  C   UNL A   1      39.586  24.564  26.190  1.00  0.00     0.010 A 
ATOM     11  C   UNL A   1      41.027  23.342  27.706  1.00  0.00     0.010 A 
ATOM     12  C   UNL A   1      40.638  24.556  27.119  1.00  0.00    -0.014 A 
BRANCH  12  13
ATOM     13  C   UNL A   1      41.281  25.844  27.482  1.00  0.00     0.031 A 
ATOM     14  C   UNL A   1      42.627  26.221  26.930  1.00  0.00     0.074 A 
ATOM     15  C   UNL A   1      40.603  26.694  28.279  1.00  0.00     0.049 A 
ATOM     16  N   UNL A   1      43.318  27.316  27.119  1.00  0.00    -0.248 NA
ATOM     17  C   UNL A   1      43.290  25.236  26.065  1.00  0.00     0.031 C 
ATOM     18  C   UNL A   1      39.287  26.422  28.867  1.00  0.00     0.029 A 
ATOM     19  N   UNL A   1      40.899  27.961  28.704  1.00  0.00    -0.354 N 
ATOM     20  C   UNL A   1      44.510  27.142  26.424  1.00  0.00     0.074 A 
ATOM     21  C   UNL A   1      44.455  25.821  25.831  1.00  0.00     0.031 C 
ATOM     22  C   UNL A   1      38.861  27.515  29.514  1.00  0.00     0.029 A 
ATOM     23  C   UNL A   1      39.901  28.534  29.457  1.00  0.00     0.049 A 
ATOM     24  H   UNL A   1      41.744  28.418  28.491  1.00  0.00     0.167 HD
ATOM     25  C   UNL A   1      45.548  28.007  26.295  1.00  0.00     0.034 A 
ATOM     26  C   UNL A   1      39.834  29.740  30.048  1.00  0.00     0.034 A 
ATOM     27  C   UNL A   1      45.569  29.325  26.888  1.00  0.00     0.049 A 
ATOM     28  C   UNL A   1      41.002  30.675  29.898  1.00  0.00     0.074 A 
ATOM     29  C   UNL A   1      46.553  30.296  26.805  1.00  0.00     0.029 A 
ATOM     30  N   UNL A   1      44.558  29.858  27.681  1.00  0.00    -0.354 N 
ATOM     31  N   UNL A   1      42.123  30.496  29.238  1.00  0.00    -0.248 NA
ATOM     32  C   UNL A   1      40.894  31.973  30.572  1.00  0.00     0.031 C 
ATOM     33  C   UNL A   1      46.166  31.385  27.595  1.00  0.00     0.029 A 
ATOM     34  C   UNL A   1      44.907  31.129  28.113  1.00  0.00     0.049 A 
ATOM     35  H   UNL A   1      43.716  29.399  27.903  1.00  0.00     0.167 HD
ATOM     36  C   UNL A   1      42.848  31.670  29.400  1.00  0.00     0.074 A 
ATOM     37  C   UNL A   1      42.026  32.555  30.203  1.00  0.00     0.031 C 
ATOM     38  C   UNL A   1      44.080  31.990  28.928  1.00  0.00     0.034 A 
BRANCH  25  39
ATOM     39  C   UNL A   1      46.764  27.526  25.535  1.00  0.00     0.023 A 
ATOM     40  C   UNL A   1      47.043  27.951  24.224  1.00  0.00     0.031 A 
ATOM     41  C   UNL A   1      47.637  26.589  26.119  1.00  0.00     0.131 A 
ATOM     42  C   UNL A   1      48.115  27.384  23.515  1.00  0.00     0.055 A 
ATOM     43  C   UNL A   1      48.750  26.090  25.437  1.00  0.00     0.041 A 
ATOM     44  F   UNL A   1      47.413  26.127  27.359  1.00  0.00    -0.206 F 
ATOM     45  C   UNL A   1      48.984  26.474  24.120  1.00  0.00     0.022 A 
BRANCH  42  46
ATOM     46  S   UNL A   1      48.263  27.732  21.740  1.00  0.00     0.124 S 
ATOM     47  O   UNL A   1      48.549  26.404  21.199  1.00  0.00    -0.237 OA
ATOM     48  O   UNL A   1      46.953  28.285  21.417  1.00  0.00    -0.237 OA
ATOM     49  O   UNL A   1      49.376  28.677  21.666  1.00  0.00    -0.744 OA
ENDBRANCH  42  46
ENDBRANCH  25  39
BRANCH  26  50
ATOM     50  C   UNL A   1      38.633  30.121  30.842  1.00  0.00     0.023 A 
ATOM     51  C   UNL A   1      37.615  30.909  30.284  1.00  0.00     0.031 A 
ATOM     52  C   UNL A   1      38.487  29.701  32.177  1.00  0.00     0.131 A 
ATOM     53  C   UNL A   1      36.512  31.281  31.068  1.00  0.00     0.055 A 
ATOM     54  C   UNL A   1      37.364  30.030  32.936  1.00  0.00     0.041 A 
ATOM     55  F   UNL A   1      39.429  28.938  32.755  1.00  0.00    -0.206 F 
ATOM     56  C   UNL A   1      36.373  30.835  32.385  1.00  0.00     0.022 A 
BRANCH  53  57
ATOM     57  S   UNL A   1      35.285  32.413  30.358  1.00  0.00     0.124 S 
ATOM     58  O   UNL A   1      34.346  32.565  31.464  1.00  0.00    -0.237 OA
ATOM     59  O   UNL A   1      36.100  33.581  30.040  1.00  0.00    -0.237 OA
ATOM     60  O   UNL A   1      34.774  31.679  29.202  1.00  0.00    -0.744 OA
ENDBRANCH  53  57
ENDBRANCH  26  50
BRANCH  38  61
ATOM     61  C   UNL A   1      44.579  33.379  29.242  1.00  0.00     0.023 A 
ATOM     62  C   UNL A   1      45.347  33.648  30.388  1.00  0.00     0.031 A 
ATOM     63  C   UNL A   1      44.241  34.455  28.402  1.00  0.00     0.131 A 
ATOM     64  C   UNL A   1      45.695  34.970  30.700  1.00  0.00     0.055 A 
ATOM     65  C   UNL A   1      44.642  35.760  28.686  1.00  0.00     0.041 A 
ATOM     66  F   UNL A   1      43.505  34.254  27.297  1.00  0.00    -0.206 F 
ATOM     67  C   UNL A   1      45.360  36.026  29.849  1.00  0.00     0.022 A 
BRANCH  64  68
ATOM     68  S   UNL A   1      46.493  35.306  32.294  1.00  0.00     0.124 S 
ATOM     69  O   UNL A   1      46.100  34.142  33.082  1.00  0.00    -0.237 OA
ATOM     70  O   UNL A   1      47.903  35.381  31.927  1.00  0.00    -0.237 OA
ATOM     71  O   UNL A   1      45.895  36.571  32.717  1.00  0.00    -0.744 OA
ENDBRANCH  64  68
ENDBRANCH  38  61
ENDBRANCH  12  13
ENDBRANCH   5   7
ENDBRANCH   2   3
ENDBRANCH   1   2
BRANCH   1  72
ATOM     72  C   UNL A   1      34.025  21.170  25.876  1.00  0.00     0.023 C 
BRANCH  72  73
ATOM     73  C   UNL A   1      32.620  21.368  25.303  1.00  0.00     0.116 C 
BRANCH  73  74
ATOM     74  N   UNL A   1      31.720  22.054  26.209  1.00  0.00    -0.356 N 
ATOM     75  C   UNL A   1      31.503  23.362  26.496  1.00  0.00     0.226 C 
ATOM     76  H   UNL A   1      31.147  21.442  26.725  1.00  0.00     0.163 HD
ATOM     77  O   UNL A   1      30.635  23.580  27.349  1.00  0.00    -0.274 OA
BRANCH  75  78
ATOM     78  C   UNL A   1      32.229  24.528  25.795  1.00  0.00     0.053 C 
ATOM     79  C   UNL A   1      33.694  24.556  26.288  1.00  0.00     0.017 C 
ATOM     80  C   UNL A   1      32.460  24.209  24.295  1.00  0.00     0.017 C 
ATOM     81  C   UNL A   1      34.516  25.173  25.157  1.00  0.00     0.001 C 
ATOM     82  C   UNL A   1      33.686  25.022  23.888  1.00  0.00     0.001 C 
BRANCH  78  83
ATOM     83  C   UNL A   1      31.574  25.925  25.935  1.00  0.00     0.052 C 
BRANCH  83  84
ATOM     84  C   UNL A   1      30.596  26.450  24.900  1.00  0.00    -0.045 A 
ATOM     85  C   UNL A   1      29.259  26.049  24.784  1.00  0.00     0.004 A 
ATOM     86  C   UNL A   1      31.040  27.509  24.082  1.00  0.00     0.024 A 
ATOM     87  C   UNL A   1      28.380  26.721  23.927  1.00  0.00     0.002 A 
ATOM     88  C   UNL A   1      30.163  28.166  23.218  1.00  0.00     0.041 A 
ATOM     89  C   UNL A   1      28.829  27.785  23.149  1.00  0.00     0.020 A 
ATOM     90  Cl  UNL A   1      30.735  29.478  22.263  1.00  0.00    -0.084 Cl
ENDBRANCH  83  84
ENDBRANCH  78  83
ENDBRANCH  75  78
ENDBRANCH  73  74
ENDBRANCH  72  73
ENDBRANCH   1  72
TORSDOF 16
ENDMDL
