MODEL 1
REMARK VINA RESULT:     -10.5      0.000      0.000
REMARK SMILES CCCN(CCC)c1cc(C(=O)NCCCCNC(=O)c2ccc(-c3c4nc(c(-c5cc(S(=O)(=O)[O-])ccc5F)c5ccc([nH]5)c(-c5cc(S(=O)(=O)[O-])ccc5F)c5nc(c(-c6cc(S(=O)(=O)[O-])ccc6F)c6ccc3[nH]6)C=C5)C=C4)cc2)cc(C(F)(F)F)c1
REMARK SMILES IDX 15 1 14 2 13 3 11 4 12 5 10 7 8 8 9 9 90 10 85 11 84 12 4 13
REMARK SMILES IDX 3 14 2 15 1 16 5 17 6 18 7 19 86 20 87 21 88 22 89 23 16 24
REMARK SMILES IDX 17 25 18 26 19 27 20 29 21 30 22 31 83 32 23 33 82 34 24 35
REMARK SMILES IDX 25 36 26 37 76 38 27 39 81 40 75 41 77 42 28 43 80 44 74 45
REMARK SMILES IDX 73 46 29 48 61 49 41 50 60 51 42 52 45 53 59 54 78 55 43 56
REMARK SMILES IDX 44 57 58 59 79 60 46 61 30 62 31 63 39 64 32 65 38 66 40 67
REMARK SMILES IDX 37 68 33 69 34 70 35 71 36 72 62 73 63 74 71 75 64 76 70 77
REMARK SMILES IDX 72 78 69 79 65 80 66 81 67 82 68 83 47 84 48 85 56 86 49 87
REMARK SMILES IDX 55 88 57 89 54 90 50 91 51 92 52 93 53 94
REMARK H PARENT 13 6 18 28 77 47 45 58
REMARK Flexibility Score: inf
ROOT
ATOM      1  C   UNL A   1      34.193  31.375  27.696  1.00  0.00     0.023 C 
ENDROOT
BRANCH   1   2
ATOM      2  C   UNL A   1      34.071  29.940  27.211  1.00  0.00     0.116 C 
BRANCH   2   3
ATOM      3  N   UNL A   1      32.875  29.217  27.619  1.00  0.00    -0.352 N 
ATOM      4  C   UNL A   1      32.398  27.984  27.215  1.00  0.00     0.251 C 
ATOM      5  O   UNL A   1      31.397  27.515  27.748  1.00  0.00    -0.269 OA
ATOM      6  H   UNL A   1      32.318  29.679  28.286  1.00  0.00     0.163 HD
BRANCH   4   7
ATOM      7  C   UNL A   1      33.017  27.274  26.064  1.00  0.00     0.042 A 
ATOM      8  C   UNL A   1      33.349  25.130  24.963  1.00  0.00     0.038 A 
ATOM      9  C   UNL A   1      33.101  25.877  26.115  1.00  0.00     0.039 A 
ATOM     10  C   UNL A   1      33.439  25.831  23.754  1.00  0.00     0.039 A 
ATOM     11  C   UNL A   1      33.524  27.227  23.712  1.00  0.00     0.058 A 
ATOM     12  C   UNL A   1      33.404  27.937  24.905  1.00  0.00     0.027 A 
BRANCH   8  13
ATOM     13  N   UNL A   1      33.517  23.757  24.979  1.00  0.00    -0.372 N 
BRANCH  13  14
ATOM     14  C   UNL A   1      34.711  23.201  25.639  1.00  0.00     0.116 C 
BRANCH  14  15
ATOM     15  C   UNL A   1      36.025  23.730  25.043  1.00  0.00     0.018 C 
ATOM     16  C   UNL A   1      37.134  23.917  26.079  1.00  0.00     0.006 C 
ENDBRANCH  14  15
ENDBRANCH  13  14
BRANCH  13  17
ATOM     17  C   UNL A   1      32.467  22.850  24.501  1.00  0.00     0.116 C 
BRANCH  17  18
ATOM     18  C   UNL A   1      31.064  23.216  24.995  1.00  0.00     0.018 C 
ATOM     19  C   UNL A   1      30.878  22.925  26.481  1.00  0.00     0.006 C 
ENDBRANCH  17  18
ENDBRANCH  13  17
ENDBRANCH   8  13
BRANCH  11  20
ATOM     20  C   UNL A   1      33.633  27.962  22.407  1.00  0.00     0.416 C 
ATOM     21  F   UNL A   1      33.442  27.134  21.342  1.00  0.00    -0.166 F 
ATOM     22  F   UNL A   1      32.705  28.950  22.279  1.00  0.00    -0.166 F 
ATOM     23  F   UNL A   1      34.842  28.554  22.209  1.00  0.00    -0.166 F 
ENDBRANCH  11  20
ENDBRANCH   4   7
ENDBRANCH   2   3
ENDBRANCH   1   2
BRANCH   1  24
ATOM     24  C   UNL A   1      32.932  32.221  27.661  1.00  0.00     0.023 C 
BRANCH  24  25
ATOM     25  C   UNL A   1      33.097  33.651  27.172  1.00  0.00     0.116 C 
BRANCH  25  26
ATOM     26  N   UNL A   1      32.764  34.666  28.161  1.00  0.00    -0.352 N 
ATOM     27  C   UNL A   1      33.377  34.947  29.366  1.00  0.00     0.251 C 
ATOM     28  H   UNL A   1      31.991  35.233  27.941  1.00  0.00     0.163 HD
ATOM     29  O   UNL A   1      32.927  35.815  30.098  1.00  0.00    -0.269 OA
BRANCH  27  30
ATOM     30  C   UNL A   1      34.548  34.141  29.782  1.00  0.00     0.039 A 
ATOM     31  C   UNL A   1      35.807  34.472  29.275  1.00  0.00     0.014 A 
ATOM     32  C   UNL A   1      34.412  33.129  30.733  1.00  0.00     0.014 A 
ATOM     33  C   UNL A   1      36.945  33.864  29.809  1.00  0.00     0.010 A 
ATOM     34  C   UNL A   1      35.550  32.591  31.324  1.00  0.00     0.010 A 
ATOM     35  C   UNL A   1      36.830  32.965  30.881  1.00  0.00    -0.014 A 
BRANCH  35  36
ATOM     36  C   UNL A   1      38.021  32.406  31.573  1.00  0.00     0.031 A 
ATOM     37  C   UNL A   1      38.803  31.297  30.925  1.00  0.00     0.074 A 
ATOM     38  C   UNL A   1      38.331  32.813  32.821  1.00  0.00     0.049 A 
ATOM     39  N   UNL A   1      39.750  30.547  31.424  1.00  0.00    -0.248 NA
ATOM     40  C   UNL A   1      38.436  30.964  29.540  1.00  0.00     0.031 C 
ATOM     41  C   UNL A   1      37.628  33.857  33.572  1.00  0.00     0.029 A 
ATOM     42  N   UNL A   1      39.303  32.382  33.690  1.00  0.00    -0.354 N 
ATOM     43  C   UNL A   1      40.072  29.633  30.426  1.00  0.00     0.074 A 
ATOM     44  C   UNL A   1      39.179  29.892  29.317  1.00  0.00     0.031 C 
ATOM     45  C   UNL A   1      38.200  33.993  34.780  1.00  0.00     0.029 A 
ATOM     46  C   UNL A   1      39.273  33.012  34.914  1.00  0.00     0.049 A 
ATOM     47  H   UNL A   1      39.961  31.687  33.459  1.00  0.00     0.167 HD
ATOM     48  C   UNL A   1      41.037  28.679  30.430  1.00  0.00     0.034 A 
ATOM     49  C   UNL A   1      40.007  32.807  36.026  1.00  0.00     0.034 A 
ATOM     50  C   UNL A   1      41.933  28.452  31.535  1.00  0.00     0.049 A 
ATOM     51  C   UNL A   1      41.067  31.733  36.012  1.00  0.00     0.074 A 
ATOM     52  C   UNL A   1      42.979  27.550  31.626  1.00  0.00     0.029 A 
ATOM     53  N   UNL A   1      41.891  29.132  32.745  1.00  0.00    -0.354 N 
ATOM     54  N   UNL A   1      41.380  30.895  35.050  1.00  0.00    -0.248 NA
ATOM     55  C   UNL A   1      41.876  31.581  37.229  1.00  0.00     0.031 C 
ATOM     56  C   UNL A   1      43.532  27.646  32.908  1.00  0.00     0.029 A 
ATOM     57  C   UNL A   1      42.878  28.657  33.594  1.00  0.00     0.049 A 
ATOM     58  H   UNL A   1      41.253  29.849  32.968  1.00  0.00     0.167 HD
ATOM     59  C   UNL A   1      42.448  30.146  35.533  1.00  0.00     0.074 A 
ATOM     60  C   UNL A   1      42.725  30.629  36.871  1.00  0.00     0.031 C 
ATOM     61  C   UNL A   1      43.145  29.155  34.923  1.00  0.00     0.034 A 
BRANCH  48  62
ATOM     62  C   UNL A   1      41.144  27.799  29.208  1.00  0.00     0.023 A 
ATOM     63  C   UNL A   1      42.127  28.017  28.226  1.00  0.00     0.031 A 
ATOM     64  C   UNL A   1      40.230  26.752  29.001  1.00  0.00     0.131 A 
ATOM     65  C   UNL A   1      42.119  27.259  27.046  1.00  0.00     0.055 A 
ATOM     66  C   UNL A   1      40.281  25.943  27.864  1.00  0.00     0.041 A 
ATOM     67  F   UNL A   1      39.257  26.507  29.893  1.00  0.00    -0.206 F 
ATOM     68  C   UNL A   1      41.220  26.206  26.869  1.00  0.00     0.022 A 
BRANCH  65  69
ATOM     69  S   UNL A   1      43.202  27.770  25.685  1.00  0.00     0.124 S 
ATOM     70  O   UNL A   1      43.929  28.884  26.290  1.00  0.00    -0.237 OA
ATOM     71  O   UNL A   1      43.980  26.563  25.430  1.00  0.00    -0.237 OA
ATOM     72  O   UNL A   1      42.268  28.147  24.626  1.00  0.00    -0.744 OA
ENDBRANCH  65  69
ENDBRANCH  48  62
BRANCH  49  73
ATOM     73  C   UNL A   1      39.765  33.618  37.253  1.00  0.00     0.023 A 
ATOM     74  C   UNL A   1      39.022  33.100  38.325  1.00  0.00     0.031 A 
ATOM     75  C   UNL A   1      40.243  34.937  37.358  1.00  0.00     0.131 A 
ATOM     76  C   UNL A   1      38.738  33.910  39.436  1.00  0.00     0.055 A 
ATOM     77  C   UNL A   1      39.999  35.723  38.486  1.00  0.00     0.041 A 
ATOM     78  F   UNL A   1      40.964  35.479  36.364  1.00  0.00    -0.206 F 
ATOM     79  C   UNL A   1      39.232  35.213  39.529  1.00  0.00     0.022 A 
BRANCH  76  80
ATOM     80  S   UNL A   1      37.642  33.260  40.727  1.00  0.00     0.124 S 
ATOM     81  O   UNL A   1      37.292  34.472  41.458  1.00  0.00    -0.237 OA
ATOM     82  O   UNL A   1      36.574  32.653  39.939  1.00  0.00    -0.237 OA
ATOM     83  O   UNL A   1      38.491  32.317  41.452  1.00  0.00    -0.744 OA
ENDBRANCH  76  80
ENDBRANCH  49  73
BRANCH  61  84
ATOM     84  C   UNL A   1      44.321  28.577  35.668  1.00  0.00     0.023 A 
ATOM     85  C   UNL A   1      44.177  27.531  36.593  1.00  0.00     0.031 A 
ATOM     86  C   UNL A   1      45.613  29.079  35.427  1.00  0.00     0.131 A 
ATOM     87  C   UNL A   1      45.303  27.042  37.273  1.00  0.00     0.055 A 
ATOM     88  C   UNL A   1      46.735  28.557  36.069  1.00  0.00     0.041 A 
ATOM     89  F   UNL A   1      45.804  30.080  34.551  1.00  0.00    -0.206 F 
ATOM     90  C   UNL A   1      46.582  27.538  37.005  1.00  0.00     0.022 A 
BRANCH  87  91
ATOM     91  S   UNL A   1      45.071  25.784  38.558  1.00  0.00     0.124 S 
ATOM     92  O   UNL A   1      44.226  26.484  39.520  1.00  0.00    -0.237 OA
ATOM     93  O   UNL A   1      44.433  24.697  37.822  1.00  0.00    -0.237 OA
ATOM     94  O   UNL A   1      46.430  25.505  39.016  1.00  0.00    -0.744 OA
ENDBRANCH  87  91
ENDBRANCH  61  84
ENDBRANCH  35  36
ENDBRANCH  27  30
ENDBRANCH  25  26
ENDBRANCH  24  25
ENDBRANCH   1  24
TORSDOF 20
ENDMDL
MODEL 2
REMARK VINA RESULT:     -10.5      1.610      1.995
REMARK SMILES CCCN(CCC)c1cc(C(=O)NCCCCNC(=O)c2ccc(-c3c4nc(c(-c5cc(S(=O)(=O)[O-])ccc5F)c5ccc([nH]5)c(-c5cc(S(=O)(=O)[O-])ccc5F)c5nc(c(-c6cc(S(=O)(=O)[O-])ccc6F)c6ccc3[nH]6)C=C5)C=C4)cc2)cc(C(F)(F)F)c1
REMARK SMILES IDX 15 1 14 2 13 3 11 4 12 5 10 7 8 8 9 9 90 10 85 11 84 12 4 13
REMARK SMILES IDX 3 14 2 15 1 16 5 17 6 18 7 19 86 20 87 21 88 22 89 23 16 24
REMARK SMILES IDX 17 25 18 26 19 27 20 29 21 30 22 31 83 32 23 33 82 34 24 35
REMARK SMILES IDX 25 36 26 37 76 38 27 39 81 40 75 41 77 42 28 43 80 44 74 45
REMARK SMILES IDX 73 46 29 48 61 49 41 50 60 51 42 52 45 53 59 54 78 55 43 56
REMARK SMILES IDX 44 57 58 59 79 60 46 61 30 62 31 63 39 64 32 65 38 66 40 67
REMARK SMILES IDX 37 68 33 69 34 70 35 71 36 72 62 73 63 74 71 75 64 76 70 77
REMARK SMILES IDX 72 78 69 79 65 80 66 81 67 82 68 83 47 84 48 85 56 86 49 87
REMARK SMILES IDX 55 88 57 89 54 90 50 91 51 92 52 93 53 94
REMARK H PARENT 13 6 18 28 77 47 45 58
REMARK Flexibility Score: inf
ROOT
ATOM      1  C   UNL A   1      35.065  30.466  27.809  1.00  0.00     0.023 C 
ENDROOT
BRANCH   1   2
ATOM      2  C   UNL A   1      34.748  28.991  27.629  1.00  0.00     0.116 C 
BRANCH   2   3
ATOM      3  N   UNL A   1      33.341  28.619  27.677  1.00  0.00    -0.352 N 
ATOM      4  C   UNL A   1      32.648  27.657  26.966  1.00  0.00     0.251 C 
ATOM      5  O   UNL A   1      31.466  27.448  27.217  1.00  0.00    -0.269 OA
ATOM      6  H   UNL A   1      32.797  29.135  28.315  1.00  0.00     0.163 HD
BRANCH   4   7
ATOM      7  C   UNL A   1      33.290  26.953  25.824  1.00  0.00     0.042 A 
ATOM      8  C   UNL A   1      34.118  24.828  24.976  1.00  0.00     0.038 A 
ATOM      9  C   UNL A   1      33.814  25.673  26.043  1.00  0.00     0.039 A 
ATOM     10  C   UNL A   1      33.813  25.289  23.689  1.00  0.00     0.039 A 
ATOM     11  C   UNL A   1      33.449  26.619  23.446  1.00  0.00     0.058 A 
ATOM     12  C   UNL A   1      33.282  27.473  24.534  1.00  0.00     0.027 A 
BRANCH   8  13
ATOM     13  N   UNL A   1      34.708  23.589  25.142  1.00  0.00    -0.372 N 
BRANCH  13  14
ATOM     14  C   UNL A   1      35.423  22.990  24.002  1.00  0.00     0.116 C 
BRANCH  14  15
ATOM     15  C   UNL A   1      36.897  22.687  24.312  1.00  0.00     0.018 C 
ATOM     16  C   UNL A   1      37.547  23.708  25.247  1.00  0.00     0.006 C 
ENDBRANCH  14  15
ENDBRANCH  13  14
BRANCH  13  17
ATOM     17  C   UNL A   1      34.775  22.941  26.458  1.00  0.00     0.116 C 
BRANCH  17  18
ATOM     18  C   UNL A   1      33.612  21.981  26.731  1.00  0.00     0.018 C 
ATOM     19  C   UNL A   1      32.981  22.209  28.101  1.00  0.00     0.006 C 
ENDBRANCH  17  18
ENDBRANCH  13  17
ENDBRANCH   8  13
BRANCH  11  20
ATOM     20  C   UNL A   1      33.137  27.099  22.057  1.00  0.00     0.416 C 
ATOM     21  F   UNL A   1      33.988  28.086  21.660  1.00  0.00    -0.166 F 
ATOM     22  F   UNL A   1      33.249  26.116  21.122  1.00  0.00    -0.166 F 
ATOM     23  F   UNL A   1      31.883  27.608  21.921  1.00  0.00    -0.166 F 
ENDBRANCH  11  20
ENDBRANCH   4   7
ENDBRANCH   2   3
ENDBRANCH   1   2
BRANCH   1  24
ATOM     24  C   UNL A   1      33.888  31.399  28.035  1.00  0.00     0.023 C 
BRANCH  24  25
ATOM     25  C   UNL A   1      33.833  32.633  27.148  1.00  0.00     0.116 C 
BRANCH  25  26
ATOM     26  N   UNL A   1      33.048  33.731  27.697  1.00  0.00    -0.352 N 
ATOM     27  C   UNL A   1      33.283  34.495  28.823  1.00  0.00     0.251 C 
ATOM     28  H   UNL A   1      32.235  33.961  27.194  1.00  0.00     0.163 HD
ATOM     29  O   UNL A   1      32.483  35.353  29.161  1.00  0.00    -0.269 OA
BRANCH  27  30
ATOM     30  C   UNL A   1      34.484  34.216  29.644  1.00  0.00     0.039 A 
ATOM     31  C   UNL A   1      34.318  33.626  30.899  1.00  0.00     0.014 A 
ATOM     32  C   UNL A   1      35.762  34.452  29.137  1.00  0.00     0.014 A 
ATOM     33  C   UNL A   1      35.437  33.167  31.597  1.00  0.00     0.010 A 
ATOM     34  C   UNL A   1      36.866  33.915  29.792  1.00  0.00     0.010 A 
ATOM     35  C   UNL A   1      36.714  33.252  31.021  1.00  0.00    -0.014 A 
BRANCH  35  36
ATOM     36  C   UNL A   1      37.911  32.648  31.663  1.00  0.00     0.031 A 
ATOM     37  C   UNL A   1      38.611  31.497  30.994  1.00  0.00     0.074 A 
ATOM     38  C   UNL A   1      38.298  33.055  32.890  1.00  0.00     0.049 A 
ATOM     39  N   UNL A   1      39.546  30.711  31.458  1.00  0.00    -0.248 NA
ATOM     40  C   UNL A   1      38.163  31.166  29.633  1.00  0.00     0.031 C 
ATOM     41  C   UNL A   1      37.679  34.138  33.659  1.00  0.00     0.029 A 
ATOM     42  N   UNL A   1      39.290  32.590  33.717  1.00  0.00    -0.354 N 
ATOM     43  C   UNL A   1      39.780  29.772  30.459  1.00  0.00     0.074 A 
ATOM     44  C   UNL A   1      38.847  30.058  29.389  1.00  0.00     0.031 C 
ATOM     45  C   UNL A   1      38.314  34.261  34.836  1.00  0.00     0.029 A 
ATOM     46  C   UNL A   1      39.346  33.234  34.933  1.00  0.00     0.049 A 
ATOM     47  H   UNL A   1      39.905  31.864  33.465  1.00  0.00     0.167 HD
ATOM     48  C   UNL A   1      40.699  28.776  30.429  1.00  0.00     0.034 A 
ATOM     49  C   UNL A   1      40.123  33.009  36.011  1.00  0.00     0.034 A 
ATOM     50  C   UNL A   1      41.637  28.521  31.494  1.00  0.00     0.049 A 
ATOM     51  C   UNL A   1      41.132  31.889  35.962  1.00  0.00     0.074 A 
ATOM     52  C   UNL A   1      42.645  27.574  31.548  1.00  0.00     0.029 A 
ATOM     53  N   UNL A   1      41.682  29.217  32.696  1.00  0.00    -0.354 N 
ATOM     54  N   UNL A   1      41.361  31.027  34.998  1.00  0.00    -0.248 NA
ATOM     55  C   UNL A   1      41.991  31.714  37.141  1.00  0.00     0.031 C 
ATOM     56  C   UNL A   1      43.262  27.660  32.801  1.00  0.00     0.029 A 
ATOM     57  C   UNL A   1      42.687  28.707  33.504  1.00  0.00     0.049 A 
ATOM     58  H   UNL A   1      41.089  29.963  32.939  1.00  0.00     0.167 HD
ATOM     59  C   UNL A   1      42.417  30.236  35.440  1.00  0.00     0.074 A 
ATOM     60  C   UNL A   1      42.778  30.720  36.757  1.00  0.00     0.031 C 
ATOM     61  C   UNL A   1      43.039  29.207  34.811  1.00  0.00     0.034 A 
BRANCH  48  62
ATOM     62  C   UNL A   1      40.709  27.878  29.216  1.00  0.00     0.023 A 
ATOM     63  C   UNL A   1      41.637  28.056  28.174  1.00  0.00     0.031 A 
ATOM     64  C   UNL A   1      39.756  26.854  29.079  1.00  0.00     0.131 A 
ATOM     65  C   UNL A   1      41.537  27.284  27.008  1.00  0.00     0.055 A 
ATOM     66  C   UNL A   1      39.717  26.030  27.952  1.00  0.00     0.041 A 
ATOM     67  F   UNL A   1      38.831  26.649  30.031  1.00  0.00    -0.206 F 
ATOM     68  C   UNL A   1      40.601  26.254  26.900  1.00  0.00     0.022 A 
BRANCH  65  69
ATOM     69  S   UNL A   1      42.551  27.747  25.577  1.00  0.00     0.124 S 
ATOM     70  O   UNL A   1      42.504  26.525  24.777  1.00  0.00    -0.237 OA
ATOM     71  O   UNL A   1      41.829  28.893  25.036  1.00  0.00    -0.237 OA
ATOM     72  O   UNL A   1      43.855  28.049  26.164  1.00  0.00    -0.744 OA
ENDBRANCH  65  69
ENDBRANCH  48  62
BRANCH  49  73
ATOM     73  C   UNL A   1      39.976  33.845  37.238  1.00  0.00     0.023 A 
ATOM     74  C   UNL A   1      40.810  34.950  37.462  1.00  0.00     0.031 A 
ATOM     75  C   UNL A   1      39.022  33.528  38.222  1.00  0.00     0.131 A 
ATOM     76  C   UNL A   1      40.708  35.674  38.661  1.00  0.00     0.055 A 
ATOM     77  C   UNL A   1      38.890  34.280  39.391  1.00  0.00     0.041 A 
ATOM     78  F   UNL A   1      38.194  32.484  38.054  1.00  0.00    -0.206 F 
ATOM     79  C   UNL A   1      39.745  35.353  39.621  1.00  0.00     0.022 A 
BRANCH  76  80
ATOM     80  S   UNL A   1      41.908  36.994  38.984  1.00  0.00     0.124 S 
ATOM     81  O   UNL A   1      42.726  36.402  40.036  1.00  0.00    -0.237 OA
ATOM     82  O   UNL A   1      42.549  37.146  37.681  1.00  0.00    -0.237 OA
ATOM     83  O   UNL A   1      41.073  38.119  39.400  1.00  0.00    -0.744 OA
ENDBRANCH  76  80
ENDBRANCH  49  73
BRANCH  61  84
ATOM     84  C   UNL A   1      44.222  28.585  35.508  1.00  0.00     0.023 A 
ATOM     85  C   UNL A   1      44.075  27.565  36.461  1.00  0.00     0.031 A 
ATOM     86  C   UNL A   1      45.523  29.018  35.191  1.00  0.00     0.131 A 
ATOM     87  C   UNL A   1      45.210  27.033  37.093  1.00  0.00     0.055 A 
ATOM     88  C   UNL A   1      46.649  28.452  35.787  1.00  0.00     0.041 A 
ATOM     89  F   UNL A   1      45.717  29.992  34.287  1.00  0.00    -0.206 F 
ATOM     90  C   UNL A   1      46.496  27.460  36.750  1.00  0.00     0.022 A 
BRANCH  87  91
ATOM     91  S   UNL A   1      44.983  25.812  38.414  1.00  0.00     0.124 S 
ATOM     92  O   UNL A   1      46.271  25.861  39.098  1.00  0.00    -0.237 OA
ATOM     93  O   UNL A   1      43.848  26.356  39.152  1.00  0.00    -0.237 OA
ATOM     94  O   UNL A   1      44.712  24.570  37.692  1.00  0.00    -0.744 OA
ENDBRANCH  87  91
ENDBRANCH  61  84
ENDBRANCH  35  36
ENDBRANCH  27  30
ENDBRANCH  25  26
ENDBRANCH  24  25
ENDBRANCH   1  24
TORSDOF 20
ENDMDL
MODEL 3
REMARK VINA RESULT:     -10.4      5.833     11.773
REMARK SMILES CCCN(CCC)c1cc(C(=O)NCCCCNC(=O)c2ccc(-c3c4nc(c(-c5cc(S(=O)(=O)[O-])ccc5F)c5ccc([nH]5)c(-c5cc(S(=O)(=O)[O-])ccc5F)c5nc(c(-c6cc(S(=O)(=O)[O-])ccc6F)c6ccc3[nH]6)C=C5)C=C4)cc2)cc(C(F)(F)F)c1
REMARK SMILES IDX 15 1 14 2 13 3 11 4 12 5 10 7 8 8 9 9 90 10 85 11 84 12 4 13
REMARK SMILES IDX 3 14 2 15 1 16 5 17 6 18 7 19 86 20 87 21 88 22 89 23 16 24
REMARK SMILES IDX 17 25 18 26 19 27 20 29 21 30 22 31 83 32 23 33 82 34 24 35
REMARK SMILES IDX 25 36 26 37 76 38 27 39 81 40 75 41 77 42 28 43 80 44 74 45
REMARK SMILES IDX 73 46 29 48 61 49 41 50 60 51 42 52 45 53 59 54 78 55 43 56
REMARK SMILES IDX 44 57 58 59 79 60 46 61 30 62 31 63 39 64 32 65 38 66 40 67
REMARK SMILES IDX 37 68 33 69 34 70 35 71 36 72 62 73 63 74 71 75 64 76 70 77
REMARK SMILES IDX 72 78 69 79 65 80 66 81 67 82 68 83 47 84 48 85 56 86 49 87
REMARK SMILES IDX 55 88 57 89 54 90 50 91 51 92 52 93 53 94
REMARK H PARENT 13 6 18 28 77 47 45 58
REMARK Flexibility Score: inf
ROOT
ATOM      1  C   UNL A   1      37.370  21.802  24.226  1.00  0.00     0.023 C 
ENDROOT
BRANCH   1   2
ATOM      2  C   UNL A   1      36.306  22.886  24.218  1.00  0.00     0.116 C 
BRANCH   2   3
ATOM      3  N   UNL A   1      35.429  22.926  23.057  1.00  0.00    -0.352 N 
ATOM      4  C   UNL A   1      34.234  23.595  22.864  1.00  0.00     0.251 C 
ATOM      5  O   UNL A   1      33.687  23.558  21.767  1.00  0.00    -0.269 OA
ATOM      6  H   UNL A   1      35.734  22.392  22.288  1.00  0.00     0.163 HD
BRANCH   4   7
ATOM      7  C   UNL A   1      33.550  24.263  24.003  1.00  0.00     0.042 A 
ATOM      8  C   UNL A   1      32.646  26.352  24.865  1.00  0.00     0.038 A 
ATOM      9  C   UNL A   1      33.534  25.663  24.037  1.00  0.00     0.039 A 
ATOM     10  C   UNL A   1      31.733  25.585  25.599  1.00  0.00     0.039 A 
ATOM     11  C   UNL A   1      31.847  24.194  25.701  1.00  0.00     0.058 A 
ATOM     12  C   UNL A   1      32.836  23.551  24.959  1.00  0.00     0.027 A 
BRANCH   8  13
ATOM     13  N   UNL A   1      32.648  27.729  24.989  1.00  0.00    -0.372 N 
BRANCH  13  14
ATOM     14  C   UNL A   1      31.376  28.453  24.819  1.00  0.00     0.116 C 
BRANCH  14  15
ATOM     15  C   UNL A   1      31.033  28.722  23.346  1.00  0.00     0.018 C 
ATOM     16  C   UNL A   1      30.604  27.470  22.581  1.00  0.00     0.006 C 
ENDBRANCH  14  15
ENDBRANCH  13  14
BRANCH  13  17
ATOM     17  C   UNL A   1      33.840  28.457  25.439  1.00  0.00     0.116 C 
BRANCH  17  18
ATOM     18  C   UNL A   1      33.977  28.534  26.963  1.00  0.00     0.018 C 
ATOM     19  C   UNL A   1      34.325  29.941  27.443  1.00  0.00     0.006 C 
ENDBRANCH  17  18
ENDBRANCH  13  17
ENDBRANCH   8  13
BRANCH  11  20
ATOM     20  C   UNL A   1      30.864  23.389  26.504  1.00  0.00     0.416 C 
ATOM     21  F   UNL A   1      30.450  22.280  25.830  1.00  0.00    -0.166 F 
ATOM     22  F   UNL A   1      31.387  22.937  27.676  1.00  0.00    -0.166 F 
ATOM     23  F   UNL A   1      29.734  24.071  26.834  1.00  0.00    -0.166 F 
ENDBRANCH  11  20
ENDBRANCH   4   7
ENDBRANCH   2   3
ENDBRANCH   1   2
BRANCH   1  24
ATOM     24  C   UNL A   1      37.670  21.144  25.562  1.00  0.00     0.023 C 
BRANCH  24  25
ATOM     25  C   UNL A   1      39.109  21.234  26.045  1.00  0.00     0.116 C 
BRANCH  25  26
ATOM     26  N   UNL A   1      39.874  20.005  25.884  1.00  0.00    -0.352 N 
ATOM     27  C   UNL A   1      41.235  19.803  25.994  1.00  0.00     0.251 C 
ATOM     28  H   UNL A   1      39.346  19.205  25.664  1.00  0.00     0.163 HD
ATOM     29  O   UNL A   1      41.712  18.700  25.777  1.00  0.00    -0.269 OA
BRANCH  27  30
ATOM     30  C   UNL A   1      42.109  20.953  26.317  1.00  0.00     0.039 A 
ATOM     31  C   UNL A   1      42.564  21.766  25.276  1.00  0.00     0.014 A 
ATOM     32  C   UNL A   1      42.400  21.275  27.644  1.00  0.00     0.014 A 
ATOM     33  C   UNL A   1      43.213  22.967  25.574  1.00  0.00     0.010 A 
ATOM     34  C   UNL A   1      42.965  22.511  27.938  1.00  0.00     0.010 A 
ATOM     35  C   UNL A   1      43.363  23.378  26.907  1.00  0.00    -0.014 A 
BRANCH  35  36
ATOM     36  C   UNL A   1      43.916  24.712  27.264  1.00  0.00     0.031 A 
ATOM     37  C   UNL A   1      42.998  25.778  27.793  1.00  0.00     0.074 A 
ATOM     38  C   UNL A   1      45.210  24.997  27.008  1.00  0.00     0.049 A 
ATOM     39  N   UNL A   1      43.229  27.049  27.990  1.00  0.00    -0.248 NA
ATOM     40  C   UNL A   1      41.622  25.359  28.102  1.00  0.00     0.031 C 
ATOM     41  C   UNL A   1      46.194  24.058  26.463  1.00  0.00     0.029 A 
ATOM     42  N   UNL A   1      45.915  26.166  27.151  1.00  0.00    -0.354 N 
ATOM     43  C   UNL A   1      42.020  27.590  28.417  1.00  0.00     0.074 A 
ATOM     44  C   UNL A   1      41.050  26.515  28.396  1.00  0.00     0.031 C 
ATOM     45  C   UNL A   1      47.375  24.685  26.331  1.00  0.00     0.029 A 
ATOM     46  C   UNL A   1      47.222  26.081  26.728  1.00  0.00     0.049 A 
ATOM     47  H   UNL A   1      45.522  26.989  27.522  1.00  0.00     0.167 HD
ATOM     48  C   UNL A   1      41.750  28.861  28.808  1.00  0.00     0.034 A 
ATOM     49  C   UNL A   1      48.182  27.025  26.645  1.00  0.00     0.034 A 
ATOM     50  C   UNL A   1      42.736  29.912  28.846  1.00  0.00     0.049 A 
ATOM     51  C   UNL A   1      47.858  28.434  27.074  1.00  0.00     0.074 A 
ATOM     52  C   UNL A   1      42.586  31.219  29.274  1.00  0.00     0.029 A 
ATOM     53  N   UNL A   1      44.057  29.777  28.438  1.00  0.00    -0.354 N 
ATOM     54  N   UNL A   1      46.718  28.924  27.504  1.00  0.00    -0.248 NA
ATOM     55  C   UNL A   1      48.950  29.415  27.014  1.00  0.00     0.031 C 
ATOM     56  C   UNL A   1      43.799  31.889  29.074  1.00  0.00     0.029 A 
ATOM     57  C   UNL A   1      44.726  30.982  28.587  1.00  0.00     0.049 A 
ATOM     58  H   UNL A   1      44.461  28.947  28.095  1.00  0.00     0.167 HD
ATOM     59  C   UNL A   1      46.968  30.259  27.802  1.00  0.00     0.074 A 
ATOM     60  C   UNL A   1      48.365  30.499  27.503  1.00  0.00     0.031 C 
ATOM     61  C   UNL A   1      46.122  31.201  28.290  1.00  0.00     0.034 A 
BRANCH  48  62
ATOM     62  C   UNL A   1      40.327  29.178  29.198  1.00  0.00     0.023 A 
ATOM     63  C   UNL A   1      39.911  29.170  30.541  1.00  0.00     0.031 A 
ATOM     64  C   UNL A   1      39.363  29.454  28.213  1.00  0.00     0.131 A 
ATOM     65  C   UNL A   1      38.556  29.348  30.855  1.00  0.00     0.055 A 
ATOM     66  C   UNL A   1      38.031  29.716  28.539  1.00  0.00     0.041 A 
ATOM     67  F   UNL A   1      39.695  29.455  26.912  1.00  0.00    -0.206 F 
ATOM     68  C   UNL A   1      37.617  29.647  29.867  1.00  0.00     0.022 A 
BRANCH  65  69
ATOM     69  S   UNL A   1      38.016  29.031  32.558  1.00  0.00     0.124 S 
ATOM     70  O   UNL A   1      36.592  29.348  32.478  1.00  0.00    -0.237 OA
ATOM     71  O   UNL A   1      38.347  27.622  32.738  1.00  0.00    -0.237 OA
ATOM     72  O   UNL A   1      38.812  29.966  33.350  1.00  0.00    -0.744 OA
ENDBRANCH  65  69
ENDBRANCH  48  62
BRANCH  49  73
ATOM     73  C   UNL A   1      49.536  26.683  26.123  1.00  0.00     0.023 A 
ATOM     74  C   UNL A   1      49.939  27.087  24.841  1.00  0.00     0.031 A 
ATOM     75  C   UNL A   1      50.435  25.914  26.885  1.00  0.00     0.131 A 
ATOM     76  C   UNL A   1      51.187  26.686  24.339  1.00  0.00     0.055 A 
ATOM     77  C   UNL A   1      51.696  25.558  26.400  1.00  0.00     0.041 A 
ATOM     78  F   UNL A   1      50.103  25.506  28.120  1.00  0.00    -0.206 F 
ATOM     79  C   UNL A   1      52.072  25.934  25.115  1.00  0.00     0.022 A 
BRANCH  76  80
ATOM     80  S   UNL A   1      51.604  27.093  22.622  1.00  0.00     0.124 S 
ATOM     81  O   UNL A   1      50.375  26.735  21.924  1.00  0.00    -0.237 OA
ATOM     82  O   UNL A   1      51.898  28.520  22.713  1.00  0.00    -0.237 OA
ATOM     83  O   UNL A   1      52.755  26.238  22.339  1.00  0.00    -0.744 OA
ENDBRANCH  76  80
ENDBRANCH  49  73
BRANCH  61  84
ATOM     84  C   UNL A   1      46.703  32.557  28.601  1.00  0.00     0.023 A 
ATOM     85  C   UNL A   1      46.700  33.602  27.662  1.00  0.00     0.031 A 
ATOM     86  C   UNL A   1      47.252  32.806  29.871  1.00  0.00     0.131 A 
ATOM     87  C   UNL A   1      47.271  34.840  27.997  1.00  0.00     0.055 A 
ATOM     88  C   UNL A   1      47.774  34.052  30.215  1.00  0.00     0.041 A 
ATOM     89  F   UNL A   1      47.279  31.839  30.804  1.00  0.00    -0.206 F 
ATOM     90  C   UNL A   1      47.793  35.075  29.272  1.00  0.00     0.022 A 
BRANCH  87  91
ATOM     91  S   UNL A   1      47.374  36.128  26.724  1.00  0.00     0.124 S 
ATOM     92  O   UNL A   1      47.354  37.348  27.524  1.00  0.00    -0.237 OA
ATOM     93  O   UNL A   1      48.639  35.817  26.066  1.00  0.00    -0.237 OA
ATOM     94  O   UNL A   1      46.182  35.902  25.909  1.00  0.00    -0.744 OA
ENDBRANCH  87  91
ENDBRANCH  61  84
ENDBRANCH  35  36
ENDBRANCH  27  30
ENDBRANCH  25  26
ENDBRANCH  24  25
ENDBRANCH   1  24
TORSDOF 20
ENDMDL
