MODEL 1
REMARK VINA RESULT:     -13.5      0.000      0.000
REMARK SMILES Cc1cc([N+](=O)[O-])ccc1NC(=O)[C@@H]1[C@@H](C(=O)NCCCCNC(=O)c2ccc(-c3c4nc(c(-c5cc(S(=O)(=O)[O-])ccc5F)c5ccc([nH]5)c(-c5cc(S(=O)(=O)[O-])ccc5F)c5nc(c(-c6cc(S(=O)(=O)[O-])ccc6F)c6ccc3[nH]6)C=C5)C=C4)cc2)[C@H]2C=C[C@@H]1C2
REMARK SMILES IDX 20 1 19 2 18 3 16 4 17 5 15 7 14 8 92 9 89 10 91 11 93 12
REMARK SMILES IDX 90 13 12 14 11 15 13 17 10 18 1 19 2 20 3 21 4 22 9 23 8 24
REMARK SMILES IDX 5 25 6 26 7 27 21 28 22 29 23 30 24 31 25 33 26 34 27 35
REMARK SMILES IDX 88 36 28 37 87 38 29 39 30 40 31 41 81 42 32 43 86 44 80 45
REMARK SMILES IDX 82 46 33 47 85 48 79 49 78 50 34 52 66 53 46 54 65 55 47 56
REMARK SMILES IDX 50 57 64 58 83 59 48 60 49 61 63 63 84 64 51 65 35 66 36 67
REMARK SMILES IDX 44 68 37 69 43 70 45 71 42 72 38 73 39 74 40 75 41 76 67 77
REMARK SMILES IDX 68 78 76 79 69 80 75 81 77 82 74 83 70 84 71 85 72 86 73 87
REMARK SMILES IDX 52 88 53 89 61 90 54 91 60 92 62 93 59 94 55 95 56 96 57 97
REMARK SMILES IDX 58 98
REMARK H PARENT 18 6 11 16 23 32 82 51 50 62
REMARK Flexibility Score: inf
ROOT
ATOM      1  C   UNL A   1      37.274  21.668  25.144  1.00  0.00     0.023 C 
ENDROOT
BRANCH   1   2
ATOM      2  C   UNL A   1      36.998  22.884  24.254  1.00  0.00     0.116 C 
BRANCH   2   3
ATOM      3  N   UNL A   1      36.193  23.905  24.911  1.00  0.00    -0.356 N 
ATOM      4  C   UNL A   1      34.941  24.365  24.639  1.00  0.00     0.224 C 
ATOM      5  O   UNL A   1      34.506  25.258  25.375  1.00  0.00    -0.275 OA
ATOM      6  H   UNL A   1      36.627  24.333  25.684  1.00  0.00     0.163 HD
BRANCH   4   7
ATOM      7  C   UNL A   1      34.166  23.885  23.416  1.00  0.00     0.098 C 
ATOM      8  C   UNL A   1      32.915  24.816  23.115  1.00  0.00     0.099 C 
ATOM      9  C   UNL A   1      31.772  23.782  22.935  1.00  0.00     0.025 C 
ATOM     10  C   UNL A   1      33.489  22.495  23.544  1.00  0.00     0.025 C 
ATOM     11  C   UNL A   1      31.452  23.247  24.310  1.00  0.00    -0.027 C 
ATOM     12  C   UNL A   1      32.508  22.568  22.372  1.00  0.00     0.017 C 
ATOM     13  C   UNL A   1      32.494  22.490  24.682  1.00  0.00    -0.027 C 
BRANCH   8  14
ATOM     14  C   UNL A   1      33.059  25.727  21.909  1.00  0.00     0.228 C 
ATOM     15  N   UNL A   1      32.918  27.091  22.000  1.00  0.00    -0.326 N 
ATOM     16  H   UNL A   1      33.014  27.545  21.132  1.00  0.00     0.169 HD
ATOM     17  O   UNL A   1      33.278  25.277  20.779  1.00  0.00    -0.274 OA
BRANCH  15  18
ATOM     18  C   UNL A   1      32.667  27.985  23.065  1.00  0.00     0.044 A 
ATOM     19  C   UNL A   1      30.146  28.019  22.477  1.00  0.00     0.047 C 
ATOM     20  C   UNL A   1      31.333  28.376  23.336  1.00  0.00    -0.021 A 
ATOM     21  C   UNL A   1      31.058  29.165  24.476  1.00  0.00     0.091 A 
ATOM     22  C   UNL A   1      32.089  29.571  25.329  1.00  0.00     0.269 A 
ATOM     23  C   UNL A   1      33.684  28.494  23.882  1.00  0.00     0.033 A 
ATOM     24  C   UNL A   1      33.409  29.260  25.020  1.00  0.00     0.088 A 
BRANCH  22  25
ATOM     25  N   UNL A   1      31.778  30.326  26.547  1.00  0.00     0.062 N 
ATOM     26  O   UNL A   1      31.815  29.716  27.626  1.00  0.00    -0.258 OA
ATOM     27  O   UNL A   1      31.502  31.528  26.429  1.00  0.00    -0.258 OA
ENDBRANCH  22  25
ENDBRANCH  15  18
ENDBRANCH   8  14
ENDBRANCH   4   7
ENDBRANCH   2   3
ENDBRANCH   1   2
BRANCH   1  28
ATOM     28  C   UNL A   1      38.676  21.580  25.741  1.00  0.00     0.023 C 
BRANCH  28  29
ATOM     29  C   UNL A   1      39.132  22.821  26.501  1.00  0.00     0.116 C 
BRANCH  29  30
ATOM     30  N   UNL A   1      40.566  23.066  26.447  1.00  0.00    -0.352 N 
ATOM     31  C   UNL A   1      41.253  24.271  26.540  1.00  0.00     0.251 C 
ATOM     32  H   UNL A   1      41.128  22.266  26.328  1.00  0.00     0.163 HD
ATOM     33  O   UNL A   1      42.454  24.333  26.404  1.00  0.00    -0.269 OA
BRANCH  31  34
ATOM     34  C   UNL A   1      40.490  25.483  26.945  1.00  0.00     0.039 A 
ATOM     35  C   UNL A   1      40.777  26.673  26.267  1.00  0.00     0.014 A 
ATOM     36  C   UNL A   1      39.696  25.500  28.089  1.00  0.00     0.014 A 
ATOM     37  C   UNL A   1      40.473  27.892  26.866  1.00  0.00     0.010 A 
ATOM     38  C   UNL A   1      39.476  26.705  28.729  1.00  0.00     0.010 A 
ATOM     39  C   UNL A   1      39.923  27.898  28.150  1.00  0.00    -0.014 A 
BRANCH  39  40
ATOM     40  C   UNL A   1      39.959  29.076  29.011  1.00  0.00     0.031 A 
ATOM     41  C   UNL A   1      38.882  30.085  28.994  1.00  0.00     0.074 A 
ATOM     42  C   UNL A   1      40.993  29.247  29.862  1.00  0.00     0.049 A 
ATOM     43  N   UNL A   1      39.059  31.341  29.246  1.00  0.00    -0.248 NA
ATOM     44  C   UNL A   1      37.505  29.752  28.657  1.00  0.00     0.031 C 
ATOM     45  C   UNL A   1      41.107  30.224  30.941  1.00  0.00     0.029 A 
ATOM     46  N   UNL A   1      42.266  28.705  29.757  1.00  0.00    -0.354 N 
ATOM     47  C   UNL A   1      37.816  31.908  29.409  1.00  0.00     0.074 A 
ATOM     48  C   UNL A   1      36.885  30.898  28.952  1.00  0.00     0.031 C 
ATOM     49  C   UNL A   1      42.406  30.397  31.234  1.00  0.00     0.029 A 
ATOM     50  C   UNL A   1      43.178  29.638  30.267  1.00  0.00     0.049 A 
ATOM     51  H   UNL A   1      42.489  27.821  29.388  1.00  0.00     0.167 HD
ATOM     52  C   UNL A   1      37.687  33.100  30.062  1.00  0.00     0.034 A 
ATOM     53  C   UNL A   1      44.181  30.137  29.486  1.00  0.00     0.034 A 
ATOM     54  C   UNL A   1      38.979  33.637  30.488  1.00  0.00     0.049 A 
ATOM     55  C   UNL A   1      44.103  31.636  29.290  1.00  0.00     0.074 A 
ATOM     56  C   UNL A   1      39.628  33.642  31.713  1.00  0.00     0.029 A 
ATOM     57  N   UNL A   1      39.920  34.041  29.545  1.00  0.00    -0.354 N 
ATOM     58  N   UNL A   1      43.052  32.355  29.570  1.00  0.00    -0.248 NA
ATOM     59  C   UNL A   1      45.191  32.435  28.736  1.00  0.00     0.031 C 
ATOM     60  C   UNL A   1      40.984  33.990  31.493  1.00  0.00     0.029 A 
ATOM     61  C   UNL A   1      41.156  34.224  30.139  1.00  0.00     0.049 A 
ATOM     62  H   UNL A   1      39.733  34.175  28.588  1.00  0.00     0.167 HD
ATOM     63  C   UNL A   1      43.281  33.663  29.222  1.00  0.00     0.074 A 
ATOM     64  C   UNL A   1      44.649  33.665  28.732  1.00  0.00     0.031 C 
ATOM     65  C   UNL A   1      42.317  34.624  29.355  1.00  0.00     0.034 A 
BRANCH  52  66
ATOM     66  C   UNL A   1      36.366  33.590  30.618  1.00  0.00     0.023 A 
ATOM     67  C   UNL A   1      35.459  34.263  29.773  1.00  0.00     0.031 A 
ATOM     68  C   UNL A   1      35.963  33.478  31.962  1.00  0.00     0.131 A 
ATOM     69  C   UNL A   1      34.308  34.894  30.279  1.00  0.00     0.055 A 
ATOM     70  C   UNL A   1      34.854  34.160  32.483  1.00  0.00     0.041 A 
ATOM     71  F   UNL A   1      36.602  32.666  32.817  1.00  0.00    -0.206 F 
ATOM     72  C   UNL A   1      34.029  34.892  31.642  1.00  0.00     0.022 A 
BRANCH  69  73
ATOM     73  S   UNL A   1      33.169  35.711  29.126  1.00  0.00     0.124 S 
ATOM     74  O   UNL A   1      34.067  36.566  28.356  1.00  0.00    -0.237 OA
ATOM     75  O   UNL A   1      32.588  34.579  28.414  1.00  0.00    -0.237 OA
ATOM     76  O   UNL A   1      32.246  36.424  30.010  1.00  0.00    -0.744 OA
ENDBRANCH  69  73
ENDBRANCH  52  66
BRANCH  53  77
ATOM     77  C   UNL A   1      44.688  29.156  28.482  1.00  0.00     0.023 A 
ATOM     78  C   UNL A   1      45.527  28.125  28.961  1.00  0.00     0.031 A 
ATOM     79  C   UNL A   1      44.083  28.983  27.232  1.00  0.00     0.131 A 
ATOM     80  C   UNL A   1      45.599  26.900  28.285  1.00  0.00     0.055 A 
ATOM     81  C   UNL A   1      44.218  27.783  26.521  1.00  0.00     0.041 A 
ATOM     82  F   UNL A   1      43.252  29.913  26.738  1.00  0.00    -0.206 F 
ATOM     83  C   UNL A   1      44.939  26.719  27.068  1.00  0.00     0.022 A 
BRANCH  80  84
ATOM     84  S   UNL A   1      46.323  25.464  29.138  1.00  0.00     0.124 S 
ATOM     85  O   UNL A   1      45.615  24.349  28.519  1.00  0.00    -0.237 OA
ATOM     86  O   UNL A   1      47.745  25.564  28.821  1.00  0.00    -0.237 OA
ATOM     87  O   UNL A   1      46.013  25.713  30.543  1.00  0.00    -0.744 OA
ENDBRANCH  80  84
ENDBRANCH  53  77
BRANCH  65  88
ATOM     88  C   UNL A   1      42.419  36.048  28.853  1.00  0.00     0.023 A 
ATOM     89  C   UNL A   1      43.173  37.042  29.494  1.00  0.00     0.031 A 
ATOM     90  C   UNL A   1      41.796  36.437  27.640  1.00  0.00     0.131 A 
ATOM     91  C   UNL A   1      43.213  38.358  28.999  1.00  0.00     0.055 A 
ATOM     92  C   UNL A   1      41.903  37.726  27.107  1.00  0.00     0.041 A 
ATOM     93  F   UNL A   1      41.061  35.579  26.918  1.00  0.00    -0.206 F 
ATOM     94  C   UNL A   1      42.600  38.705  27.798  1.00  0.00     0.022 A 
BRANCH  91  95
ATOM     95  S   UNL A   1      44.031  39.629  30.001  1.00  0.00     0.124 S 
ATOM     96  O   UNL A   1      43.674  40.851  29.285  1.00  0.00    -0.237 OA
ATOM     97  O   UNL A   1      43.402  39.454  31.305  1.00  0.00    -0.237 OA
ATOM     98  O   UNL A   1      45.445  39.265  29.936  1.00  0.00    -0.744 OA
ENDBRANCH  91  95
ENDBRANCH  65  88
ENDBRANCH  39  40
ENDBRANCH  31  34
ENDBRANCH  29  30
ENDBRANCH  28  29
ENDBRANCH   1  28
TORSDOF 17
ENDMDL
MODEL 2
REMARK VINA RESULT:     -13.5      4.127     10.634
REMARK SMILES Cc1cc([N+](=O)[O-])ccc1NC(=O)[C@@H]1[C@@H](C(=O)NCCCCNC(=O)c2ccc(-c3c4nc(c(-c5cc(S(=O)(=O)[O-])ccc5F)c5ccc([nH]5)c(-c5cc(S(=O)(=O)[O-])ccc5F)c5nc(c(-c6cc(S(=O)(=O)[O-])ccc6F)c6ccc3[nH]6)C=C5)C=C4)cc2)[C@H]2C=C[C@@H]1C2
REMARK SMILES IDX 20 1 19 2 18 3 16 4 17 5 15 7 14 8 92 9 89 10 91 11 93 12
REMARK SMILES IDX 90 13 12 14 11 15 13 17 10 18 1 19 2 20 3 21 4 22 9 23 8 24
REMARK SMILES IDX 5 25 6 26 7 27 21 28 22 29 23 30 24 31 25 33 26 34 27 35
REMARK SMILES IDX 88 36 28 37 87 38 29 39 30 40 31 41 81 42 32 43 86 44 80 45
REMARK SMILES IDX 82 46 33 47 85 48 79 49 78 50 34 52 66 53 46 54 65 55 47 56
REMARK SMILES IDX 50 57 64 58 83 59 48 60 49 61 63 63 84 64 51 65 35 66 36 67
REMARK SMILES IDX 44 68 37 69 43 70 45 71 42 72 38 73 39 74 40 75 41 76 67 77
REMARK SMILES IDX 68 78 76 79 69 80 75 81 77 82 74 83 70 84 71 85 72 86 73 87
REMARK SMILES IDX 52 88 53 89 61 90 54 91 60 92 62 93 59 94 55 95 56 96 57 97
REMARK SMILES IDX 58 98
REMARK H PARENT 18 6 11 16 23 32 82 51 50 62
REMARK Flexibility Score: inf
ROOT
ATOM      1  C   UNL A   1      32.237  30.101  26.693  1.00  0.00     0.023 C 
ENDROOT
BRANCH   1   2
ATOM      2  C   UNL A   1      32.221  28.745  27.405  1.00  0.00     0.116 C 
BRANCH   2   3
ATOM      3  N   UNL A   1      33.165  27.790  26.841  1.00  0.00    -0.356 N 
ATOM      4  C   UNL A   1      32.962  26.641  26.141  1.00  0.00     0.224 C 
ATOM      5  O   UNL A   1      33.970  26.019  25.789  1.00  0.00    -0.275 OA
ATOM      6  H   UNL A   1      34.112  28.015  26.990  1.00  0.00     0.163 HD
BRANCH   4   7
ATOM      7  C   UNL A   1      31.557  26.090  25.910  1.00  0.00     0.098 C 
ATOM      8  C   UNL A   1      31.595  24.564  25.469  1.00  0.00     0.099 C 
ATOM      9  C   UNL A   1      30.660  24.557  24.231  1.00  0.00     0.025 C 
ATOM     10  C   UNL A   1      30.763  26.727  24.739  1.00  0.00     0.025 C 
ATOM     11  C   UNL A   1      31.417  25.233  23.113  1.00  0.00    -0.027 C 
ATOM     12  C   UNL A   1      29.669  25.672  24.556  1.00  0.00     0.017 C 
ATOM     13  C   UNL A   1      31.495  26.533  23.430  1.00  0.00    -0.027 C 
BRANCH   8  14
ATOM     14  C   UNL A   1      31.150  23.572  26.528  1.00  0.00     0.228 C 
ATOM     15  N   UNL A   1      31.930  22.507  26.909  1.00  0.00    -0.326 N 
ATOM     16  H   UNL A   1      31.498  21.937  27.586  1.00  0.00     0.169 HD
ATOM     17  O   UNL A   1      30.045  23.659  27.076  1.00  0.00    -0.274 OA
BRANCH  15  18
ATOM     18  C   UNL A   1      33.215  22.049  26.542  1.00  0.00     0.044 A 
ATOM     19  C   UNL A   1      32.168  20.283  24.967  1.00  0.00     0.047 C 
ATOM     20  C   UNL A   1      33.332  21.032  25.564  1.00  0.00    -0.021 A 
ATOM     21  C   UNL A   1      34.613  20.660  25.097  1.00  0.00     0.091 A 
ATOM     22  C   UNL A   1      35.763  21.275  25.600  1.00  0.00     0.269 A 
ATOM     23  C   UNL A   1      34.392  22.571  27.097  1.00  0.00     0.033 A 
ATOM     24  C   UNL A   1      35.659  22.213  26.621  1.00  0.00     0.088 A 
BRANCH  22  25
ATOM     25  N   UNL A   1      37.079  20.930  25.052  1.00  0.00     0.062 N 
ATOM     26  O   UNL A   1      37.894  21.850  24.893  1.00  0.00    -0.258 OA
ATOM     27  O   UNL A   1      37.301  19.741  24.786  1.00  0.00    -0.258 OA
ENDBRANCH  22  25
ENDBRANCH  15  18
ENDBRANCH   8  14
ENDBRANCH   4   7
ENDBRANCH   2   3
ENDBRANCH   1   2
BRANCH   1  28
ATOM     28  C   UNL A   1      33.037  31.206  27.378  1.00  0.00     0.023 C 
BRANCH  28  29
ATOM     29  C   UNL A   1      34.488  30.855  27.687  1.00  0.00     0.116 C 
BRANCH  29  30
ATOM     30  N   UNL A   1      35.040  31.545  28.844  1.00  0.00    -0.352 N 
ATOM     31  C   UNL A   1      36.058  31.142  29.701  1.00  0.00     0.251 C 
ATOM     32  H   UNL A   1      34.636  32.420  29.049  1.00  0.00     0.163 HD
ATOM     33  O   UNL A   1      36.367  31.792  30.674  1.00  0.00    -0.269 OA
BRANCH  31  34
ATOM     34  C   UNL A   1      36.862  29.949  29.321  1.00  0.00     0.039 A 
ATOM     35  C   UNL A   1      37.136  29.018  30.330  1.00  0.00     0.014 A 
ATOM     36  C   UNL A   1      37.508  29.862  28.091  1.00  0.00     0.014 A 
ATOM     37  C   UNL A   1      38.221  28.157  30.190  1.00  0.00     0.010 A 
ATOM     38  C   UNL A   1      38.640  29.075  27.987  1.00  0.00     0.010 A 
ATOM     39  C   UNL A   1      39.035  28.271  29.062  1.00  0.00    -0.014 A 
BRANCH  39  40
ATOM     40  C   UNL A   1      40.392  27.733  29.018  1.00  0.00     0.031 A 
ATOM     41  C   UNL A   1      40.667  26.353  28.571  1.00  0.00     0.074 A 
ATOM     42  C   UNL A   1      41.431  28.516  29.378  1.00  0.00     0.049 A 
ATOM     43  N   UNL A   1      41.650  25.632  29.001  1.00  0.00    -0.248 NA
ATOM     44  C   UNL A   1      39.820  25.662  27.609  1.00  0.00     0.031 C 
ATOM     45  C   UNL A   1      42.855  28.245  29.200  1.00  0.00     0.029 A 
ATOM     46  N   UNL A   1      41.397  29.631  30.204  1.00  0.00    -0.354 N 
ATOM     47  C   UNL A   1      41.752  24.538  28.174  1.00  0.00     0.074 A 
ATOM     48  C   UNL A   1      40.543  24.562  27.378  1.00  0.00     0.031 C 
ATOM     49  C   UNL A   1      43.550  28.992  30.073  1.00  0.00     0.029 A 
ATOM     50  C   UNL A   1      42.594  29.670  30.930  1.00  0.00     0.049 A 
ATOM     51  H   UNL A   1      40.659  30.279  30.270  1.00  0.00     0.167 HD
ATOM     52  C   UNL A   1      42.912  23.820  28.127  1.00  0.00     0.034 A 
ATOM     53  C   UNL A   1      42.588  29.635  32.295  1.00  0.00     0.034 A 
ATOM     54  C   UNL A   1      43.921  24.344  29.048  1.00  0.00     0.049 A 
ATOM     55  C   UNL A   1      43.304  28.431  32.869  1.00  0.00     0.074 A 
ATOM     56  C   UNL A   1      45.033  25.147  28.851  1.00  0.00     0.029 A 
ATOM     57  N   UNL A   1      43.719  24.285  30.423  1.00  0.00    -0.354 N 
ATOM     58  N   UNL A   1      43.640  27.380  32.174  1.00  0.00    -0.248 NA
ATOM     59  C   UNL A   1      43.671  28.306  34.277  1.00  0.00     0.031 C 
ATOM     60  C   UNL A   1      45.462  25.624  30.114  1.00  0.00     0.029 A 
ATOM     61  C   UNL A   1      44.630  25.091  31.083  1.00  0.00     0.049 A 
ATOM     62  H   UNL A   1      43.024  23.746  30.865  1.00  0.00     0.167 HD
ATOM     63  C   UNL A   1      44.216  26.446  32.998  1.00  0.00     0.074 A 
ATOM     64  C   UNL A   1      44.241  27.088  34.300  1.00  0.00     0.031 C 
ATOM     65  C   UNL A   1      44.608  25.220  32.534  1.00  0.00     0.034 A 
BRANCH  52  66
ATOM     66  C   UNL A   1      43.242  22.869  26.995  1.00  0.00     0.023 A 
ATOM     67  C   UNL A   1      42.740  21.551  27.019  1.00  0.00     0.031 A 
ATOM     68  C   UNL A   1      44.076  23.173  25.902  1.00  0.00     0.131 A 
ATOM     69  C   UNL A   1      43.164  20.583  26.091  1.00  0.00     0.055 A 
ATOM     70  C   UNL A   1      44.553  22.197  25.016  1.00  0.00     0.041 A 
ATOM     71  F   UNL A   1      44.427  24.436  25.621  1.00  0.00    -0.206 F 
ATOM     72  C   UNL A   1      44.112  20.886  25.120  1.00  0.00     0.022 A 
BRANCH  69  73
ATOM     73  S   UNL A   1      42.447  18.917  26.165  1.00  0.00     0.124 S 
ATOM     74  O   UNL A   1      42.582  18.581  27.579  1.00  0.00    -0.237 OA
ATOM     75  O   UNL A   1      41.089  19.145  25.682  1.00  0.00    -0.237 OA
ATOM     76  O   UNL A   1      43.299  18.142  25.263  1.00  0.00    -0.744 OA
ENDBRANCH  69  73
ENDBRANCH  52  66
BRANCH  53  77
ATOM     77  C   UNL A   1      41.397  30.303  32.895  1.00  0.00     0.023 A 
ATOM     78  C   UNL A   1      41.401  31.716  32.922  1.00  0.00     0.031 A 
ATOM     79  C   UNL A   1      40.171  29.647  33.056  1.00  0.00     0.131 A 
ATOM     80  C   UNL A   1      40.194  32.427  32.927  1.00  0.00     0.055 A 
ATOM     81  C   UNL A   1      38.970  30.364  33.138  1.00  0.00     0.041 A 
ATOM     82  F   UNL A   1      40.098  28.309  33.008  1.00  0.00    -0.206 F 
ATOM     83  C   UNL A   1      38.974  31.757  33.026  1.00  0.00     0.022 A 
BRANCH  80  84
ATOM     84  S   UNL A   1      40.215  34.202  32.524  1.00  0.00     0.124 S 
ATOM     85  O   UNL A   1      40.061  34.191  31.075  1.00  0.00    -0.237 OA
ATOM     86  O   UNL A   1      39.081  34.734  33.277  1.00  0.00    -0.237 OA
ATOM     87  O   UNL A   1      41.514  34.647  33.024  1.00  0.00    -0.744 OA
ENDBRANCH  80  84
ENDBRANCH  53  77
BRANCH  65  88
ATOM     88  C   UNL A   1      45.101  24.072  33.389  1.00  0.00     0.023 A 
ATOM     89  C   UNL A   1      46.384  24.025  33.954  1.00  0.00     0.031 A 
ATOM     90  C   UNL A   1      44.243  22.996  33.725  1.00  0.00     0.131 A 
ATOM     91  C   UNL A   1      46.801  22.922  34.721  1.00  0.00     0.055 A 
ATOM     92  C   UNL A   1      44.634  21.939  34.553  1.00  0.00     0.041 A 
ATOM     93  F   UNL A   1      42.984  22.928  33.266  1.00  0.00    -0.206 F 
ATOM     94  C   UNL A   1      45.929  21.885  35.042  1.00  0.00     0.022 A 
BRANCH  91  95
ATOM     95  S   UNL A   1      48.539  22.838  35.233  1.00  0.00     0.124 S 
ATOM     96  O   UNL A   1      48.931  24.245  35.191  1.00  0.00    -0.237 OA
ATOM     97  O   UNL A   1      48.447  22.247  36.562  1.00  0.00    -0.237 OA
ATOM     98  O   UNL A   1      49.160  21.993  34.215  1.00  0.00    -0.744 OA
ENDBRANCH  91  95
ENDBRANCH  65  88
ENDBRANCH  39  40
ENDBRANCH  31  34
ENDBRANCH  29  30
ENDBRANCH  28  29
ENDBRANCH   1  28
TORSDOF 17
ENDMDL
MODEL 3
REMARK VINA RESULT:     -13.3      1.477      2.113
REMARK SMILES Cc1cc([N+](=O)[O-])ccc1NC(=O)[C@@H]1[C@@H](C(=O)NCCCCNC(=O)c2ccc(-c3c4nc(c(-c5cc(S(=O)(=O)[O-])ccc5F)c5ccc([nH]5)c(-c5cc(S(=O)(=O)[O-])ccc5F)c5nc(c(-c6cc(S(=O)(=O)[O-])ccc6F)c6ccc3[nH]6)C=C5)C=C4)cc2)[C@H]2C=C[C@@H]1C2
REMARK SMILES IDX 20 1 19 2 18 3 16 4 17 5 15 7 14 8 92 9 89 10 91 11 93 12
REMARK SMILES IDX 90 13 12 14 11 15 13 17 10 18 1 19 2 20 3 21 4 22 9 23 8 24
REMARK SMILES IDX 5 25 6 26 7 27 21 28 22 29 23 30 24 31 25 33 26 34 27 35
REMARK SMILES IDX 88 36 28 37 87 38 29 39 30 40 31 41 81 42 32 43 86 44 80 45
REMARK SMILES IDX 82 46 33 47 85 48 79 49 78 50 34 52 66 53 46 54 65 55 47 56
REMARK SMILES IDX 50 57 64 58 83 59 48 60 49 61 63 63 84 64 51 65 35 66 36 67
REMARK SMILES IDX 44 68 37 69 43 70 45 71 42 72 38 73 39 74 40 75 41 76 67 77
REMARK SMILES IDX 68 78 76 79 69 80 75 81 77 82 74 83 70 84 71 85 72 86 73 87
REMARK SMILES IDX 52 88 53 89 61 90 54 91 60 92 62 93 59 94 55 95 56 96 57 97
REMARK SMILES IDX 58 98
REMARK H PARENT 18 6 11 16 23 32 82 51 50 62
REMARK Flexibility Score: inf
ROOT
ATOM      1  C   UNL A   1      37.188  21.338  24.852  1.00  0.00     0.023 C 
ENDROOT
BRANCH   1   2
ATOM      2  C   UNL A   1      36.035  21.129  25.838  1.00  0.00     0.116 C 
BRANCH   2   3
ATOM      3  N   UNL A   1      34.745  20.956  25.185  1.00  0.00    -0.356 N 
ATOM      4  C   UNL A   1      33.762  21.854  24.897  1.00  0.00     0.224 C 
ATOM      5  O   UNL A   1      32.756  21.413  24.332  1.00  0.00    -0.275 OA
ATOM      6  H   UNL A   1      34.551  20.034  24.901  1.00  0.00     0.163 HD
BRANCH   4   7
ATOM      7  C   UNL A   1      33.853  23.306  25.358  1.00  0.00     0.098 C 
ATOM      8  C   UNL A   1      32.495  24.086  25.096  1.00  0.00     0.099 C 
ATOM      9  C   UNL A   1      32.991  25.382  24.398  1.00  0.00     0.025 C 
ATOM     10  C   UNL A   1      34.871  24.197  24.598  1.00  0.00     0.025 C 
ATOM     11  C   UNL A   1      33.411  24.987  23.003  1.00  0.00    -0.027 C 
ATOM     12  C   UNL A   1      34.374  25.582  25.015  1.00  0.00     0.017 C 
ATOM     13  C   UNL A   1      34.529  24.259  23.126  1.00  0.00    -0.027 C 
BRANCH   8  14
ATOM     14  C   UNL A   1      31.668  24.384  26.334  1.00  0.00     0.228 C 
ATOM     15  N   UNL A   1      30.778  25.429  26.386  1.00  0.00    -0.326 N 
ATOM     16  H   UNL A   1      30.334  25.512  27.261  1.00  0.00     0.169 HD
ATOM     17  O   UNL A   1      31.782  23.715  27.367  1.00  0.00    -0.274 OA
BRANCH  15  18
ATOM     18  C   UNL A   1      30.359  26.411  25.461  1.00  0.00     0.044 A 
ATOM     19  C   UNL A   1      31.965  28.139  26.527  1.00  0.00     0.047 C 
ATOM     20  C   UNL A   1      30.974  27.687  25.483  1.00  0.00    -0.021 A 
ATOM     21  C   UNL A   1      30.655  28.631  24.482  1.00  0.00     0.091 A 
ATOM     22  C   UNL A   1      29.732  28.323  23.478  1.00  0.00     0.269 A 
ATOM     23  C   UNL A   1      29.365  26.175  24.503  1.00  0.00     0.033 A 
ATOM     24  C   UNL A   1      29.063  27.104  23.501  1.00  0.00     0.088 A 
BRANCH  22  25
ATOM     25  N   UNL A   1      29.468  29.286  22.404  1.00  0.00     0.062 N 
ATOM     26  O   UNL A   1      30.396  29.546  21.625  1.00  0.00    -0.258 OA
ATOM     27  O   UNL A   1      28.333  29.778  22.334  1.00  0.00    -0.258 OA
ENDBRANCH  22  25
ENDBRANCH  15  18
ENDBRANCH   8  14
ENDBRANCH   4   7
ENDBRANCH   2   3
ENDBRANCH   1   2
BRANCH   1  28
ATOM     28  C   UNL A   1      38.589  21.364  25.456  1.00  0.00     0.023 C 
BRANCH  28  29
ATOM     29  C   UNL A   1      39.014  22.707  26.040  1.00  0.00     0.116 C 
BRANCH  29  30
ATOM     30  N   UNL A   1      40.451  22.859  26.214  1.00  0.00    -0.352 N 
ATOM     31  C   UNL A   1      41.182  24.007  26.501  1.00  0.00     0.251 C 
ATOM     32  H   UNL A   1      40.980  22.034  26.115  1.00  0.00     0.163 HD
ATOM     33  O   UNL A   1      42.391  23.998  26.546  1.00  0.00    -0.269 OA
BRANCH  31  34
ATOM     34  C   UNL A   1      40.435  25.235  26.886  1.00  0.00     0.039 A 
ATOM     35  C   UNL A   1      40.775  26.421  26.224  1.00  0.00     0.014 A 
ATOM     36  C   UNL A   1      39.603  25.266  28.002  1.00  0.00     0.014 A 
ATOM     37  C   UNL A   1      40.480  27.644  26.819  1.00  0.00     0.010 A 
ATOM     38  C   UNL A   1      39.390  26.474  28.640  1.00  0.00     0.010 A 
ATOM     39  C   UNL A   1      39.886  27.658  28.083  1.00  0.00    -0.014 A 
BRANCH  39  40
ATOM     40  C   UNL A   1      39.921  28.831  28.951  1.00  0.00     0.031 A 
ATOM     41  C   UNL A   1      38.845  29.841  28.938  1.00  0.00     0.074 A 
ATOM     42  C   UNL A   1      40.954  28.997  29.805  1.00  0.00     0.049 A 
ATOM     43  N   UNL A   1      39.022  31.095  29.197  1.00  0.00    -0.248 NA
ATOM     44  C   UNL A   1      37.468  29.510  28.596  1.00  0.00     0.031 C 
ATOM     45  C   UNL A   1      41.066  29.968  30.890  1.00  0.00     0.029 A 
ATOM     46  N   UNL A   1      42.227  28.455  29.699  1.00  0.00    -0.354 N 
ATOM     47  C   UNL A   1      37.778  31.662  29.362  1.00  0.00     0.074 A 
ATOM     48  C   UNL A   1      36.848  30.655  28.897  1.00  0.00     0.031 C 
ATOM     49  C   UNL A   1      42.365  30.138  31.186  1.00  0.00     0.029 A 
ATOM     50  C   UNL A   1      43.138  29.384  30.216  1.00  0.00     0.049 A 
ATOM     51  H   UNL A   1      42.450  27.572  29.325  1.00  0.00     0.167 HD
ATOM     52  C   UNL A   1      37.649  32.849  30.021  1.00  0.00     0.034 A 
ATOM     53  C   UNL A   1      44.143  29.887  29.439  1.00  0.00     0.034 A 
ATOM     54  C   UNL A   1      38.941  33.384  30.452  1.00  0.00     0.049 A 
ATOM     55  C   UNL A   1      44.066  31.388  29.252  1.00  0.00     0.074 A 
ATOM     56  C   UNL A   1      39.587  33.382  31.678  1.00  0.00     0.029 A 
ATOM     57  N   UNL A   1      39.883  33.793  29.513  1.00  0.00    -0.354 N 
ATOM     58  N   UNL A   1      43.014  32.106  29.535  1.00  0.00    -0.248 NA
ATOM     59  C   UNL A   1      45.155  32.190  28.704  1.00  0.00     0.031 C 
ATOM     60  C   UNL A   1      40.943  33.731  31.463  1.00  0.00     0.029 A 
ATOM     61  C   UNL A   1      41.118  33.972  30.111  1.00  0.00     0.049 A 
ATOM     62  H   UNL A   1      39.698  33.933  28.557  1.00  0.00     0.167 HD
ATOM     63  C   UNL A   1      43.245  33.415  29.194  1.00  0.00     0.074 A 
ATOM     64  C   UNL A   1      44.613  33.420  28.707  1.00  0.00     0.031 C 
ATOM     65  C   UNL A   1      42.281  34.376  29.331  1.00  0.00     0.034 A 
BRANCH  52  66
ATOM     66  C   UNL A   1      36.327  33.337  30.578  1.00  0.00     0.023 A 
ATOM     67  C   UNL A   1      35.462  34.096  29.761  1.00  0.00     0.031 A 
ATOM     68  C   UNL A   1      35.884  33.140  31.899  1.00  0.00     0.131 A 
ATOM     69  C   UNL A   1      34.315  34.722  30.282  1.00  0.00     0.055 A 
ATOM     70  C   UNL A   1      34.781  33.815  32.440  1.00  0.00     0.041 A 
ATOM     71  F   UNL A   1      36.476  32.250  32.708  1.00  0.00    -0.206 F 
ATOM     72  C   UNL A   1      33.999  34.630  31.634  1.00  0.00     0.022 A 
BRANCH  69  73
ATOM     73  S   UNL A   1      33.232  35.654  29.163  1.00  0.00     0.124 S 
ATOM     74  O   UNL A   1      34.188  36.426  28.376  1.00  0.00    -0.237 OA
ATOM     75  O   UNL A   1      32.528  34.588  28.459  1.00  0.00    -0.237 OA
ATOM     76  O   UNL A   1      32.403  36.443  30.074  1.00  0.00    -0.744 OA
ENDBRANCH  69  73
ENDBRANCH  52  66
BRANCH  53  77
ATOM     77  C   UNL A   1      44.651  28.913  28.431  1.00  0.00     0.023 A 
ATOM     78  C   UNL A   1      45.476  27.869  28.907  1.00  0.00     0.031 A 
ATOM     79  C   UNL A   1      44.057  28.757  27.173  1.00  0.00     0.131 A 
ATOM     80  C   UNL A   1      45.543  26.650  28.220  1.00  0.00     0.055 A 
ATOM     81  C   UNL A   1      44.189  27.563  26.451  1.00  0.00     0.041 A 
ATOM     82  F   UNL A   1      43.240  29.699  26.680  1.00  0.00    -0.206 F 
ATOM     83  C   UNL A   1      44.895  26.487  26.995  1.00  0.00     0.022 A 
BRANCH  80  84
ATOM     84  S   UNL A   1      46.246  25.199  29.065  1.00  0.00     0.124 S 
ATOM     85  O   UNL A   1      47.158  24.669  28.060  1.00  0.00    -0.237 OA
ATOM     86  O   UNL A   1      46.877  25.771  30.253  1.00  0.00    -0.237 OA
ATOM     87  O   UNL A   1      45.074  24.378  29.358  1.00  0.00    -0.744 OA
ENDBRANCH  80  84
ENDBRANCH  53  77
BRANCH  65  88
ATOM     88  C   UNL A   1      42.384  35.803  28.837  1.00  0.00     0.023 A 
ATOM     89  C   UNL A   1      43.110  36.801  29.504  1.00  0.00     0.031 A 
ATOM     90  C   UNL A   1      41.793  36.191  27.609  1.00  0.00     0.131 A 
ATOM     91  C   UNL A   1      43.153  38.120  29.015  1.00  0.00     0.055 A 
ATOM     92  C   UNL A   1      41.903  37.483  27.084  1.00  0.00     0.041 A 
ATOM     93  F   UNL A   1      41.086  35.329  26.863  1.00  0.00    -0.206 F 
ATOM     94  C   UNL A   1      42.571  38.465  27.798  1.00  0.00     0.022 A 
BRANCH  91  95
ATOM     95  S   UNL A   1      43.930  39.394  30.045  1.00  0.00     0.124 S 
ATOM     96  O   UNL A   1      45.064  39.798  29.216  1.00  0.00    -0.237 OA
ATOM     97  O   UNL A   1      42.864  40.379  30.183  1.00  0.00    -0.237 OA
ATOM     98  O   UNL A   1      44.283  38.681  31.270  1.00  0.00    -0.744 OA
ENDBRANCH  91  95
ENDBRANCH  65  88
ENDBRANCH  39  40
ENDBRANCH  31  34
ENDBRANCH  29  30
ENDBRANCH  28  29
ENDBRANCH   1  28
TORSDOF 17
ENDMDL
