MODEL 1
REMARK VINA RESULT:     -13.5      0.000      0.000
REMARK SMILES CC[C@@]1(CC(=O)NCCCCNC(=O)c2ccc(-c3c4nc(c(-c5cc(S(=O)(=O)[O-])ccc5F)c5ccc([nH]5)c(-c5cc(S(=O)(=O)[O-])ccc5F)c5nc(c(-c6cc(S(=O)(=O)[O-])ccc6F)c6ccc3[nH]6)C=C5)C=C4)cc2)OC[C@H](Cc2ccccc2)c2c1[nH]c1ccccc21
REMARK SMILES IDX 9 1 8 2 7 3 5 4 6 5 4 7 3 8 78 9 89 10 79 11 88 12 90 13
REMARK SMILES IDX 80 14 96 15 91 16 95 18 92 19 94 20 93 21 2 22 1 23 81 24
REMARK SMILES IDX 82 25 83 26 87 27 84 28 86 29 85 30 10 31 11 32 12 33 13 34
REMARK SMILES IDX 14 36 15 37 16 38 77 39 17 40 76 41 18 42 19 43 20 44 70 45
REMARK SMILES IDX 21 46 75 47 69 48 71 49 22 50 74 51 68 52 67 53 23 55 55 56
REMARK SMILES IDX 35 57 54 58 36 59 39 60 53 61 72 62 37 63 38 64 52 66 73 67
REMARK SMILES IDX 40 68 24 69 25 70 33 71 26 72 32 73 34 74 31 75 27 76 28 77
REMARK SMILES IDX 29 78 30 79 56 80 57 81 65 82 58 83 64 84 66 85 63 86 59 87
REMARK SMILES IDX 60 88 61 89 62 90 41 91 42 92 50 93 43 94 49 95 51 96 48 97
REMARK SMILES IDX 44 98 45 99 46 100 47 101
REMARK H PARENT 7 6 90 17 12 35 71 54 39 65
REMARK Flexibility Score: inf
ROOT
ATOM      1  C   UNL A   1      35.167  22.287  24.739  1.00  0.00     0.023 C 
ENDROOT
BRANCH   1   2
ATOM      2  C   UNL A   1      34.779  23.531  25.526  1.00  0.00     0.116 C 
BRANCH   2   3
ATOM      3  N   UNL A   1      33.625  23.262  26.368  1.00  0.00    -0.356 N 
ATOM      4  C   UNL A   1      32.485  23.981  26.578  1.00  0.00     0.223 C 
ATOM      5  O   UNL A   1      31.713  23.558  27.440  1.00  0.00    -0.275 OA
ATOM      6  H   UNL A   1      33.675  22.419  26.874  1.00  0.00     0.163 HD
BRANCH   4   7
ATOM      7  C   UNL A   1      32.130  25.187  25.719  1.00  0.00     0.142 C 
BRANCH   7   8
ATOM      8  C   UNL A   1      31.557  24.946  24.301  1.00  0.00     0.117 C 
ATOM      9  O   UNL A   1      32.655  25.003  23.327  1.00  0.00    -0.368 OA
ATOM     10  C   UNL A   1      30.604  26.007  23.830  1.00  0.00     0.052 A 
ATOM     11  C   UNL A   1      33.281  26.281  23.129  1.00  0.00     0.170 C 
ATOM     12  C   UNL A   1      30.926  27.136  23.094  1.00  0.00    -0.011 A 
ATOM     13  N   UNL A   1      29.248  26.008  24.027  1.00  0.00    -0.356 N 
ATOM     14  C   UNL A   1      32.338  27.419  22.649  1.00  0.00     0.052 C 
ATOM     15  C   UNL A   1      29.723  27.893  22.921  1.00  0.00     0.003 A 
ATOM     16  C   UNL A   1      28.699  27.175  23.546  1.00  0.00     0.046 A 
ATOM     17  H   UNL A   1      28.740  25.279  24.449  1.00  0.00     0.166 HD
ATOM     18  C   UNL A   1      29.407  29.150  22.363  1.00  0.00     0.010 A 
ATOM     19  C   UNL A   1      27.390  27.660  23.664  1.00  0.00     0.026 A 
ATOM     20  C   UNL A   1      28.113  29.669  22.513  1.00  0.00     0.001 A 
ATOM     21  C   UNL A   1      27.123  28.935  23.158  1.00  0.00     0.002 A 
BRANCH   8  22
ATOM     22  C   UNL A   1      31.002  23.510  24.068  1.00  0.00     0.039 C 
ATOM     23  C   UNL A   1      31.767  22.577  23.143  1.00  0.00     0.007 C 
ENDBRANCH   8  22
BRANCH  14  24
ATOM     24  C   UNL A   1      32.851  28.789  23.152  1.00  0.00     0.046 C 
BRANCH  24  25
ATOM     25  C   UNL A   1      32.853  28.997  24.647  1.00  0.00    -0.047 A 
ATOM     26  C   UNL A   1      33.917  28.531  25.426  1.00  0.00     0.004 A 
ATOM     27  C   UNL A   1      31.816  29.710  25.268  1.00  0.00     0.004 A 
ATOM     28  C   UNL A   1      33.945  28.778  26.800  1.00  0.00     0.000 A 
ATOM     29  C   UNL A   1      31.843  29.952  26.641  1.00  0.00     0.000 A 
ATOM     30  C   UNL A   1      32.909  29.488  27.407  1.00  0.00     0.000 A 
ENDBRANCH  24  25
ENDBRANCH  14  24
ENDBRANCH   7   8
ENDBRANCH   4   7
ENDBRANCH   2   3
ENDBRANCH   1   2
BRANCH   1  31
ATOM     31  C   UNL A   1      36.428  21.552  25.175  1.00  0.00     0.023 C 
BRANCH  31  32
ATOM     32  C   UNL A   1      37.640  22.437  25.483  1.00  0.00     0.116 C 
BRANCH  32  33
ATOM     33  N   UNL A   1      38.766  21.742  26.079  1.00  0.00    -0.352 N 
ATOM     34  C   UNL A   1      39.767  22.122  26.935  1.00  0.00     0.251 C 
ATOM     35  H   UNL A   1      38.823  20.797  25.812  1.00  0.00     0.163 HD
ATOM     36  O   UNL A   1      40.399  21.209  27.471  1.00  0.00    -0.269 OA
BRANCH  34  37
ATOM     37  C   UNL A   1      40.163  23.525  27.215  1.00  0.00     0.039 A 
ATOM     38  C   UNL A   1      41.259  23.879  27.998  1.00  0.00     0.014 A 
ATOM     39  C   UNL A   1      39.277  24.535  26.796  1.00  0.00     0.014 A 
ATOM     40  C   UNL A   1      41.424  25.192  28.428  1.00  0.00     0.010 A 
ATOM     41  C   UNL A   1      39.445  25.855  27.213  1.00  0.00     0.010 A 
ATOM     42  C   UNL A   1      40.489  26.171  28.078  1.00  0.00    -0.014 A 
BRANCH  42  43
ATOM     43  C   UNL A   1      40.672  27.505  28.648  1.00  0.00     0.031 A 
ATOM     44  C   UNL A   1      41.862  28.266  28.170  1.00  0.00     0.074 A 
ATOM     45  C   UNL A   1      39.799  28.083  29.496  1.00  0.00     0.049 A 
ATOM     46  N   UNL A   1      42.893  28.674  28.840  1.00  0.00    -0.248 NA
ATOM     47  C   UNL A   1      41.943  28.520  26.726  1.00  0.00     0.031 C 
ATOM     48  C   UNL A   1      38.440  27.650  29.831  1.00  0.00     0.029 A 
ATOM     49  N   UNL A   1      39.925  29.263  30.171  1.00  0.00    -0.354 N 
ATOM     50  C   UNL A   1      43.681  29.391  27.935  1.00  0.00     0.074 A 
ATOM     51  C   UNL A   1      43.117  29.144  26.631  1.00  0.00     0.031 C 
ATOM     52  C   UNL A   1      37.795  28.660  30.457  1.00  0.00     0.029 A 
ATOM     53  C   UNL A   1      38.740  29.735  30.706  1.00  0.00     0.049 A 
ATOM     54  H   UNL A   1      40.783  29.736  30.266  1.00  0.00     0.167 HD
ATOM     55  C   UNL A   1      44.640  30.280  28.328  1.00  0.00     0.034 A 
ATOM     56  C   UNL A   1      38.522  30.958  31.245  1.00  0.00     0.034 A 
ATOM     57  C   UNL A   1      45.004  30.103  29.704  1.00  0.00     0.049 A 
ATOM     58  C   UNL A   1      39.829  31.545  31.619  1.00  0.00     0.074 A 
ATOM     59  C   UNL A   1      45.616  29.109  30.438  1.00  0.00     0.029 A 
ATOM     60  N   UNL A   1      44.458  30.964  30.621  1.00  0.00    -0.354 N 
ATOM     61  N   UNL A   1      40.589  31.107  32.583  1.00  0.00    -0.248 NA
ATOM     62  C   UNL A   1      40.481  32.423  30.662  1.00  0.00     0.031 C 
ATOM     63  C   UNL A   1      45.023  29.181  31.731  1.00  0.00     0.029 A 
ATOM     64  C   UNL A   1      44.096  30.226  31.718  1.00  0.00     0.049 A 
ATOM     65  H   UNL A   1      44.346  31.936  30.512  1.00  0.00     0.167 HD
ATOM     66  C   UNL A   1      41.883  31.291  32.122  1.00  0.00     0.074 A 
ATOM     67  C   UNL A   1      41.755  32.222  31.005  1.00  0.00     0.031 C 
ATOM     68  C   UNL A   1      42.902  30.466  32.507  1.00  0.00     0.034 A 
BRANCH  55  69
ATOM     69  C   UNL A   1      45.035  31.511  27.540  1.00  0.00     0.023 A 
ATOM     70  C   UNL A   1      44.222  32.657  27.467  1.00  0.00     0.031 A 
ATOM     71  C   UNL A   1      46.340  31.656  27.023  1.00  0.00     0.131 A 
ATOM     72  C   UNL A   1      44.676  33.851  26.894  1.00  0.00     0.055 A 
ATOM     73  C   UNL A   1      46.819  32.871  26.512  1.00  0.00     0.041 A 
ATOM     74  F   UNL A   1      47.214  30.637  27.051  1.00  0.00    -0.206 F 
ATOM     75  C   UNL A   1      45.984  33.978  26.442  1.00  0.00     0.022 A 
BRANCH  72  76
ATOM     76  S   UNL A   1      43.552  35.265  26.726  1.00  0.00     0.124 S 
ATOM     77  O   UNL A   1      42.902  34.979  25.453  1.00  0.00    -0.237 OA
ATOM     78  O   UNL A   1      42.715  35.124  27.914  1.00  0.00    -0.237 OA
ATOM     79  O   UNL A   1      44.453  36.416  26.742  1.00  0.00    -0.744 OA
ENDBRANCH  72  76
ENDBRANCH  55  69
BRANCH  56  80
ATOM     80  C   UNL A   1      37.326  31.793  30.993  1.00  0.00     0.023 A 
ATOM     81  C   UNL A   1      36.670  32.405  32.079  1.00  0.00     0.031 A 
ATOM     82  C   UNL A   1      36.656  31.767  29.761  1.00  0.00     0.131 A 
ATOM     83  C   UNL A   1      35.382  32.933  31.929  1.00  0.00     0.055 A 
ATOM     84  C   UNL A   1      35.372  32.305  29.609  1.00  0.00     0.041 A 
ATOM     85  F   UNL A   1      37.209  31.164  28.697  1.00  0.00    -0.206 F 
ATOM     86  C   UNL A   1      34.724  32.881  30.699  1.00  0.00     0.022 A 
BRANCH  83  87
ATOM     87  S   UNL A   1      34.506  33.632  33.353  1.00  0.00     0.124 S 
ATOM     88  O   UNL A   1      33.169  33.061  33.202  1.00  0.00    -0.237 OA
ATOM     89  O   UNL A   1      35.288  33.113  34.469  1.00  0.00    -0.237 OA
ATOM     90  O   UNL A   1      34.588  35.074  33.134  1.00  0.00    -0.744 OA
ENDBRANCH  83  87
ENDBRANCH  56  80
BRANCH  68  91
ATOM     91  C   UNL A   1      42.679  29.514  33.663  1.00  0.00     0.023 A 
ATOM     92  C   UNL A   1      43.342  29.794  34.872  1.00  0.00     0.031 A 
ATOM     93  C   UNL A   1      42.064  28.254  33.535  1.00  0.00     0.131 A 
ATOM     94  C   UNL A   1      43.418  28.822  35.879  1.00  0.00     0.055 A 
ATOM     95  C   UNL A   1      42.078  27.316  34.573  1.00  0.00     0.041 A 
ATOM     96  F   UNL A   1      41.515  27.858  32.381  1.00  0.00    -0.206 F 
ATOM     97  C   UNL A   1      42.773  27.590  35.744  1.00  0.00     0.022 A 
BRANCH  94  98
ATOM     98  S   UNL A   1      44.496  29.069  37.314  1.00  0.00     0.124 S 
ATOM     99  O   UNL A   1      45.824  29.079  36.709  1.00  0.00    -0.237 OA
ATOM    100  O   UNL A   1      44.032  30.358  37.827  1.00  0.00    -0.237 OA
ATOM    101  O   UNL A   1      44.210  27.924  38.174  1.00  0.00    -0.744 OA
ENDBRANCH  94  98
ENDBRANCH  68  91
ENDBRANCH  42  43
ENDBRANCH  34  37
ENDBRANCH  32  33
ENDBRANCH  31  32
ENDBRANCH   1  31
TORSDOF 18
ENDMDL
MODEL 2
REMARK VINA RESULT:     -13.3      3.351      8.772
REMARK SMILES CC[C@@]1(CC(=O)NCCCCNC(=O)c2ccc(-c3c4nc(c(-c5cc(S(=O)(=O)[O-])ccc5F)c5ccc([nH]5)c(-c5cc(S(=O)(=O)[O-])ccc5F)c5nc(c(-c6cc(S(=O)(=O)[O-])ccc6F)c6ccc3[nH]6)C=C5)C=C4)cc2)OC[C@H](Cc2ccccc2)c2c1[nH]c1ccccc21
REMARK SMILES IDX 9 1 8 2 7 3 5 4 6 5 4 7 3 8 78 9 89 10 79 11 88 12 90 13
REMARK SMILES IDX 80 14 96 15 91 16 95 18 92 19 94 20 93 21 2 22 1 23 81 24
REMARK SMILES IDX 82 25 83 26 87 27 84 28 86 29 85 30 10 31 11 32 12 33 13 34
REMARK SMILES IDX 14 36 15 37 16 38 77 39 17 40 76 41 18 42 19 43 20 44 70 45
REMARK SMILES IDX 21 46 75 47 69 48 71 49 22 50 74 51 68 52 67 53 23 55 55 56
REMARK SMILES IDX 35 57 54 58 36 59 39 60 53 61 72 62 37 63 38 64 52 66 73 67
REMARK SMILES IDX 40 68 24 69 25 70 33 71 26 72 32 73 34 74 31 75 27 76 28 77
REMARK SMILES IDX 29 78 30 79 56 80 57 81 65 82 58 83 64 84 66 85 63 86 59 87
REMARK SMILES IDX 60 88 61 89 62 90 41 91 42 92 50 93 43 94 49 95 51 96 48 97
REMARK SMILES IDX 44 98 45 99 46 100 47 101
REMARK H PARENT 7 6 90 17 12 35 71 54 39 65
REMARK Flexibility Score: inf
ROOT
ATOM      1  C   UNL A   1      34.013  28.585  25.562  1.00  0.00     0.023 C 
ENDROOT
BRANCH   1   2
ATOM      2  C   UNL A   1      33.294  27.314  25.132  1.00  0.00     0.116 C 
BRANCH   2   3
ATOM      3  N   UNL A   1      33.401  27.129  23.694  1.00  0.00    -0.356 N 
ATOM      4  C   UNL A   1      33.623  26.007  22.951  1.00  0.00     0.223 C 
ATOM      5  O   UNL A   1      33.773  26.165  21.738  1.00  0.00    -0.275 OA
ATOM      6  H   UNL A   1      33.296  27.954  23.166  1.00  0.00     0.163 HD
BRANCH   4   7
ATOM      7  C   UNL A   1      33.584  24.616  23.571  1.00  0.00     0.142 C 
BRANCH   7   8
ATOM      8  C   UNL A   1      32.206  23.958  23.831  1.00  0.00     0.117 C 
ATOM      9  O   UNL A   1      31.784  24.265  25.204  1.00  0.00    -0.368 OA
ATOM     10  C   UNL A   1      32.220  22.458  23.786  1.00  0.00     0.052 A 
ATOM     11  C   UNL A   1      32.549  23.672  26.266  1.00  0.00     0.170 C 
ATOM     12  C   UNL A   1      32.406  21.602  24.861  1.00  0.00    -0.011 A 
ATOM     13  N   UNL A   1      32.014  21.690  22.671  1.00  0.00    -0.356 N 
ATOM     14  C   UNL A   1      32.604  22.119  26.263  1.00  0.00     0.052 C 
ATOM     15  C   UNL A   1      32.402  20.265  24.350  1.00  0.00     0.003 A 
ATOM     16  C   UNL A   1      32.188  20.357  22.972  1.00  0.00     0.046 A 
ATOM     17  H   UNL A   1      31.774  22.039  21.782  1.00  0.00     0.166 HD
ATOM     18  C   UNL A   1      32.632  18.986  24.901  1.00  0.00     0.010 A 
ATOM     19  C   UNL A   1      32.220  19.247  22.119  1.00  0.00     0.026 A 
ATOM     20  C   UNL A   1      32.710  17.871  24.055  1.00  0.00     0.001 A 
ATOM     21  C   UNL A   1      32.511  18.003  22.684  1.00  0.00     0.002 A 
BRANCH   8  22
ATOM     22  C   UNL A   1      31.038  24.562  22.999  1.00  0.00     0.039 C 
ATOM     23  C   UNL A   1      30.052  25.485  23.696  1.00  0.00     0.007 C 
ENDBRANCH   8  22
BRANCH  14  24
ATOM     24  C   UNL A   1      33.929  21.626  26.891  1.00  0.00     0.046 C 
BRANCH  24  25
ATOM     25  C   UNL A   1      35.192  21.945  26.128  1.00  0.00    -0.047 A 
ATOM     26  C   UNL A   1      35.817  20.965  25.350  1.00  0.00     0.004 A 
ATOM     27  C   UNL A   1      35.724  23.244  26.144  1.00  0.00     0.004 A 
ATOM     28  C   UNL A   1      36.951  21.281  24.598  1.00  0.00     0.000 A 
ATOM     29  C   UNL A   1      36.859  23.556  25.395  1.00  0.00     0.000 A 
ATOM     30  C   UNL A   1      37.471  22.574  24.621  1.00  0.00     0.000 A 
ENDBRANCH  24  25
ENDBRANCH  14  24
ENDBRANCH   7   8
ENDBRANCH   4   7
ENDBRANCH   2   3
ENDBRANCH   1   2
BRANCH   1  31
ATOM     31  C   UNL A   1      33.148  29.769  25.972  1.00  0.00     0.023 C 
BRANCH  31  32
ATOM     32  C   UNL A   1      33.314  30.243  27.420  1.00  0.00     0.116 C 
BRANCH  32  33
ATOM     33  N   UNL A   1      33.827  31.593  27.563  1.00  0.00    -0.352 N 
ATOM     34  C   UNL A   1      35.070  32.112  27.814  1.00  0.00     0.251 C 
ATOM     35  H   UNL A   1      33.134  32.284  27.458  1.00  0.00     0.163 HD
ATOM     36  O   UNL A   1      35.213  33.315  27.588  1.00  0.00    -0.269 OA
BRANCH  34  37
ATOM     37  C   UNL A   1      36.215  31.349  28.374  1.00  0.00     0.039 A 
ATOM     38  C   UNL A   1      37.284  31.939  29.046  1.00  0.00     0.014 A 
ATOM     39  C   UNL A   1      36.289  29.981  28.055  1.00  0.00     0.014 A 
ATOM     40  C   UNL A   1      38.436  31.207  29.317  1.00  0.00     0.010 A 
ATOM     41  C   UNL A   1      37.436  29.240  28.336  1.00  0.00     0.010 A 
ATOM     42  C   UNL A   1      38.532  29.870  28.916  1.00  0.00    -0.014 A 
BRANCH  42  43
ATOM     43  C   UNL A   1      39.809  29.194  29.144  1.00  0.00     0.031 A 
ATOM     44  C   UNL A   1      40.135  28.869  30.563  1.00  0.00     0.074 A 
ATOM     45  C   UNL A   1      40.634  28.798  28.156  1.00  0.00     0.049 A 
ATOM     46  N   UNL A   1      41.109  29.306  31.297  1.00  0.00    -0.248 NA
ATOM     47  C   UNL A   1      39.184  28.007  31.275  1.00  0.00     0.031 C 
ATOM     48  C   UNL A   1      40.358  28.732  26.718  1.00  0.00     0.029 A 
ATOM     49  N   UNL A   1      41.887  28.268  28.256  1.00  0.00    -0.354 N 
ATOM     50  C   UNL A   1      40.996  28.641  32.521  1.00  0.00     0.074 A 
ATOM     51  C   UNL A   1      39.722  27.966  32.494  1.00  0.00     0.031 C 
ATOM     52  C   UNL A   1      41.315  27.989  26.117  1.00  0.00     0.029 A 
ATOM     53  C   UNL A   1      42.343  27.673  27.093  1.00  0.00     0.049 A 
ATOM     54  H   UNL A   1      42.419  28.305  29.084  1.00  0.00     0.167 HD
ATOM     55  C   UNL A   1      42.028  28.543  33.410  1.00  0.00     0.034 A 
ATOM     56  C   UNL A   1      43.447  26.902  26.954  1.00  0.00     0.034 A 
ATOM     57  C   UNL A   1      43.064  29.498  33.137  1.00  0.00     0.049 A 
ATOM     58  C   UNL A   1      44.355  27.171  28.093  1.00  0.00     0.074 A 
ATOM     59  C   UNL A   1      43.164  30.873  33.163  1.00  0.00     0.029 A 
ATOM     60  N   UNL A   1      44.178  29.052  32.473  1.00  0.00    -0.354 N 
ATOM     61  N   UNL A   1      44.995  28.290  28.279  1.00  0.00    -0.248 NA
ATOM     62  C   UNL A   1      44.270  26.301  29.254  1.00  0.00     0.031 C 
ATOM     63  C   UNL A   1      44.089  31.198  32.130  1.00  0.00     0.029 A 
ATOM     64  C   UNL A   1      44.514  30.002  31.545  1.00  0.00     0.049 A 
ATOM     65  H   UNL A   1      44.650  28.204  32.634  1.00  0.00     0.167 HD
ATOM     66  C   UNL A   1      45.012  28.461  29.655  1.00  0.00     0.074 A 
ATOM     67  C   UNL A   1      44.675  27.150  30.200  1.00  0.00     0.031 C 
ATOM     68  C   UNL A   1      45.026  29.705  30.220  1.00  0.00     0.034 A 
BRANCH  55  69
ATOM     69  C   UNL A   1      42.232  27.377  34.353  1.00  0.00     0.023 A 
ATOM     70  C   UNL A   1      43.018  26.260  34.017  1.00  0.00     0.031 A 
ATOM     71  C   UNL A   1      41.829  27.453  35.704  1.00  0.00     0.131 A 
ATOM     72  C   UNL A   1      43.351  25.278  34.959  1.00  0.00     0.055 A 
ATOM     73  C   UNL A   1      42.220  26.508  36.663  1.00  0.00     0.041 A 
ATOM     74  F   UNL A   1      41.088  28.481  36.149  1.00  0.00    -0.206 F 
ATOM     75  C   UNL A   1      42.983  25.410  36.292  1.00  0.00     0.022 A 
BRANCH  72  76
ATOM     76  S   UNL A   1      44.275  23.803  34.448  1.00  0.00     0.124 S 
ATOM     77  O   UNL A   1      44.175  22.964  35.636  1.00  0.00    -0.237 OA
ATOM     78  O   UNL A   1      43.509  23.357  33.288  1.00  0.00    -0.237 OA
ATOM     79  O   UNL A   1      45.605  24.327  34.142  1.00  0.00    -0.744 OA
ENDBRANCH  72  76
ENDBRANCH  55  69
BRANCH  56  80
ATOM     80  C   UNL A   1      43.506  25.640  26.181  1.00  0.00     0.023 A 
ATOM     81  C   UNL A   1      42.652  24.576  26.531  1.00  0.00     0.031 A 
ATOM     82  C   UNL A   1      44.568  25.359  25.308  1.00  0.00     0.131 A 
ATOM     83  C   UNL A   1      42.885  23.284  26.046  1.00  0.00     0.055 A 
ATOM     84  C   UNL A   1      44.793  24.069  24.814  1.00  0.00     0.041 A 
ATOM     85  F   UNL A   1      45.440  26.320  24.967  1.00  0.00    -0.206 F 
ATOM     86  C   UNL A   1      43.957  23.021  25.192  1.00  0.00     0.022 A 
BRANCH  83  87
ATOM     87  S   UNL A   1      41.840  21.902  26.577  1.00  0.00     0.124 S 
ATOM     88  O   UNL A   1      42.255  20.836  25.668  1.00  0.00    -0.237 OA
ATOM     89  O   UNL A   1      42.247  21.736  27.967  1.00  0.00    -0.237 OA
ATOM     90  O   UNL A   1      40.482  22.397  26.366  1.00  0.00    -0.744 OA
ENDBRANCH  83  87
ENDBRANCH  56  80
BRANCH  68  91
ATOM     91  C   UNL A   1      45.308  30.906  29.343  1.00  0.00     0.023 A 
ATOM     92  C   UNL A   1      46.589  31.483  29.423  1.00  0.00     0.031 A 
ATOM     93  C   UNL A   1      44.315  31.625  28.651  1.00  0.00     0.131 A 
ATOM     94  C   UNL A   1      46.832  32.749  28.873  1.00  0.00     0.055 A 
ATOM     95  C   UNL A   1      44.582  32.854  28.038  1.00  0.00     0.041 A 
ATOM     96  F   UNL A   1      43.042  31.211  28.626  1.00  0.00    -0.206 F 
ATOM     97  C   UNL A   1      45.840  33.430  28.163  1.00  0.00     0.022 A 
BRANCH  94  98
ATOM     98  S   UNL A   1      48.388  33.614  29.209  1.00  0.00     0.124 S 
ATOM     99  O   UNL A   1      48.855  33.947  27.866  1.00  0.00    -0.237 OA
ATOM    100  O   UNL A   1      47.940  34.748  30.016  1.00  0.00    -0.237 OA
ATOM    101  O   UNL A   1      49.194  32.629  29.924  1.00  0.00    -0.744 OA
ENDBRANCH  94  98
ENDBRANCH  68  91
ENDBRANCH  42  43
ENDBRANCH  34  37
ENDBRANCH  32  33
ENDBRANCH  31  32
ENDBRANCH   1  31
TORSDOF 18
ENDMDL
MODEL 3
REMARK VINA RESULT:     -13.2      1.758      2.959
REMARK SMILES CC[C@@]1(CC(=O)NCCCCNC(=O)c2ccc(-c3c4nc(c(-c5cc(S(=O)(=O)[O-])ccc5F)c5ccc([nH]5)c(-c5cc(S(=O)(=O)[O-])ccc5F)c5nc(c(-c6cc(S(=O)(=O)[O-])ccc6F)c6ccc3[nH]6)C=C5)C=C4)cc2)OC[C@H](Cc2ccccc2)c2c1[nH]c1ccccc21
REMARK SMILES IDX 9 1 8 2 7 3 5 4 6 5 4 7 3 8 78 9 89 10 79 11 88 12 90 13
REMARK SMILES IDX 80 14 96 15 91 16 95 18 92 19 94 20 93 21 2 22 1 23 81 24
REMARK SMILES IDX 82 25 83 26 87 27 84 28 86 29 85 30 10 31 11 32 12 33 13 34
REMARK SMILES IDX 14 36 15 37 16 38 77 39 17 40 76 41 18 42 19 43 20 44 70 45
REMARK SMILES IDX 21 46 75 47 69 48 71 49 22 50 74 51 68 52 67 53 23 55 55 56
REMARK SMILES IDX 35 57 54 58 36 59 39 60 53 61 72 62 37 63 38 64 52 66 73 67
REMARK SMILES IDX 40 68 24 69 25 70 33 71 26 72 32 73 34 74 31 75 27 76 28 77
REMARK SMILES IDX 29 78 30 79 56 80 57 81 65 82 58 83 64 84 66 85 63 86 59 87
REMARK SMILES IDX 60 88 61 89 62 90 41 91 42 92 50 93 43 94 49 95 51 96 48 97
REMARK SMILES IDX 44 98 45 99 46 100 47 101
REMARK H PARENT 7 6 90 17 12 35 71 54 39 65
REMARK Flexibility Score: inf
ROOT
ATOM      1  C   UNL A   1      36.275  21.845  24.228  1.00  0.00     0.023 C 
ENDROOT
BRANCH   1   2
ATOM      2  C   UNL A   1      34.900  21.764  24.878  1.00  0.00     0.116 C 
BRANCH   2   3
ATOM      3  N   UNL A   1      33.864  21.633  23.866  1.00  0.00    -0.356 N 
ATOM      4  C   UNL A   1      32.899  22.505  23.457  1.00  0.00     0.223 C 
ATOM      5  O   UNL A   1      32.077  22.082  22.643  1.00  0.00    -0.275 OA
ATOM      6  H   UNL A   1      33.857  20.767  23.398  1.00  0.00     0.163 HD
BRANCH   4   7
ATOM      7  C   UNL A   1      32.897  23.962  23.902  1.00  0.00     0.142 C 
BRANCH   7   8
ATOM      8  C   UNL A   1      31.984  24.376  25.082  1.00  0.00     0.117 C 
ATOM      9  O   UNL A   1      30.582  24.270  24.660  1.00  0.00    -0.368 OA
ATOM     10  C   UNL A   1      32.127  25.811  25.499  1.00  0.00     0.052 A 
ATOM     11  C   UNL A   1      30.134  25.200  23.660  1.00  0.00     0.170 C 
ATOM     12  C   UNL A   1      31.376  26.882  25.040  1.00  0.00    -0.011 A 
ATOM     13  N   UNL A   1      33.007  26.288  26.435  1.00  0.00    -0.356 N 
ATOM     14  C   UNL A   1      30.266  26.701  24.036  1.00  0.00     0.052 C 
ATOM     15  C   UNL A   1      31.891  28.065  25.661  1.00  0.00     0.003 A 
ATOM     16  C   UNL A   1      32.933  27.662  26.501  1.00  0.00     0.046 A 
ATOM     17  H   UNL A   1      33.605  25.730  26.982  1.00  0.00     0.166 HD
ATOM     18  C   UNL A   1      31.632  29.447  25.542  1.00  0.00     0.010 A 
ATOM     19  C   UNL A   1      33.740  28.566  27.202  1.00  0.00     0.026 A 
ATOM     20  C   UNL A   1      32.460  30.367  26.202  1.00  0.00     0.001 A 
ATOM     21  C   UNL A   1      33.500  29.929  27.015  1.00  0.00     0.002 A 
BRANCH   8  22
ATOM     22  C   UNL A   1      32.023  23.403  26.297  1.00  0.00     0.039 C 
ATOM     23  C   UNL A   1      30.717  22.796  26.782  1.00  0.00     0.007 C 
ENDBRANCH   8  22
BRANCH  14  24
ATOM     24  C   UNL A   1      30.476  27.558  22.765  1.00  0.00     0.046 C 
BRANCH  24  25
ATOM     25  C   UNL A   1      29.530  28.719  22.575  1.00  0.00    -0.047 A 
ATOM     26  C   UNL A   1      28.230  28.665  23.088  1.00  0.00     0.004 A 
ATOM     27  C   UNL A   1      29.960  29.889  21.930  1.00  0.00     0.004 A 
ATOM     28  C   UNL A   1      27.378  29.764  22.963  1.00  0.00     0.000 A 
ATOM     29  C   UNL A   1      29.106  30.984  21.802  1.00  0.00     0.000 A 
ATOM     30  C   UNL A   1      27.815  30.922  22.321  1.00  0.00     0.000 A 
ENDBRANCH  24  25
ENDBRANCH  14  24
ENDBRANCH   7   8
ENDBRANCH   4   7
ENDBRANCH   2   3
ENDBRANCH   1   2
BRANCH   1  31
ATOM     31  C   UNL A   1      37.440  21.221  24.984  1.00  0.00     0.023 C 
BRANCH  31  32
ATOM     32  C   UNL A   1      38.192  22.157  25.935  1.00  0.00     0.116 C 
BRANCH  32  33
ATOM     33  N   UNL A   1      39.632  22.178  25.757  1.00  0.00    -0.352 N 
ATOM     34  C   UNL A   1      40.652  22.856  26.371  1.00  0.00     0.251 C 
ATOM     35  H   UNL A   1      39.943  21.576  25.044  1.00  0.00     0.163 HD
ATOM     36  O   UNL A   1      41.790  22.426  26.170  1.00  0.00    -0.269 OA
BRANCH  34  37
ATOM     37  C   UNL A   1      40.486  24.076  27.202  1.00  0.00     0.039 A 
ATOM     38  C   UNL A   1      39.430  24.973  27.059  1.00  0.00     0.014 A 
ATOM     39  C   UNL A   1      41.548  24.413  28.061  1.00  0.00     0.014 A 
ATOM     40  C   UNL A   1      39.470  26.214  27.687  1.00  0.00     0.010 A 
ATOM     41  C   UNL A   1      41.586  25.649  28.704  1.00  0.00     0.010 A 
ATOM     42  C   UNL A   1      40.573  26.573  28.469  1.00  0.00    -0.014 A 
BRANCH  42  43
ATOM     43  C   UNL A   1      40.592  27.930  29.015  1.00  0.00     0.031 A 
ATOM     44  C   UNL A   1      41.633  28.844  28.464  1.00  0.00     0.074 A 
ATOM     45  C   UNL A   1      39.691  28.393  29.903  1.00  0.00     0.049 A 
ATOM     46  N   UNL A   1      42.629  29.408  29.072  1.00  0.00    -0.248 NA
ATOM     47  C   UNL A   1      41.601  29.081  27.016  1.00  0.00     0.031 C 
ATOM     48  C   UNL A   1      38.428  27.776  30.317  1.00  0.00     0.029 A 
ATOM     49  N   UNL A   1      39.681  29.590  30.558  1.00  0.00    -0.354 N 
ATOM     50  C   UNL A   1      43.256  30.214  28.118  1.00  0.00     0.074 A 
ATOM     51  C   UNL A   1      42.666  29.865  26.850  1.00  0.00     0.031 C 
ATOM     52  C   UNL A   1      37.678  28.694  30.967  1.00  0.00     0.029 A 
ATOM     53  C   UNL A   1      38.471  29.898  31.153  1.00  0.00     0.049 A 
ATOM     54  H   UNL A   1      40.466  30.183  30.601  1.00  0.00     0.167 HD
ATOM     55  C   UNL A   1      44.097  31.237  28.449  1.00  0.00     0.034 A 
ATOM     56  C   UNL A   1      38.108  31.087  31.690  1.00  0.00     0.034 A 
ATOM     57  C   UNL A   1      44.555  31.139  29.805  1.00  0.00     0.049 A 
ATOM     58  C   UNL A   1      39.335  31.862  31.986  1.00  0.00     0.074 A 
ATOM     59  C   UNL A   1      45.342  30.256  30.514  1.00  0.00     0.029 A 
ATOM     60  N   UNL A   1      43.940  31.929  30.742  1.00  0.00    -0.354 N 
ATOM     61  N   UNL A   1      40.200  31.554  32.911  1.00  0.00    -0.248 NA
ATOM     62  C   UNL A   1      39.803  32.806  30.985  1.00  0.00     0.031 C 
ATOM     63  C   UNL A   1      44.814  30.266  31.837  1.00  0.00     0.029 A 
ATOM     64  C   UNL A   1      43.747  31.168  31.864  1.00  0.00     0.049 A 
ATOM     65  H   UNL A   1      43.684  32.873  30.628  1.00  0.00     0.167 HD
ATOM     66  C   UNL A   1      41.428  31.913  32.378  1.00  0.00     0.074 A 
ATOM     67  C   UNL A   1      41.109  32.795  31.260  1.00  0.00     0.031 C 
ATOM     68  C   UNL A   1      42.574  31.249  32.715  1.00  0.00     0.034 A 
BRANCH  55  69
ATOM     69  C   UNL A   1      44.269  32.497  27.627  1.00  0.00     0.023 A 
ATOM     70  C   UNL A   1      43.661  33.717  27.975  1.00  0.00     0.031 A 
ATOM     71  C   UNL A   1      45.232  32.568  26.597  1.00  0.00     0.131 A 
ATOM     72  C   UNL A   1      43.973  34.913  27.318  1.00  0.00     0.055 A 
ATOM     73  C   UNL A   1      45.596  33.777  25.987  1.00  0.00     0.041 A 
ATOM     74  F   UNL A   1      45.892  31.473  26.188  1.00  0.00    -0.206 F 
ATOM     75  C   UNL A   1      44.963  34.960  26.344  1.00  0.00     0.022 A 
BRANCH  72  76
ATOM     76  S   UNL A   1      43.080  36.438  27.730  1.00  0.00     0.124 S 
ATOM     77  O   UNL A   1      42.149  35.971  28.750  1.00  0.00    -0.237 OA
ATOM     78  O   UNL A   1      44.161  37.299  28.202  1.00  0.00    -0.237 OA
ATOM     79  O   UNL A   1      42.487  36.837  26.455  1.00  0.00    -0.744 OA
ENDBRANCH  72  76
ENDBRANCH  55  69
BRANCH  56  80
ATOM     80  C   UNL A   1      36.793  31.738  31.495  1.00  0.00     0.023 A 
ATOM     81  C   UNL A   1      36.401  32.125  30.198  1.00  0.00     0.031 A 
ATOM     82  C   UNL A   1      36.053  32.243  32.574  1.00  0.00     0.131 A 
ATOM     83  C   UNL A   1      35.332  33.009  30.010  1.00  0.00     0.055 A 
ATOM     84  C   UNL A   1      34.976  33.117  32.384  1.00  0.00     0.041 A 
ATOM     85  F   UNL A   1      36.399  31.944  33.836  1.00  0.00    -0.206 F 
ATOM     86  C   UNL A   1      34.618  33.513  31.098  1.00  0.00     0.022 A 
BRANCH  83  87
ATOM     87  S   UNL A   1      34.894  33.577  28.345  1.00  0.00     0.124 S 
ATOM     88  O   UNL A   1      35.864  32.869  27.514  1.00  0.00    -0.237 OA
ATOM     89  O   UNL A   1      33.514  33.120  28.227  1.00  0.00    -0.237 OA
ATOM     90  O   UNL A   1      35.082  35.024  28.415  1.00  0.00    -0.744 OA
ENDBRANCH  83  87
ENDBRANCH  56  80
BRANCH  68  91
ATOM     91  C   UNL A   1      42.552  30.296  33.891  1.00  0.00     0.023 A 
ATOM     92  C   UNL A   1      43.057  30.765  35.117  1.00  0.00     0.031 A 
ATOM     93  C   UNL A   1      42.294  28.916  33.779  1.00  0.00     0.131 A 
ATOM     94  C   UNL A   1      43.336  29.868  36.157  1.00  0.00     0.055 A 
ATOM     95  C   UNL A   1      42.503  28.036  34.846  1.00  0.00     0.041 A 
ATOM     96  F   UNL A   1      41.926  28.365  32.616  1.00  0.00    -0.206 F 
ATOM     97  C   UNL A   1      43.043  28.507  36.036  1.00  0.00     0.022 A 
BRANCH  94  98
ATOM     98  S   UNL A   1      44.239  30.420  37.628  1.00  0.00     0.124 S 
ATOM     99  O   UNL A   1      45.371  31.136  37.048  1.00  0.00    -0.237 OA
ATOM    100  O   UNL A   1      43.247  31.257  38.301  1.00  0.00    -0.237 OA
ATOM    101  O   UNL A   1      44.574  29.181  38.324  1.00  0.00    -0.744 OA
ENDBRANCH  94  98
ENDBRANCH  68  91
ENDBRANCH  42  43
ENDBRANCH  34  37
ENDBRANCH  32  33
ENDBRANCH  31  32
ENDBRANCH   1  31
TORSDOF 18
ENDMDL
