MODEL 1
REMARK VINA RESULT:     -14.0      0.000      0.000
REMARK SMILES O=C(NCCCCNC(=O)c1ccn(-c2cc(-c3ccncc3)nc(-c3ccccc3F)n2)n1)c1ccc(-c2c3nc(c(-c4cc(S(=O)(=O)[O-])ccc4F)c4ccc([nH]4)c(-c4cc(S(=O)(=O)[O-])ccc4F)c4nc(c(-c5cc(S(=O)(=O)[O-])ccc5F)c5ccc2[nH]5)C=C4)C=C3)cc1
REMARK SMILES IDX 5 1 4 2 3 3 1 4 2 5 35 7 36 8 97 9 37 10 96 11 38 12 39 13
REMARK SMILES IDX 40 14 90 15 41 16 95 17 89 18 91 19 42 20 94 21 88 22 87 23
REMARK SMILES IDX 43 25 75 26 55 27 74 28 56 29 59 30 73 31 92 32 57 33 58 34
REMARK SMILES IDX 72 36 93 37 60 38 44 39 45 40 53 41 46 42 52 43 54 44 51 45
REMARK SMILES IDX 47 46 48 47 49 48 50 49 76 50 77 51 85 52 78 53 84 54 86 55
REMARK SMILES IDX 83 56 79 57 80 58 81 59 82 60 61 61 62 62 70 63 63 64 69 65
REMARK SMILES IDX 71 66 68 67 64 68 65 69 66 70 67 71 6 72 7 73 8 74 9 75
REMARK SMILES IDX 10 77 11 78 12 79 34 80 13 81 14 82 15 83 16 84 33 85 17 86
REMARK SMILES IDX 25 87 24 88 18 89 19 90 23 91 20 92 22 93 21 94 26 95 27 96
REMARK SMILES IDX 31 97 28 98 30 99 32 100 29 101
REMARK H PARENT 3 6 91 24 59 35 8 76
REMARK Flexibility Score: inf
ROOT
ATOM      1  C   UNL A   1      33.714  28.905  25.755  1.00  0.00     0.023 C 
ENDROOT
BRANCH   1   2
ATOM      2  C   UNL A   1      34.708  28.601  26.876  1.00  0.00     0.116 C 
BRANCH   2   3
ATOM      3  N   UNL A   1      34.804  29.617  27.903  1.00  0.00    -0.352 N 
ATOM      4  O   UNL A   1      35.587  31.064  29.385  1.00  0.00    -0.269 OA
ATOM      5  C   UNL A   1      35.835  30.091  28.669  1.00  0.00     0.251 C 
ATOM      6  H   UNL A   1      33.946  30.061  28.091  1.00  0.00     0.163 HD
BRANCH   5   7
ATOM      7  C   UNL A   1      37.183  29.465  28.736  1.00  0.00     0.039 A 
ATOM      8  C   UNL A   1      37.648  28.665  29.782  1.00  0.00     0.014 A 
ATOM      9  C   UNL A   1      38.043  29.735  27.660  1.00  0.00     0.014 A 
ATOM     10  C   UNL A   1      38.976  28.256  29.827  1.00  0.00     0.010 A 
ATOM     11  C   UNL A   1      39.360  29.288  27.676  1.00  0.00     0.010 A 
ATOM     12  C   UNL A   1      39.839  28.591  28.788  1.00  0.00    -0.014 A 
BRANCH  12  13
ATOM     13  C   UNL A   1      41.221  28.118  28.856  1.00  0.00     0.031 A 
ATOM     14  C   UNL A   1      41.521  26.816  28.176  1.00  0.00     0.074 A 
ATOM     15  C   UNL A   1      42.206  28.911  29.323  1.00  0.00     0.049 A 
ATOM     16  N   UNL A   1      42.235  25.815  28.591  1.00  0.00    -0.248 NA
ATOM     17  C   UNL A   1      40.902  26.590  26.857  1.00  0.00     0.031 C 
ATOM     18  C   UNL A   1      42.096  30.313  29.738  1.00  0.00     0.029 A 
ATOM     19  N   UNL A   1      43.548  28.681  29.361  1.00  0.00    -0.354 N 
ATOM     20  C   UNL A   1      42.290  24.905  27.533  1.00  0.00     0.074 A 
ATOM     21  C   UNL A   1      41.380  25.391  26.528  1.00  0.00     0.031 C 
ATOM     22  C   UNL A   1      43.325  30.873  29.719  1.00  0.00     0.029 A 
ATOM     23  C   UNL A   1      44.304  29.846  29.404  1.00  0.00     0.049 A 
ATOM     24  H   UNL A   1      43.944  27.779  29.357  1.00  0.00     0.167 HD
ATOM     25  C   UNL A   1      43.176  23.872  27.468  1.00  0.00     0.034 A 
ATOM     26  C   UNL A   1      45.615  29.977  29.072  1.00  0.00     0.034 A 
ATOM     27  C   UNL A   1      43.723  23.530  28.748  1.00  0.00     0.049 A 
ATOM     28  C   UNL A   1      46.225  28.627  29.148  1.00  0.00     0.074 A 
ATOM     29  C   UNL A   1      43.186  23.069  29.935  1.00  0.00     0.029 A 
ATOM     30  N   UNL A   1      44.989  23.959  29.066  1.00  0.00    -0.354 N 
ATOM     31  N   UNL A   1      46.336  27.936  30.249  1.00  0.00    -0.248 NA
ATOM     32  C   UNL A   1      46.329  27.857  27.918  1.00  0.00     0.031 C 
ATOM     33  C   UNL A   1      43.935  23.725  30.955  1.00  0.00     0.029 A 
ATOM     34  C   UNL A   1      44.903  24.506  30.324  1.00  0.00     0.049 A 
ATOM     35  H   UNL A   1      45.794  23.889  28.506  1.00  0.00     0.167 HD
ATOM     36  C   UNL A   1      46.114  26.621  29.872  1.00  0.00     0.074 A 
ATOM     37  C   UNL A   1      46.213  26.623  28.415  1.00  0.00     0.031 C 
ATOM     38  C   UNL A   1      45.604  25.702  30.744  1.00  0.00     0.034 A 
BRANCH  25  39
ATOM     39  C   UNL A   1      43.703  23.302  26.177  1.00  0.00     0.023 A 
ATOM     40  C   UNL A   1      43.572  21.927  25.907  1.00  0.00     0.031 A 
ATOM     41  C   UNL A   1      44.547  24.033  25.309  1.00  0.00     0.131 A 
ATOM     42  C   UNL A   1      44.259  21.342  24.823  1.00  0.00     0.055 A 
ATOM     43  C   UNL A   1      45.179  23.461  24.204  1.00  0.00     0.041 A 
ATOM     44  F   UNL A   1      44.861  25.316  25.547  1.00  0.00    -0.206 F 
ATOM     45  C   UNL A   1      45.048  22.104  23.962  1.00  0.00     0.022 A 
BRANCH  42  46
ATOM     46  S   UNL A   1      44.215  19.539  24.621  1.00  0.00     0.124 S 
ATOM     47  O   UNL A   1      42.846  19.222  25.016  1.00  0.00    -0.237 OA
ATOM     48  O   UNL A   1      44.528  19.384  23.204  1.00  0.00    -0.237 OA
ATOM     49  O   UNL A   1      45.250  19.067  25.539  1.00  0.00    -0.744 OA
ENDBRANCH  42  46
ENDBRANCH  25  39
BRANCH  26  50
ATOM     50  C   UNL A   1      46.231  31.121  28.345  1.00  0.00     0.023 A 
ATOM     51  C   UNL A   1      45.556  31.788  27.304  1.00  0.00     0.031 A 
ATOM     52  C   UNL A   1      47.416  31.729  28.821  1.00  0.00     0.131 A 
ATOM     53  C   UNL A   1      46.074  32.993  26.778  1.00  0.00     0.055 A 
ATOM     54  C   UNL A   1      47.936  32.907  28.283  1.00  0.00     0.041 A 
ATOM     55  F   UNL A   1      48.069  31.249  29.892  1.00  0.00    -0.206 F 
ATOM     56  C   UNL A   1      47.260  33.551  27.261  1.00  0.00     0.022 A 
BRANCH  53  57
ATOM     57  S   UNL A   1      45.132  33.932  25.536  1.00  0.00     0.124 S 
ATOM     58  O   UNL A   1      44.409  32.875  24.840  1.00  0.00    -0.237 OA
ATOM     59  O   UNL A   1      44.332  34.833  26.356  1.00  0.00    -0.237 OA
ATOM     60  O   UNL A   1      46.176  34.590  24.749  1.00  0.00    -0.744 OA
ENDBRANCH  53  57
ENDBRANCH  26  50
BRANCH  38  61
ATOM     61  C   UNL A   1      45.518  26.059  32.212  1.00  0.00     0.023 A 
ATOM     62  C   UNL A   1      44.356  26.558  32.840  1.00  0.00     0.031 A 
ATOM     63  C   UNL A   1      46.612  25.725  33.028  1.00  0.00     0.131 A 
ATOM     64  C   UNL A   1      44.321  26.710  34.240  1.00  0.00     0.055 A 
ATOM     65  C   UNL A   1      46.569  25.863  34.416  1.00  0.00     0.041 A 
ATOM     66  F   UNL A   1      47.730  25.209  32.491  1.00  0.00    -0.206 F 
ATOM     67  C   UNL A   1      45.423  26.359  35.027  1.00  0.00     0.022 A 
BRANCH  64  68
ATOM     68  S   UNL A   1      42.823  27.342  35.063  1.00  0.00     0.124 S 
ATOM     69  O   UNL A   1      41.824  26.320  34.774  1.00  0.00    -0.237 OA
ATOM     70  O   UNL A   1      43.245  27.453  36.456  1.00  0.00    -0.237 OA
ATOM     71  O   UNL A   1      42.585  28.627  34.400  1.00  0.00    -0.744 OA
ENDBRANCH  64  68
ENDBRANCH  38  61
ENDBRANCH  12  13
ENDBRANCH   5   7
ENDBRANCH   2   3
ENDBRANCH   1   2
BRANCH   1  72
ATOM     72  C   UNL A   1      33.466  27.755  24.775  1.00  0.00     0.023 C 
BRANCH  72  73
ATOM     73  C   UNL A   1      32.005  27.508  24.424  1.00  0.00     0.116 C 
BRANCH  73  74
ATOM     74  N   UNL A   1      31.812  27.360  22.993  1.00  0.00    -0.351 N 
ATOM     75  C   UNL A   1      31.739  26.199  22.268  1.00  0.00     0.271 C 
ATOM     76  H   UNL A   1      31.722  28.195  22.480  1.00  0.00     0.163 HD
ATOM     77  O   UNL A   1      31.629  26.252  21.043  1.00  0.00    -0.267 OA
BRANCH  75  78
ATOM     78  C   UNL A   1      31.719  24.938  23.004  1.00  0.00     0.150 A 
ATOM     79  C   UNL A   1      30.570  24.182  23.346  1.00  0.00     0.056 A 
ATOM     80  N   UNL A   1      32.844  24.347  23.446  1.00  0.00    -0.161 NA
ATOM     81  C   UNL A   1      31.060  23.026  23.893  1.00  0.00     0.118 A 
ATOM     82  N   UNL A   1      32.433  23.136  23.892  1.00  0.00    -0.222 N 
BRANCH  82  83
ATOM     83  C   UNL A   1      33.347  22.111  24.245  1.00  0.00     0.158 A 
ATOM     84  C   UNL A   1      32.903  20.809  24.342  1.00  0.00     0.078 A 
ATOM     85  N   UNL A   1      34.623  22.479  24.490  1.00  0.00    -0.209 NA
ATOM     86  C   UNL A   1      33.862  19.871  24.673  1.00  0.00     0.077 A 
ATOM     87  C   UNL A   1      35.455  21.509  24.891  1.00  0.00     0.165 A 
ATOM     88  N   UNL A   1      35.131  20.210  24.993  1.00  0.00    -0.228 NA
BRANCH  86  89
ATOM     89  C   UNL A   1      33.580  18.432  24.651  1.00  0.00     0.003 A 
ATOM     90  C   UNL A   1      34.081  17.617  23.626  1.00  0.00     0.030 A 
ATOM     91  C   UNL A   1      32.834  17.823  25.665  1.00  0.00     0.030 A 
ATOM     92  C   UNL A   1      33.819  16.257  23.660  1.00  0.00     0.111 A 
ATOM     93  C   UNL A   1      32.618  16.456  25.607  1.00  0.00     0.111 A 
ATOM     94  N   UNL A   1      33.098  15.658  24.630  1.00  0.00    -0.265 NA
ENDBRANCH  86  89
BRANCH  87  95
ATOM     95  C   UNL A   1      36.758  21.942  25.376  1.00  0.00     0.055 A 
ATOM     96  C   UNL A   1      37.865  21.073  25.316  1.00  0.00     0.015 A 
ATOM     97  C   UNL A   1      36.948  23.204  25.940  1.00  0.00     0.134 A 
ATOM     98  C   UNL A   1      39.116  21.463  25.801  1.00  0.00     0.001 A 
ATOM     99  C   UNL A   1      38.191  23.598  26.435  1.00  0.00     0.040 A 
ATOM    100  F   UNL A   1      35.920  24.060  26.055  1.00  0.00    -0.206 F 
ATOM    101  C   UNL A   1      39.278  22.727  26.363  1.00  0.00     0.003 A 
ENDBRANCH  87  95
ENDBRANCH  82  83
ENDBRANCH  75  78
ENDBRANCH  73  74
ENDBRANCH  72  73
ENDBRANCH   1  72
TORSDOF 17
ENDMDL
MODEL 2
REMARK VINA RESULT:     -13.7      4.159     10.425
REMARK SMILES O=C(NCCCCNC(=O)c1ccn(-c2cc(-c3ccncc3)nc(-c3ccccc3F)n2)n1)c1ccc(-c2c3nc(c(-c4cc(S(=O)(=O)[O-])ccc4F)c4ccc([nH]4)c(-c4cc(S(=O)(=O)[O-])ccc4F)c4nc(c(-c5cc(S(=O)(=O)[O-])ccc5F)c5ccc2[nH]5)C=C4)C=C3)cc1
REMARK SMILES IDX 5 1 4 2 3 3 1 4 2 5 35 7 36 8 97 9 37 10 96 11 38 12 39 13
REMARK SMILES IDX 40 14 90 15 41 16 95 17 89 18 91 19 42 20 94 21 88 22 87 23
REMARK SMILES IDX 43 25 75 26 55 27 74 28 56 29 59 30 73 31 92 32 57 33 58 34
REMARK SMILES IDX 72 36 93 37 60 38 44 39 45 40 53 41 46 42 52 43 54 44 51 45
REMARK SMILES IDX 47 46 48 47 49 48 50 49 76 50 77 51 85 52 78 53 84 54 86 55
REMARK SMILES IDX 83 56 79 57 80 58 81 59 82 60 61 61 62 62 70 63 63 64 69 65
REMARK SMILES IDX 71 66 68 67 64 68 65 69 66 70 67 71 6 72 7 73 8 74 9 75
REMARK SMILES IDX 10 77 11 78 12 79 34 80 13 81 14 82 15 83 16 84 33 85 17 86
REMARK SMILES IDX 25 87 24 88 18 89 19 90 23 91 20 92 22 93 21 94 26 95 27 96
REMARK SMILES IDX 31 97 28 98 30 99 32 100 29 101
REMARK H PARENT 3 6 91 24 59 35 8 76
REMARK Flexibility Score: inf
ROOT
ATOM      1  C   UNL A   1      36.284  23.248  25.454  1.00  0.00     0.023 C 
ENDROOT
BRANCH   1   2
ATOM      2  C   UNL A   1      37.246  24.119  26.263  1.00  0.00     0.116 C 
BRANCH   2   3
ATOM      3  N   UNL A   1      38.647  23.779  26.124  1.00  0.00    -0.352 N 
ATOM      4  O   UNL A   1      40.843  23.697  26.390  1.00  0.00    -0.269 OA
ATOM      5  C   UNL A   1      39.803  24.317  26.622  1.00  0.00     0.251 C 
ATOM      6  H   UNL A   1      38.800  22.996  25.549  1.00  0.00     0.163 HD
BRANCH   5   7
ATOM      7  C   UNL A   1      39.877  25.614  27.347  1.00  0.00     0.039 A 
ATOM      8  C   UNL A   1      40.327  26.818  26.800  1.00  0.00     0.014 A 
ATOM      9  C   UNL A   1      39.479  25.593  28.693  1.00  0.00     0.014 A 
ATOM     10  C   UNL A   1      40.507  27.939  27.601  1.00  0.00     0.010 A 
ATOM     11  C   UNL A   1      39.612  26.725  29.490  1.00  0.00     0.010 A 
ATOM     12  C   UNL A   1      40.176  27.884  28.952  1.00  0.00    -0.014 A 
BRANCH  12  13
ATOM     13  C   UNL A   1      40.351  29.093  29.757  1.00  0.00     0.031 A 
ATOM     14  C   UNL A   1      39.142  29.961  29.940  1.00  0.00     0.074 A 
ATOM     15  C   UNL A   1      41.480  29.300  30.464  1.00  0.00     0.049 A 
ATOM     16  N   UNL A   1      39.038  31.253  29.874  1.00  0.00    -0.248 NA
ATOM     17  C   UNL A   1      37.861  29.280  30.200  1.00  0.00     0.031 C 
ATOM     18  C   UNL A   1      42.617  28.386  30.611  1.00  0.00     0.029 A 
ATOM     19  N   UNL A   1      41.772  30.302  31.340  1.00  0.00    -0.354 N 
ATOM     20  C   UNL A   1      37.726  31.560  30.236  1.00  0.00     0.074 A 
ATOM     21  C   UNL A   1      37.024  30.307  30.338  1.00  0.00     0.031 C 
ATOM     22  C   UNL A   1      43.323  28.739  31.706  1.00  0.00     0.029 A 
ATOM     23  C   UNL A   1      42.757  29.957  32.259  1.00  0.00     0.049 A 
ATOM     24  H   UNL A   1      41.330  31.182  31.325  1.00  0.00     0.167 HD
ATOM     25  C   UNL A   1      37.307  32.814  30.570  1.00  0.00     0.034 A 
ATOM     26  C   UNL A   1      42.996  30.555  33.455  1.00  0.00     0.034 A 
ATOM     27  C   UNL A   1      38.186  33.838  30.090  1.00  0.00     0.049 A 
ATOM     28  C   UNL A   1      42.399  31.911  33.397  1.00  0.00     0.074 A 
ATOM     29  C   UNL A   1      38.595  34.248  28.834  1.00  0.00     0.029 A 
ATOM     30  N   UNL A   1      39.067  34.424  30.966  1.00  0.00    -0.354 N 
ATOM     31  N   UNL A   1      42.799  32.853  32.587  1.00  0.00    -0.248 NA
ATOM     32  C   UNL A   1      41.063  32.091  33.946  1.00  0.00     0.031 C 
ATOM     33  C   UNL A   1      39.967  34.601  28.993  1.00  0.00     0.029 A 
ATOM     34  C   UNL A   1      40.290  34.424  30.338  1.00  0.00     0.049 A 
ATOM     35  H   UNL A   1      38.863  34.774  31.863  1.00  0.00     0.167 HD
ATOM     36  C   UNL A   1      41.643  33.514  32.206  1.00  0.00     0.074 A 
ATOM     37  C   UNL A   1      40.621  33.066  33.147  1.00  0.00     0.031 C 
ATOM     38  C   UNL A   1      41.548  34.155  31.003  1.00  0.00     0.034 A 
BRANCH  25  39
ATOM     39  C   UNL A   1      36.180  33.090  31.532  1.00  0.00     0.023 A 
ATOM     40  C   UNL A   1      35.082  33.872  31.125  1.00  0.00     0.031 A 
ATOM     41  C   UNL A   1      36.270  32.807  32.914  1.00  0.00     0.131 A 
ATOM     42  C   UNL A   1      34.142  34.332  32.071  1.00  0.00     0.055 A 
ATOM     43  C   UNL A   1      35.306  33.216  33.838  1.00  0.00     0.041 A 
ATOM     44  F   UNL A   1      37.341  32.193  33.439  1.00  0.00    -0.206 F 
ATOM     45  C   UNL A   1      34.240  33.995  33.421  1.00  0.00     0.022 A 
BRANCH  42  46
ATOM     46  S   UNL A   1      32.850  35.490  31.539  1.00  0.00     0.124 S 
ATOM     47  O   UNL A   1      32.600  35.058  30.167  1.00  0.00    -0.237 OA
ATOM     48  O   UNL A   1      31.787  35.222  32.501  1.00  0.00    -0.237 OA
ATOM     49  O   UNL A   1      33.489  36.798  31.670  1.00  0.00    -0.744 OA
ENDBRANCH  42  46
ENDBRANCH  25  39
BRANCH  26  50
ATOM     50  C   UNL A   1      43.367  29.871  34.725  1.00  0.00     0.023 A 
ATOM     51  C   UNL A   1      42.644  28.765  35.210  1.00  0.00     0.031 A 
ATOM     52  C   UNL A   1      44.594  30.157  35.370  1.00  0.00     0.131 A 
ATOM     53  C   UNL A   1      43.141  28.011  36.297  1.00  0.00     0.055 A 
ATOM     54  C   UNL A   1      45.069  29.423  36.458  1.00  0.00     0.041 A 
ATOM     55  F   UNL A   1      45.423  31.107  34.910  1.00  0.00    -0.206 F 
ATOM     56  C   UNL A   1      44.346  28.338  36.922  1.00  0.00     0.022 A 
BRANCH  53  57
ATOM     57  S   UNL A   1      42.284  26.498  36.833  1.00  0.00     0.124 S 
ATOM     58  O   UNL A   1      40.885  26.906  36.780  1.00  0.00    -0.237 OA
ATOM     59  O   UNL A   1      42.712  25.520  35.841  1.00  0.00    -0.237 OA
ATOM     60  O   UNL A   1      42.812  26.272  38.179  1.00  0.00    -0.744 OA
ENDBRANCH  53  57
ENDBRANCH  26  50
BRANCH  38  61
ATOM     61  C   UNL A   1      42.805  34.362  30.186  1.00  0.00     0.023 A 
ATOM     62  C   UNL A   1      43.188  33.544  29.099  1.00  0.00     0.031 A 
ATOM     63  C   UNL A   1      43.550  35.529  30.422  1.00  0.00     0.131 A 
ATOM     64  C   UNL A   1      44.287  33.907  28.297  1.00  0.00     0.055 A 
ATOM     65  C   UNL A   1      44.630  35.893  29.617  1.00  0.00     0.041 A 
ATOM     66  F   UNL A   1      43.209  36.366  31.416  1.00  0.00    -0.206 F 
ATOM     67  C   UNL A   1      45.004  35.081  28.552  1.00  0.00     0.022 A 
BRANCH  64  68
ATOM     68  S   UNL A   1      44.784  32.866  26.887  1.00  0.00     0.124 S 
ATOM     69  O   UNL A   1      44.349  31.532  27.283  1.00  0.00    -0.237 OA
ATOM     70  O   UNL A   1      44.064  33.473  25.770  1.00  0.00    -0.237 OA
ATOM     71  O   UNL A   1      46.238  33.037  26.831  1.00  0.00    -0.744 OA
ENDBRANCH  64  68
ENDBRANCH  38  61
ENDBRANCH  12  13
ENDBRANCH   5   7
ENDBRANCH   2   3
ENDBRANCH   1   2
BRANCH   1  72
ATOM     72  C   UNL A   1      35.176  22.573  26.268  1.00  0.00     0.023 C 
BRANCH  72  73
ATOM     73  C   UNL A   1      33.875  23.359  26.365  1.00  0.00     0.116 C 
BRANCH  73  74
ATOM     74  N   UNL A   1      32.719  22.484  26.415  1.00  0.00    -0.351 N 
ATOM     75  C   UNL A   1      31.489  22.679  25.843  1.00  0.00     0.271 C 
ATOM     76  H   UNL A   1      32.832  21.647  26.921  1.00  0.00     0.163 HD
ATOM     77  O   UNL A   1      30.593  21.857  26.032  1.00  0.00    -0.267 OA
BRANCH  75  78
ATOM     78  C   UNL A   1      31.324  23.832  24.963  1.00  0.00     0.150 A 
ATOM     79  C   UNL A   1      30.815  23.813  23.640  1.00  0.00     0.056 A 
ATOM     80  N   UNL A   1      31.653  25.079  25.344  1.00  0.00    -0.161 NA
ATOM     81  C   UNL A   1      30.716  25.132  23.284  1.00  0.00     0.118 A 
ATOM     82  N   UNL A   1      31.180  25.869  24.351  1.00  0.00    -0.222 N 
BRANCH  82  83
ATOM     83  C   UNL A   1      31.130  27.281  24.468  1.00  0.00     0.158 A 
ATOM     84  C   UNL A   1      30.314  28.005  23.623  1.00  0.00     0.078 A 
ATOM     85  N   UNL A   1      31.916  27.851  25.406  1.00  0.00    -0.209 NA
ATOM     86  C   UNL A   1      30.312  29.372  23.816  1.00  0.00     0.077 A 
ATOM     87  C   UNL A   1      31.910  29.190  25.453  1.00  0.00     0.165 A 
ATOM     88  N   UNL A   1      31.136  29.984  24.696  1.00  0.00    -0.228 NA
BRANCH  86  89
ATOM     89  C   UNL A   1      29.375  30.254  23.112  1.00  0.00     0.003 A 
ATOM     90  C   UNL A   1      28.918  31.438  23.705  1.00  0.00     0.030 A 
ATOM     91  C   UNL A   1      28.936  29.959  21.818  1.00  0.00     0.030 A 
ATOM     92  C   UNL A   1      28.059  32.260  22.993  1.00  0.00     0.111 A 
ATOM     93  C   UNL A   1      28.069  30.839  21.189  1.00  0.00     0.111 A 
ATOM     94  N   UNL A   1      27.625  31.985  21.745  1.00  0.00    -0.265 NA
ENDBRANCH  86  89
BRANCH  87  95
ATOM     95  C   UNL A   1      32.923  29.806  26.297  1.00  0.00     0.055 A 
ATOM     96  C   UNL A   1      34.170  29.178  26.489  1.00  0.00     0.015 A 
ATOM     97  C   UNL A   1      32.689  31.009  26.966  1.00  0.00     0.134 A 
ATOM     98  C   UNL A   1      35.143  29.742  27.318  1.00  0.00     0.001 A 
ATOM     99  C   UNL A   1      33.653  31.574  27.801  1.00  0.00     0.040 A 
ATOM    100  F   UNL A   1      31.507  31.634  26.848  1.00  0.00    -0.206 F 
ATOM    101  C   UNL A   1      34.883  30.941  27.976  1.00  0.00     0.003 A 
ENDBRANCH  87  95
ENDBRANCH  82  83
ENDBRANCH  75  78
ENDBRANCH  73  74
ENDBRANCH  72  73
ENDBRANCH   1  72
TORSDOF 17
ENDMDL
MODEL 3
REMARK VINA RESULT:     -13.4      3.981      8.943
REMARK SMILES O=C(NCCCCNC(=O)c1ccn(-c2cc(-c3ccncc3)nc(-c3ccccc3F)n2)n1)c1ccc(-c2c3nc(c(-c4cc(S(=O)(=O)[O-])ccc4F)c4ccc([nH]4)c(-c4cc(S(=O)(=O)[O-])ccc4F)c4nc(c(-c5cc(S(=O)(=O)[O-])ccc5F)c5ccc2[nH]5)C=C4)C=C3)cc1
REMARK SMILES IDX 5 1 4 2 3 3 1 4 2 5 35 7 36 8 97 9 37 10 96 11 38 12 39 13
REMARK SMILES IDX 40 14 90 15 41 16 95 17 89 18 91 19 42 20 94 21 88 22 87 23
REMARK SMILES IDX 43 25 75 26 55 27 74 28 56 29 59 30 73 31 92 32 57 33 58 34
REMARK SMILES IDX 72 36 93 37 60 38 44 39 45 40 53 41 46 42 52 43 54 44 51 45
REMARK SMILES IDX 47 46 48 47 49 48 50 49 76 50 77 51 85 52 78 53 84 54 86 55
REMARK SMILES IDX 83 56 79 57 80 58 81 59 82 60 61 61 62 62 70 63 63 64 69 65
REMARK SMILES IDX 71 66 68 67 64 68 65 69 66 70 67 71 6 72 7 73 8 74 9 75
REMARK SMILES IDX 10 77 11 78 12 79 34 80 13 81 14 82 15 83 16 84 33 85 17 86
REMARK SMILES IDX 25 87 24 88 18 89 19 90 23 91 20 92 22 93 21 94 26 95 27 96
REMARK SMILES IDX 31 97 28 98 30 99 32 100 29 101
REMARK H PARENT 3 6 91 24 59 35 8 76
REMARK Flexibility Score: inf
ROOT
ATOM      1  C   UNL A   1      36.987  23.716  24.815  1.00  0.00     0.023 C 
ENDROOT
BRANCH   1   2
ATOM      2  C   UNL A   1      37.664  23.556  26.177  1.00  0.00     0.116 C 
BRANCH   2   3
ATOM      3  N   UNL A   1      39.050  23.142  26.129  1.00  0.00    -0.352 N 
ATOM      4  O   UNL A   1      41.218  22.948  26.531  1.00  0.00    -0.269 OA
ATOM      5  C   UNL A   1      40.200  23.626  26.691  1.00  0.00     0.251 C 
ATOM      6  H   UNL A   1      39.196  22.342  25.575  1.00  0.00     0.163 HD
BRANCH   5   7
ATOM      7  C   UNL A   1      40.299  24.929  27.403  1.00  0.00     0.039 A 
ATOM      8  C   UNL A   1      39.358  25.958  27.331  1.00  0.00     0.014 A 
ATOM      9  C   UNL A   1      41.451  25.122  28.181  1.00  0.00     0.014 A 
ATOM     10  C   UNL A   1      39.615  27.197  27.906  1.00  0.00     0.010 A 
ATOM     11  C   UNL A   1      41.692  26.344  28.799  1.00  0.00     0.010 A 
ATOM     12  C   UNL A   1      40.795  27.398  28.616  1.00  0.00    -0.014 A 
BRANCH  12  13
ATOM     13  C   UNL A   1      41.017  28.707  29.232  1.00  0.00     0.031 A 
ATOM     14  C   UNL A   1      42.192  29.495  28.734  1.00  0.00     0.074 A 
ATOM     15  C   UNL A   1      40.096  29.257  30.048  1.00  0.00     0.049 A 
ATOM     16  N   UNL A   1      43.075  30.168  29.404  1.00  0.00    -0.248 NA
ATOM     17  C   UNL A   1      42.429  29.498  27.279  1.00  0.00     0.031 C 
ATOM     18  C   UNL A   1      38.770  28.724  30.378  1.00  0.00     0.029 A 
ATOM     19  N   UNL A   1      40.084  30.494  30.619  1.00  0.00    -0.354 N 
ATOM     20  C   UNL A   1      43.881  30.807  28.460  1.00  0.00     0.074 A 
ATOM     21  C   UNL A   1      43.496  30.288  27.174  1.00  0.00     0.031 C 
ATOM     22  C   UNL A   1      37.999  29.729  30.847  1.00  0.00     0.029 A 
ATOM     23  C   UNL A   1      38.808  30.932  30.954  1.00  0.00     0.049 A 
ATOM     24  H   UNL A   1      40.898  31.025  30.778  1.00  0.00     0.167 HD
ATOM     25  C   UNL A   1      44.732  31.829  28.759  1.00  0.00     0.034 A 
ATOM     26  C   UNL A   1      38.421  32.215  31.171  1.00  0.00     0.034 A 
ATOM     27  C   UNL A   1      45.062  31.886  30.153  1.00  0.00     0.049 A 
ATOM     28  C   UNL A   1      39.642  32.995  31.490  1.00  0.00     0.074 A 
ATOM     29  C   UNL A   1      45.696  31.027  31.030  1.00  0.00     0.029 A 
ATOM     30  N   UNL A   1      44.437  32.817  30.946  1.00  0.00    -0.354 N 
ATOM     31  N   UNL A   1      40.380  32.798  32.548  1.00  0.00    -0.248 NA
ATOM     32  C   UNL A   1      40.290  33.720  30.408  1.00  0.00     0.031 C 
ATOM     33  C   UNL A   1      44.993  31.175  32.261  1.00  0.00     0.029 A 
ATOM     34  C   UNL A   1      44.007  32.142  32.064  1.00  0.00     0.049 A 
ATOM     35  H   UNL A   1      44.322  33.775  30.754  1.00  0.00     0.167 HD
ATOM     36  C   UNL A   1      41.682  33.000  32.120  1.00  0.00     0.074 A 
ATOM     37  C   UNL A   1      41.558  33.659  30.823  1.00  0.00     0.031 C 
ATOM     38  C   UNL A   1      42.739  32.377  32.721  1.00  0.00     0.034 A 
BRANCH  25  39
ATOM     39  C   UNL A   1      45.103  32.919  27.788  1.00  0.00     0.023 A 
ATOM     40  C   UNL A   1      46.443  33.086  27.392  1.00  0.00     0.031 A 
ATOM     41  C   UNL A   1      44.209  33.953  27.424  1.00  0.00     0.131 A 
ATOM     42  C   UNL A   1      46.841  34.234  26.676  1.00  0.00     0.055 A 
ATOM     43  C   UNL A   1      44.595  35.059  26.664  1.00  0.00     0.041 A 
ATOM     44  F   UNL A   1      42.942  33.975  27.862  1.00  0.00    -0.206 F 
ATOM     45  C   UNL A   1      45.922  35.212  26.297  1.00  0.00     0.022 A 
BRANCH  42  46
ATOM     46  S   UNL A   1      48.606  34.503  26.350  1.00  0.00     0.124 S 
ATOM     47  O   UNL A   1      48.600  35.813  25.706  1.00  0.00    -0.237 OA
ATOM     48  O   UNL A   1      49.174  34.448  27.692  1.00  0.00    -0.237 OA
ATOM     49  O   UNL A   1      48.966  33.386  25.478  1.00  0.00    -0.744 OA
ENDBRANCH  42  46
ENDBRANCH  25  39
BRANCH  26  50
ATOM     50  C   UNL A   1      37.136  32.834  30.743  1.00  0.00     0.023 A 
ATOM     51  C   UNL A   1      36.152  33.220  31.674  1.00  0.00     0.031 A 
ATOM     52  C   UNL A   1      36.950  33.270  29.410  1.00  0.00     0.131 A 
ATOM     53  C   UNL A   1      35.043  33.990  31.258  1.00  0.00     0.055 A 
ATOM     54  C   UNL A   1      35.841  34.011  29.000  1.00  0.00     0.041 A 
ATOM     55  F   UNL A   1      37.887  33.069  28.470  1.00  0.00    -0.206 F 
ATOM     56  C   UNL A   1      34.884  34.383  29.928  1.00  0.00     0.022 A 
BRANCH  53  57
ATOM     57  S   UNL A   1      33.847  34.613  32.482  1.00  0.00     0.124 S 
ATOM     58  O   UNL A   1      34.636  35.608  33.198  1.00  0.00    -0.237 OA
ATOM     59  O   UNL A   1      32.769  35.122  31.644  1.00  0.00    -0.237 OA
ATOM     60  O   UNL A   1      33.506  33.418  33.256  1.00  0.00    -0.744 OA
ENDBRANCH  53  57
ENDBRANCH  26  50
BRANCH  38  61
ATOM     61  C   UNL A   1      42.510  31.656  34.032  1.00  0.00     0.023 A 
ATOM     62  C   UNL A   1      42.232  30.275  34.139  1.00  0.00     0.031 A 
ATOM     63  C   UNL A   1      42.745  32.370  35.218  1.00  0.00     0.131 A 
ATOM     64  C   UNL A   1      42.193  29.660  35.406  1.00  0.00     0.055 A 
ATOM     65  C   UNL A   1      42.720  31.755  36.470  1.00  0.00     0.041 A 
ATOM     66  F   UNL A   1      43.053  33.678  35.176  1.00  0.00    -0.206 F 
ATOM     67  C   UNL A   1      42.441  30.397  36.568  1.00  0.00     0.022 A 
BRANCH  64  68
ATOM     68  S   UNL A   1      41.846  27.878  35.556  1.00  0.00     0.124 S 
ATOM     69  O   UNL A   1      41.054  27.588  34.367  1.00  0.00    -0.237 OA
ATOM     70  O   UNL A   1      43.183  27.292  35.597  1.00  0.00    -0.237 OA
ATOM     71  O   UNL A   1      41.106  27.778  36.817  1.00  0.00    -0.744 OA
ENDBRANCH  64  68
ENDBRANCH  38  61
ENDBRANCH  12  13
ENDBRANCH   5   7
ENDBRANCH   2   3
ENDBRANCH   1   2
BRANCH   1  72
ATOM     72  C   UNL A   1      36.052  22.572  24.414  1.00  0.00     0.023 C 
BRANCH  72  73
ATOM     73  C   UNL A   1      34.572  22.830  24.659  1.00  0.00     0.116 C 
BRANCH  73  74
ATOM     74  N   UNL A   1      33.741  22.206  23.647  1.00  0.00    -0.351 N 
ATOM     75  C   UNL A   1      32.409  22.416  23.403  1.00  0.00     0.271 C 
ATOM     76  H   UNL A   1      34.189  21.552  23.062  1.00  0.00     0.163 HD
ATOM     77  O   UNL A   1      31.837  21.756  22.535  1.00  0.00    -0.267 OA
BRANCH  75  78
ATOM     78  C   UNL A   1      31.741  23.481  24.145  1.00  0.00     0.150 A 
ATOM     79  C   UNL A   1      31.024  23.337  25.360  1.00  0.00     0.056 A 
ATOM     80  N   UNL A   1      31.744  24.759  23.726  1.00  0.00    -0.161 NA
ATOM     81  C   UNL A   1      30.713  24.617  25.736  1.00  0.00     0.118 A 
ATOM     82  N   UNL A   1      31.206  25.451  24.757  1.00  0.00    -0.222 N 
BRANCH  82  83
ATOM     83  C   UNL A   1      31.226  26.869  24.809  1.00  0.00     0.158 A 
ATOM     84  C   UNL A   1      30.433  27.592  23.943  1.00  0.00     0.078 A 
ATOM     85  N   UNL A   1      32.055  27.441  25.709  1.00  0.00    -0.209 NA
ATOM     86  C   UNL A   1      30.501  28.965  24.072  1.00  0.00     0.077 A 
ATOM     87  C   UNL A   1      32.115  28.779  25.694  1.00  0.00     0.165 A 
ATOM     88  N   UNL A   1      31.368  29.575  24.912  1.00  0.00    -0.228 NA
BRANCH  86  89
ATOM     89  C   UNL A   1      29.597  29.859  23.341  1.00  0.00     0.003 A 
ATOM     90  C   UNL A   1      28.946  29.428  22.177  1.00  0.00     0.030 A 
ATOM     91  C   UNL A   1      29.331  31.153  23.798  1.00  0.00     0.030 A 
ATOM     92  C   UNL A   1      28.075  30.293  21.534  1.00  0.00     0.111 A 
ATOM     93  C   UNL A   1      28.450  31.948  23.081  1.00  0.00     0.111 A 
ATOM     94  N   UNL A   1      27.812  31.545  21.963  1.00  0.00    -0.265 NA
ENDBRANCH  86  89
BRANCH  87  95
ATOM     95  C   UNL A   1      33.170  29.382  26.495  1.00  0.00     0.055 A 
ATOM     96  C   UNL A   1      34.386  28.702  26.701  1.00  0.00     0.015 A 
ATOM     97  C   UNL A   1      33.006  30.625  27.108  1.00  0.00     0.134 A 
ATOM     98  C   UNL A   1      35.399  29.254  27.489  1.00  0.00     0.001 A 
ATOM     99  C   UNL A   1      34.009  31.180  27.903  1.00  0.00     0.040 A 
ATOM    100  F   UNL A   1      31.855  31.303  26.975  1.00  0.00    -0.206 F 
ATOM    101  C   UNL A   1      35.209  30.495  28.093  1.00  0.00     0.003 A 
ENDBRANCH  87  95
ENDBRANCH  82  83
ENDBRANCH  75  78
ENDBRANCH  73  74
ENDBRANCH  72  73
ENDBRANCH   1  72
TORSDOF 17
ENDMDL
