MODEL 1
REMARK VINA RESULT:     -11.3      0.000      0.000
REMARK SMILES CC1([C@](C)(Nc2cccc(Cl)c2)C(=O)NCCCCNC(=O)c2ccc(-c3c4nc(c(-c5cc(S(=O)(=O)[O-])ccc5F)c5ccc([nH]5)c(-c5cc(S(=O)(=O)[O-])ccc5F)c5nc(c(-c6cc(S(=O)(=O)[O-])ccc6F)c6ccc3[nH]6)C=C5)C=C4)cc2)CC1
REMARK SMILES IDX 18 1 17 2 16 3 15 4 13 5 14 6 3 8 4 9 2 10 1 11 86 12 87 13
REMARK SMILES IDX 5 14 6 16 7 17 12 18 8 19 10 20 9 21 11 22 19 23 20 24 21 25
REMARK SMILES IDX 22 27 23 28 24 29 85 30 25 31 84 32 26 33 27 34 28 35 78 36
REMARK SMILES IDX 29 37 83 38 77 39 79 40 30 41 82 42 76 43 75 44 31 46 63 47
REMARK SMILES IDX 43 48 62 49 44 50 47 51 61 52 80 53 45 54 46 55 60 57 81 58
REMARK SMILES IDX 48 59 32 60 33 61 41 62 34 63 40 64 42 65 39 66 35 67 36 68
REMARK SMILES IDX 37 69 38 70 64 71 65 72 73 73 66 74 72 75 74 76 71 77 67 78
REMARK SMILES IDX 68 79 69 80 70 81 49 82 50 83 58 84 51 85 57 86 59 87 56 88
REMARK SMILES IDX 52 89 53 90 54 91 55 92
REMARK H PARENT 15 7 5 15 20 26 79 45 47 56
REMARK Flexibility Score: inf
ROOT
ATOM      1  C   UNL A   1      31.406  31.682  26.642  1.00  0.00     0.023 C 
ENDROOT
BRANCH   1   2
ATOM      2  C   UNL A   1      31.530  30.477  25.725  1.00  0.00     0.023 C 
BRANCH   2   3
ATOM      3  C   UNL A   1      32.879  29.769  25.744  1.00  0.00     0.116 C 
BRANCH   3   4
ATOM      4  N   UNL A   1      33.513  29.583  24.455  1.00  0.00    -0.354 N 
ATOM      5  C   UNL A   1      33.512  28.500  23.620  1.00  0.00     0.245 C 
ATOM      6  O   UNL A   1      34.033  28.677  22.509  1.00  0.00    -0.272 OA
ATOM      7  H   UNL A   1      34.025  30.358  24.129  1.00  0.00     0.163 HD
BRANCH   5   8
ATOM      8  C   UNL A   1      32.877  27.115  24.013  1.00  0.00     0.119 C 
ATOM      9  C   UNL A   1      33.437  26.067  23.007  1.00  0.00     0.046 C 
BRANCH   8  10
ATOM     10  C   UNL A   1      31.279  27.136  23.894  1.00  0.00    -0.001 C 
ATOM     11  C   UNL A   1      30.711  28.131  22.896  1.00  0.00     0.014 C 
ATOM     12  C   UNL A   1      30.450  26.938  25.165  1.00  0.00     0.010 C 
ATOM     13  C   UNL A   1      30.384  25.910  24.081  1.00  0.00     0.010 C 
ENDBRANCH   8  10
BRANCH   8  14
ATOM     14  N   UNL A   1      33.283  26.632  25.359  1.00  0.00    -0.371 N 
ATOM     15  H   UNL A   1      33.214  27.285  26.094  1.00  0.00     0.161 HD
BRANCH  14  16
ATOM     16  C   UNL A   1      33.751  25.366  25.703  1.00  0.00     0.036 A 
ATOM     17  C   UNL A   1      32.947  24.304  26.148  1.00  0.00     0.026 A 
ATOM     18  C   UNL A   1      35.110  25.073  25.510  1.00  0.00     0.046 A 
ATOM     19  C   UNL A   1      33.438  22.997  26.291  1.00  0.00     0.004 A 
ATOM     20  C   UNL A   1      35.617  23.779  25.702  1.00  0.00     0.043 A 
ATOM     21  C   UNL A   1      34.780  22.731  26.061  1.00  0.00     0.020 A 
ATOM     22  Cl  UNL A   1      37.298  23.478  25.477  1.00  0.00    -0.084 Cl
ENDBRANCH  14  16
ENDBRANCH   8  14
ENDBRANCH   5   8
ENDBRANCH   3   4
ENDBRANCH   2   3
ENDBRANCH   1   2
BRANCH   1  23
ATOM     23  C   UNL A   1      32.739  32.248  27.101  1.00  0.00     0.116 C 
BRANCH  23  24
ATOM     24  N   UNL A   1      32.643  33.652  27.473  1.00  0.00    -0.352 N 
ATOM     25  C   UNL A   1      33.312  34.334  28.453  1.00  0.00     0.251 C 
ATOM     26  H   UNL A   1      32.007  34.186  26.944  1.00  0.00     0.163 HD
ATOM     27  O   UNL A   1      32.941  35.469  28.766  1.00  0.00    -0.269 OA
BRANCH  25  28
ATOM     28  C   UNL A   1      34.454  33.702  29.139  1.00  0.00     0.039 A 
ATOM     29  C   UNL A   1      35.744  34.176  28.898  1.00  0.00     0.014 A 
ATOM     30  C   UNL A   1      34.249  32.640  30.026  1.00  0.00     0.014 A 
ATOM     31  C   UNL A   1      36.822  33.617  29.584  1.00  0.00     0.010 A 
ATOM     32  C   UNL A   1      35.307  32.157  30.784  1.00  0.00     0.010 A 
ATOM     33  C   UNL A   1      36.608  32.620  30.551  1.00  0.00    -0.014 A 
BRANCH  33  34
ATOM     34  C   UNL A   1      37.743  32.013  31.291  1.00  0.00     0.031 A 
ATOM     35  C   UNL A   1      38.545  30.913  30.648  1.00  0.00     0.074 A 
ATOM     36  C   UNL A   1      38.014  32.417  32.547  1.00  0.00     0.049 A 
ATOM     37  N   UNL A   1      39.542  30.220  31.135  1.00  0.00    -0.248 NA
ATOM     38  C   UNL A   1      38.149  30.514  29.288  1.00  0.00     0.031 C 
ATOM     39  C   UNL A   1      37.266  33.435  33.289  1.00  0.00     0.029 A 
ATOM     40  N   UNL A   1      38.994  32.023  33.423  1.00  0.00    -0.354 N 
ATOM     41  C   UNL A   1      39.876  29.295  30.151  1.00  0.00     0.074 A 
ATOM     42  C   UNL A   1      38.926  29.464  29.075  1.00  0.00     0.031 C 
ATOM     43  C   UNL A   1      37.837  33.611  34.491  1.00  0.00     0.029 A 
ATOM     44  C   UNL A   1      38.965  32.695  34.623  1.00  0.00     0.049 A 
ATOM     45  H   UNL A   1      39.655  31.325  33.212  1.00  0.00     0.167 HD
ATOM     46  C   UNL A   1      40.901  28.408  30.133  1.00  0.00     0.034 A 
ATOM     47  C   UNL A   1      39.761  32.583  35.703  1.00  0.00     0.034 A 
ATOM     48  C   UNL A   1      41.852  28.272  31.209  1.00  0.00     0.049 A 
ATOM     49  C   UNL A   1      40.902  31.599  35.658  1.00  0.00     0.074 A 
ATOM     50  C   UNL A   1      42.960  27.449  31.285  1.00  0.00     0.029 A 
ATOM     51  N   UNL A   1      41.803  28.983  32.403  1.00  0.00    -0.354 N 
ATOM     52  N   UNL A   1      41.239  30.768  34.697  1.00  0.00    -0.248 NA
ATOM     53  C   UNL A   1      41.778  31.550  36.833  1.00  0.00     0.031 C 
ATOM     54  C   UNL A   1      43.546  27.617  32.545  1.00  0.00     0.029 A 
ATOM     55  C   UNL A   1      42.848  28.601  33.229  1.00  0.00     0.049 A 
ATOM     56  H   UNL A   1      41.125  29.660  32.630  1.00  0.00     0.167 HD
ATOM     57  C   UNL A   1      42.388  30.120  35.143  1.00  0.00     0.074 A 
ATOM     58  C   UNL A   1      42.694  30.674  36.448  1.00  0.00     0.031 C 
ATOM     59  C   UNL A   1      43.127  29.158  34.533  1.00  0.00     0.034 A 
BRANCH  46  60
ATOM     60  C   UNL A   1      41.025  27.514  28.920  1.00  0.00     0.023 A 
ATOM     61  C   UNL A   1      42.023  27.717  27.950  1.00  0.00     0.031 A 
ATOM     62  C   UNL A   1      40.107  26.470  28.706  1.00  0.00     0.131 A 
ATOM     63  C   UNL A   1      42.028  26.952  26.774  1.00  0.00     0.055 A 
ATOM     64  C   UNL A   1      40.172  25.653  27.574  1.00  0.00     0.041 A 
ATOM     65  F   UNL A   1      39.118  26.238  29.582  1.00  0.00    -0.206 F 
ATOM     66  C   UNL A   1      41.126  25.903  26.592  1.00  0.00     0.022 A 
BRANCH  63  67
ATOM     67  S   UNL A   1      43.130  27.450  25.421  1.00  0.00     0.124 S 
ATOM     68  O   UNL A   1      43.573  26.156  24.912  1.00  0.00    -0.237 OA
ATOM     69  O   UNL A   1      42.239  28.209  24.551  1.00  0.00    -0.237 OA
ATOM     70  O   UNL A   1      44.164  28.235  26.092  1.00  0.00    -0.744 OA
ENDBRANCH  63  67
ENDBRANCH  46  60
BRANCH  47  71
ATOM     71  C   UNL A   1      39.523  33.426  36.910  1.00  0.00     0.023 A 
ATOM     72  C   UNL A   1      38.867  32.905  38.037  1.00  0.00     0.031 A 
ATOM     73  C   UNL A   1      39.918  34.774  36.943  1.00  0.00     0.131 A 
ATOM     74  C   UNL A   1      38.581  33.739  39.129  1.00  0.00     0.055 A 
ATOM     75  C   UNL A   1      39.678  35.587  38.052  1.00  0.00     0.041 A 
ATOM     76  F   UNL A   1      40.558  35.320  35.896  1.00  0.00    -0.206 F 
ATOM     77  C   UNL A   1      38.994  35.074  39.149  1.00  0.00     0.022 A 
BRANCH  74  78
ATOM     78  S   UNL A   1      37.586  33.075  40.493  1.00  0.00     0.124 S 
ATOM     79  O   UNL A   1      36.310  32.821  39.834  1.00  0.00    -0.237 OA
ATOM     80  O   UNL A   1      38.353  31.896  40.880  1.00  0.00    -0.237 OA
ATOM     81  O   UNL A   1      37.580  34.162  41.470  1.00  0.00    -0.744 OA
ENDBRANCH  74  78
ENDBRANCH  47  71
BRANCH  59  82
ATOM     82  C   UNL A   1      44.358  28.681  35.262  1.00  0.00     0.023 A 
ATOM     83  C   UNL A   1      44.293  27.681  36.247  1.00  0.00     0.031 A 
ATOM     84  C   UNL A   1      45.611  29.257  34.984  1.00  0.00     0.131 A 
ATOM     85  C   UNL A   1      45.445  27.334  36.966  1.00  0.00     0.055 A 
ATOM     86  C   UNL A   1      46.767  28.859  35.657  1.00  0.00     0.041 A 
ATOM     87  F   UNL A   1      45.731  30.217  34.053  1.00  0.00    -0.206 F 
ATOM     88  C   UNL A   1      46.685  27.904  36.666  1.00  0.00     0.022 A 
BRANCH  85  89
ATOM     89  S   UNL A   1      45.282  26.205  38.376  1.00  0.00     0.124 S 
ATOM     90  O   UNL A   1      43.929  26.497  38.843  1.00  0.00    -0.237 OA
ATOM     91  O   UNL A   1      45.473  24.899  37.754  1.00  0.00    -0.237 OA
ATOM     92  O   UNL A   1      46.353  26.625  39.278  1.00  0.00    -0.744 OA
ENDBRANCH  85  89
ENDBRANCH  59  82
ENDBRANCH  33  34
ENDBRANCH  25  28
ENDBRANCH  23  24
ENDBRANCH   1  23
TORSDOF 17
ENDMDL
MODEL 2
REMARK VINA RESULT:     -11.2      2.130      3.260
REMARK SMILES CC1([C@](C)(Nc2cccc(Cl)c2)C(=O)NCCCCNC(=O)c2ccc(-c3c4nc(c(-c5cc(S(=O)(=O)[O-])ccc5F)c5ccc([nH]5)c(-c5cc(S(=O)(=O)[O-])ccc5F)c5nc(c(-c6cc(S(=O)(=O)[O-])ccc6F)c6ccc3[nH]6)C=C5)C=C4)cc2)CC1
REMARK SMILES IDX 18 1 17 2 16 3 15 4 13 5 14 6 3 8 4 9 2 10 1 11 86 12 87 13
REMARK SMILES IDX 5 14 6 16 7 17 12 18 8 19 10 20 9 21 11 22 19 23 20 24 21 25
REMARK SMILES IDX 22 27 23 28 24 29 85 30 25 31 84 32 26 33 27 34 28 35 78 36
REMARK SMILES IDX 29 37 83 38 77 39 79 40 30 41 82 42 76 43 75 44 31 46 63 47
REMARK SMILES IDX 43 48 62 49 44 50 47 51 61 52 80 53 45 54 46 55 60 57 81 58
REMARK SMILES IDX 48 59 32 60 33 61 41 62 34 63 40 64 42 65 39 66 35 67 36 68
REMARK SMILES IDX 37 69 38 70 64 71 65 72 73 73 66 74 72 75 74 76 71 77 67 78
REMARK SMILES IDX 68 79 69 80 70 81 49 82 50 83 58 84 51 85 57 86 59 87 56 88
REMARK SMILES IDX 52 89 53 90 54 91 55 92
REMARK H PARENT 15 7 5 15 20 26 79 45 47 56
REMARK Flexibility Score: inf
ROOT
ATOM      1  C   UNL A   1      31.027  31.984  26.507  1.00  0.00     0.023 C 
ENDROOT
BRANCH   1   2
ATOM      2  C   UNL A   1      31.069  30.937  25.406  1.00  0.00     0.023 C 
BRANCH   2   3
ATOM      3  C   UNL A   1      32.044  29.788  25.625  1.00  0.00     0.116 C 
BRANCH   3   4
ATOM      4  N   UNL A   1      33.056  29.615  24.603  1.00  0.00    -0.354 N 
ATOM      5  C   UNL A   1      33.095  28.761  23.535  1.00  0.00     0.245 C 
ATOM      6  O   UNL A   1      34.033  28.932  22.743  1.00  0.00    -0.272 OA
ATOM      7  H   UNL A   1      33.839  30.205  24.691  1.00  0.00     0.163 HD
BRANCH   5   8
ATOM      8  C   UNL A   1      32.017  27.642  23.294  1.00  0.00     0.119 C 
ATOM      9  C   UNL A   1      31.192  27.527  24.611  1.00  0.00     0.046 C 
BRANCH   8  10
ATOM     10  C   UNL A   1      32.690  26.220  22.985  1.00  0.00    -0.001 C 
ATOM     11  C   UNL A   1      33.779  25.789  23.952  1.00  0.00     0.014 C 
ATOM     12  C   UNL A   1      32.914  25.822  21.525  1.00  0.00     0.010 C 
ATOM     13  C   UNL A   1      31.953  25.036  22.359  1.00  0.00     0.010 C 
ENDBRANCH   8  10
BRANCH   8  14
ATOM     14  N   UNL A   1      31.030  27.981  22.235  1.00  0.00    -0.371 N 
ATOM     15  H   UNL A   1      31.241  27.664  21.326  1.00  0.00     0.161 HD
BRANCH  14  16
ATOM     16  C   UNL A   1      29.842  28.696  22.376  1.00  0.00     0.036 A 
ATOM     17  C   UNL A   1      28.636  28.165  22.862  1.00  0.00     0.026 A 
ATOM     18  C   UNL A   1      29.849  30.074  22.109  1.00  0.00     0.046 A 
ATOM     19  C   UNL A   1      27.530  28.972  23.169  1.00  0.00     0.004 A 
ATOM     20  C   UNL A   1      28.727  30.877  22.366  1.00  0.00     0.043 A 
ATOM     21  C   UNL A   1      27.576  30.336  22.925  1.00  0.00     0.020 A 
ATOM     22  Cl  UNL A   1      28.777  32.558  21.996  1.00  0.00    -0.084 Cl
ENDBRANCH  14  16
ENDBRANCH   8  14
ENDBRANCH   5   8
ENDBRANCH   3   4
ENDBRANCH   2   3
ENDBRANCH   1   2
BRANCH   1  23
ATOM     23  C   UNL A   1      32.396  32.481  26.937  1.00  0.00     0.116 C 
BRANCH  23  24
ATOM     24  N   UNL A   1      32.376  33.883  27.327  1.00  0.00    -0.352 N 
ATOM     25  C   UNL A   1      33.109  34.523  28.291  1.00  0.00     0.251 C 
ATOM     26  H   UNL A   1      31.747  34.451  26.827  1.00  0.00     0.163 HD
ATOM     27  O   UNL A   1      32.800  35.669  28.629  1.00  0.00    -0.269 OA
BRANCH  25  28
ATOM     28  C   UNL A   1      34.243  33.832  28.930  1.00  0.00     0.039 A 
ATOM     29  C   UNL A   1      35.535  34.329  28.750  1.00  0.00     0.014 A 
ATOM     30  C   UNL A   1      34.031  32.692  29.713  1.00  0.00     0.014 A 
ATOM     31  C   UNL A   1      36.606  33.710  29.395  1.00  0.00     0.010 A 
ATOM     32  C   UNL A   1      35.080  32.143  30.437  1.00  0.00     0.010 A 
ATOM     33  C   UNL A   1      36.383  32.628  30.264  1.00  0.00    -0.014 A 
BRANCH  33  34
ATOM     34  C   UNL A   1      37.510  31.957  30.959  1.00  0.00     0.031 A 
ATOM     35  C   UNL A   1      38.332  30.932  30.223  1.00  0.00     0.074 A 
ATOM     36  C   UNL A   1      37.757  32.235  32.253  1.00  0.00     0.049 A 
ATOM     37  N   UNL A   1      39.326  30.201  30.656  1.00  0.00    -0.248 NA
ATOM     38  C   UNL A   1      37.962  30.669  28.823  1.00  0.00     0.031 C 
ATOM     39  C   UNL A   1      36.988  33.169  33.080  1.00  0.00     0.029 A 
ATOM     40  N   UNL A   1      38.725  31.762  33.102  1.00  0.00    -0.354 N 
ATOM     41  C   UNL A   1      39.684  29.381  29.590  1.00  0.00     0.074 A 
ATOM     42  C   UNL A   1      38.751  29.651  28.520  1.00  0.00     0.031 C 
ATOM     43  C   UNL A   1      37.538  33.228  34.304  1.00  0.00     0.029 A 
ATOM     44  C   UNL A   1      38.671  32.311  34.363  1.00  0.00     0.049 A 
ATOM     45  H   UNL A   1      39.395  31.093  32.835  1.00  0.00     0.167 HD
ATOM     46  C   UNL A   1      40.717  28.507  29.502  1.00  0.00     0.034 A 
ATOM     47  C   UNL A   1      39.450  32.096  35.441  1.00  0.00     0.034 A 
ATOM     48  C   UNL A   1      41.650  28.271  30.575  1.00  0.00     0.049 A 
ATOM     49  C   UNL A   1      40.599  31.128  35.317  1.00  0.00     0.074 A 
ATOM     50  C   UNL A   1      42.764  27.451  30.587  1.00  0.00     0.029 A 
ATOM     51  N   UNL A   1      41.576  28.858  31.833  1.00  0.00    -0.354 N 
ATOM     52  N   UNL A   1      40.960  30.400  34.284  1.00  0.00    -0.248 NA
ATOM     53  C   UNL A   1      41.456  30.968  36.496  1.00  0.00     0.031 C 
ATOM     54  C   UNL A   1      43.327  27.496  31.868  1.00  0.00     0.029 A 
ATOM     55  C   UNL A   1      42.610  28.402  32.635  1.00  0.00     0.049 A 
ATOM     56  H   UNL A   1      40.889  29.504  32.114  1.00  0.00     0.167 HD
ATOM     57  C   UNL A   1      42.106  29.718  34.682  1.00  0.00     0.074 A 
ATOM     58  C   UNL A   1      42.385  30.141  36.041  1.00  0.00     0.031 C 
ATOM     59  C   UNL A   1      42.862  28.827  33.992  1.00  0.00     0.034 A 
BRANCH  46  60
ATOM     60  C   UNL A   1      40.868  27.739  28.208  1.00  0.00     0.023 A 
ATOM     61  C   UNL A   1      40.489  26.389  28.100  1.00  0.00     0.031 A 
ATOM     62  C   UNL A   1      41.441  28.350  27.077  1.00  0.00     0.131 A 
ATOM     63  C   UNL A   1      40.764  25.672  26.926  1.00  0.00     0.055 A 
ATOM     64  C   UNL A   1      41.630  27.654  25.881  1.00  0.00     0.041 A 
ATOM     65  F   UNL A   1      41.844  29.629  27.122  1.00  0.00    -0.206 F 
ATOM     66  C   UNL A   1      41.307  26.302  25.806  1.00  0.00     0.022 A 
BRANCH  63  67
ATOM     67  S   UNL A   1      40.545  23.871  26.940  1.00  0.00     0.124 S 
ATOM     68  O   UNL A   1      41.554  23.445  25.973  1.00  0.00    -0.237 OA
ATOM     69  O   UNL A   1      40.810  23.531  28.332  1.00  0.00    -0.237 OA
ATOM     70  O   UNL A   1      39.162  23.690  26.505  1.00  0.00    -0.744 OA
ENDBRANCH  63  67
ENDBRANCH  46  60
BRANCH  47  71
ATOM     71  C   UNL A   1      39.185  32.812  36.721  1.00  0.00     0.023 A 
ATOM     72  C   UNL A   1      38.336  32.261  37.695  1.00  0.00     0.031 A 
ATOM     73  C   UNL A   1      39.749  34.074  36.978  1.00  0.00     0.131 A 
ATOM     74  C   UNL A   1      38.037  32.990  38.857  1.00  0.00     0.055 A 
ATOM     75  C   UNL A   1      39.490  34.772  38.158  1.00  0.00     0.041 A 
ATOM     76  F   UNL A   1      40.575  34.642  36.085  1.00  0.00    -0.206 F 
ATOM     77  C   UNL A   1      38.618  34.237  39.100  1.00  0.00     0.022 A 
BRANCH  74  78
ATOM     78  S   UNL A   1      36.807  32.319  40.010  1.00  0.00     0.124 S 
ATOM     79  O   UNL A   1      35.599  32.323  39.192  1.00  0.00    -0.237 OA
ATOM     80  O   UNL A   1      37.367  31.009  40.320  1.00  0.00    -0.237 OA
ATOM     81  O   UNL A   1      36.818  33.278  41.114  1.00  0.00    -0.744 OA
ENDBRANCH  74  78
ENDBRANCH  47  71
BRANCH  59  82
ATOM     82  C   UNL A   1      44.085  28.288  34.691  1.00  0.00     0.023 A 
ATOM     83  C   UNL A   1      44.035  27.121  35.474  1.00  0.00     0.031 A 
ATOM     84  C   UNL A   1      45.313  28.968  34.594  1.00  0.00     0.131 A 
ATOM     85  C   UNL A   1      45.172  26.707  36.182  1.00  0.00     0.055 A 
ATOM     86  C   UNL A   1      46.458  28.513  35.248  1.00  0.00     0.041 A 
ATOM     87  F   UNL A   1      45.417  30.088  33.861  1.00  0.00    -0.206 F 
ATOM     88  C   UNL A   1      46.387  27.386  36.061  1.00  0.00     0.022 A 
BRANCH  85  89
ATOM     89  S   UNL A   1      45.012  25.330  37.352  1.00  0.00     0.124 S 
ATOM     90  O   UNL A   1      46.408  24.994  37.617  1.00  0.00    -0.237 OA
ATOM     91  O   UNL A   1      44.283  25.944  38.457  1.00  0.00    -0.237 OA
ATOM     92  O   UNL A   1      44.265  24.324  36.598  1.00  0.00    -0.744 OA
ENDBRANCH  85  89
ENDBRANCH  59  82
ENDBRANCH  33  34
ENDBRANCH  25  28
ENDBRANCH  23  24
ENDBRANCH   1  23
TORSDOF 17
ENDMDL
MODEL 3
REMARK VINA RESULT:     -11.1      1.952      3.243
REMARK SMILES CC1([C@](C)(Nc2cccc(Cl)c2)C(=O)NCCCCNC(=O)c2ccc(-c3c4nc(c(-c5cc(S(=O)(=O)[O-])ccc5F)c5ccc([nH]5)c(-c5cc(S(=O)(=O)[O-])ccc5F)c5nc(c(-c6cc(S(=O)(=O)[O-])ccc6F)c6ccc3[nH]6)C=C5)C=C4)cc2)CC1
REMARK SMILES IDX 18 1 17 2 16 3 15 4 13 5 14 6 3 8 4 9 2 10 1 11 86 12 87 13
REMARK SMILES IDX 5 14 6 16 7 17 12 18 8 19 10 20 9 21 11 22 19 23 20 24 21 25
REMARK SMILES IDX 22 27 23 28 24 29 85 30 25 31 84 32 26 33 27 34 28 35 78 36
REMARK SMILES IDX 29 37 83 38 77 39 79 40 30 41 82 42 76 43 75 44 31 46 63 47
REMARK SMILES IDX 43 48 62 49 44 50 47 51 61 52 80 53 45 54 46 55 60 57 81 58
REMARK SMILES IDX 48 59 32 60 33 61 41 62 34 63 40 64 42 65 39 66 35 67 36 68
REMARK SMILES IDX 37 69 38 70 64 71 65 72 73 73 66 74 72 75 74 76 71 77 67 78
REMARK SMILES IDX 68 79 69 80 70 81 49 82 50 83 58 84 51 85 57 86 59 87 56 88
REMARK SMILES IDX 52 89 53 90 54 91 55 92
REMARK H PARENT 15 7 5 15 20 26 79 45 47 56
REMARK Flexibility Score: inf
ROOT
ATOM      1  C   UNL A   1      31.822  31.858  26.876  1.00  0.00     0.023 C 
ENDROOT
BRANCH   1   2
ATOM      2  C   UNL A   1      32.004  30.366  27.098  1.00  0.00     0.023 C 
BRANCH   2   3
ATOM      3  C   UNL A   1      32.194  29.530  25.839  1.00  0.00     0.116 C 
BRANCH   3   4
ATOM      4  N   UNL A   1      31.354  28.355  25.728  1.00  0.00    -0.354 N 
ATOM      5  C   UNL A   1      31.040  27.595  24.636  1.00  0.00     0.245 C 
ATOM      6  O   UNL A   1      30.401  26.558  24.868  1.00  0.00    -0.272 OA
ATOM      7  H   UNL A   1      30.945  28.057  26.573  1.00  0.00     0.163 HD
BRANCH   5   8
ATOM      8  C   UNL A   1      31.472  27.978  23.173  1.00  0.00     0.119 C 
ATOM      9  C   UNL A   1      30.532  27.191  22.211  1.00  0.00     0.046 C 
BRANCH   8  10
ATOM     10  C   UNL A   1      32.987  27.557  22.866  1.00  0.00    -0.001 C 
ATOM     11  C   UNL A   1      33.992  28.696  22.853  1.00  0.00     0.014 C 
ATOM     12  C   UNL A   1      33.244  26.446  21.846  1.00  0.00     0.010 C 
ATOM     13  C   UNL A   1      33.612  26.223  23.278  1.00  0.00     0.010 C 
ENDBRANCH   8  10
BRANCH   8  14
ATOM     14  N   UNL A   1      31.264  29.414  22.846  1.00  0.00    -0.371 N 
ATOM     15  H   UNL A   1      32.077  29.939  22.659  1.00  0.00     0.161 HD
BRANCH  14  16
ATOM     16  C   UNL A   1      30.056  30.104  22.772  1.00  0.00     0.036 A 
ATOM     17  C   UNL A   1      29.342  30.598  23.876  1.00  0.00     0.026 A 
ATOM     18  C   UNL A   1      29.540  30.428  21.507  1.00  0.00     0.046 A 
ATOM     19  C   UNL A   1      28.240  31.454  23.736  1.00  0.00     0.004 A 
ATOM     20  C   UNL A   1      28.407  31.241  21.362  1.00  0.00     0.043 A 
ATOM     21  C   UNL A   1      27.772  31.783  22.472  1.00  0.00     0.020 A 
ATOM     22  Cl  UNL A   1      27.797  31.586  19.788  1.00  0.00    -0.084 Cl
ENDBRANCH  14  16
ENDBRANCH   8  14
ENDBRANCH   5   8
ENDBRANCH   3   4
ENDBRANCH   2   3
ENDBRANCH   1   2
BRANCH   1  23
ATOM     23  C   UNL A   1      33.077  32.677  27.125  1.00  0.00     0.116 C 
BRANCH  23  24
ATOM     24  N   UNL A   1      32.775  34.010  27.623  1.00  0.00    -0.352 N 
ATOM     25  C   UNL A   1      33.241  34.639  28.747  1.00  0.00     0.251 C 
ATOM     26  H   UNL A   1      32.147  34.534  27.075  1.00  0.00     0.163 HD
ATOM     27  O   UNL A   1      32.706  35.685  29.125  1.00  0.00    -0.269 OA
BRANCH  25  28
ATOM     28  C   UNL A   1      34.361  34.052  29.506  1.00  0.00     0.039 A 
ATOM     29  C   UNL A   1      34.094  33.095  30.486  1.00  0.00     0.014 A 
ATOM     30  C   UNL A   1      35.678  34.445  29.246  1.00  0.00     0.014 A 
ATOM     31  C   UNL A   1      35.153  32.498  31.169  1.00  0.00     0.010 A 
ATOM     32  C   UNL A   1      36.733  33.776  29.851  1.00  0.00     0.010 A 
ATOM     33  C   UNL A   1      36.481  32.815  30.840  1.00  0.00    -0.014 A 
BRANCH  33  34
ATOM     34  C   UNL A   1      37.620  32.190  31.557  1.00  0.00     0.031 A 
ATOM     35  C   UNL A   1      38.394  31.078  30.898  1.00  0.00     0.074 A 
ATOM     36  C   UNL A   1      37.922  32.589  32.807  1.00  0.00     0.049 A 
ATOM     37  N   UNL A   1      39.388  30.370  31.366  1.00  0.00    -0.248 NA
ATOM     38  C   UNL A   1      37.965  30.686  29.546  1.00  0.00     0.031 C 
ATOM     39  C   UNL A   1      37.204  33.618  33.564  1.00  0.00     0.029 A 
ATOM     40  N   UNL A   1      38.912  32.180  33.664  1.00  0.00    -0.354 N 
ATOM     41  C   UNL A   1      39.689  29.440  30.375  1.00  0.00     0.074 A 
ATOM     42  C   UNL A   1      38.721  29.624  29.318  1.00  0.00     0.031 C 
ATOM     43  C   UNL A   1      37.801  33.786  34.755  1.00  0.00     0.029 A 
ATOM     44  C   UNL A   1      38.917  32.852  34.865  1.00  0.00     0.049 A 
ATOM     45  H   UNL A   1      39.559  31.473  33.441  1.00  0.00     0.167 HD
ATOM     46  C   UNL A   1      40.701  28.538  30.338  1.00  0.00     0.034 A 
ATOM     47  C   UNL A   1      39.732  32.728  35.930  1.00  0.00     0.034 A 
ATOM     48  C   UNL A   1      41.669  28.388  31.395  1.00  0.00     0.049 A 
ATOM     49  C   UNL A   1      40.857  31.726  35.862  1.00  0.00     0.074 A 
ATOM     50  C   UNL A   1      42.766  27.547  31.449  1.00  0.00     0.029 A 
ATOM     51  N   UNL A   1      41.655  29.099  32.590  1.00  0.00    -0.354 N 
ATOM     52  N   UNL A   1      41.163  30.891  34.894  1.00  0.00    -0.248 NA
ATOM     53  C   UNL A   1      41.755  31.664  37.020  1.00  0.00     0.031 C 
ATOM     54  C   UNL A   1      43.379  27.706  32.698  1.00  0.00     0.029 A 
ATOM     55  C   UNL A   1      42.710  28.700  33.396  1.00  0.00     0.049 A 
ATOM     56  H   UNL A   1      40.992  29.786  32.830  1.00  0.00     0.167 HD
ATOM     57  C   UNL A   1      42.310  30.225  35.318  1.00  0.00     0.074 A 
ATOM     58  C   UNL A   1      42.649  30.773  36.617  1.00  0.00     0.031 C 
ATOM     59  C   UNL A   1      43.022  29.252  34.693  1.00  0.00     0.034 A 
BRANCH  46  60
ATOM     60  C   UNL A   1      40.787  27.643  29.123  1.00  0.00     0.023 A 
ATOM     61  C   UNL A   1      41.734  27.865  28.106  1.00  0.00     0.031 A 
ATOM     62  C   UNL A   1      39.883  26.578  28.954  1.00  0.00     0.131 A 
ATOM     63  C   UNL A   1      41.701  27.096  26.934  1.00  0.00     0.055 A 
ATOM     64  C   UNL A   1      39.914  25.759  27.822  1.00  0.00     0.041 A 
ATOM     65  F   UNL A   1      38.942  26.328  29.876  1.00  0.00    -0.206 F 
ATOM     66  C   UNL A   1      40.814  26.026  26.796  1.00  0.00     0.022 A 
BRANCH  63  67
ATOM     67  S   UNL A   1      42.727  27.613  25.529  1.00  0.00     0.124 S 
ATOM     68  O   UNL A   1      42.685  26.425  24.681  1.00  0.00    -0.237 OA
ATOM     69  O   UNL A   1      42.012  28.781  25.029  1.00  0.00    -0.237 OA
ATOM     70  O   UNL A   1      44.026  27.889  26.137  1.00  0.00    -0.744 OA
ENDBRANCH  63  67
ENDBRANCH  46  60
BRANCH  47  71
ATOM     71  C   UNL A   1      39.531  33.573  37.141  1.00  0.00     0.023 A 
ATOM     72  C   UNL A   1      38.829  33.085  38.255  1.00  0.00     0.031 A 
ATOM     73  C   UNL A   1      40.007  34.895  37.191  1.00  0.00     0.131 A 
ATOM     74  C   UNL A   1      38.580  33.926  39.351  1.00  0.00     0.055 A 
ATOM     75  C   UNL A   1      39.803  35.711  38.305  1.00  0.00     0.041 A 
ATOM     76  F   UNL A   1      40.693  35.409  36.158  1.00  0.00    -0.206 F 
ATOM     77  C   UNL A   1      39.074  35.232  39.388  1.00  0.00     0.022 A 
BRANCH  74  78
ATOM     78  S   UNL A   1      37.528  33.313  40.695  1.00  0.00     0.124 S 
ATOM     79  O   UNL A   1      38.377  32.293  41.297  1.00  0.00    -0.237 OA
ATOM     80  O   UNL A   1      37.316  34.520  41.486  1.00  0.00    -0.237 OA
ATOM     81  O   UNL A   1      36.345  32.811  39.998  1.00  0.00    -0.744 OA
ENDBRANCH  74  78
ENDBRANCH  47  71
BRANCH  59  82
ATOM     82  C   UNL A   1      44.260  28.756  35.398  1.00  0.00     0.023 A 
ATOM     83  C   UNL A   1      44.207  27.711  36.337  1.00  0.00     0.031 A 
ATOM     84  C   UNL A   1      45.506  29.358  35.146  1.00  0.00     0.131 A 
ATOM     85  C   UNL A   1      45.365  27.344  37.038  1.00  0.00     0.055 A 
ATOM     86  C   UNL A   1      46.667  28.943  35.799  1.00  0.00     0.041 A 
ATOM     87  F   UNL A   1      45.613  30.361  34.260  1.00  0.00    -0.206 F 
ATOM     88  C   UNL A   1      46.597  27.942  36.763  1.00  0.00     0.022 A 
BRANCH  85  89
ATOM     89  S   UNL A   1      45.216  26.150  38.395  1.00  0.00     0.124 S 
ATOM     90  O   UNL A   1      44.295  26.832  39.299  1.00  0.00    -0.237 OA
ATOM     91  O   UNL A   1      44.688  24.971  37.716  1.00  0.00    -0.237 OA
ATOM     92  O   UNL A   1      46.586  26.020  38.888  1.00  0.00    -0.744 OA
ENDBRANCH  85  89
ENDBRANCH  59  82
ENDBRANCH  33  34
ENDBRANCH  25  28
ENDBRANCH  23  24
ENDBRANCH   1  23
TORSDOF 17
ENDMDL
