MODEL 1
REMARK VINA RESULT:     -12.8      0.000      0.000
REMARK SMILES COc1ccc(Cl)c2c1N[C@@H](c1ccc(C(=O)NCCCCNC(=O)c3ccc(-c4c5nc(c(-c6cc(S(=O)(=O)[O-])ccc6F)c6ccc([nH]6)c(-c6cc(S(=O)(=O)[O-])ccc6F)c6nc(c(-c7cc(S(=O)(=O)[O-])ccc7F)c7ccc4[nH]7)C=C6)C=C5)cc3)cc1)[C@@H]1CC=C[C@H]21
REMARK SMILES IDX 21 1 20 2 19 3 18 4 16 5 17 6 15 8 12 9 13 10 90 11 14 12
REMARK SMILES IDX 89 13 11 14 3 15 4 16 9 17 5 18 8 19 10 20 6 21 95 22 7 24
REMARK SMILES IDX 91 25 94 26 92 27 93 28 2 29 1 30 22 31 23 32 24 33 25 35
REMARK SMILES IDX 26 36 27 37 88 38 28 39 87 40 29 41 30 42 31 43 81 44 32 45
REMARK SMILES IDX 86 46 80 47 82 48 33 49 85 50 79 51 78 52 34 54 66 55 46 56
REMARK SMILES IDX 65 57 47 58 50 59 64 60 83 61 48 62 49 63 63 65 84 66 51 67
REMARK SMILES IDX 35 68 36 69 44 70 37 71 43 72 45 73 42 74 38 75 39 76 40 77
REMARK SMILES IDX 41 78 67 79 68 80 76 81 69 82 75 83 77 84 74 85 70 86 71 87
REMARK SMILES IDX 72 88 73 89 52 90 53 91 61 92 54 93 60 94 62 95 59 96 55 97
REMARK SMILES IDX 56 98 57 99 58 100
REMARK H PARENT 18 7 10 23 23 34 82 53 50 64
REMARK Flexibility Score: inf
ROOT
ATOM      1  C   UNL A   1      38.288  20.369  25.095  1.00  0.00     0.023 C 
ENDROOT
BRANCH   1   2
ATOM      2  C   UNL A   1      37.422  21.612  24.896  1.00  0.00     0.023 C 
BRANCH   2   3
ATOM      3  C   UNL A   1      35.919  21.341  24.818  1.00  0.00     0.116 C 
BRANCH   3   4
ATOM      4  N   UNL A   1      35.344  21.170  26.138  1.00  0.00    -0.352 N 
ATOM      5  C   UNL A   1      34.451  21.944  26.838  1.00  0.00     0.251 C 
ATOM      6  O   UNL A   1      34.020  21.526  27.912  1.00  0.00    -0.269 OA
ATOM      7  H   UNL A   1      35.645  20.362  26.614  1.00  0.00     0.163 HD
BRANCH   5   8
ATOM      8  C   UNL A   1      33.950  23.247  26.325  1.00  0.00     0.039 A 
ATOM      9  C   UNL A   1      32.884  25.712  25.445  1.00  0.00    -0.025 A 
ATOM     10  C   UNL A   1      32.151  24.882  26.307  1.00  0.00     0.006 A 
ATOM     11  C   UNL A   1      34.166  25.302  25.056  1.00  0.00     0.006 A 
ATOM     12  C   UNL A   1      32.687  23.669  26.753  1.00  0.00     0.014 A 
ATOM     13  C   UNL A   1      34.695  24.089  25.500  1.00  0.00     0.014 A 
BRANCH   9  14
ATOM     14  C   UNL A   1      32.341  27.033  24.926  1.00  0.00     0.114 C 
ATOM     15  C   UNL A   1      32.121  30.330  26.635  1.00  0.00     0.142 A 
ATOM     16  C   UNL A   1      31.553  31.590  26.477  1.00  0.00     0.050 A 
ATOM     17  C   UNL A   1      31.779  29.259  25.786  1.00  0.00     0.083 A 
ATOM     18  C   UNL A   1      30.652  31.808  25.441  1.00  0.00     0.025 A 
ATOM     19  C   UNL A   1      30.860  29.474  24.738  1.00  0.00     0.005 A 
ATOM     20  N   UNL A   1      32.316  27.999  26.006  1.00  0.00    -0.375 N 
ATOM     21  C   UNL A   1      30.305  30.762  24.580  1.00  0.00     0.047 A 
ATOM     22  C   UNL A   1      30.432  28.313  23.868  1.00  0.00     0.051 C 
ATOM     23  H   UNL A   1      32.679  27.763  26.890  1.00  0.00     0.161 HD
ATOM     24  Cl  UNL A   1      29.137  31.118  23.354  1.00  0.00    -0.084 Cl
ATOM     25  C   UNL A   1      30.928  26.915  24.320  1.00  0.00     0.031 C 
ATOM     26  C   UNL A   1      30.933  28.354  22.445  1.00  0.00    -0.023 C 
ATOM     27  C   UNL A   1      30.902  26.090  23.019  1.00  0.00     0.034 C 
ATOM     28  C   UNL A   1      31.176  27.123  21.976  1.00  0.00    -0.030 C 
BRANCH  15  29
ATOM     29  O   UNL A   1      32.976  30.162  27.699  1.00  0.00    -0.495 OA
ATOM     30  C   UNL A   1      34.266  30.711  27.421  1.00  0.00     0.278 C 
ENDBRANCH  15  29
ENDBRANCH   9  14
ENDBRANCH   5   8
ENDBRANCH   3   4
ENDBRANCH   2   3
ENDBRANCH   1   2
BRANCH   1  31
ATOM     31  C   UNL A   1      39.569  20.598  25.885  1.00  0.00     0.116 C 
BRANCH  31  32
ATOM     32  N   UNL A   1      40.449  19.437  25.901  1.00  0.00    -0.352 N 
ATOM     33  C   UNL A   1      41.812  19.426  26.087  1.00  0.00     0.251 C 
ATOM     34  H   UNL A   1      40.020  18.562  25.764  1.00  0.00     0.163 HD
ATOM     35  O   UNL A   1      42.454  18.389  26.003  1.00  0.00    -0.269 OA
BRANCH  33  36
ATOM     36  C   UNL A   1      42.480  20.714  26.351  1.00  0.00     0.039 A 
ATOM     37  C   UNL A   1      42.908  21.483  25.269  1.00  0.00     0.014 A 
ATOM     38  C   UNL A   1      42.574  21.193  27.661  1.00  0.00     0.014 A 
ATOM     39  C   UNL A   1      43.385  22.774  25.497  1.00  0.00     0.010 A 
ATOM     40  C   UNL A   1      43.005  22.495  27.881  1.00  0.00     0.010 A 
ATOM     41  C   UNL A   1      43.410  23.295  26.802  1.00  0.00    -0.014 A 
BRANCH  41  42
ATOM     42  C   UNL A   1      43.857  24.683  27.054  1.00  0.00     0.031 A 
ATOM     43  C   UNL A   1      42.881  25.695  27.574  1.00  0.00     0.074 A 
ATOM     44  C   UNL A   1      45.121  25.041  26.754  1.00  0.00     0.049 A 
ATOM     45  N   UNL A   1      43.074  26.959  27.841  1.00  0.00    -0.248 NA
ATOM     46  C   UNL A   1      41.502  25.232  27.804  1.00  0.00     0.031 C 
ATOM     47  C   UNL A   1      46.135  24.151  26.186  1.00  0.00     0.029 A 
ATOM     48  N   UNL A   1      45.763  26.248  26.870  1.00  0.00    -0.354 N 
ATOM     49  C   UNL A   1      41.845  27.444  28.269  1.00  0.00     0.074 A 
ATOM     50  C   UNL A   1      40.901  26.354  28.176  1.00  0.00     0.031 C 
ATOM     51  C   UNL A   1      47.273  24.841  26.010  1.00  0.00     0.029 A 
ATOM     52  C   UNL A   1      47.066  26.225  26.433  1.00  0.00     0.049 A 
ATOM     53  H   UNL A   1      45.331  27.054  27.232  1.00  0.00     0.167 HD
ATOM     54  C   UNL A   1      41.541  28.682  28.722  1.00  0.00     0.034 A 
ATOM     55  C   UNL A   1      47.989  27.206  26.380  1.00  0.00     0.034 A 
ATOM     56  C   UNL A   1      42.495  29.751  28.831  1.00  0.00     0.049 A 
ATOM     57  C   UNL A   1      47.633  28.572  26.910  1.00  0.00     0.074 A 
ATOM     58  C   UNL A   1      42.301  31.019  29.345  1.00  0.00     0.029 A 
ATOM     59  N   UNL A   1      43.818  29.681  28.421  1.00  0.00    -0.354 N 
ATOM     60  N   UNL A   1      46.497  28.984  27.421  1.00  0.00    -0.248 NA
ATOM     61  C   UNL A   1      48.681  29.602  26.873  1.00  0.00     0.031 C 
ATOM     62  C   UNL A   1      43.496  31.729  29.214  1.00  0.00     0.029 A 
ATOM     63  C   UNL A   1      44.448  30.890  28.656  1.00  0.00     0.049 A 
ATOM     64  H   UNL A   1      44.245  28.889  28.022  1.00  0.00     0.167 HD
ATOM     65  C   UNL A   1      46.699  30.311  27.788  1.00  0.00     0.074 A 
ATOM     66  C   UNL A   1      48.073  30.628  27.457  1.00  0.00     0.031 C 
ATOM     67  C   UNL A   1      45.825  31.186  28.344  1.00  0.00     0.034 A 
BRANCH  54  68
ATOM     68  C   UNL A   1      40.132  28.946  29.176  1.00  0.00     0.023 A 
ATOM     69  C   UNL A   1      39.796  28.841  30.537  1.00  0.00     0.031 A 
ATOM     70  C   UNL A   1      39.107  29.199  28.247  1.00  0.00     0.131 A 
ATOM     71  C   UNL A   1      38.458  28.967  30.929  1.00  0.00     0.055 A 
ATOM     72  C   UNL A   1      37.781  29.353  28.647  1.00  0.00     0.041 A 
ATOM     73  F   UNL A   1      39.387  29.313  26.938  1.00  0.00    -0.206 F 
ATOM     74  C   UNL A   1      37.450  29.229  29.993  1.00  0.00     0.022 A 
BRANCH  71  75
ATOM     75  S   UNL A   1      37.971  28.777  32.664  1.00  0.00     0.124 S 
ATOM     76  O   UNL A   1      37.970  27.324  32.822  1.00  0.00    -0.237 OA
ATOM     77  O   UNL A   1      39.044  29.480  33.359  1.00  0.00    -0.237 OA
ATOM     78  O   UNL A   1      36.655  29.404  32.728  1.00  0.00    -0.744 OA
ENDBRANCH  71  75
ENDBRANCH  54  68
BRANCH  55  79
ATOM     79  C   UNL A   1      49.353  26.898  25.869  1.00  0.00     0.023 A 
ATOM     80  C   UNL A   1      50.420  26.644  26.749  1.00  0.00     0.031 A 
ATOM     81  C   UNL A   1      49.627  26.938  24.491  1.00  0.00     0.131 A 
ATOM     82  C   UNL A   1      51.718  26.485  26.244  1.00  0.00     0.055 A 
ATOM     83  C   UNL A   1      50.911  26.725  23.987  1.00  0.00     0.041 A 
ATOM     84  F   UNL A   1      48.641  27.190  23.615  1.00  0.00    -0.206 F 
ATOM     85  C   UNL A   1      51.966  26.508  24.867  1.00  0.00     0.022 A 
BRANCH  82  86
ATOM     86  S   UNL A   1      53.141  26.334  27.358  1.00  0.00     0.124 S 
ATOM     87  O   UNL A   1      53.835  25.173  26.810  1.00  0.00    -0.237 OA
ATOM     88  O   UNL A   1      53.807  27.618  27.162  1.00  0.00    -0.237 OA
ATOM     89  O   UNL A   1      52.532  26.143  28.670  1.00  0.00    -0.744 OA
ENDBRANCH  82  86
ENDBRANCH  55  79
BRANCH  67  90
ATOM     90  C   UNL A   1      46.301  32.582  28.651  1.00  0.00     0.023 A 
ATOM     91  C   UNL A   1      46.189  33.591  27.677  1.00  0.00     0.031 A 
ATOM     92  C   UNL A   1      47.007  32.864  29.831  1.00  0.00     0.131 A 
ATOM     93  C   UNL A   1      46.811  34.828  27.885  1.00  0.00     0.055 A 
ATOM     94  C   UNL A   1      47.593  34.111  30.051  1.00  0.00     0.041 A 
ATOM     95  F   UNL A   1      47.146  31.927  30.782  1.00  0.00    -0.206 F 
ATOM     96  C   UNL A   1      47.507  35.096  29.069  1.00  0.00     0.022 A 
BRANCH  93  97
ATOM     97  S   UNL A   1      46.801  36.109  26.601  1.00  0.00     0.124 S 
ATOM     98  O   UNL A   1      47.116  35.337  25.400  1.00  0.00    -0.237 OA
ATOM     99  O   UNL A   1      45.433  36.611  26.679  1.00  0.00    -0.237 OA
ATOM    100  O   UNL A   1      47.840  37.042  27.026  1.00  0.00    -0.744 OA
ENDBRANCH  93  97
ENDBRANCH  67  90
ENDBRANCH  41  42
ENDBRANCH  33  36
ENDBRANCH  31  32
ENDBRANCH   1  31
TORSDOF 16
ENDMDL
MODEL 2
REMARK VINA RESULT:     -12.7      1.765      7.577
REMARK SMILES COc1ccc(Cl)c2c1N[C@@H](c1ccc(C(=O)NCCCCNC(=O)c3ccc(-c4c5nc(c(-c6cc(S(=O)(=O)[O-])ccc6F)c6ccc([nH]6)c(-c6cc(S(=O)(=O)[O-])ccc6F)c6nc(c(-c7cc(S(=O)(=O)[O-])ccc7F)c7ccc4[nH]7)C=C6)C=C5)cc3)cc1)[C@@H]1CC=C[C@H]21
REMARK SMILES IDX 21 1 20 2 19 3 18 4 16 5 17 6 15 8 12 9 13 10 90 11 14 12
REMARK SMILES IDX 89 13 11 14 3 15 4 16 9 17 5 18 8 19 10 20 6 21 95 22 7 24
REMARK SMILES IDX 91 25 94 26 92 27 93 28 2 29 1 30 22 31 23 32 24 33 25 35
REMARK SMILES IDX 26 36 27 37 88 38 28 39 87 40 29 41 30 42 31 43 81 44 32 45
REMARK SMILES IDX 86 46 80 47 82 48 33 49 85 50 79 51 78 52 34 54 66 55 46 56
REMARK SMILES IDX 65 57 47 58 50 59 64 60 83 61 48 62 49 63 63 65 84 66 51 67
REMARK SMILES IDX 35 68 36 69 44 70 37 71 43 72 45 73 42 74 38 75 39 76 40 77
REMARK SMILES IDX 41 78 67 79 68 80 76 81 69 82 75 83 77 84 74 85 70 86 71 87
REMARK SMILES IDX 72 88 73 89 52 90 53 91 61 92 54 93 60 94 62 95 59 96 55 97
REMARK SMILES IDX 56 98 57 99 58 100
REMARK H PARENT 18 7 10 23 23 34 82 53 50 64
REMARK Flexibility Score: inf
ROOT
ATOM      1  C   UNL A   1      40.599  20.588  26.768  1.00  0.00     0.023 C 
ENDROOT
BRANCH   1   2
ATOM      2  C   UNL A   1      40.359  22.097  26.745  1.00  0.00     0.023 C 
BRANCH   2   3
ATOM      3  C   UNL A   1      38.988  22.521  26.214  1.00  0.00     0.116 C 
BRANCH   3   4
ATOM      4  N   UNL A   1      38.159  21.369  25.914  1.00  0.00    -0.352 N 
ATOM      5  C   UNL A   1      36.885  21.285  25.409  1.00  0.00     0.251 C 
ATOM      6  O   UNL A   1      36.430  20.176  25.132  1.00  0.00    -0.269 OA
ATOM      7  H   UNL A   1      38.581  20.500  26.106  1.00  0.00     0.163 HD
BRANCH   5   8
ATOM      8  C   UNL A   1      36.051  22.487  25.141  1.00  0.00     0.039 A 
ATOM      9  C   UNL A   1      34.478  24.742  24.485  1.00  0.00    -0.025 A 
ATOM     10  C   UNL A   1      35.132  24.009  23.483  1.00  0.00     0.006 A 
ATOM     11  C   UNL A   1      34.601  24.311  25.812  1.00  0.00     0.006 A 
ATOM     12  C   UNL A   1      35.898  22.885  23.808  1.00  0.00     0.014 A 
ATOM     13  C   UNL A   1      35.370  23.191  26.133  1.00  0.00     0.014 A 
BRANCH   9  14
ATOM     14  C   UNL A   1      33.644  25.975  24.182  1.00  0.00     0.114 C 
ATOM     15  C   UNL A   1      33.325  29.142  26.109  1.00  0.00     0.142 A 
ATOM     16  C   UNL A   1      32.555  30.300  26.159  1.00  0.00     0.050 A 
ATOM     17  C   UNL A   1      32.964  28.056  25.286  1.00  0.00     0.083 A 
ATOM     18  C   UNL A   1      31.424  30.404  25.358  1.00  0.00     0.025 A 
ATOM     19  C   UNL A   1      31.813  28.155  24.477  1.00  0.00     0.005 A 
ATOM     20  N   UNL A   1      33.718  26.892  25.302  1.00  0.00    -0.375 N 
ATOM     21  C   UNL A   1      31.053  29.342  24.526  1.00  0.00     0.047 A 
ATOM     22  C   UNL A   1      31.378  26.967  23.646  1.00  0.00     0.051 C 
ATOM     23  H   UNL A   1      34.299  26.689  26.070  1.00  0.00     0.161 HD
ATOM     24  Cl  UNL A   1      29.600  29.546  23.607  1.00  0.00    -0.084 Cl
ATOM     25  C   UNL A   1      32.164  25.653  23.889  1.00  0.00     0.031 C 
ATOM     26  C   UNL A   1      31.538  27.131  22.154  1.00  0.00    -0.023 C 
ATOM     27  C   UNL A   1      31.971  24.874  22.574  1.00  0.00     0.034 C 
ATOM     28  C   UNL A   1      31.849  25.970  21.565  1.00  0.00    -0.030 C 
BRANCH  15  29
ATOM     29  O   UNL A   1      34.411  29.079  26.949  1.00  0.00    -0.495 OA
ATOM     30  C   UNL A   1      34.611  30.317  27.634  1.00  0.00     0.278 C 
ENDBRANCH  15  29
ENDBRANCH   9  14
ENDBRANCH   5   8
ENDBRANCH   3   4
ENDBRANCH   2   3
ENDBRANCH   1   2
BRANCH   1  31
ATOM     31  C   UNL A   1      42.018  20.168  27.124  1.00  0.00     0.116 C 
BRANCH  31  32
ATOM     32  N   UNL A   1      42.736  19.568  26.007  1.00  0.00    -0.352 N 
ATOM     33  C   UNL A   1      43.675  20.168  25.201  1.00  0.00     0.251 C 
ATOM     34  H   UNL A   1      42.526  18.628  25.808  1.00  0.00     0.163 HD
ATOM     35  O   UNL A   1      44.156  19.580  24.242  1.00  0.00    -0.269 OA
BRANCH  33  36
ATOM     36  C   UNL A   1      44.056  21.559  25.506  1.00  0.00     0.039 A 
ATOM     37  C   UNL A   1      43.558  22.584  24.701  1.00  0.00     0.014 A 
ATOM     38  C   UNL A   1      44.809  21.839  26.650  1.00  0.00     0.014 A 
ATOM     39  C   UNL A   1      43.770  23.910  25.077  1.00  0.00     0.010 A 
ATOM     40  C   UNL A   1      44.978  23.160  27.047  1.00  0.00     0.010 A 
ATOM     41  C   UNL A   1      44.458  24.203  26.267  1.00  0.00    -0.014 A 
BRANCH  41  42
ATOM     42  C   UNL A   1      44.639  25.603  26.711  1.00  0.00     0.031 A 
ATOM     43  C   UNL A   1      45.995  26.238  26.636  1.00  0.00     0.074 A 
ATOM     44  C   UNL A   1      43.597  26.274  27.240  1.00  0.00     0.049 A 
ATOM     45  N   UNL A   1      46.358  27.441  26.991  1.00  0.00    -0.248 NA
ATOM     46  C   UNL A   1      47.090  25.405  26.113  1.00  0.00     0.031 C 
ATOM     47  C   UNL A   1      42.248  25.731  27.416  1.00  0.00     0.029 A 
ATOM     48  N   UNL A   1      43.511  27.550  27.738  1.00  0.00    -0.354 N 
ATOM     49  C   UNL A   1      47.721  27.511  26.737  1.00  0.00     0.074 A 
ATOM     50  C   UNL A   1      48.132  26.215  26.247  1.00  0.00     0.031 C 
ATOM     51  C   UNL A   1      41.469  26.669  27.977  1.00  0.00     0.029 A 
ATOM     52  C   UNL A   1      42.263  27.873  28.217  1.00  0.00     0.049 A 
ATOM     53  H   UNL A   1      44.271  28.174  27.751  1.00  0.00     0.167 HD
ATOM     54  C   UNL A   1      48.549  28.572  26.876  1.00  0.00     0.034 A 
ATOM     55  C   UNL A   1      41.811  29.010  28.784  1.00  0.00     0.034 A 
ATOM     56  C   UNL A   1      48.124  29.864  27.342  1.00  0.00     0.049 A 
ATOM     57  C   UNL A   1      42.747  30.185  28.910  1.00  0.00     0.074 A 
ATOM     58  C   UNL A   1      48.873  31.021  27.450  1.00  0.00     0.029 A 
ATOM     59  N   UNL A   1      46.844  30.170  27.777  1.00  0.00    -0.354 N 
ATOM     60  N   UNL A   1      44.007  30.272  28.556  1.00  0.00    -0.248 NA
ATOM     61  C   UNL A   1      42.203  31.418  29.495  1.00  0.00     0.031 C 
ATOM     62  C   UNL A   1      48.055  32.018  27.983  1.00  0.00     0.029 A 
ATOM     63  C   UNL A   1      46.784  31.495  28.171  1.00  0.00     0.049 A 
ATOM     64  H   UNL A   1      46.089  29.538  27.803  1.00  0.00     0.167 HD
ATOM     65  C   UNL A   1      44.400  31.574  28.851  1.00  0.00     0.074 A 
ATOM     66  C   UNL A   1      43.238  32.244  29.397  1.00  0.00     0.031 C 
ATOM     67  C   UNL A   1      45.614  32.158  28.690  1.00  0.00     0.034 A 
BRANCH  54  68
ATOM     68  C   UNL A   1      49.991  28.405  26.484  1.00  0.00     0.023 A 
ATOM     69  C   UNL A   1      50.389  28.599  25.150  1.00  0.00     0.031 A 
ATOM     70  C   UNL A   1      50.946  27.952  27.412  1.00  0.00     0.131 A 
ATOM     71  C   UNL A   1      51.708  28.319  24.775  1.00  0.00     0.055 A 
ATOM     72  C   UNL A   1      52.266  27.703  27.038  1.00  0.00     0.041 A 
ATOM     73  F   UNL A   1      50.609  27.759  28.697  1.00  0.00    -0.206 F 
ATOM     74  C   UNL A   1      52.650  27.878  25.713  1.00  0.00     0.022 A 
BRANCH  71  75
ATOM     75  S   UNL A   1      52.248  28.495  23.054  1.00  0.00     0.124 S 
ATOM     76  O   UNL A   1      51.081  29.116  22.431  1.00  0.00    -0.237 OA
ATOM     77  O   UNL A   1      53.417  29.359  23.189  1.00  0.00    -0.237 OA
ATOM     78  O   UNL A   1      52.518  27.126  22.630  1.00  0.00    -0.744 OA
ENDBRANCH  71  75
ENDBRANCH  54  68
BRANCH  55  79
ATOM     79  C   UNL A   1      40.385  29.098  29.204  1.00  0.00     0.023 A 
ATOM     80  C   UNL A   1      40.018  29.001  30.558  1.00  0.00     0.031 A 
ATOM     81  C   UNL A   1      39.362  29.193  28.246  1.00  0.00     0.131 A 
ATOM     82  C   UNL A   1      38.662  28.958  30.911  1.00  0.00     0.055 A 
ATOM     83  C   UNL A   1      38.013  29.205  28.605  1.00  0.00     0.041 A 
ATOM     84  F   UNL A   1      39.666  29.274  26.940  1.00  0.00    -0.206 F 
ATOM     85  C   UNL A   1      37.658  29.075  29.944  1.00  0.00     0.022 A 
BRANCH  82  86
ATOM     86  S   UNL A   1      38.154  28.656  32.626  1.00  0.00     0.124 S 
ATOM     87  O   UNL A   1      36.879  29.365  32.695  1.00  0.00    -0.237 OA
ATOM     88  O   UNL A   1      38.068  27.199  32.655  1.00  0.00    -0.237 OA
ATOM     89  O   UNL A   1      39.239  29.232  33.412  1.00  0.00    -0.744 OA
ENDBRANCH  82  86
ENDBRANCH  55  79
BRANCH  67  90
ATOM     90  C   UNL A   1      45.778  33.600  29.092  1.00  0.00     0.023 A 
ATOM     91  C   UNL A   1      45.532  34.621  28.156  1.00  0.00     0.031 A 
ATOM     92  C   UNL A   1      46.332  33.948  30.335  1.00  0.00     0.131 A 
ATOM     93  C   UNL A   1      45.878  35.943  28.464  1.00  0.00     0.055 A 
ATOM     94  C   UNL A   1      46.639  35.272  30.652  1.00  0.00     0.041 A 
ATOM     95  F   UNL A   1      46.592  33.005  31.253  1.00  0.00    -0.206 F 
ATOM     96  C   UNL A   1      46.424  36.275  29.709  1.00  0.00     0.022 A 
BRANCH  93  97
ATOM     97  S   UNL A   1      45.697  37.267  27.238  1.00  0.00     0.124 S 
ATOM     98  O   UNL A   1      44.280  37.172  26.895  1.00  0.00    -0.237 OA
ATOM     99  O   UNL A   1      46.076  38.449  28.006  1.00  0.00    -0.237 OA
ATOM    100  O   UNL A   1      46.618  36.888  26.171  1.00  0.00    -0.744 OA
ENDBRANCH  93  97
ENDBRANCH  67  90
ENDBRANCH  41  42
ENDBRANCH  33  36
ENDBRANCH  31  32
ENDBRANCH   1  31
TORSDOF 16
ENDMDL
MODEL 3
REMARK VINA RESULT:     -12.3      5.192      9.346
REMARK SMILES COc1ccc(Cl)c2c1N[C@@H](c1ccc(C(=O)NCCCCNC(=O)c3ccc(-c4c5nc(c(-c6cc(S(=O)(=O)[O-])ccc6F)c6ccc([nH]6)c(-c6cc(S(=O)(=O)[O-])ccc6F)c6nc(c(-c7cc(S(=O)(=O)[O-])ccc7F)c7ccc4[nH]7)C=C6)C=C5)cc3)cc1)[C@@H]1CC=C[C@H]21
REMARK SMILES IDX 21 1 20 2 19 3 18 4 16 5 17 6 15 8 12 9 13 10 90 11 14 12
REMARK SMILES IDX 89 13 11 14 3 15 4 16 9 17 5 18 8 19 10 20 6 21 95 22 7 24
REMARK SMILES IDX 91 25 94 26 92 27 93 28 2 29 1 30 22 31 23 32 24 33 25 35
REMARK SMILES IDX 26 36 27 37 88 38 28 39 87 40 29 41 30 42 31 43 81 44 32 45
REMARK SMILES IDX 86 46 80 47 82 48 33 49 85 50 79 51 78 52 34 54 66 55 46 56
REMARK SMILES IDX 65 57 47 58 50 59 64 60 83 61 48 62 49 63 63 65 84 66 51 67
REMARK SMILES IDX 35 68 36 69 44 70 37 71 43 72 45 73 42 74 38 75 39 76 40 77
REMARK SMILES IDX 41 78 67 79 68 80 76 81 69 82 75 83 77 84 74 85 70 86 71 87
REMARK SMILES IDX 72 88 73 89 52 90 53 91 61 92 54 93 60 94 62 95 59 96 55 97
REMARK SMILES IDX 56 98 57 99 58 100
REMARK H PARENT 18 7 10 23 23 34 82 53 50 64
REMARK Flexibility Score: inf
ROOT
ATOM      1  C   UNL A   1      44.831  23.972  26.478  1.00  0.00     0.023 C 
ENDROOT
BRANCH   1   2
ATOM      2  C   UNL A   1      44.288  24.278  27.873  1.00  0.00     0.023 C 
BRANCH   2   3
ATOM      3  C   UNL A   1      42.783  24.547  27.931  1.00  0.00     0.116 C 
BRANCH   3   4
ATOM      4  N   UNL A   1      42.250  24.850  26.617  1.00  0.00    -0.352 N 
ATOM      5  C   UNL A   1      41.374  25.823  26.204  1.00  0.00     0.251 C 
ATOM      6  O   UNL A   1      41.157  25.952  25.000  1.00  0.00    -0.269 OA
ATOM      7  H   UNL A   1      42.569  24.256  25.899  1.00  0.00     0.163 HD
BRANCH   5   8
ATOM      8  C   UNL A   1      40.715  26.759  27.153  1.00  0.00     0.039 A 
ATOM      9  C   UNL A   1      39.486  28.647  28.859  1.00  0.00    -0.025 A 
ATOM     10  C   UNL A   1      40.167  29.063  27.705  1.00  0.00     0.006 A 
ATOM     11  C   UNL A   1      39.405  27.275  29.128  1.00  0.00     0.006 A 
ATOM     12  C   UNL A   1      40.762  28.126  26.854  1.00  0.00     0.014 A 
ATOM     13  C   UNL A   1      40.004  26.343  28.278  1.00  0.00     0.014 A 
BRANCH   9  14
ATOM     14  C   UNL A   1      38.832  29.628  29.819  1.00  0.00     0.114 C 
ATOM     15  C   UNL A   1      36.361  32.321  29.124  1.00  0.00     0.142 A 
ATOM     16  C   UNL A   1      35.757  33.414  29.738  1.00  0.00     0.050 A 
ATOM     17  C   UNL A   1      37.439  31.643  29.729  1.00  0.00     0.083 A 
ATOM     18  C   UNL A   1      36.201  33.828  30.988  1.00  0.00     0.025 A 
ATOM     19  C   UNL A   1      37.897  32.065  30.993  1.00  0.00     0.005 A 
ATOM     20  N   UNL A   1      38.060  30.596  29.065  1.00  0.00    -0.375 N 
ATOM     21  C   UNL A   1      37.263  33.163  31.611  1.00  0.00     0.047 A 
ATOM     22  C   UNL A   1      39.100  31.389  31.617  1.00  0.00     0.051 C 
ATOM     23  H   UNL A   1      37.977  30.509  28.088  1.00  0.00     0.161 HD
ATOM     24  Cl  UNL A   1      37.780  33.785  33.141  1.00  0.00    -0.084 Cl
ATOM     25  C   UNL A   1      39.845  30.374  30.711  1.00  0.00     0.031 C 
ATOM     26  C   UNL A   1      38.806  30.538  32.828  1.00  0.00    -0.023 C 
ATOM     27  C   UNL A   1      40.550  29.447  31.721  1.00  0.00     0.034 C 
ATOM     28  C   UNL A   1      39.620  29.477  32.890  1.00  0.00    -0.030 C 
BRANCH  15  29
ATOM     29  O   UNL A   1      35.906  31.979  27.873  1.00  0.00    -0.495 OA
ATOM     30  C   UNL A   1      34.501  31.720  27.883  1.00  0.00     0.278 C 
ENDBRANCH  15  29
ENDBRANCH   9  14
ENDBRANCH   5   8
ENDBRANCH   3   4
ENDBRANCH   2   3
ENDBRANCH   1   2
BRANCH   1  31
ATOM     31  C   UNL A   1      46.344  24.063  26.344  1.00  0.00     0.116 C 
BRANCH  31  32
ATOM     32  N   UNL A   1      46.773  24.798  25.161  1.00  0.00    -0.352 N 
ATOM     33  C   UNL A   1      46.695  26.154  24.948  1.00  0.00     0.251 C 
ATOM     34  H   UNL A   1      47.162  24.263  24.432  1.00  0.00     0.163 HD
ATOM     35  O   UNL A   1      47.019  26.647  23.876  1.00  0.00    -0.269 OA
BRANCH  33  36
ATOM     36  C   UNL A   1      46.168  26.993  26.040  1.00  0.00     0.039 A 
ATOM     37  C   UNL A   1      44.812  27.322  26.041  1.00  0.00     0.014 A 
ATOM     38  C   UNL A   1      46.999  27.347  27.107  1.00  0.00     0.014 A 
ATOM     39  C   UNL A   1      44.269  27.967  27.151  1.00  0.00     0.010 A 
ATOM     40  C   UNL A   1      46.446  27.948  28.231  1.00  0.00     0.010 A 
ATOM     41  C   UNL A   1      45.078  28.259  28.263  1.00  0.00    -0.014 A 
BRANCH  41  42
ATOM     42  C   UNL A   1      44.505  28.890  29.473  1.00  0.00     0.031 A 
ATOM     43  C   UNL A   1      44.058  30.320  29.425  1.00  0.00     0.074 A 
ATOM     44  C   UNL A   1      44.448  28.192  30.623  1.00  0.00     0.049 A 
ATOM     45  N   UNL A   1      43.548  31.052  30.379  1.00  0.00    -0.248 NA
ATOM     46  C   UNL A   1      44.225  31.026  28.144  1.00  0.00     0.031 C 
ATOM     47  C   UNL A   1      44.912  26.813  30.796  1.00  0.00     0.029 A 
ATOM     48  N   UNL A   1      43.991  28.549  31.867  1.00  0.00    -0.354 N 
ATOM     49  C   UNL A   1      43.335  32.304  29.817  1.00  0.00     0.074 A 
ATOM     50  C   UNL A   1      43.817  32.249  28.456  1.00  0.00     0.031 C 
ATOM     51  C   UNL A   1      44.710  26.440  32.070  1.00  0.00     0.029 A 
ATOM     52  C   UNL A   1      44.121  27.555  32.809  1.00  0.00     0.049 A 
ATOM     53  H   UNL A   1      43.607  29.432  32.066  1.00  0.00     0.167 HD
ATOM     54  C   UNL A   1      42.763  33.392  30.382  1.00  0.00     0.034 A 
ATOM     55  C   UNL A   1      43.800  27.545  34.119  1.00  0.00     0.034 A 
ATOM     56  C   UNL A   1      42.265  33.427  31.730  1.00  0.00     0.049 A 
ATOM     57  C   UNL A   1      43.145  28.762  34.720  1.00  0.00     0.074 A 
ATOM     58  C   UNL A   1      41.605  34.459  32.369  1.00  0.00     0.029 A 
ATOM     59  N   UNL A   1      42.371  32.389  32.643  1.00  0.00    -0.354 N 
ATOM     60  N   UNL A   1      42.843  29.901  34.143  1.00  0.00    -0.248 NA
ATOM     61  C   UNL A   1      42.773  28.693  36.140  1.00  0.00     0.031 C 
ATOM     62  C   UNL A   1      41.343  34.060  33.681  1.00  0.00     0.029 A 
ATOM     63  C   UNL A   1      41.804  32.763  33.848  1.00  0.00     0.049 A 
ATOM     64  H   UNL A   1      42.790  31.516  32.462  1.00  0.00     0.167 HD
ATOM     65  C   UNL A   1      42.224  30.675  35.120  1.00  0.00     0.074 A 
ATOM     66  C   UNL A   1      42.179  29.867  36.321  1.00  0.00     0.031 C 
ATOM     67  C   UNL A   1      41.743  31.940  35.031  1.00  0.00     0.034 A 
BRANCH  54  68
ATOM     68  C   UNL A   1      42.601  34.627  29.540  1.00  0.00     0.023 A 
ATOM     69  C   UNL A   1      43.683  35.505  29.357  1.00  0.00     0.031 A 
ATOM     70  C   UNL A   1      41.348  34.983  29.009  1.00  0.00     0.131 A 
ATOM     71  C   UNL A   1      43.485  36.713  28.676  1.00  0.00     0.055 A 
ATOM     72  C   UNL A   1      41.165  36.174  28.306  1.00  0.00     0.041 A 
ATOM     73  F   UNL A   1      40.290  34.169  29.156  1.00  0.00    -0.206 F 
ATOM     74  C   UNL A   1      42.234  37.048  28.144  1.00  0.00     0.022 A 
BRANCH  71  75
ATOM     75  S   UNL A   1      44.837  37.902  28.472  1.00  0.00     0.124 S 
ATOM     76  O   UNL A   1      44.244  39.130  28.998  1.00  0.00    -0.237 OA
ATOM     77  O   UNL A   1      45.888  37.313  29.296  1.00  0.00    -0.237 OA
ATOM     78  O   UNL A   1      45.085  37.905  27.034  1.00  0.00    -0.744 OA
ENDBRANCH  71  75
ENDBRANCH  54  68
BRANCH  55  79
ATOM     79  C   UNL A   1      44.034  26.309  34.917  1.00  0.00     0.023 A 
ATOM     80  C   UNL A   1      45.322  25.968  35.369  1.00  0.00     0.031 A 
ATOM     81  C   UNL A   1      42.986  25.407  35.163  1.00  0.00     0.131 A 
ATOM     82  C   UNL A   1      45.533  24.737  36.004  1.00  0.00     0.055 A 
ATOM     83  C   UNL A   1      43.190  24.206  35.844  1.00  0.00     0.041 A 
ATOM     84  F   UNL A   1      41.743  25.685  34.737  1.00  0.00    -0.206 F 
ATOM     85  C   UNL A   1      44.472  23.862  36.259  1.00  0.00     0.022 A 
BRANCH  82  86
ATOM     86  S   UNL A   1      47.206  24.189  36.441  1.00  0.00     0.124 S 
ATOM     87  O   UNL A   1      47.640  23.525  35.215  1.00  0.00    -0.237 OA
ATOM     88  O   UNL A   1      47.864  25.459  36.739  1.00  0.00    -0.237 OA
ATOM     89  O   UNL A   1      46.992  23.315  37.589  1.00  0.00    -0.744 OA
ENDBRANCH  82  86
ENDBRANCH  55  79
BRANCH  67  90
ATOM     90  C   UNL A   1      41.109  32.556  36.250  1.00  0.00     0.023 A 
ATOM     91  C   UNL A   1      39.793  32.211  36.607  1.00  0.00     0.031 A 
ATOM     92  C   UNL A   1      41.743  33.596  36.949  1.00  0.00     0.131 A 
ATOM     93  C   UNL A   1      39.135  32.929  37.613  1.00  0.00     0.055 A 
ATOM     94  C   UNL A   1      41.097  34.284  37.977  1.00  0.00     0.041 A 
ATOM     95  F   UNL A   1      42.994  33.965  36.635  1.00  0.00    -0.206 F 
ATOM     96  C   UNL A   1      39.782  33.960  38.304  1.00  0.00     0.022 A 
BRANCH  93  97
ATOM     97  S   UNL A   1      37.397  32.602  38.013  1.00  0.00     0.124 S 
ATOM     98  O   UNL A   1      36.698  33.399  37.007  1.00  0.00    -0.237 OA
ATOM     99  O   UNL A   1      37.308  31.156  37.836  1.00  0.00    -0.237 OA
ATOM    100  O   UNL A   1      37.255  33.078  39.386  1.00  0.00    -0.744 OA
ENDBRANCH  93  97
ENDBRANCH  67  90
ENDBRANCH  41  42
ENDBRANCH  33  36
ENDBRANCH  31  32
ENDBRANCH   1  31
TORSDOF 16
ENDMDL
