MODEL 1
REMARK VINA RESULT:      -9.6      0.000      0.000
REMARK SMILES CCCCCCNC(=O)Oc1cccc(-c2ccc([C@@H](C)C(=O)NCCCCNC(=O)c3ccc(-c4c5nc(c(-c6cc(S(=O)(=O)[O-])ccc6F)c6ccc([nH]6)c(-c6cc(S(=O)(=O)[O-])ccc6F)c6nc(c(-c7cc(S(=O)(=O)[O-])ccc7F)c7ccc4[nH]7)C=C6)C=C5)cc3)cc2Cl)c1
REMARK SMILES IDX 20 1 21 2 19 3 16 4 17 5 96 6 18 7 95 8 97 9 15 10 11 11
REMARK SMILES IDX 12 12 98 13 13 14 14 15 10 16 8 17 7 18 9 20 6 21 5 22 4 23
REMARK SMILES IDX 3 24 2 25 1 26 22 27 23 28 24 29 25 31 26 32 27 33 28 34
REMARK SMILES IDX 29 35 30 36 31 38 32 39 33 40 94 41 34 42 93 43 35 44 36 45
REMARK SMILES IDX 37 46 87 47 38 48 92 49 86 50 88 51 39 52 91 53 85 54 84 55
REMARK SMILES IDX 40 57 72 58 52 59 71 60 53 61 56 62 70 63 89 64 54 65 55 66
REMARK SMILES IDX 69 68 90 69 57 70 41 71 42 72 50 73 43 74 49 75 51 76 48 77
REMARK SMILES IDX 44 78 45 79 46 80 47 81 73 82 74 83 82 84 75 85 81 86 83 87
REMARK SMILES IDX 80 88 76 89 77 90 78 91 79 92 58 93 59 94 67 95 60 96 66 97
REMARK SMILES IDX 68 98 65 99 61 100 62 101 63 102 64 103
REMARK H PARENT 7 19 24 30 29 37 88 56 56 67
REMARK Flexibility Score: inf
ROOT
ATOM      1  C   UNL A   1      39.017  27.256  28.783  1.00  0.00     0.105 C 
ATOM      2  C   UNL A   1      39.215  27.421  30.288  1.00  0.00     0.023 C 
ENDROOT
BRANCH   1   3
ATOM      3  C   UNL A   1      39.681  26.040  28.156  1.00  0.00    -0.034 A 
ATOM      4  C   UNL A   1      40.821  23.581  27.219  1.00  0.00     0.000 A 
ATOM      5  C   UNL A   1      39.689  24.161  26.615  1.00  0.00     0.010 A 
ATOM      6  C   UNL A   1      41.428  24.324  28.251  1.00  0.00     0.049 A 
ATOM      7  C   UNL A   1      39.165  25.387  27.038  1.00  0.00     0.005 A 
ATOM      8  C   UNL A   1      40.843  25.507  28.734  1.00  0.00     0.025 A 
ATOM      9  Cl  UNL A   1      42.949  23.882  28.959  1.00  0.00    -0.084 Cl
BRANCH   4  10
ATOM     10  C   UNL A   1      41.266  22.242  26.759  1.00  0.00    -0.013 A 
ATOM     11  C   UNL A   1      43.021  20.687  26.104  1.00  0.00     0.133 A 
ATOM     12  C   UNL A   1      42.103  19.650  25.975  1.00  0.00     0.047 A 
ATOM     13  C   UNL A   1      42.619  21.964  26.501  1.00  0.00     0.056 A 
ATOM     14  C   UNL A   1      40.764  19.894  26.252  1.00  0.00     0.004 A 
ATOM     15  C   UNL A   1      40.351  21.178  26.626  1.00  0.00     0.009 A 
BRANCH  11  16
ATOM     16  O   UNL A   1      44.336  20.426  25.685  1.00  0.00    -0.410 OA
BRANCH  16  17
ATOM     17  C   UNL A   1      44.553  19.988  24.388  1.00  0.00     0.412 C 
ATOM     18  N   UNL A   1      44.775  21.016  23.512  1.00  0.00    -0.321 N 
ATOM     19  H   UNL A   1      44.903  20.770  22.567  1.00  0.00     0.167 HD
ATOM     20  O   UNL A   1      44.549  18.824  24.009  1.00  0.00    -0.224 OA
BRANCH  18  21
ATOM     21  C   UNL A   1      44.843  22.427  23.831  1.00  0.00     0.119 C 
BRANCH  21  22
ATOM     22  C   UNL A   1      46.276  22.883  24.104  1.00  0.00     0.021 C 
BRANCH  22  23
ATOM     23  C   UNL A   1      46.403  24.042  25.101  1.00  0.00     0.002 C 
BRANCH  23  24
ATOM     24  C   UNL A   1      45.254  24.175  26.107  1.00  0.00    -0.000 C 
BRANCH  24  25
ATOM     25  C   UNL A   1      44.485  25.497  26.054  1.00  0.00    -0.003 C 
ATOM     26  C   UNL A   1      43.256  25.444  25.159  1.00  0.00     0.004 C 
ENDBRANCH  24  25
ENDBRANCH  23  24
ENDBRANCH  22  23
ENDBRANCH  21  22
ENDBRANCH  18  21
ENDBRANCH  16  17
ENDBRANCH  11  16
ENDBRANCH   4  10
ENDBRANCH   1   3
BRANCH   1  27
ATOM     27  C   UNL A   1      39.213  28.550  27.976  1.00  0.00     0.227 C 
ATOM     28  O   UNL A   1      40.256  28.716  27.332  1.00  0.00    -0.274 OA
ATOM     29  N   UNL A   1      38.291  29.550  27.904  1.00  0.00    -0.356 N 
ATOM     30  H   UNL A   1      38.536  30.279  27.289  1.00  0.00     0.163 HD
BRANCH  29  31
ATOM     31  C   UNL A   1      37.018  29.737  28.567  1.00  0.00     0.116 C 
BRANCH  31  32
ATOM     32  C   UNL A   1      35.838  29.506  27.622  1.00  0.00     0.023 C 
BRANCH  32  33
ATOM     33  C   UNL A   1      34.693  30.504  27.765  1.00  0.00     0.023 C 
BRANCH  33  34
ATOM     34  C   UNL A   1      35.096  31.968  27.656  1.00  0.00     0.116 C 
BRANCH  34  35
ATOM     35  N   UNL A   1      34.044  32.903  28.032  1.00  0.00    -0.352 N 
ATOM     36  C   UNL A   1      33.918  33.597  29.216  1.00  0.00     0.251 C 
ATOM     37  H   UNL A   1      33.340  33.058  27.361  1.00  0.00     0.163 HD
ATOM     38  O   UNL A   1      32.926  34.284  29.431  1.00  0.00    -0.269 OA
BRANCH  36  39
ATOM     39  C   UNL A   1      34.977  33.450  30.236  1.00  0.00     0.039 A 
ATOM     40  C   UNL A   1      34.960  32.338  31.080  1.00  0.00     0.014 A 
ATOM     41  C   UNL A   1      36.035  34.361  30.284  1.00  0.00     0.014 A 
ATOM     42  C   UNL A   1      36.051  32.096  31.916  1.00  0.00     0.010 A 
ATOM     43  C   UNL A   1      37.156  34.070  31.051  1.00  0.00     0.010 A 
ATOM     44  C   UNL A   1      37.178  32.934  31.875  1.00  0.00    -0.014 A 
BRANCH  44  45
ATOM     45  C   UNL A   1      38.388  32.652  32.691  1.00  0.00     0.031 A 
ATOM     46  C   UNL A   1      39.562  31.953  32.063  1.00  0.00     0.074 A 
ATOM     47  C   UNL A   1      38.401  32.955  34.005  1.00  0.00     0.049 A 
ATOM     48  N   UNL A   1      40.665  31.521  32.617  1.00  0.00    -0.248 NA
ATOM     49  C   UNL A   1      39.464  31.669  30.621  1.00  0.00     0.031 C 
ATOM     50  C   UNL A   1      37.305  33.596  34.738  1.00  0.00     0.029 A 
ATOM     51  N   UNL A   1      39.364  32.758  34.963  1.00  0.00    -0.354 N 
ATOM     52  C   UNL A   1      41.384  30.903  31.600  1.00  0.00     0.074 A 
ATOM     53  C   UNL A   1      40.559  30.954  30.412  1.00  0.00     0.031 C 
ATOM     54  C   UNL A   1      37.670  33.762  36.019  1.00  0.00     0.029 A 
ATOM     55  C   UNL A   1      39.001  33.197  36.217  1.00  0.00     0.049 A 
ATOM     56  H   UNL A   1      40.235  32.340  34.772  1.00  0.00     0.167 HD
ATOM     57  C   UNL A   1      42.629  30.368  31.643  1.00  0.00     0.034 A 
ATOM     58  C   UNL A   1      39.660  33.137  37.392  1.00  0.00     0.034 A 
ATOM     59  C   UNL A   1      43.444  30.342  32.832  1.00  0.00     0.049 A 
ATOM     60  C   UNL A   1      41.035  32.514  37.422  1.00  0.00     0.074 A 
ATOM     61  C   UNL A   1      44.738  29.873  32.979  1.00  0.00     0.029 A 
ATOM     62  N   UNL A   1      43.046  30.804  34.081  1.00  0.00    -0.354 N 
ATOM     63  N   UNL A   1      41.719  31.975  36.439  1.00  0.00    -0.248 NA
ATOM     64  C   UNL A   1      41.728  32.499  38.715  1.00  0.00     0.031 C 
ATOM     65  C   UNL A   1      45.094  29.986  34.327  1.00  0.00     0.029 A 
ATOM     66  C   UNL A   1      44.057  30.604  35.008  1.00  0.00     0.049 A 
ATOM     67  H   UNL A   1      42.173  31.214  34.279  1.00  0.00     0.167 HD
ATOM     68  C   UNL A   1      42.940  31.595  36.991  1.00  0.00     0.074 A 
ATOM     69  C   UNL A   1      42.900  31.975  38.387  1.00  0.00     0.031 C 
ATOM     70  C   UNL A   1      44.001  30.989  36.397  1.00  0.00     0.034 A 
BRANCH  57  71
ATOM     71  C   UNL A   1      43.166  29.753  30.374  1.00  0.00     0.023 A 
ATOM     72  C   UNL A   1      43.857  30.518  29.418  1.00  0.00     0.031 A 
ATOM     73  C   UNL A   1      42.965  28.388  30.102  1.00  0.00     0.131 A 
ATOM     74  C   UNL A   1      44.251  29.935  28.204  1.00  0.00     0.055 A 
ATOM     75  C   UNL A   1      43.437  27.794  28.930  1.00  0.00     0.041 A 
ATOM     76  F   UNL A   1      42.293  27.609  30.965  1.00  0.00    -0.206 F 
ATOM     77  C   UNL A   1      44.071  28.572  27.965  1.00  0.00     0.022 A 
BRANCH  74  78
ATOM     78  S   UNL A   1      44.870  31.016  26.886  1.00  0.00     0.124 S 
ATOM     79  O   UNL A   1      43.636  31.352  26.179  1.00  0.00    -0.237 OA
ATOM     80  O   UNL A   1      45.493  32.102  27.634  1.00  0.00    -0.237 OA
ATOM     81  O   UNL A   1      45.792  30.160  26.143  1.00  0.00    -0.744 OA
ENDBRANCH  74  78
ENDBRANCH  57  71
BRANCH  58  82
ATOM     82  C   UNL A   1      39.040  33.668  38.642  1.00  0.00     0.023 A 
ATOM     83  C   UNL A   1      39.383  34.937  39.137  1.00  0.00     0.031 A 
ATOM     84  C   UNL A   1      38.137  32.892  39.391  1.00  0.00     0.131 A 
ATOM     85  C   UNL A   1      38.875  35.369  40.371  1.00  0.00     0.055 A 
ATOM     86  C   UNL A   1      37.587  33.352  40.589  1.00  0.00     0.041 A 
ATOM     87  F   UNL A   1      37.772  31.673  38.965  1.00  0.00    -0.206 F 
ATOM     88  C   UNL A   1      37.967  34.591  41.094  1.00  0.00     0.022 A 
BRANCH  85  89
ATOM     89  S   UNL A   1      39.496  36.923  41.070  1.00  0.00     0.124 S 
ATOM     90  O   UNL A   1      39.218  36.740  42.491  1.00  0.00    -0.237 OA
ATOM     91  O   UNL A   1      40.902  36.890  40.683  1.00  0.00    -0.237 OA
ATOM     92  O   UNL A   1      38.691  37.943  40.403  1.00  0.00    -0.744 OA
ENDBRANCH  85  89
ENDBRANCH  58  82
BRANCH  70  93
ATOM     93  C   UNL A   1      45.227  30.758  37.248  1.00  0.00     0.023 A 
ATOM     94  C   UNL A   1      46.229  31.733  37.388  1.00  0.00     0.031 A 
ATOM     95  C   UNL A   1      45.389  29.540  37.930  1.00  0.00     0.131 A 
ATOM     96  C   UNL A   1      47.375  31.452  38.148  1.00  0.00     0.055 A 
ATOM     97  C   UNL A   1      46.499  29.290  38.735  1.00  0.00     0.041 A 
ATOM     98  F   UNL A   1      44.463  28.571  37.830  1.00  0.00    -0.206 F 
ATOM     99  C   UNL A   1      47.507  30.243  38.837  1.00  0.00     0.022 A 
BRANCH  96 100
ATOM    100  S   UNL A   1      48.733  32.653  38.153  1.00  0.00     0.124 S 
ATOM    101  O   UNL A   1      49.421  32.340  36.905  1.00  0.00    -0.237 OA
ATOM    102  O   UNL A   1      48.024  33.927  38.188  1.00  0.00    -0.237 OA
ATOM    103  O   UNL A   1      49.476  32.325  39.368  1.00  0.00    -0.744 OA
ENDBRANCH  96 100
ENDBRANCH  70  93
ENDBRANCH  44  45
ENDBRANCH  36  39
ENDBRANCH  34  35
ENDBRANCH  33  34
ENDBRANCH  32  33
ENDBRANCH  31  32
ENDBRANCH  29  31
ENDBRANCH   1  27
TORSDOF 23
ENDMDL
MODEL 2
REMARK VINA RESULT:      -9.2      4.625      8.991
REMARK SMILES CCCCCCNC(=O)Oc1cccc(-c2ccc([C@@H](C)C(=O)NCCCCNC(=O)c3ccc(-c4c5nc(c(-c6cc(S(=O)(=O)[O-])ccc6F)c6ccc([nH]6)c(-c6cc(S(=O)(=O)[O-])ccc6F)c6nc(c(-c7cc(S(=O)(=O)[O-])ccc7F)c7ccc4[nH]7)C=C6)C=C5)cc3)cc2Cl)c1
REMARK SMILES IDX 20 1 21 2 19 3 16 4 17 5 96 6 18 7 95 8 97 9 15 10 11 11
REMARK SMILES IDX 12 12 98 13 13 14 14 15 10 16 8 17 7 18 9 20 6 21 5 22 4 23
REMARK SMILES IDX 3 24 2 25 1 26 22 27 23 28 24 29 25 31 26 32 27 33 28 34
REMARK SMILES IDX 29 35 30 36 31 38 32 39 33 40 94 41 34 42 93 43 35 44 36 45
REMARK SMILES IDX 37 46 87 47 38 48 92 49 86 50 88 51 39 52 91 53 85 54 84 55
REMARK SMILES IDX 40 57 72 58 52 59 71 60 53 61 56 62 70 63 89 64 54 65 55 66
REMARK SMILES IDX 69 68 90 69 57 70 41 71 42 72 50 73 43 74 49 75 51 76 48 77
REMARK SMILES IDX 44 78 45 79 46 80 47 81 73 82 74 83 82 84 75 85 81 86 83 87
REMARK SMILES IDX 80 88 76 89 77 90 78 91 79 92 58 93 59 94 67 95 60 96 66 97
REMARK SMILES IDX 68 98 65 99 61 100 62 101 63 102 64 103
REMARK H PARENT 7 19 24 30 29 37 88 56 56 67
REMARK Flexibility Score: inf
ROOT
ATOM      1  C   UNL A   1      37.405  31.259  30.011  1.00  0.00     0.105 C 
ATOM      2  C   UNL A   1      38.158  32.564  29.762  1.00  0.00     0.023 C 
ENDROOT
BRANCH   1   3
ATOM      3  C   UNL A   1      38.100  29.991  29.540  1.00  0.00    -0.034 A 
ATOM      4  C   UNL A   1      39.680  27.732  28.751  1.00  0.00     0.000 A 
ATOM      5  C   UNL A   1      38.847  27.705  29.885  1.00  0.00     0.010 A 
ATOM      6  C   UNL A   1      39.623  28.899  27.962  1.00  0.00     0.049 A 
ATOM      7  C   UNL A   1      38.036  28.788  30.241  1.00  0.00     0.005 A 
ATOM      8  C   UNL A   1      38.880  30.017  28.374  1.00  0.00     0.025 A 
ATOM      9  Cl  UNL A   1      40.403  29.029  26.418  1.00  0.00    -0.084 Cl
BRANCH   4  10
ATOM     10  C   UNL A   1      40.565  26.570  28.489  1.00  0.00    -0.013 A 
ATOM     11  C   UNL A   1      41.071  24.496  27.320  1.00  0.00     0.133 A 
ATOM     12  C   UNL A   1      42.316  24.411  27.934  1.00  0.00     0.047 A 
ATOM     13  C   UNL A   1      40.207  25.562  27.578  1.00  0.00     0.056 A 
ATOM     14  C   UNL A   1      42.704  25.411  28.816  1.00  0.00     0.004 A 
ATOM     15  C   UNL A   1      41.833  26.470  29.100  1.00  0.00     0.009 A 
BRANCH  11  16
ATOM     16  O   UNL A   1      40.672  23.396  26.542  1.00  0.00    -0.410 OA
BRANCH  16  17
ATOM     17  C   UNL A   1      40.172  22.270  27.177  1.00  0.00     0.412 C 
ATOM     18  N   UNL A   1      38.958  21.877  26.682  1.00  0.00    -0.321 N 
ATOM     19  H   UNL A   1      38.535  21.102  27.117  1.00  0.00     0.167 HD
ATOM     20  O   UNL A   1      40.710  21.660  28.092  1.00  0.00    -0.224 OA
BRANCH  18  21
ATOM     21  C   UNL A   1      38.232  22.484  25.585  1.00  0.00     0.119 C 
BRANCH  21  22
ATOM     22  C   UNL A   1      37.382  23.667  26.048  1.00  0.00     0.021 C 
BRANCH  22  23
ATOM     23  C   UNL A   1      36.180  23.985  25.150  1.00  0.00     0.002 C 
BRANCH  23  24
ATOM     24  C   UNL A   1      35.429  22.768  24.599  1.00  0.00    -0.000 C 
BRANCH  24  25
ATOM     25  C   UNL A   1      34.453  23.061  23.457  1.00  0.00    -0.003 C 
ATOM     26  C   UNL A   1      34.173  24.544  23.271  1.00  0.00     0.004 C 
ENDBRANCH  24  25
ENDBRANCH  23  24
ENDBRANCH  22  23
ENDBRANCH  21  22
ENDBRANCH  18  21
ENDBRANCH  16  17
ENDBRANCH  11  16
ENDBRANCH   4  10
ENDBRANCH   1   3
BRANCH   1  27
ATOM     27  C   UNL A   1      35.911  31.315  29.647  1.00  0.00     0.227 C 
ATOM     28  O   UNL A   1      35.526  30.836  28.574  1.00  0.00    -0.274 OA
ATOM     29  N   UNL A   1      34.952  31.855  30.449  1.00  0.00    -0.356 N 
ATOM     30  H   UNL A   1      34.035  31.749  30.106  1.00  0.00     0.163 HD
BRANCH  29  31
ATOM     31  C   UNL A   1      35.034  32.557  31.712  1.00  0.00     0.116 C 
BRANCH  31  32
ATOM     32  C   UNL A   1      35.506  34.002  31.537  1.00  0.00     0.023 C 
BRANCH  32  33
ATOM     33  C   UNL A   1      35.998  34.678  32.813  1.00  0.00     0.023 C 
BRANCH  33  34
ATOM     34  C   UNL A   1      37.226  34.040  33.449  1.00  0.00     0.116 C 
BRANCH  34  35
ATOM     35  N   UNL A   1      37.019  33.593  34.820  1.00  0.00    -0.352 N 
ATOM     36  C   UNL A   1      37.662  32.567  35.478  1.00  0.00     0.251 C 
ATOM     37  H   UNL A   1      36.340  34.082  35.339  1.00  0.00     0.163 HD
ATOM     38  O   UNL A   1      37.320  32.242  36.609  1.00  0.00    -0.269 OA
BRANCH  36  39
ATOM     39  C   UNL A   1      38.733  31.836  34.768  1.00  0.00     0.039 A 
ATOM     40  C   UNL A   1      38.393  30.966  33.731  1.00  0.00     0.014 A 
ATOM     41  C   UNL A   1      40.074  32.094  35.068  1.00  0.00     0.014 A 
ATOM     42  C   UNL A   1      39.402  30.417  32.938  1.00  0.00     0.010 A 
ATOM     43  C   UNL A   1      41.068  31.618  34.222  1.00  0.00     0.010 A 
ATOM     44  C   UNL A   1      40.745  30.775  33.147  1.00  0.00    -0.014 A 
BRANCH  44  45
ATOM     45  C   UNL A   1      41.830  30.274  32.265  1.00  0.00     0.031 A 
ATOM     46  C   UNL A   1      42.445  28.928  32.535  1.00  0.00     0.074 A 
ATOM     47  C   UNL A   1      42.310  31.054  31.275  1.00  0.00     0.049 A 
ATOM     48  N   UNL A   1      43.467  28.351  31.957  1.00  0.00    -0.248 NA
ATOM     49  C   UNL A   1      41.852  28.141  33.630  1.00  0.00     0.031 C 
ATOM     50  C   UNL A   1      41.823  32.396  30.943  1.00  0.00     0.029 A 
ATOM     51  N   UNL A   1      43.319  30.838  30.370  1.00  0.00    -0.354 N 
ATOM     52  C   UNL A   1      43.648  27.145  32.625  1.00  0.00     0.074 A 
ATOM     53  C   UNL A   1      42.677  27.107  33.696  1.00  0.00     0.031 C 
ATOM     54  C   UNL A   1      42.515  32.868  29.893  1.00  0.00     0.029 A 
ATOM     55  C   UNL A   1      43.528  31.890  29.508  1.00  0.00     0.049 A 
ATOM     56  H   UNL A   1      43.846  30.006  30.341  1.00  0.00     0.167 HD
ATOM     57  C   UNL A   1      44.525  26.147  32.353  1.00  0.00     0.034 A 
ATOM     58  C   UNL A   1      44.440  32.053  28.528  1.00  0.00     0.034 A 
ATOM     59  C   UNL A   1      45.474  26.193  31.269  1.00  0.00     0.049 A 
ATOM     60  C   UNL A   1      45.423  30.939  28.259  1.00  0.00     0.074 A 
ATOM     61  C   UNL A   1      46.374  25.220  30.869  1.00  0.00     0.029 A 
ATOM     62  N   UNL A   1      45.651  27.272  30.411  1.00  0.00    -0.354 N 
ATOM     63  N   UNL A   1      45.550  29.784  28.871  1.00  0.00    -0.248 NA
ATOM     64  C   UNL A   1      46.377  31.147  27.163  1.00  0.00     0.031 C 
ATOM     65  C   UNL A   1      47.139  25.737  29.818  1.00  0.00     0.029 A 
ATOM     66  C   UNL A   1      46.663  26.999  29.504  1.00  0.00     0.049 A 
ATOM     67  H   UNL A   1      45.132  28.109  30.442  1.00  0.00     0.167 HD
ATOM     68  C   UNL A   1      46.573  29.114  28.205  1.00  0.00     0.074 A 
ATOM     69  C   UNL A   1      47.019  29.988  27.141  1.00  0.00     0.031 C 
ATOM     70  C   UNL A   1      47.095  27.883  28.448  1.00  0.00     0.034 A 
BRANCH  57  71
ATOM     71  C   UNL A   1      44.504  24.938  33.256  1.00  0.00     0.023 A 
ATOM     72  C   UNL A   1      44.955  25.002  34.586  1.00  0.00     0.031 A 
ATOM     73  C   UNL A   1      44.052  23.696  32.776  1.00  0.00     0.131 A 
ATOM     74  C   UNL A   1      45.017  23.836  35.364  1.00  0.00     0.055 A 
ATOM     75  C   UNL A   1      44.035  22.556  33.582  1.00  0.00     0.041 A 
ATOM     76  F   UNL A   1      43.630  23.565  31.507  1.00  0.00    -0.206 F 
ATOM     77  C   UNL A   1      44.535  22.619  34.880  1.00  0.00     0.022 A 
BRANCH  74  78
ATOM     78  S   UNL A   1      45.874  23.906  36.960  1.00  0.00     0.124 S 
ATOM     79  O   UNL A   1      45.968  22.489  37.306  1.00  0.00    -0.237 OA
ATOM     80  O   UNL A   1      47.129  24.564  36.617  1.00  0.00    -0.237 OA
ATOM     81  O   UNL A   1      44.969  24.686  37.802  1.00  0.00    -0.744 OA
ENDBRANCH  74  78
ENDBRANCH  57  71
BRANCH  58  82
ATOM     82  C   UNL A   1      44.485  33.314  27.730  1.00  0.00     0.023 A 
ATOM     83  C   UNL A   1      44.947  34.513  28.299  1.00  0.00     0.031 A 
ATOM     84  C   UNL A   1      44.017  33.354  26.404  1.00  0.00     0.131 A 
ATOM     85  C   UNL A   1      44.875  35.709  27.567  1.00  0.00     0.055 A 
ATOM     86  C   UNL A   1      44.005  34.535  25.660  1.00  0.00     0.041 A 
ATOM     87  F   UNL A   1      43.567  32.237  25.810  1.00  0.00    -0.206 F 
ATOM     88  C   UNL A   1      44.421  35.725  26.247  1.00  0.00     0.022 A 
BRANCH  85  89
ATOM     89  S   UNL A   1      45.291  37.264  28.403  1.00  0.00     0.124 S 
ATOM     90  O   UNL A   1      44.949  36.957  29.788  1.00  0.00    -0.237 OA
ATOM     91  O   UNL A   1      46.714  37.397  28.108  1.00  0.00    -0.237 OA
ATOM     92  O   UNL A   1      44.427  38.244  27.750  1.00  0.00    -0.744 OA
ENDBRANCH  85  89
ENDBRANCH  58  82
BRANCH  70  93
ATOM     93  C   UNL A   1      48.166  27.391  27.505  1.00  0.00     0.023 A 
ATOM     94  C   UNL A   1      49.534  27.573  27.772  1.00  0.00     0.031 A 
ATOM     95  C   UNL A   1      47.806  26.728  26.318  1.00  0.00     0.131 A 
ATOM     96  C   UNL A   1      50.491  27.143  26.840  1.00  0.00     0.055 A 
ATOM     97  C   UNL A   1      48.763  26.247  25.425  1.00  0.00     0.041 A 
ATOM     98  F   UNL A   1      46.514  26.529  26.011  1.00  0.00    -0.206 F 
ATOM     99  C   UNL A   1      50.114  26.466  25.677  1.00  0.00     0.022 A 
BRANCH  96 100
ATOM    100  S   UNL A   1      52.232  27.561  27.123  1.00  0.00     0.124 S 
ATOM    101  O   UNL A   1      52.895  26.860  26.028  1.00  0.00    -0.237 OA
ATOM    102  O   UNL A   1      52.223  29.016  27.035  1.00  0.00    -0.237 OA
ATOM    103  O   UNL A   1      52.501  27.023  28.455  1.00  0.00    -0.744 OA
ENDBRANCH  96 100
ENDBRANCH  70  93
ENDBRANCH  44  45
ENDBRANCH  36  39
ENDBRANCH  34  35
ENDBRANCH  33  34
ENDBRANCH  32  33
ENDBRANCH  31  32
ENDBRANCH  29  31
ENDBRANCH   1  27
TORSDOF 23
ENDMDL
MODEL 3
REMARK VINA RESULT:      -8.5      4.843      7.386
REMARK SMILES CCCCCCNC(=O)Oc1cccc(-c2ccc([C@@H](C)C(=O)NCCCCNC(=O)c3ccc(-c4c5nc(c(-c6cc(S(=O)(=O)[O-])ccc6F)c6ccc([nH]6)c(-c6cc(S(=O)(=O)[O-])ccc6F)c6nc(c(-c7cc(S(=O)(=O)[O-])ccc7F)c7ccc4[nH]7)C=C6)C=C5)cc3)cc2Cl)c1
REMARK SMILES IDX 20 1 21 2 19 3 16 4 17 5 96 6 18 7 95 8 97 9 15 10 11 11
REMARK SMILES IDX 12 12 98 13 13 14 14 15 10 16 8 17 7 18 9 20 6 21 5 22 4 23
REMARK SMILES IDX 3 24 2 25 1 26 22 27 23 28 24 29 25 31 26 32 27 33 28 34
REMARK SMILES IDX 29 35 30 36 31 38 32 39 33 40 94 41 34 42 93 43 35 44 36 45
REMARK SMILES IDX 37 46 87 47 38 48 92 49 86 50 88 51 39 52 91 53 85 54 84 55
REMARK SMILES IDX 40 57 72 58 52 59 71 60 53 61 56 62 70 63 89 64 54 65 55 66
REMARK SMILES IDX 69 68 90 69 57 70 41 71 42 72 50 73 43 74 49 75 51 76 48 77
REMARK SMILES IDX 44 78 45 79 46 80 47 81 73 82 74 83 82 84 75 85 81 86 83 87
REMARK SMILES IDX 80 88 76 89 77 90 78 91 79 92 58 93 59 94 67 95 60 96 66 97
REMARK SMILES IDX 68 98 65 99 61 100 62 101 63 102 64 103
REMARK H PARENT 7 19 24 30 29 37 88 56 56 67
REMARK Flexibility Score: inf
ROOT
ATOM      1  C   UNL A   1      39.872  26.847  28.016  1.00  0.00     0.105 C 
ATOM      2  C   UNL A   1      39.323  26.267  29.317  1.00  0.00     0.023 C 
ENDROOT
BRANCH   1   3
ATOM      3  C   UNL A   1      41.071  26.127  27.420  1.00  0.00    -0.034 A 
ATOM      4  C   UNL A   1      43.145  24.512  26.273  1.00  0.00     0.000 A 
ATOM      5  C   UNL A   1      42.492  25.523  25.544  1.00  0.00     0.010 A 
ATOM      6  C   UNL A   1      42.795  24.398  27.634  1.00  0.00     0.049 A 
ATOM      7  C   UNL A   1      41.517  26.346  26.118  1.00  0.00     0.005 A 
ATOM      8  C   UNL A   1      41.751  25.163  28.180  1.00  0.00     0.025 A 
ATOM      9  Cl  UNL A   1      43.647  23.369  28.740  1.00  0.00    -0.084 Cl
BRANCH   4  10
ATOM     10  C   UNL A   1      44.111  23.635  25.567  1.00  0.00    -0.013 A 
ATOM     11  C   UNL A   1      44.696  21.519  24.516  1.00  0.00     0.133 A 
ATOM     12  C   UNL A   1      45.938  22.011  24.132  1.00  0.00     0.047 A 
ATOM     13  C   UNL A   1      43.785  22.315  25.213  1.00  0.00     0.056 A 
ATOM     14  C   UNL A   1      46.272  23.323  24.445  1.00  0.00     0.004 A 
ATOM     15  C   UNL A   1      45.374  24.119  25.165  1.00  0.00     0.009 A 
BRANCH  11  16
ATOM     16  O   UNL A   1      44.460  20.151  24.295  1.00  0.00    -0.410 OA
BRANCH  16  17
ATOM     17  C   UNL A   1      45.104  19.220  25.094  1.00  0.00     0.412 C 
ATOM     18  N   UNL A   1      44.247  18.550  25.924  1.00  0.00    -0.321 N 
ATOM     19  H   UNL A   1      44.650  17.898  26.542  1.00  0.00     0.167 HD
ATOM     20  O   UNL A   1      46.306  18.988  25.105  1.00  0.00    -0.224 OA
BRANCH  18  21
ATOM     21  C   UNL A   1      42.807  18.701  25.987  1.00  0.00     0.119 C 
BRANCH  21  22
ATOM     22  C   UNL A   1      42.371  19.511  27.208  1.00  0.00     0.021 C 
BRANCH  22  23
ATOM     23  C   UNL A   1      40.922  20.013  27.161  1.00  0.00     0.002 C 
BRANCH  23  24
ATOM     24  C   UNL A   1      40.739  21.518  27.382  1.00  0.00    -0.000 C 
BRANCH  24  25
ATOM     25  C   UNL A   1      40.108  22.281  26.215  1.00  0.00    -0.003 C 
ATOM     26  C   UNL A   1      39.010  23.241  26.647  1.00  0.00     0.004 C 
ENDBRANCH  24  25
ENDBRANCH  23  24
ENDBRANCH  22  23
ENDBRANCH  21  22
ENDBRANCH  18  21
ENDBRANCH  16  17
ENDBRANCH  11  16
ENDBRANCH   4  10
ENDBRANCH   1   3
BRANCH   1  27
ATOM     27  C   UNL A   1      40.013  28.379  28.020  1.00  0.00     0.227 C 
ATOM     28  O   UNL A   1      41.134  28.889  27.898  1.00  0.00    -0.274 OA
ATOM     29  N   UNL A   1      38.965  29.241  28.138  1.00  0.00    -0.356 N 
ATOM     30  H   UNL A   1      39.213  30.190  28.051  1.00  0.00     0.163 HD
BRANCH  29  31
ATOM     31  C   UNL A   1      37.554  29.016  28.369  1.00  0.00     0.116 C 
BRANCH  31  32
ATOM     32  C   UNL A   1      36.680  29.781  27.373  1.00  0.00     0.023 C 
BRANCH  32  33
ATOM     33  C   UNL A   1      35.279  30.119  27.874  1.00  0.00     0.023 C 
BRANCH  33  34
ATOM     34  C   UNL A   1      34.997  31.605  28.048  1.00  0.00     0.116 C 
BRANCH  34  35
ATOM     35  N   UNL A   1      34.338  31.941  29.302  1.00  0.00    -0.352 N 
ATOM     36  C   UNL A   1      34.921  32.392  30.467  1.00  0.00     0.251 C 
ATOM     37  H   UNL A   1      33.359  31.835  29.321  1.00  0.00     0.163 HD
ATOM     38  O   UNL A   1      34.248  32.549  31.479  1.00  0.00    -0.269 OA
BRANCH  36  39
ATOM     39  C   UNL A   1      36.380  32.628  30.479  1.00  0.00     0.039 A 
ATOM     40  C   UNL A   1      37.062  32.609  31.697  1.00  0.00     0.014 A 
ATOM     41  C   UNL A   1      37.077  32.767  29.276  1.00  0.00     0.014 A 
ATOM     42  C   UNL A   1      38.458  32.646  31.701  1.00  0.00     0.010 A 
ATOM     43  C   UNL A   1      38.466  32.715  29.279  1.00  0.00     0.010 A 
ATOM     44  C   UNL A   1      39.172  32.652  30.491  1.00  0.00    -0.014 A 
BRANCH  44  45
ATOM     45  C   UNL A   1      40.657  32.606  30.464  1.00  0.00     0.031 A 
ATOM     46  C   UNL A   1      41.430  33.811  30.003  1.00  0.00     0.074 A 
ATOM     47  C   UNL A   1      41.303  31.464  30.779  1.00  0.00     0.049 A 
ATOM     48  N   UNL A   1      42.716  33.946  29.804  1.00  0.00    -0.248 NA
ATOM     49  C   UNL A   1      40.644  35.016  29.688  1.00  0.00     0.031 C 
ATOM     50  C   UNL A   1      40.659  30.216  31.200  1.00  0.00     0.029 A 
ATOM     51  N   UNL A   1      42.642  31.162  30.789  1.00  0.00    -0.354 N 
ATOM     52  C   UNL A   1      42.891  35.241  29.329  1.00  0.00     0.074 A 
ATOM     53  C   UNL A   1      41.573  35.824  29.201  1.00  0.00     0.031 C 
ATOM     54  C   UNL A   1      41.605  29.297  31.451  1.00  0.00     0.029 A 
ATOM     55  C   UNL A   1      42.917  29.866  31.162  1.00  0.00     0.049 A 
ATOM     56  H   UNL A   1      43.341  31.813  30.549  1.00  0.00     0.167 HD
ATOM     57  C   UNL A   1      44.046  35.895  29.050  1.00  0.00     0.034 A 
ATOM     58  C   UNL A   1      44.092  29.210  31.249  1.00  0.00     0.034 A 
ATOM     59  C   UNL A   1      45.353  35.304  29.201  1.00  0.00     0.049 A 
ATOM     60  C   UNL A   1      45.364  29.950  30.910  1.00  0.00     0.074 A 
ATOM     61  C   UNL A   1      46.591  35.888  28.999  1.00  0.00     0.029 A 
ATOM     62  N   UNL A   1      45.593  33.992  29.590  1.00  0.00    -0.354 N 
ATOM     63  N   UNL A   1      45.514  31.190  30.505  1.00  0.00    -0.248 NA
ATOM     64  C   UNL A   1      46.621  29.206  31.049  1.00  0.00     0.031 C 
ATOM     65  C   UNL A   1      47.573  34.912  29.196  1.00  0.00     0.029 A 
ATOM     66  C   UNL A   1      46.956  33.741  29.606  1.00  0.00     0.049 A 
ATOM     67  H   UNL A   1      44.896  33.335  29.822  1.00  0.00     0.167 HD
ATOM     68  C   UNL A   1      46.888  31.383  30.380  1.00  0.00     0.074 A 
ATOM     69  C   UNL A   1      47.519  30.137  30.763  1.00  0.00     0.031 C 
ATOM     70  C   UNL A   1      47.569  32.492  29.989  1.00  0.00     0.034 A 
BRANCH  57  71
ATOM     71  C   UNL A   1      43.938  37.310  28.538  1.00  0.00     0.023 A 
ATOM     72  C   UNL A   1      44.029  38.417  29.401  1.00  0.00     0.031 A 
ATOM     73  C   UNL A   1      43.717  37.560  27.172  1.00  0.00     0.131 A 
ATOM     74  C   UNL A   1      43.821  39.712  28.906  1.00  0.00     0.055 A 
ATOM     75  C   UNL A   1      43.597  38.858  26.671  1.00  0.00     0.041 A 
ATOM     76  F   UNL A   1      43.599  36.545  26.301  1.00  0.00    -0.206 F 
ATOM     77  C   UNL A   1      43.634  39.943  27.542  1.00  0.00     0.022 A 
BRANCH  74  78
ATOM     78  S   UNL A   1      43.653  41.075  30.090  1.00  0.00     0.124 S 
ATOM     79  O   UNL A   1      44.363  40.544  31.252  1.00  0.00    -0.237 OA
ATOM     80  O   UNL A   1      44.303  42.180  29.395  1.00  0.00    -0.237 OA
ATOM     81  O   UNL A   1      42.207  41.207  30.259  1.00  0.00    -0.744 OA
ENDBRANCH  74  78
ENDBRANCH  57  71
BRANCH  58  82
ATOM     82  C   UNL A   1      44.136  27.776  31.662  1.00  0.00     0.023 A 
ATOM     83  C   UNL A   1      44.145  27.414  33.019  1.00  0.00     0.031 A 
ATOM     84  C   UNL A   1      44.225  26.746  30.707  1.00  0.00     0.131 A 
ATOM     85  C   UNL A   1      44.300  26.068  33.385  1.00  0.00     0.055 A 
ATOM     86  C   UNL A   1      44.319  25.403  31.076  1.00  0.00     0.041 A 
ATOM     87  F   UNL A   1      44.219  27.034  29.396  1.00  0.00    -0.206 F 
ATOM     88  C   UNL A   1      44.372  25.059  32.422  1.00  0.00     0.022 A 
BRANCH  85  89
ATOM     89  S   UNL A   1      44.509  25.664  35.141  1.00  0.00     0.124 S 
ATOM     90  O   UNL A   1      43.838  26.790  35.785  1.00  0.00    -0.237 OA
ATOM     91  O   UNL A   1      43.834  24.375  35.239  1.00  0.00    -0.237 OA
ATOM     92  O   UNL A   1      45.959  25.622  35.311  1.00  0.00    -0.744 OA
ENDBRANCH  85  89
ENDBRANCH  58  82
BRANCH  70  93
ATOM     93  C   UNL A   1      49.076  32.419  30.016  1.00  0.00     0.023 A 
ATOM     94  C   UNL A   1      49.818  32.767  31.158  1.00  0.00     0.031 A 
ATOM     95  C   UNL A   1      49.779  31.993  28.875  1.00  0.00     0.131 A 
ATOM     96  C   UNL A   1      51.220  32.733  31.117  1.00  0.00     0.055 A 
ATOM     97  C   UNL A   1      51.170  31.900  28.861  1.00  0.00     0.041 A 
ATOM     98  F   UNL A   1      49.122  31.650  27.755  1.00  0.00    -0.206 F 
ATOM     99  C   UNL A   1      51.900  32.284  29.982  1.00  0.00     0.022 A 
BRANCH  96 100
ATOM    100  S   UNL A   1      52.149  33.367  32.539  1.00  0.00     0.124 S 
ATOM    101  O   UNL A   1      53.163  34.196  31.895  1.00  0.00    -0.237 OA
ATOM    102  O   UNL A   1      51.123  34.084  33.288  1.00  0.00    -0.237 OA
ATOM    103  O   UNL A   1      52.656  32.158  33.185  1.00  0.00    -0.744 OA
ENDBRANCH  96 100
ENDBRANCH  70  93
ENDBRANCH  44  45
ENDBRANCH  36  39
ENDBRANCH  34  35
ENDBRANCH  33  34
ENDBRANCH  32  33
ENDBRANCH  31  32
ENDBRANCH  29  31
ENDBRANCH   1  27
TORSDOF 23
ENDMDL
