MODEL 1
REMARK VINA RESULT:     -12.0      0.000      0.000
REMARK SMILES CC[C@H]1CC[C@](Cc2cccc(OC)n2)(C(=O)NCCCCNC(=O)c2ccc(-c3c4nc(c(-c5cc(S(=O)(=O)[O-])ccc5F)c5ccc([nH]5)c(-c5cc(S(=O)(=O)[O-])ccc5F)c5nc(c(-c6cc(S(=O)(=O)[O-])ccc6F)c6ccc3[nH]6)C=C5)C=C4)cc2)C1
REMARK SMILES IDX 20 1 19 2 18 3 16 4 17 5 6 7 3 8 4 9 89 10 5 11 2 12 1 13
REMARK SMILES IDX 7 14 8 15 9 16 15 17 10 18 12 19 11 20 13 21 14 22 21 23
REMARK SMILES IDX 22 24 23 25 24 26 25 28 26 29 27 30 88 31 28 32 87 33 29 34
REMARK SMILES IDX 30 35 31 36 81 37 32 38 86 39 80 40 82 41 33 42 85 43 79 44
REMARK SMILES IDX 78 45 34 47 66 48 46 49 65 50 47 51 50 52 64 53 83 54 48 55
REMARK SMILES IDX 49 56 63 58 84 59 51 60 35 61 36 62 44 63 37 64 43 65 45 66
REMARK SMILES IDX 42 67 38 68 39 69 40 70 41 71 67 72 68 73 76 74 69 75 75 76
REMARK SMILES IDX 77 77 74 78 70 79 71 80 72 81 73 82 52 83 53 84 61 85 54 86
REMARK SMILES IDX 60 87 62 88 59 89 55 90 56 91 57 92 58 93
REMARK H PARENT 18 6 23 27 82 46 50 57
REMARK Flexibility Score: inf
ROOT
ATOM      1  C   UNL A   1      34.647  20.386  25.000  1.00  0.00     0.023 C 
ENDROOT
BRANCH   1   2
ATOM      2  C   UNL A   1      33.435  21.060  24.356  1.00  0.00     0.116 C 
BRANCH   2   3
ATOM      3  N   UNL A   1      32.238  21.194  25.181  1.00  0.00    -0.356 N 
ATOM      4  C   UNL A   1      31.559  22.308  25.623  1.00  0.00     0.226 C 
ATOM      5  O   UNL A   1      30.449  22.094  26.126  1.00  0.00    -0.274 OA
ATOM      6  H   UNL A   1      31.848  20.338  25.472  1.00  0.00     0.163 HD
BRANCH   4   7
ATOM      7  C   UNL A   1      32.107  23.772  25.513  1.00  0.00     0.055 C 
ATOM      8  C   UNL A   1      33.807  24.900  24.103  1.00  0.00    -0.010 C 
ATOM      9  C   UNL A   1      34.306  24.870  25.559  1.00  0.00     0.005 C 
ATOM     10  C   UNL A   1      32.556  24.030  24.072  1.00  0.00     0.021 C 
ATOM     11  C   UNL A   1      33.368  23.961  26.360  1.00  0.00     0.017 C 
BRANCH   8  12
ATOM     12  C   UNL A   1      33.647  26.308  23.512  1.00  0.00     0.000 C 
ATOM     13  C   UNL A   1      33.278  26.349  22.029  1.00  0.00     0.004 C 
ENDBRANCH   8  12
BRANCH   7  14
ATOM     14  C   UNL A   1      30.962  24.785  25.953  1.00  0.00     0.073 C 
BRANCH  14  15
ATOM     15  C   UNL A   1      30.770  26.132  25.250  1.00  0.00     0.045 A 
ATOM     16  C   UNL A   1      29.963  26.225  24.118  1.00  0.00     0.024 A 
ATOM     17  N   UNL A   1      31.345  27.245  25.780  1.00  0.00    -0.219 NA
ATOM     18  C   UNL A   1      29.928  27.414  23.389  1.00  0.00     0.007 A 
ATOM     19  C   UNL A   1      31.190  28.427  25.124  1.00  0.00     0.213 A 
ATOM     20  C   UNL A   1      30.591  28.525  23.878  1.00  0.00     0.068 A 
BRANCH  19  21
ATOM     21  O   UNL A   1      31.644  29.530  25.808  1.00  0.00    -0.481 OA
ATOM     22  C   UNL A   1      33.016  29.860  25.579  1.00  0.00     0.280 C 
ENDBRANCH  19  21
ENDBRANCH  14  15
ENDBRANCH   7  14
ENDBRANCH   4   7
ENDBRANCH   2   3
ENDBRANCH   1   2
BRANCH   1  23
ATOM     23  C   UNL A   1      35.644  21.294  25.728  1.00  0.00     0.023 C 
BRANCH  23  24
ATOM     24  C   UNL A   1      36.983  21.562  25.038  1.00  0.00     0.116 C 
BRANCH  24  25
ATOM     25  N   UNL A   1      38.039  20.616  25.379  1.00  0.00    -0.352 N 
ATOM     26  C   UNL A   1      39.249  20.807  26.014  1.00  0.00     0.251 C 
ATOM     27  H   UNL A   1      37.859  19.686  25.114  1.00  0.00     0.163 HD
ATOM     28  O   UNL A   1      40.025  19.856  26.127  1.00  0.00    -0.269 OA
BRANCH  26  29
ATOM     29  C   UNL A   1      39.648  22.144  26.512  1.00  0.00     0.039 A 
ATOM     30  C   UNL A   1      40.735  22.249  27.385  1.00  0.00     0.014 A 
ATOM     31  C   UNL A   1      38.974  23.298  26.111  1.00  0.00     0.014 A 
ATOM     32  C   UNL A   1      41.216  23.511  27.753  1.00  0.00     0.010 A 
ATOM     33  C   UNL A   1      39.512  24.551  26.396  1.00  0.00     0.010 A 
ATOM     34  C   UNL A   1      40.650  24.676  27.209  1.00  0.00    -0.014 A 
BRANCH  34  35
ATOM     35  C   UNL A   1      41.235  26.024  27.463  1.00  0.00     0.031 A 
ATOM     36  C   UNL A   1      42.608  26.364  26.944  1.00  0.00     0.074 A 
ATOM     37  C   UNL A   1      40.563  26.917  28.222  1.00  0.00     0.049 A 
ATOM     38  N   UNL A   1      43.330  27.437  27.150  1.00  0.00    -0.248 NA
ATOM     39  C   UNL A   1      43.268  25.352  26.105  1.00  0.00     0.031 C 
ATOM     40  C   UNL A   1      39.242  26.698  28.817  1.00  0.00     0.029 A 
ATOM     41  N   UNL A   1      40.900  28.184  28.633  1.00  0.00    -0.354 N 
ATOM     42  C   UNL A   1      44.528  27.225  26.475  1.00  0.00     0.074 A 
ATOM     43  C   UNL A   1      44.462  25.892  25.914  1.00  0.00     0.031 C 
ATOM     44  C   UNL A   1      38.871  27.801  29.487  1.00  0.00     0.029 A 
ATOM     45  C   UNL A   1      39.946  28.786  29.424  1.00  0.00     0.049 A 
ATOM     46  H   UNL A   1      41.746  28.623  28.385  1.00  0.00     0.167 HD
ATOM     47  C   UNL A   1      45.575  28.070  26.314  1.00  0.00     0.034 A 
ATOM     48  C   UNL A   1      39.941  29.985  30.044  1.00  0.00     0.034 A 
ATOM     49  C   UNL A   1      45.626  29.401  26.867  1.00  0.00     0.049 A 
ATOM     50  C   UNL A   1      41.142  30.890  29.885  1.00  0.00     0.074 A 
ATOM     51  C   UNL A   1      46.624  30.353  26.732  1.00  0.00     0.029 A 
ATOM     52  N   UNL A   1      44.641  29.972  27.662  1.00  0.00    -0.354 N 
ATOM     53  N   UNL A   1      42.248  30.685  29.207  1.00  0.00    -0.248 NA
ATOM     54  C   UNL A   1      41.088  32.191  30.566  1.00  0.00     0.031 C 
ATOM     55  C   UNL A   1      46.276  31.466  27.500  1.00  0.00     0.029 A 
ATOM     56  C   UNL A   1      45.022  31.249  28.046  1.00  0.00     0.049 A 
ATOM     57  H   UNL A   1      43.797  29.534  27.918  1.00  0.00     0.167 HD
ATOM     58  C   UNL A   1      42.999  31.850  29.348  1.00  0.00     0.074 A 
ATOM     59  C   UNL A   1      42.213  32.756  30.158  1.00  0.00     0.031 C 
ATOM     60  C   UNL A   1      44.226  32.146  28.851  1.00  0.00     0.034 A 
BRANCH  47  61
ATOM     61  C   UNL A   1      46.756  27.578  25.513  1.00  0.00     0.023 A 
ATOM     62  C   UNL A   1      46.970  27.993  24.187  1.00  0.00     0.031 A 
ATOM     63  C   UNL A   1      47.685  26.687  26.080  1.00  0.00     0.131 A 
ATOM     64  C   UNL A   1      48.045  27.470  23.453  1.00  0.00     0.055 A 
ATOM     65  C   UNL A   1      48.799  26.234  25.371  1.00  0.00     0.041 A 
ATOM     66  F   UNL A   1      47.521  26.238  27.335  1.00  0.00    -0.206 F 
ATOM     67  C   UNL A   1      48.978  26.616  24.045  1.00  0.00     0.022 A 
BRANCH  64  68
ATOM     68  S   UNL A   1      48.137  27.827  21.678  1.00  0.00     0.124 S 
ATOM     69  O   UNL A   1      49.239  28.785  21.626  1.00  0.00    -0.237 OA
ATOM     70  O   UNL A   1      48.405  26.513  21.104  1.00  0.00    -0.237 OA
ATOM     71  O   UNL A   1      46.821  28.385  21.372  1.00  0.00    -0.744 OA
ENDBRANCH  64  68
ENDBRANCH  47  61
BRANCH  48  72
ATOM     72  C   UNL A   1      38.785  30.412  30.889  1.00  0.00     0.023 A 
ATOM     73  C   UNL A   1      37.668  31.043  30.319  1.00  0.00     0.031 A 
ATOM     74  C   UNL A   1      38.816  30.276  32.289  1.00  0.00     0.131 A 
ATOM     75  C   UNL A   1      36.666  31.581  31.144  1.00  0.00     0.055 A 
ATOM     76  C   UNL A   1      37.784  30.748  33.101  1.00  0.00     0.041 A 
ATOM     77  F   UNL A   1      39.859  29.682  32.892  1.00  0.00    -0.206 F 
ATOM     78  C   UNL A   1      36.709  31.423  32.530  1.00  0.00     0.022 A 
BRANCH  75  79
ATOM     79  S   UNL A   1      35.378  32.609  30.386  1.00  0.00     0.124 S 
ATOM     80  O   UNL A   1      34.402  32.703  31.465  1.00  0.00    -0.237 OA
ATOM     81  O   UNL A   1      36.112  33.831  30.074  1.00  0.00    -0.237 OA
ATOM     82  O   UNL A   1      34.955  31.823  29.228  1.00  0.00    -0.744 OA
ENDBRANCH  75  79
ENDBRANCH  48  72
BRANCH  60  83
ATOM     83  C   UNL A   1      44.765  33.532  29.116  1.00  0.00     0.023 A 
ATOM     84  C   UNL A   1      44.392  34.638  28.333  1.00  0.00     0.031 A 
ATOM     85  C   UNL A   1      45.673  33.744  30.169  1.00  0.00     0.131 A 
ATOM     86  C   UNL A   1      44.970  35.893  28.577  1.00  0.00     0.055 A 
ATOM     87  C   UNL A   1      46.192  35.008  30.450  1.00  0.00     0.041 A 
ATOM     88  F   UNL A   1      46.067  32.724  30.948  1.00  0.00    -0.206 F 
ATOM     89  C   UNL A   1      45.852  36.089  29.643  1.00  0.00     0.022 A 
BRANCH  86  90
ATOM     90  S   UNL A   1      44.629  37.248  27.421  1.00  0.00     0.124 S 
ATOM     91  O   UNL A   1      45.884  37.341  26.683  1.00  0.00    -0.237 OA
ATOM     92  O   UNL A   1      43.486  36.738  26.670  1.00  0.00    -0.237 OA
ATOM     93  O   UNL A   1      44.338  38.382  28.296  1.00  0.00    -0.744 OA
ENDBRANCH  86  90
ENDBRANCH  60  83
ENDBRANCH  34  35
ENDBRANCH  26  29
ENDBRANCH  24  25
ENDBRANCH  23  24
ENDBRANCH   1  23
TORSDOF 18
ENDMDL
MODEL 2
REMARK VINA RESULT:     -11.9      0.858      7.559
REMARK SMILES CC[C@H]1CC[C@](Cc2cccc(OC)n2)(C(=O)NCCCCNC(=O)c2ccc(-c3c4nc(c(-c5cc(S(=O)(=O)[O-])ccc5F)c5ccc([nH]5)c(-c5cc(S(=O)(=O)[O-])ccc5F)c5nc(c(-c6cc(S(=O)(=O)[O-])ccc6F)c6ccc3[nH]6)C=C5)C=C4)cc2)C1
REMARK SMILES IDX 20 1 19 2 18 3 16 4 17 5 6 7 3 8 4 9 89 10 5 11 2 12 1 13
REMARK SMILES IDX 7 14 8 15 9 16 15 17 10 18 12 19 11 20 13 21 14 22 21 23
REMARK SMILES IDX 22 24 23 25 24 26 25 28 26 29 27 30 88 31 28 32 87 33 29 34
REMARK SMILES IDX 30 35 31 36 81 37 32 38 86 39 80 40 82 41 33 42 85 43 79 44
REMARK SMILES IDX 78 45 34 47 66 48 46 49 65 50 47 51 50 52 64 53 83 54 48 55
REMARK SMILES IDX 49 56 63 58 84 59 51 60 35 61 36 62 44 63 37 64 43 65 45 66
REMARK SMILES IDX 42 67 38 68 39 69 40 70 41 71 67 72 68 73 76 74 69 75 75 76
REMARK SMILES IDX 77 77 74 78 70 79 71 80 72 81 73 82 52 83 53 84 61 85 54 86
REMARK SMILES IDX 60 87 62 88 59 89 55 90 56 91 57 92 58 93
REMARK H PARENT 18 6 23 27 82 46 50 57
REMARK Flexibility Score: inf
ROOT
ATOM      1  C   UNL A   1      34.066  20.742  25.013  1.00  0.00     0.023 C 
ENDROOT
BRANCH   1   2
ATOM      2  C   UNL A   1      32.671  21.356  24.887  1.00  0.00     0.116 C 
BRANCH   2   3
ATOM      3  N   UNL A   1      32.059  21.864  26.111  1.00  0.00    -0.356 N 
ATOM      4  C   UNL A   1      31.811  23.151  26.536  1.00  0.00     0.226 C 
ATOM      5  O   UNL A   1      31.079  23.255  27.528  1.00  0.00    -0.274 OA
ATOM      6  H   UNL A   1      31.776  21.165  26.744  1.00  0.00     0.163 HD
BRANCH   4   7
ATOM      7  C   UNL A   1      32.385  24.432  25.841  1.00  0.00     0.055 C 
ATOM      8  C   UNL A   1      33.491  24.895  23.670  1.00  0.00    -0.010 C 
ATOM      9  C   UNL A   1      34.510  25.108  24.805  1.00  0.00     0.005 C 
ATOM     10  C   UNL A   1      32.262  24.275  24.323  1.00  0.00     0.021 C 
ATOM     11  C   UNL A   1      33.886  24.583  26.102  1.00  0.00     0.017 C 
BRANCH   8  12
ATOM     12  C   UNL A   1      33.225  26.138  22.810  1.00  0.00     0.000 C 
ATOM     13  C   UNL A   1      32.186  25.949  21.704  1.00  0.00     0.004 C 
ENDBRANCH   8  12
BRANCH   7  14
ATOM     14  C   UNL A   1      31.581  25.703  26.359  1.00  0.00     0.073 C 
BRANCH  14  15
ATOM     15  C   UNL A   1      31.367  26.932  25.470  1.00  0.00     0.045 A 
ATOM     16  C   UNL A   1      32.260  28.001  25.520  1.00  0.00     0.024 A 
ATOM     17  N   UNL A   1      30.331  26.940  24.588  1.00  0.00    -0.219 NA
ATOM     18  C   UNL A   1      31.967  29.180  24.836  1.00  0.00     0.007 A 
ATOM     19  C   UNL A   1      30.138  28.053  23.830  1.00  0.00     0.213 A 
ATOM     20  C   UNL A   1      30.859  29.223  24.008  1.00  0.00     0.068 A 
BRANCH  19  21
ATOM     21  O   UNL A   1      29.190  27.920  22.842  1.00  0.00    -0.481 OA
ATOM     22  C   UNL A   1      28.259  29.002  22.751  1.00  0.00     0.280 C 
ENDBRANCH  19  21
ENDBRANCH  14  15
ENDBRANCH   7  14
ENDBRANCH   4   7
ENDBRANCH   2   3
ENDBRANCH   1   2
BRANCH   1  23
ATOM     23  C   UNL A   1      35.065  21.466  25.922  1.00  0.00     0.023 C 
BRANCH  23  24
ATOM     24  C   UNL A   1      36.404  21.876  25.305  1.00  0.00     0.116 C 
BRANCH  24  25
ATOM     25  N   UNL A   1      37.442  20.854  25.379  1.00  0.00    -0.352 N 
ATOM     26  C   UNL A   1      38.743  20.921  25.833  1.00  0.00     0.251 C 
ATOM     27  H   UNL A   1      37.169  19.967  25.051  1.00  0.00     0.163 HD
ATOM     28  O   UNL A   1      39.469  19.931  25.726  1.00  0.00    -0.269 OA
BRANCH  26  29
ATOM     29  C   UNL A   1      39.291  22.177  26.397  1.00  0.00     0.039 A 
ATOM     30  C   UNL A   1      40.411  22.116  27.231  1.00  0.00     0.014 A 
ATOM     31  C   UNL A   1      38.724  23.415  26.095  1.00  0.00     0.014 A 
ATOM     32  C   UNL A   1      41.029  23.298  27.658  1.00  0.00     0.010 A 
ATOM     33  C   UNL A   1      39.395  24.588  26.437  1.00  0.00     0.010 A 
ATOM     34  C   UNL A   1      40.566  24.546  27.210  1.00  0.00    -0.014 A 
BRANCH  34  35
ATOM     35  C   UNL A   1      41.292  25.810  27.524  1.00  0.00     0.031 A 
ATOM     36  C   UNL A   1      40.615  26.894  28.323  1.00  0.00     0.074 A 
ATOM     37  C   UNL A   1      42.532  26.015  27.029  1.00  0.00     0.049 A 
ATOM     38  N   UNL A   1      41.036  28.101  28.606  1.00  0.00    -0.248 NA
ATOM     39  C   UNL A   1      39.275  26.590  28.848  1.00  0.00     0.031 C 
ATOM     40  C   UNL A   1      43.285  25.062  26.210  1.00  0.00     0.029 A 
ATOM     41  N   UNL A   1      43.377  27.094  27.133  1.00  0.00    -0.354 N 
ATOM     42  C   UNL A   1      40.012  28.700  29.333  1.00  0.00     0.074 A 
ATOM     43  C   UNL A   1      38.923  27.748  29.385  1.00  0.00     0.031 C 
ATOM     44  C   UNL A   1      44.486  25.585  25.914  1.00  0.00     0.029 A 
ATOM     45  C   UNL A   1      44.573  26.932  26.468  1.00  0.00     0.049 A 
ATOM     46  H   UNL A   1      43.150  27.908  27.638  1.00  0.00     0.167 HD
ATOM     47  C   UNL A   1      39.991  29.919  29.927  1.00  0.00     0.034 A 
ATOM     48  C   UNL A   1      45.613  27.776  26.305  1.00  0.00     0.034 A 
ATOM     49  C   UNL A   1      41.086  30.855  29.879  1.00  0.00     0.049 A 
ATOM     50  C   UNL A   1      45.543  29.147  26.939  1.00  0.00     0.074 A 
ATOM     51  C   UNL A   1      41.181  32.101  30.478  1.00  0.00     0.029 A 
ATOM     52  N   UNL A   1      42.278  30.654  29.194  1.00  0.00    -0.354 N 
ATOM     53  N   UNL A   1      44.582  29.677  27.658  1.00  0.00    -0.248 NA
ATOM     54  C   UNL A   1      46.704  30.027  26.748  1.00  0.00     0.031 C 
ATOM     55  C   UNL A   1      42.394  32.680  30.098  1.00  0.00     0.029 A 
ATOM     56  C   UNL A   1      43.098  31.764  29.334  1.00  0.00     0.049 A 
ATOM     57  H   UNL A   1      42.506  29.844  28.683  1.00  0.00     0.167 HD
ATOM     58  C   UNL A   1      45.043  30.936  28.038  1.00  0.00     0.074 A 
ATOM     59  C   UNL A   1      46.373  31.075  27.484  1.00  0.00     0.031 C 
ATOM     60  C   UNL A   1      44.426  31.889  28.780  1.00  0.00     0.034 A 
BRANCH  47  61
ATOM     61  C   UNL A   1      38.738  30.313  30.672  1.00  0.00     0.023 A 
ATOM     62  C   UNL A   1      37.687  30.994  30.034  1.00  0.00     0.031 A 
ATOM     63  C   UNL A   1      38.588  30.001  32.035  1.00  0.00     0.131 A 
ATOM     64  C   UNL A   1      36.562  31.396  30.771  1.00  0.00     0.055 A 
ATOM     65  C   UNL A   1      37.431  30.331  32.743  1.00  0.00     0.041 A 
ATOM     66  F   UNL A   1      39.568  29.371  32.703  1.00  0.00    -0.206 F 
ATOM     67  C   UNL A   1      36.414  31.044  32.114  1.00  0.00     0.022 A 
BRANCH  64  68
ATOM     68  S   UNL A   1      35.355  32.492  29.979  1.00  0.00     0.124 S 
ATOM     69  O   UNL A   1      34.398  32.707  31.062  1.00  0.00    -0.237 OA
ATOM     70  O   UNL A   1      36.169  33.644  29.607  1.00  0.00    -0.237 OA
ATOM     71  O   UNL A   1      34.851  31.696  28.862  1.00  0.00    -0.744 OA
ENDBRANCH  64  68
ENDBRANCH  47  61
BRANCH  48  72
ATOM     72  C   UNL A   1      46.808  27.380  25.499  1.00  0.00     0.023 A 
ATOM     73  C   UNL A   1      46.995  27.871  24.197  1.00  0.00     0.031 A 
ATOM     74  C   UNL A   1      47.735  26.438  25.983  1.00  0.00     0.131 A 
ATOM     75  C   UNL A   1      48.033  27.366  23.397  1.00  0.00     0.055 A 
ATOM     76  C   UNL A   1      48.807  25.992  25.209  1.00  0.00     0.041 A 
ATOM     77  F   UNL A   1      47.607  25.931  27.220  1.00  0.00    -0.206 F 
ATOM     78  C   UNL A   1      48.950  26.441  23.900  1.00  0.00     0.022 A 
BRANCH  75  79
ATOM     79  S   UNL A   1      48.083  27.833  21.645  1.00  0.00     0.124 S 
ATOM     80  O   UNL A   1      49.219  28.747  21.615  1.00  0.00    -0.237 OA
ATOM     81  O   UNL A   1      48.279  26.542  20.994  1.00  0.00    -0.237 OA
ATOM     82  O   UNL A   1      46.777  28.451  21.422  1.00  0.00    -0.744 OA
ENDBRANCH  75  79
ENDBRANCH  48  72
BRANCH  60  83
ATOM     83  C   UNL A   1      45.211  33.142  29.089  1.00  0.00     0.023 A 
ATOM     84  C   UNL A   1      45.171  34.271  28.252  1.00  0.00     0.031 A 
ATOM     85  C   UNL A   1      46.019  33.200  30.240  1.00  0.00     0.131 A 
ATOM     86  C   UNL A   1      45.970  35.386  28.547  1.00  0.00     0.055 A 
ATOM     87  C   UNL A   1      46.757  34.338  30.563  1.00  0.00     0.041 A 
ATOM     88  F   UNL A   1      46.097  32.151  31.074  1.00  0.00    -0.206 F 
ATOM     89  C   UNL A   1      46.747  35.435  29.707  1.00  0.00     0.022 A 
BRANCH  86  90
ATOM     90  S   UNL A   1      46.056  36.737  27.340  1.00  0.00     0.124 S 
ATOM     91  O   UNL A   1      47.205  37.499  27.819  1.00  0.00    -0.237 OA
ATOM     92  O   UNL A   1      46.246  36.021  26.082  1.00  0.00    -0.237 OA
ATOM     93  O   UNL A   1      44.765  37.407  27.482  1.00  0.00    -0.744 OA
ENDBRANCH  86  90
ENDBRANCH  60  83
ENDBRANCH  34  35
ENDBRANCH  26  29
ENDBRANCH  24  25
ENDBRANCH  23  24
ENDBRANCH   1  23
TORSDOF 18
ENDMDL
MODEL 3
REMARK VINA RESULT:     -11.9      1.871      2.459
REMARK SMILES CC[C@H]1CC[C@](Cc2cccc(OC)n2)(C(=O)NCCCCNC(=O)c2ccc(-c3c4nc(c(-c5cc(S(=O)(=O)[O-])ccc5F)c5ccc([nH]5)c(-c5cc(S(=O)(=O)[O-])ccc5F)c5nc(c(-c6cc(S(=O)(=O)[O-])ccc6F)c6ccc3[nH]6)C=C5)C=C4)cc2)C1
REMARK SMILES IDX 20 1 19 2 18 3 16 4 17 5 6 7 3 8 4 9 89 10 5 11 2 12 1 13
REMARK SMILES IDX 7 14 8 15 9 16 15 17 10 18 12 19 11 20 13 21 14 22 21 23
REMARK SMILES IDX 22 24 23 25 24 26 25 28 26 29 27 30 88 31 28 32 87 33 29 34
REMARK SMILES IDX 30 35 31 36 81 37 32 38 86 39 80 40 82 41 33 42 85 43 79 44
REMARK SMILES IDX 78 45 34 47 66 48 46 49 65 50 47 51 50 52 64 53 83 54 48 55
REMARK SMILES IDX 49 56 63 58 84 59 51 60 35 61 36 62 44 63 37 64 43 65 45 66
REMARK SMILES IDX 42 67 38 68 39 69 40 70 41 71 67 72 68 73 76 74 69 75 75 76
REMARK SMILES IDX 77 77 74 78 70 79 71 80 72 81 73 82 52 83 53 84 61 85 54 86
REMARK SMILES IDX 60 87 62 88 59 89 55 90 56 91 57 92 58 93
REMARK H PARENT 18 6 23 27 82 46 50 57
REMARK Flexibility Score: inf
ROOT
ATOM      1  C   UNL A   1      34.894  20.446  24.876  1.00  0.00     0.023 C 
ENDROOT
BRANCH   1   2
ATOM      2  C   UNL A   1      33.460  20.651  25.365  1.00  0.00     0.116 C 
BRANCH   2   3
ATOM      3  N   UNL A   1      33.291  21.243  26.688  1.00  0.00    -0.356 N 
ATOM      4  C   UNL A   1      32.767  22.456  27.081  1.00  0.00     0.226 C 
ATOM      5  O   UNL A   1      32.559  22.582  28.294  1.00  0.00    -0.274 OA
ATOM      6  H   UNL A   1      33.607  20.678  27.430  1.00  0.00     0.163 HD
BRANCH   4   7
ATOM      7  C   UNL A   1      32.433  23.629  26.096  1.00  0.00     0.055 C 
ATOM      8  C   UNL A   1      30.458  25.080  25.717  1.00  0.00    -0.010 C 
ATOM      9  C   UNL A   1      30.650  24.167  24.492  1.00  0.00     0.005 C 
ATOM     10  C   UNL A   1      31.438  24.577  26.770  1.00  0.00     0.021 C 
ATOM     11  C   UNL A   1      31.710  23.120  24.847  1.00  0.00     0.017 C 
BRANCH   8  12
ATOM     12  C   UNL A   1      30.534  26.583  25.410  1.00  0.00     0.000 C 
ATOM     13  C   UNL A   1      30.062  26.981  24.011  1.00  0.00     0.004 C 
ENDBRANCH   8  12
BRANCH   7  14
ATOM     14  C   UNL A   1      33.781  24.381  25.714  1.00  0.00     0.073 C 
BRANCH  14  15
ATOM     15  C   UNL A   1      33.777  25.640  24.842  1.00  0.00     0.045 A 
ATOM     16  C   UNL A   1      33.981  26.894  25.416  1.00  0.00     0.024 A 
ATOM     17  N   UNL A   1      33.635  25.514  23.495  1.00  0.00    -0.219 NA
ATOM     18  C   UNL A   1      33.808  28.043  24.646  1.00  0.00     0.007 A 
ATOM     19  C   UNL A   1      33.601  26.645  22.741  1.00  0.00     0.213 A 
ATOM     20  C   UNL A   1      33.570  27.918  23.289  1.00  0.00     0.068 A 
BRANCH  19  21
ATOM     21  O   UNL A   1      33.636  26.434  21.382  1.00  0.00    -0.481 OA
ATOM     22  C   UNL A   1      32.624  25.556  20.882  1.00  0.00     0.280 C 
ENDBRANCH  19  21
ENDBRANCH  14  15
ENDBRANCH   7  14
ENDBRANCH   4   7
ENDBRANCH   2   3
ENDBRANCH   1   2
BRANCH   1  23
ATOM     23  C   UNL A   1      36.002  21.178  25.642  1.00  0.00     0.023 C 
BRANCH  23  24
ATOM     24  C   UNL A   1      37.360  21.316  24.950  1.00  0.00     0.116 C 
BRANCH  24  25
ATOM     25  N   UNL A   1      38.369  20.367  25.404  1.00  0.00    -0.352 N 
ATOM     26  C   UNL A   1      39.515  20.557  26.148  1.00  0.00     0.251 C 
ATOM     27  H   UNL A   1      38.205  19.434  25.137  1.00  0.00     0.163 HD
ATOM     28  O   UNL A   1      40.267  19.601  26.349  1.00  0.00    -0.269 OA
BRANCH  26  29
ATOM     29  C   UNL A   1      39.878  21.898  26.662  1.00  0.00     0.039 A 
ATOM     30  C   UNL A   1      40.842  22.002  27.670  1.00  0.00     0.014 A 
ATOM     31  C   UNL A   1      39.292  23.055  26.148  1.00  0.00     0.014 A 
ATOM     32  C   UNL A   1      41.302  23.264  28.068  1.00  0.00     0.010 A 
ATOM     33  C   UNL A   1      39.820  24.303  26.472  1.00  0.00     0.010 A 
ATOM     34  C   UNL A   1      40.843  24.425  27.425  1.00  0.00    -0.014 A 
BRANCH  34  35
ATOM     35  C   UNL A   1      41.422  25.766  27.722  1.00  0.00     0.031 A 
ATOM     36  C   UNL A   1      42.839  26.086  27.318  1.00  0.00     0.074 A 
ATOM     37  C   UNL A   1      40.702  26.672  28.419  1.00  0.00     0.049 A 
ATOM     38  N   UNL A   1      43.555  27.150  27.580  1.00  0.00    -0.248 NA
ATOM     39  C   UNL A   1      43.552  25.061  26.541  1.00  0.00     0.031 C 
ATOM     40  C   UNL A   1      39.334  26.474  28.903  1.00  0.00     0.029 A 
ATOM     41  N   UNL A   1      41.021  27.937  28.853  1.00  0.00    -0.354 N 
ATOM     42  C   UNL A   1      44.803  26.919  27.008  1.00  0.00     0.074 A 
ATOM     43  C   UNL A   1      44.765  25.584  26.447  1.00  0.00     0.031 C 
ATOM     44  C   UNL A   1      38.923  27.585  29.536  1.00  0.00     0.029 A 
ATOM     45  C   UNL A   1      40.013  28.555  29.560  1.00  0.00     0.049 A 
ATOM     46  H   UNL A   1      41.890  28.363  28.674  1.00  0.00     0.167 HD
ATOM     47  C   UNL A   1      45.871  27.750  26.931  1.00  0.00     0.034 A 
ATOM     48  C   UNL A   1      39.973  29.757  30.172  1.00  0.00     0.034 A 
ATOM     49  C   UNL A   1      45.893  29.082  27.482  1.00  0.00     0.049 A 
ATOM     50  C   UNL A   1      41.195  30.644  30.111  1.00  0.00     0.074 A 
ATOM     51  C   UNL A   1      46.912  30.020  27.426  1.00  0.00     0.029 A 
ATOM     52  N   UNL A   1      44.854  29.670  28.190  1.00  0.00    -0.354 N 
ATOM     53  N   UNL A   1      42.350  30.422  29.528  1.00  0.00    -0.248 NA
ATOM     54  C   UNL A   1      41.102  31.949  30.780  1.00  0.00     0.031 C 
ATOM     55  C   UNL A   1      46.517  31.142  28.159  1.00  0.00     0.029 A 
ATOM     56  C   UNL A   1      45.218  30.944  28.600  1.00  0.00     0.049 A 
ATOM     57  H   UNL A   1      43.986  29.244  28.376  1.00  0.00     0.167 HD
ATOM     58  C   UNL A   1      43.103  31.577  29.727  1.00  0.00     0.074 A 
ATOM     59  C   UNL A   1      42.265  32.498  30.465  1.00  0.00     0.031 C 
ATOM     60  C   UNL A   1      44.372  31.855  29.332  1.00  0.00     0.034 A 
BRANCH  47  61
ATOM     61  C   UNL A   1      47.108  27.238  26.233  1.00  0.00     0.023 A 
ATOM     62  C   UNL A   1      48.082  26.490  26.917  1.00  0.00     0.031 A 
ATOM     63  C   UNL A   1      47.317  27.494  24.866  1.00  0.00     0.131 A 
ATOM     64  C   UNL A   1      49.246  26.079  26.251  1.00  0.00     0.055 A 
ATOM     65  C   UNL A   1      48.439  27.013  24.189  1.00  0.00     0.041 A 
ATOM     66  F   UNL A   1      46.432  28.222  24.165  1.00  0.00    -0.206 F 
ATOM     67  C   UNL A   1      49.419  26.310  24.885  1.00  0.00     0.022 A 
BRANCH  64  68
ATOM     68  S   UNL A   1      50.588  25.347  27.226  1.00  0.00     0.124 S 
ATOM     69  O   UNL A   1      50.953  26.456  28.105  1.00  0.00    -0.237 OA
ATOM     70  O   UNL A   1      49.932  24.213  27.868  1.00  0.00    -0.237 OA
ATOM     71  O   UNL A   1      51.592  25.001  26.223  1.00  0.00    -0.744 OA
ENDBRANCH  64  68
ENDBRANCH  47  61
BRANCH  48  72
ATOM     72  C   UNL A   1      38.756  30.203  30.917  1.00  0.00     0.023 A 
ATOM     73  C   UNL A   1      37.757  30.957  30.281  1.00  0.00     0.031 A 
ATOM     74  C   UNL A   1      38.614  29.958  32.295  1.00  0.00     0.131 A 
ATOM     75  C   UNL A   1      36.704  31.504  31.033  1.00  0.00     0.055 A 
ATOM     76  C   UNL A   1      37.528  30.442  33.024  1.00  0.00     0.041 A 
ATOM     77  F   UNL A   1      39.539  29.244  32.958  1.00  0.00    -0.206 F 
ATOM     78  C   UNL A   1      36.574  31.238  32.397  1.00  0.00     0.022 A 
BRANCH  75  79
ATOM     79  S   UNL A   1      35.583  32.680  30.226  1.00  0.00     0.124 S 
ATOM     80  O   UNL A   1      36.265  33.947  30.461  1.00  0.00    -0.237 OA
ATOM     81  O   UNL A   1      35.580  32.198  28.849  1.00  0.00    -0.237 OA
ATOM     82  O   UNL A   1      34.326  32.503  30.951  1.00  0.00    -0.744 OA
ENDBRANCH  75  79
ENDBRANCH  48  72
BRANCH  60  83
ATOM     83  C   UNL A   1      44.905  33.235  29.636  1.00  0.00     0.023 A 
ATOM     84  C   UNL A   1      44.758  34.305  28.736  1.00  0.00     0.031 A 
ATOM     85  C   UNL A   1      45.578  33.477  30.847  1.00  0.00     0.131 A 
ATOM     86  C   UNL A   1      45.328  35.551  29.035  1.00  0.00     0.055 A 
ATOM     87  C   UNL A   1      46.083  34.737  31.169  1.00  0.00     0.041 A 
ATOM     88  F   UNL A   1      45.750  32.493  31.743  1.00  0.00    -0.206 F 
ATOM     89  C   UNL A   1      45.973  35.780  30.254  1.00  0.00     0.022 A 
BRANCH  86  90
ATOM     90  S   UNL A   1      45.303  36.847  27.766  1.00  0.00     0.124 S 
ATOM     91  O   UNL A   1      45.617  36.092  26.557  1.00  0.00    -0.237 OA
ATOM     92  O   UNL A   1      43.938  37.353  27.863  1.00  0.00    -0.237 OA
ATOM     93  O   UNL A   1      46.341  37.777  28.204  1.00  0.00    -0.744 OA
ENDBRANCH  86  90
ENDBRANCH  60  83
ENDBRANCH  34  35
ENDBRANCH  26  29
ENDBRANCH  24  25
ENDBRANCH  23  24
ENDBRANCH   1  23
TORSDOF 18
ENDMDL
