MODEL 1
REMARK VINA RESULT:     -11.2      0.000      0.000
REMARK SMILES CC(C)n1ccc(C#CC(=O)NCCCCNC(=O)c2ccc(-c3c4nc(c(-c5cc(S(=O)(=O)[O-])ccc5F)c5ccc([nH]5)c(-c5cc(S(=O)(=O)[O-])ccc5F)c5nc(c(-c6cc(S(=O)(=O)[O-])ccc6F)c6ccc3[nH]6)C=C5)C=C4)cc2)n1
REMARK SMILES IDX 15 1 14 2 13 3 12 4 10 5 11 6 9 8 8 9 7 10 4 11 5 12 83 13
REMARK SMILES IDX 6 14 2 15 1 16 3 17 16 18 17 19 18 20 19 22 20 23 21 24
REMARK SMILES IDX 82 25 22 26 81 27 23 28 24 29 25 30 75 31 26 32 80 33 74 34
REMARK SMILES IDX 76 35 27 36 79 37 73 38 72 39 28 41 60 42 40 43 59 44 41 45
REMARK SMILES IDX 44 46 58 47 77 48 42 49 43 50 57 52 78 53 45 54 29 55 30 56
REMARK SMILES IDX 38 57 31 58 37 59 39 60 36 61 32 62 33 63 34 64 35 65 61 66
REMARK SMILES IDX 62 67 70 68 63 69 69 70 71 71 68 72 64 73 65 74 66 75 67 76
REMARK SMILES IDX 46 77 47 78 55 79 48 80 54 81 56 82 53 83 49 84 50 85 51 86
REMARK SMILES IDX 52 87
REMARK H PARENT 12 7 17 21 76 40 44 51
REMARK Flexibility Score: inf
ROOT
ATOM      1  C   UNL A   1      37.450  20.234  24.576  1.00  0.00     0.023 C 
ENDROOT
BRANCH   1   2
ATOM      2  C   UNL A   1      36.019  20.450  25.090  1.00  0.00     0.023 C 
BRANCH   2   3
ATOM      3  C   UNL A   1      35.779  21.731  25.899  1.00  0.00     0.117 C 
BRANCH   3   4
ATOM      4  N   UNL A   1      34.780  21.548  26.935  1.00  0.00    -0.345 N 
ATOM      5  C   UNL A   1      33.808  22.433  27.317  1.00  0.00     0.296 C 
ATOM      6  O   UNL A   1      33.040  22.176  28.235  1.00  0.00    -0.260 OA
ATOM      7  H   UNL A   1      34.804  20.690  27.418  1.00  0.00     0.164 HD
BRANCH   5   8
ATOM      8  C   UNL A   1      33.698  23.704  26.635  1.00  0.00     0.002 C 
ATOM      9  C   UNL A   1      33.620  24.751  26.078  1.00  0.00    -0.034 C 
BRANCH   9  10
ATOM     10  C   UNL A   1      33.509  26.012  25.415  1.00  0.00     0.135 A 
ATOM     11  N   UNL A   1      33.321  28.101  25.217  1.00  0.00    -0.269 N 
ATOM     12  C   UNL A   1      33.417  27.630  23.933  1.00  0.00     0.110 A 
ATOM     13  N   UNL A   1      33.334  27.118  26.139  1.00  0.00    -0.164 NA
ATOM     14  C   UNL A   1      33.544  26.264  24.035  1.00  0.00     0.059 A 
BRANCH  11  15
ATOM     15  C   UNL A   1      33.201  29.506  25.598  1.00  0.00     0.101 C 
ATOM     16  C   UNL A   1      31.775  30.008  25.376  1.00  0.00     0.033 C 
ATOM     17  C   UNL A   1      33.663  29.804  27.028  1.00  0.00     0.033 C 
ENDBRANCH  11  15
ENDBRANCH   9  10
ENDBRANCH   5   8
ENDBRANCH   3   4
ENDBRANCH   2   3
ENDBRANCH   1   2
BRANCH   1  18
ATOM     18  C   UNL A   1      38.543  20.593  25.573  1.00  0.00     0.116 C 
BRANCH  18  19
ATOM     19  N   UNL A   1      39.495  19.505  25.827  1.00  0.00    -0.352 N 
ATOM     20  C   UNL A   1      40.873  19.604  26.001  1.00  0.00     0.251 C 
ATOM     21  H   UNL A   1      39.114  18.599  25.880  1.00  0.00     0.163 HD
ATOM     22  O   UNL A   1      41.598  18.640  25.781  1.00  0.00    -0.269 OA
BRANCH  20  23
ATOM     23  C   UNL A   1      41.433  20.882  26.493  1.00  0.00     0.039 A 
ATOM     24  C   UNL A   1      41.958  21.886  25.671  1.00  0.00     0.014 A 
ATOM     25  C   UNL A   1      41.370  21.080  27.863  1.00  0.00     0.014 A 
ATOM     26  C   UNL A   1      42.408  23.072  26.269  1.00  0.00     0.010 A 
ATOM     27  C   UNL A   1      41.471  22.343  28.363  1.00  0.00     0.010 A 
ATOM     28  C   UNL A   1      42.175  23.284  27.640  1.00  0.00    -0.014 A 
BRANCH  28  29
ATOM     29  C   UNL A   1      42.404  24.546  28.346  1.00  0.00     0.031 A 
ATOM     30  C   UNL A   1      41.265  25.470  28.117  1.00  0.00     0.074 A 
ATOM     31  C   UNL A   1      43.372  24.720  29.290  1.00  0.00     0.049 A 
ATOM     32  N   UNL A   1      41.225  26.446  27.271  1.00  0.00    -0.248 NA
ATOM     33  C   UNL A   1      39.930  25.103  28.637  1.00  0.00     0.031 C 
ATOM     34  C   UNL A   1      44.382  23.755  29.754  1.00  0.00     0.029 A 
ATOM     35  N   UNL A   1      43.640  25.798  30.095  1.00  0.00    -0.354 N 
ATOM     36  C   UNL A   1      39.975  27.025  27.449  1.00  0.00     0.074 A 
ATOM     37  C   UNL A   1      39.155  25.997  28.019  1.00  0.00     0.031 C 
ATOM     38  C   UNL A   1      44.998  24.212  30.874  1.00  0.00     0.029 A 
ATOM     39  C   UNL A   1      44.548  25.566  31.151  1.00  0.00     0.049 A 
ATOM     40  H   UNL A   1      43.224  26.677  29.947  1.00  0.00     0.167 HD
ATOM     41  C   UNL A   1      39.858  28.383  27.480  1.00  0.00     0.034 A 
ATOM     42  C   UNL A   1      44.935  26.432  32.147  1.00  0.00     0.034 A 
ATOM     43  C   UNL A   1      41.073  28.991  26.973  1.00  0.00     0.049 A 
ATOM     44  C   UNL A   1      44.633  27.791  31.635  1.00  0.00     0.074 A 
ATOM     45  C   UNL A   1      41.765  28.953  25.779  1.00  0.00     0.029 A 
ATOM     46  N   UNL A   1      41.975  29.418  27.922  1.00  0.00    -0.354 N 
ATOM     47  N   UNL A   1      45.245  28.304  30.603  1.00  0.00    -0.248 NA
ATOM     48  C   UNL A   1      43.306  28.323  31.899  1.00  0.00     0.031 C 
ATOM     49  C   UNL A   1      43.143  28.922  26.152  1.00  0.00     0.029 A 
ATOM     50  C   UNL A   1      43.245  29.077  27.537  1.00  0.00     0.049 A 
ATOM     51  H   UNL A   1      41.743  29.895  28.751  1.00  0.00     0.167 HD
ATOM     52  C   UNL A   1      44.233  28.853  29.828  1.00  0.00     0.074 A 
ATOM     53  C   UNL A   1      43.069  28.905  30.719  1.00  0.00     0.031 C 
ATOM     54  C   UNL A   1      44.352  28.906  28.466  1.00  0.00     0.034 A 
BRANCH  41  55
ATOM     55  C   UNL A   1      38.912  29.155  28.388  1.00  0.00     0.023 A 
ATOM     56  C   UNL A   1      39.158  29.065  29.773  1.00  0.00     0.031 A 
ATOM     57  C   UNL A   1      37.660  29.706  28.030  1.00  0.00     0.131 A 
ATOM     58  C   UNL A   1      38.164  29.392  30.711  1.00  0.00     0.055 A 
ATOM     59  C   UNL A   1      36.696  30.084  28.969  1.00  0.00     0.041 A 
ATOM     60  F   UNL A   1      37.250  29.841  26.765  1.00  0.00    -0.206 F 
ATOM     61  C   UNL A   1      36.930  29.899  30.319  1.00  0.00     0.022 A 
BRANCH  58  62
ATOM     62  S   UNL A   1      38.454  28.977  32.449  1.00  0.00     0.124 S 
ATOM     63  O   UNL A   1      38.956  30.243  32.971  1.00  0.00    -0.237 OA
ATOM     64  O   UNL A   1      37.121  28.579  32.888  1.00  0.00    -0.237 OA
ATOM     65  O   UNL A   1      39.436  27.897  32.378  1.00  0.00    -0.744 OA
ENDBRANCH  58  62
ENDBRANCH  41  55
BRANCH  42  66
ATOM     66  C   UNL A   1      45.141  26.163  33.623  1.00  0.00     0.023 A 
ATOM     67  C   UNL A   1      44.155  26.315  34.645  1.00  0.00     0.031 A 
ATOM     68  C   UNL A   1      46.307  25.461  34.002  1.00  0.00     0.131 A 
ATOM     69  C   UNL A   1      44.372  25.787  35.956  1.00  0.00     0.055 A 
ATOM     70  C   UNL A   1      46.504  24.931  35.282  1.00  0.00     0.041 A 
ATOM     71  F   UNL A   1      47.265  25.187  33.103  1.00  0.00    -0.206 F 
ATOM     72  C   UNL A   1      45.539  25.086  36.262  1.00  0.00     0.022 A 
BRANCH  69  73
ATOM     73  S   UNL A   1      43.137  25.955  37.309  1.00  0.00     0.124 S 
ATOM     74  O   UNL A   1      43.958  25.838  38.508  1.00  0.00    -0.237 OA
ATOM     75  O   UNL A   1      42.551  27.264  37.047  1.00  0.00    -0.237 OA
ATOM     76  O   UNL A   1      42.227  24.828  37.088  1.00  0.00    -0.744 OA
ENDBRANCH  69  73
ENDBRANCH  42  66
BRANCH  54  77
ATOM     77  C   UNL A   1      45.728  28.660  27.861  1.00  0.00     0.023 A 
ATOM     78  C   UNL A   1      46.230  27.420  27.392  1.00  0.00     0.031 A 
ATOM     79  C   UNL A   1      46.534  29.797  27.678  1.00  0.00     0.131 A 
ATOM     80  C   UNL A   1      47.504  27.362  26.782  1.00  0.00     0.055 A 
ATOM     81  C   UNL A   1      47.774  29.739  27.048  1.00  0.00     0.041 A 
ATOM     82  F   UNL A   1      46.108  31.003  28.087  1.00  0.00    -0.206 F 
ATOM     83  C   UNL A   1      48.268  28.520  26.604  1.00  0.00     0.022 A 
BRANCH  80  84
ATOM     84  S   UNL A   1      48.226  25.773  26.242  1.00  0.00     0.124 S 
ATOM     85  O   UNL A   1      48.179  24.953  27.446  1.00  0.00    -0.237 OA
ATOM     86  O   UNL A   1      47.333  25.369  25.159  1.00  0.00    -0.237 OA
ATOM     87  O   UNL A   1      49.575  26.141  25.808  1.00  0.00    -0.744 OA
ENDBRANCH  80  84
ENDBRANCH  54  77
ENDBRANCH  28  29
ENDBRANCH  20  23
ENDBRANCH  18  19
ENDBRANCH   1  18
TORSDOF 16
ENDMDL
MODEL 2
REMARK VINA RESULT:     -11.1      4.221      9.653
REMARK SMILES CC(C)n1ccc(C#CC(=O)NCCCCNC(=O)c2ccc(-c3c4nc(c(-c5cc(S(=O)(=O)[O-])ccc5F)c5ccc([nH]5)c(-c5cc(S(=O)(=O)[O-])ccc5F)c5nc(c(-c6cc(S(=O)(=O)[O-])ccc6F)c6ccc3[nH]6)C=C5)C=C4)cc2)n1
REMARK SMILES IDX 15 1 14 2 13 3 12 4 10 5 11 6 9 8 8 9 7 10 4 11 5 12 83 13
REMARK SMILES IDX 6 14 2 15 1 16 3 17 16 18 17 19 18 20 19 22 20 23 21 24
REMARK SMILES IDX 82 25 22 26 81 27 23 28 24 29 25 30 75 31 26 32 80 33 74 34
REMARK SMILES IDX 76 35 27 36 79 37 73 38 72 39 28 41 60 42 40 43 59 44 41 45
REMARK SMILES IDX 44 46 58 47 77 48 42 49 43 50 57 52 78 53 45 54 29 55 30 56
REMARK SMILES IDX 38 57 31 58 37 59 39 60 36 61 32 62 33 63 34 64 35 65 61 66
REMARK SMILES IDX 62 67 70 68 63 69 69 70 71 71 68 72 64 73 65 74 66 75 67 76
REMARK SMILES IDX 46 77 47 78 55 79 48 80 54 81 56 82 53 83 49 84 50 85 51 86
REMARK SMILES IDX 52 87
REMARK H PARENT 12 7 17 21 76 40 44 51
REMARK Flexibility Score: inf
ROOT
ATOM      1  C   UNL A   1      36.247  31.160  31.950  1.00  0.00     0.023 C 
ENDROOT
BRANCH   1   2
ATOM      2  C   UNL A   1      37.483  31.031  32.853  1.00  0.00     0.023 C 
BRANCH   2   3
ATOM      3  C   UNL A   1      38.038  32.340  33.427  1.00  0.00     0.117 C 
BRANCH   3   4
ATOM      4  N   UNL A   1      37.665  32.532  34.816  1.00  0.00    -0.345 N 
ATOM      5  C   UNL A   1      36.707  33.376  35.311  1.00  0.00     0.296 C 
ATOM      6  O   UNL A   1      36.507  33.475  36.514  1.00  0.00    -0.260 OA
ATOM      7  H   UNL A   1      38.156  31.994  35.479  1.00  0.00     0.164 HD
BRANCH   5   8
ATOM      8  C   UNL A   1      35.929  34.180  34.393  1.00  0.00     0.002 C 
ATOM      9  C   UNL A   1      35.280  34.839  33.646  1.00  0.00    -0.034 C 
BRANCH   9  10
ATOM     10  C   UNL A   1      34.509  35.622  32.734  1.00  0.00     0.135 A 
ATOM     11  N   UNL A   1      33.506  36.108  30.945  1.00  0.00    -0.269 N 
ATOM     12  C   UNL A   1      33.286  37.175  31.777  1.00  0.00     0.110 A 
ATOM     13  N   UNL A   1      34.290  35.162  31.501  1.00  0.00    -0.164 NA
ATOM     14  C   UNL A   1      33.929  36.880  32.957  1.00  0.00     0.059 A 
BRANCH  11  15
ATOM     15  C   UNL A   1      32.984  35.969  29.588  1.00  0.00     0.101 C 
ATOM     16  C   UNL A   1      33.562  37.047  28.672  1.00  0.00     0.033 C 
ATOM     17  C   UNL A   1      33.189  34.577  28.983  1.00  0.00     0.033 C 
ENDBRANCH  11  15
ENDBRANCH   9  10
ENDBRANCH   5   8
ENDBRANCH   3   4
ENDBRANCH   2   3
ENDBRANCH   1   2
BRANCH   1  18
ATOM     18  C   UNL A   1      36.559  31.333  30.470  1.00  0.00     0.116 C 
BRANCH  18  19
ATOM     19  N   UNL A   1      35.858  30.379  29.600  1.00  0.00    -0.352 N 
ATOM     20  C   UNL A   1      36.416  29.519  28.658  1.00  0.00     0.251 C 
ATOM     21  H   UNL A   1      34.879  30.344  29.696  1.00  0.00     0.163 HD
ATOM     22  O   UNL A   1      35.742  29.102  27.723  1.00  0.00    -0.269 OA
BRANCH  20  23
ATOM     23  C   UNL A   1      37.822  29.094  28.833  1.00  0.00     0.039 A 
ATOM     24  C   UNL A   1      38.251  28.135  29.757  1.00  0.00     0.014 A 
ATOM     25  C   UNL A   1      38.739  29.674  27.969  1.00  0.00     0.014 A 
ATOM     26  C   UNL A   1      39.610  27.789  29.780  1.00  0.00     0.010 A 
ATOM     27  C   UNL A   1      39.945  29.073  27.772  1.00  0.00     0.010 A 
ATOM     28  C   UNL A   1      40.465  28.288  28.781  1.00  0.00    -0.014 A 
BRANCH  28  29
ATOM     29  C   UNL A   1      41.846  27.854  28.562  1.00  0.00     0.031 A 
ATOM     30  C   UNL A   1      41.863  26.571  27.815  1.00  0.00     0.074 A 
ATOM     31  C   UNL A   1      42.931  28.654  28.763  1.00  0.00     0.049 A 
ATOM     32  N   UNL A   1      42.025  25.392  28.318  1.00  0.00    -0.248 NA
ATOM     33  C   UNL A   1      41.344  26.542  26.431  1.00  0.00     0.031 C 
ATOM     34  C   UNL A   1      42.968  30.038  29.263  1.00  0.00     0.029 A 
ATOM     35  N   UNL A   1      44.260  28.424  28.511  1.00  0.00    -0.354 N 
ATOM     36  C   UNL A   1      41.995  24.530  27.229  1.00  0.00     0.074 A 
ATOM     37  C   UNL A   1      41.268  25.227  26.209  1.00  0.00     0.031 C 
ATOM     38  C   UNL A   1      44.201  30.577  29.084  1.00  0.00     0.029 A 
ATOM     39  C   UNL A   1      45.105  29.551  28.588  1.00  0.00     0.049 A 
ATOM     40  H   UNL A   1      44.602  27.528  28.291  1.00  0.00     0.167 HD
ATOM     41  C   UNL A   1      42.899  23.513  27.147  1.00  0.00     0.034 A 
ATOM     42  C   UNL A   1      46.450  29.629  28.311  1.00  0.00     0.034 A 
ATOM     43  C   UNL A   1      43.541  23.323  28.434  1.00  0.00     0.049 A 
ATOM     44  C   UNL A   1      46.959  28.239  28.412  1.00  0.00     0.074 A 
ATOM     45  C   UNL A   1      43.112  23.006  29.706  1.00  0.00     0.029 A 
ATOM     46  N   UNL A   1      44.775  23.915  28.585  1.00  0.00    -0.354 N 
ATOM     47  N   UNL A   1      46.971  27.575  29.535  1.00  0.00    -0.248 NA
ATOM     48  C   UNL A   1      46.914  27.425  27.208  1.00  0.00     0.031 C 
ATOM     49  C   UNL A   1      43.897  23.824  30.576  1.00  0.00     0.029 A 
ATOM     50  C   UNL A   1      44.857  24.502  29.821  1.00  0.00     0.049 A 
ATOM     51  H   UNL A   1      45.490  23.917  27.908  1.00  0.00     0.167 HD
ATOM     52  C   UNL A   1      46.464  26.325  29.212  1.00  0.00     0.074 A 
ATOM     53  C   UNL A   1      46.524  26.265  27.748  1.00  0.00     0.031 C 
ATOM     54  C   UNL A   1      45.755  25.603  30.134  1.00  0.00     0.034 A 
BRANCH  41  55
ATOM     55  C   UNL A   1      43.559  23.037  25.862  1.00  0.00     0.023 A 
ATOM     56  C   UNL A   1      43.517  21.650  25.611  1.00  0.00     0.031 A 
ATOM     57  C   UNL A   1      44.449  23.773  25.047  1.00  0.00     0.131 A 
ATOM     58  C   UNL A   1      44.399  21.049  24.696  1.00  0.00     0.055 A 
ATOM     59  C   UNL A   1      45.284  23.177  24.096  1.00  0.00     0.041 A 
ATOM     60  F   UNL A   1      44.636  25.091  25.164  1.00  0.00    -0.206 F 
ATOM     61  C   UNL A   1      45.287  21.804  23.937  1.00  0.00     0.022 A 
BRANCH  58  62
ATOM     62  S   UNL A   1      44.482  19.242  24.644  1.00  0.00     0.124 S 
ATOM     63  O   UNL A   1      45.470  18.966  25.679  1.00  0.00    -0.237 OA
ATOM     64  O   UNL A   1      43.104  18.871  24.948  1.00  0.00    -0.237 OA
ATOM     65  O   UNL A   1      44.914  18.964  23.276  1.00  0.00    -0.744 OA
ENDBRANCH  58  62
ENDBRANCH  41  55
BRANCH  42  66
ATOM     66  C   UNL A   1      47.216  30.708  27.574  1.00  0.00     0.023 A 
ATOM     67  C   UNL A   1      46.651  31.886  26.997  1.00  0.00     0.031 A 
ATOM     68  C   UNL A   1      48.624  30.698  27.681  1.00  0.00     0.131 A 
ATOM     69  C   UNL A   1      47.488  32.959  26.558  1.00  0.00     0.055 A 
ATOM     70  C   UNL A   1      49.435  31.760  27.266  1.00  0.00     0.041 A 
ATOM     71  F   UNL A   1      49.258  29.679  28.282  1.00  0.00    -0.206 F 
ATOM     72  C   UNL A   1      48.874  32.895  26.708  1.00  0.00     0.022 A 
BRANCH  69  73
ATOM     73  S   UNL A   1      46.814  34.497  25.806  1.00  0.00     0.124 S 
ATOM     74  O   UNL A   1      47.925  34.964  24.985  1.00  0.00    -0.237 OA
ATOM     75  O   UNL A   1      45.636  34.016  25.094  1.00  0.00    -0.237 OA
ATOM     76  O   UNL A   1      46.519  35.347  26.962  1.00  0.00    -0.744 OA
ENDBRANCH  69  73
ENDBRANCH  42  66
BRANCH  54  77
ATOM     77  C   UNL A   1      45.819  26.048  31.589  1.00  0.00     0.023 A 
ATOM     78  C   UNL A   1      44.763  26.626  32.338  1.00  0.00     0.031 A 
ATOM     79  C   UNL A   1      47.020  25.775  32.265  1.00  0.00     0.131 A 
ATOM     80  C   UNL A   1      44.950  26.918  33.708  1.00  0.00     0.055 A 
ATOM     81  C   UNL A   1      47.188  26.035  33.623  1.00  0.00     0.041 A 
ATOM     82  F   UNL A   1      48.052  25.214  31.615  1.00  0.00    -0.206 F 
ATOM     83  C   UNL A   1      46.156  26.615  34.348  1.00  0.00     0.022 A 
BRANCH  80  84
ATOM     84  S   UNL A   1      43.648  27.742  34.689  1.00  0.00     0.124 S 
ATOM     85  O   UNL A   1      42.428  27.450  33.947  1.00  0.00    -0.237 OA
ATOM     86  O   UNL A   1      43.773  27.095  35.993  1.00  0.00    -0.237 OA
ATOM     87  O   UNL A   1      44.048  29.151  34.673  1.00  0.00    -0.744 OA
ENDBRANCH  80  84
ENDBRANCH  54  77
ENDBRANCH  28  29
ENDBRANCH  20  23
ENDBRANCH  18  19
ENDBRANCH   1  18
TORSDOF 16
ENDMDL
MODEL 3
REMARK VINA RESULT:     -11.1      4.530      9.895
REMARK SMILES CC(C)n1ccc(C#CC(=O)NCCCCNC(=O)c2ccc(-c3c4nc(c(-c5cc(S(=O)(=O)[O-])ccc5F)c5ccc([nH]5)c(-c5cc(S(=O)(=O)[O-])ccc5F)c5nc(c(-c6cc(S(=O)(=O)[O-])ccc6F)c6ccc3[nH]6)C=C5)C=C4)cc2)n1
REMARK SMILES IDX 15 1 14 2 13 3 12 4 10 5 11 6 9 8 8 9 7 10 4 11 5 12 83 13
REMARK SMILES IDX 6 14 2 15 1 16 3 17 16 18 17 19 18 20 19 22 20 23 21 24
REMARK SMILES IDX 82 25 22 26 81 27 23 28 24 29 25 30 75 31 26 32 80 33 74 34
REMARK SMILES IDX 76 35 27 36 79 37 73 38 72 39 28 41 60 42 40 43 59 44 41 45
REMARK SMILES IDX 44 46 58 47 77 48 42 49 43 50 57 52 78 53 45 54 29 55 30 56
REMARK SMILES IDX 38 57 31 58 37 59 39 60 36 61 32 62 33 63 34 64 35 65 61 66
REMARK SMILES IDX 62 67 70 68 63 69 69 70 71 71 68 72 64 73 65 74 66 75 67 76
REMARK SMILES IDX 46 77 47 78 55 79 48 80 54 81 56 82 53 83 49 84 50 85 51 86
REMARK SMILES IDX 52 87
REMARK H PARENT 12 7 17 21 76 40 44 51
REMARK Flexibility Score: inf
ROOT
ATOM      1  C   UNL A   1      31.496  31.165  26.298  1.00  0.00     0.023 C 
ENDROOT
BRANCH   1   2
ATOM      2  C   UNL A   1      31.750  29.689  25.954  1.00  0.00     0.023 C 
BRANCH   2   3
ATOM      3  C   UNL A   1      31.407  29.262  24.521  1.00  0.00     0.117 C 
BRANCH   3   4
ATOM      4  N   UNL A   1      32.529  29.424  23.616  1.00  0.00    -0.345 N 
ATOM      5  C   UNL A   1      33.516  28.514  23.344  1.00  0.00     0.296 C 
ATOM      6  O   UNL A   1      34.435  28.782  22.582  1.00  0.00    -0.260 OA
ATOM      7  H   UNL A   1      32.588  30.285  23.143  1.00  0.00     0.164 HD
BRANCH   5   8
ATOM      8  C   UNL A   1      33.480  27.218  23.985  1.00  0.00     0.002 C 
ATOM      9  C   UNL A   1      33.444  26.157  24.521  1.00  0.00    -0.034 C 
BRANCH   9  10
ATOM     10  C   UNL A   1      33.419  24.880  25.161  1.00  0.00     0.135 A 
ATOM     11  N   UNL A   1      33.940  22.870  25.524  1.00  0.00    -0.269 N 
ATOM     12  C   UNL A   1      33.026  23.183  26.499  1.00  0.00     0.110 A 
ATOM     13  N   UNL A   1      34.162  23.887  24.668  1.00  0.00    -0.164 NA
ATOM     14  C   UNL A   1      32.673  24.495  26.285  1.00  0.00     0.059 A 
BRANCH  11  15
ATOM     15  C   UNL A   1      34.615  21.583  25.377  1.00  0.00     0.101 C 
ATOM     16  C   UNL A   1      33.726  20.587  24.635  1.00  0.00     0.033 C 
ATOM     17  C   UNL A   1      35.993  21.677  24.715  1.00  0.00     0.033 C 
ENDBRANCH  11  15
ENDBRANCH   9  10
ENDBRANCH   5   8
ENDBRANCH   3   4
ENDBRANCH   2   3
ENDBRANCH   1   2
BRANCH   1  18
ATOM     18  C   UNL A   1      32.553  31.798  27.191  1.00  0.00     0.116 C 
BRANCH  18  19
ATOM     19  N   UNL A   1      32.398  33.249  27.357  1.00  0.00    -0.352 N 
ATOM     20  C   UNL A   1      33.019  34.069  28.295  1.00  0.00     0.251 C 
ATOM     21  H   UNL A   1      31.783  33.693  26.730  1.00  0.00     0.163 HD
ATOM     22  O   UNL A   1      32.513  35.139  28.617  1.00  0.00    -0.269 OA
BRANCH  20  23
ATOM     23  C   UNL A   1      34.316  33.638  28.863  1.00  0.00     0.039 A 
ATOM     24  C   UNL A   1      34.463  32.963  30.080  1.00  0.00     0.014 A 
ATOM     25  C   UNL A   1      35.431  33.895  28.081  1.00  0.00     0.014 A 
ATOM     26  C   UNL A   1      35.749  32.566  30.474  1.00  0.00     0.010 A 
ATOM     27  C   UNL A   1      36.580  33.199  28.305  1.00  0.00     0.010 A 
ATOM     28  C   UNL A   1      36.820  32.711  29.573  1.00  0.00    -0.014 A 
BRANCH  28  29
ATOM     29  C   UNL A   1      38.162  32.158  29.767  1.00  0.00     0.031 A 
ATOM     30  C   UNL A   1      38.197  30.740  29.329  1.00  0.00     0.074 A 
ATOM     31  C   UNL A   1      39.261  32.919  30.036  1.00  0.00     0.049 A 
ATOM     32  N   UNL A   1      38.124  29.700  30.090  1.00  0.00    -0.248 NA
ATOM     33  C   UNL A   1      37.976  30.427  27.900  1.00  0.00     0.031 C 
ATOM     34  C   UNL A   1      39.340  34.375  30.231  1.00  0.00     0.029 A 
ATOM     35  N   UNL A   1      40.581  32.561  30.144  1.00  0.00    -0.354 N 
ATOM     36  C   UNL A   1      38.229  28.615  29.227  1.00  0.00     0.074 A 
ATOM     37  C   UNL A   1      37.808  29.104  27.947  1.00  0.00     0.031 C 
ATOM     38  C   UNL A   1      40.634  34.787  30.226  1.00  0.00     0.029 A 
ATOM     39  C   UNL A   1      41.507  33.626  30.172  1.00  0.00     0.049 A 
ATOM     40  H   UNL A   1      40.864  31.620  30.199  1.00  0.00     0.167 HD
ATOM     41  C   UNL A   1      39.017  27.556  29.566  1.00  0.00     0.034 A 
ATOM     42  C   UNL A   1      42.881  33.560  30.196  1.00  0.00     0.034 A 
ATOM     43  C   UNL A   1      39.354  27.627  30.975  1.00  0.00     0.049 A 
ATOM     44  C   UNL A   1      43.207  32.202  30.697  1.00  0.00     0.074 A 
ATOM     45  C   UNL A   1      38.640  27.633  32.155  1.00  0.00     0.029 A 
ATOM     46  N   UNL A   1      40.587  28.165  31.273  1.00  0.00    -0.354 N 
ATOM     47  N   UNL A   1      42.915  31.811  31.907  1.00  0.00    -0.248 NA
ATOM     48  C   UNL A   1      43.325  31.139  29.712  1.00  0.00     0.031 C 
ATOM     49  C   UNL A   1      39.310  28.580  32.989  1.00  0.00     0.029 A 
ATOM     50  C   UNL A   1      40.472  29.011  32.345  1.00  0.00     0.049 A 
ATOM     51  H   UNL A   1      41.422  27.971  30.790  1.00  0.00     0.167 HD
ATOM     52  C   UNL A   1      42.356  30.552  31.747  1.00  0.00     0.074 A 
ATOM     53  C   UNL A   1      42.711  30.157  30.380  1.00  0.00     0.031 C 
ATOM     54  C   UNL A   1      41.398  30.101  32.615  1.00  0.00     0.034 A 
BRANCH  41  55
ATOM     55  C   UNL A   1      39.874  26.762  28.592  1.00  0.00     0.023 A 
ATOM     56  C   UNL A   1      40.941  27.455  27.984  1.00  0.00     0.031 A 
ATOM     57  C   UNL A   1      39.555  25.512  28.011  1.00  0.00     0.131 A 
ATOM     58  C   UNL A   1      41.546  26.975  26.810  1.00  0.00     0.055 A 
ATOM     59  C   UNL A   1      40.201  25.011  26.876  1.00  0.00     0.041 A 
ATOM     60  F   UNL A   1      38.558  24.734  28.441  1.00  0.00    -0.206 F 
ATOM     61  C   UNL A   1      41.180  25.756  26.248  1.00  0.00     0.022 A 
BRANCH  58  62
ATOM     62  S   UNL A   1      42.702  28.058  25.935  1.00  0.00     0.124 S 
ATOM     63  O   UNL A   1      42.253  29.375  26.369  1.00  0.00    -0.237 OA
ATOM     64  O   UNL A   1      43.988  27.607  26.458  1.00  0.00    -0.237 OA
ATOM     65  O   UNL A   1      42.458  27.745  24.529  1.00  0.00    -0.744 OA
ENDBRANCH  58  62
ENDBRANCH  41  55
BRANCH  42  66
ATOM     66  C   UNL A   1      43.893  34.397  29.442  1.00  0.00     0.023 A 
ATOM     67  C   UNL A   1      44.487  34.059  28.188  1.00  0.00     0.031 A 
ATOM     68  C   UNL A   1      44.079  35.732  29.863  1.00  0.00     0.131 A 
ATOM     69  C   UNL A   1      45.223  35.031  27.441  1.00  0.00     0.055 A 
ATOM     70  C   UNL A   1      44.786  36.683  29.118  1.00  0.00     0.041 A 
ATOM     71  F   UNL A   1      43.498  36.184  30.985  1.00  0.00    -0.206 F 
ATOM     72  C   UNL A   1      45.356  36.341  27.904  1.00  0.00     0.022 A 
BRANCH  69  73
ATOM     73  S   UNL A   1      46.010  34.650  25.822  1.00  0.00     0.124 S 
ATOM     74  O   UNL A   1      46.720  33.407  26.097  1.00  0.00    -0.237 OA
ATOM     75  O   UNL A   1      44.865  34.561  24.924  1.00  0.00    -0.237 OA
ATOM     76  O   UNL A   1      46.881  35.803  25.581  1.00  0.00    -0.744 OA
ENDBRANCH  69  73
ENDBRANCH  42  66
BRANCH  54  77
ATOM     77  C   UNL A   1      41.206  30.860  33.921  1.00  0.00     0.023 A 
ATOM     78  C   UNL A   1      40.313  31.939  34.142  1.00  0.00     0.031 A 
ATOM     79  C   UNL A   1      41.929  30.380  35.027  1.00  0.00     0.131 A 
ATOM     80  C   UNL A   1      40.190  32.496  35.436  1.00  0.00     0.055 A 
ATOM     81  C   UNL A   1      41.780  30.912  36.305  1.00  0.00     0.041 A 
ATOM     82  F   UNL A   1      42.780  29.351  34.885  1.00  0.00    -0.206 F 
ATOM     83  C   UNL A   1      40.915  31.977  36.513  1.00  0.00     0.022 A 
BRANCH  80  84
ATOM     84  S   UNL A   1      39.116  33.941  35.747  1.00  0.00     0.124 S 
ATOM     85  O   UNL A   1      37.781  33.361  35.829  1.00  0.00    -0.237 OA
ATOM     86  O   UNL A   1      39.657  34.479  36.993  1.00  0.00    -0.237 OA
ATOM     87  O   UNL A   1      39.339  34.791  34.575  1.00  0.00    -0.744 OA
ENDBRANCH  80  84
ENDBRANCH  54  77
ENDBRANCH  28  29
ENDBRANCH  20  23
ENDBRANCH  18  19
ENDBRANCH   1  18
TORSDOF 16
ENDMDL
