MODEL 1
REMARK VINA RESULT:      -7.5      0.000      0.000
REMARK SMILES COCCOc1ccc([C@H]([NH3+])C(=O)NCCCCNC(=O)c2ccc(-c3c4nc(c(-c5cc(S(=O)(=O)[O-])ccc5F)c5ccc([nH]5)c(-c5cc(S(=O)(=O)[O-])ccc5F)c5nc(c(-c6cc(S(=O)(=O)[O-])ccc6F)c6ccc3[nH]6)C=C5)C=C4)cc2)cc1OC
REMARK SMILES IDX 15 1 14 2 12 3 13 4 10 6 9 7 6 8 7 9 86 10 8 11 85 12 5 13
REMARK SMILES IDX 4 14 3 15 2 16 1 17 87 18 88 19 11 20 16 24 17 25 18 26
REMARK SMILES IDX 19 27 20 28 21 30 22 31 23 32 84 33 24 34 83 35 25 36 26 37
REMARK SMILES IDX 27 38 77 39 28 40 82 41 76 42 78 43 29 44 81 45 75 46 74 47
REMARK SMILES IDX 30 49 62 50 42 51 61 52 43 53 46 54 60 55 79 56 44 57 45 58
REMARK SMILES IDX 59 60 80 61 47 62 31 63 32 64 40 65 33 66 39 67 41 68 38 69
REMARK SMILES IDX 34 70 35 71 36 72 37 73 63 74 64 75 72 76 65 77 71 78 73 79
REMARK SMILES IDX 70 80 66 81 67 82 68 83 69 84 48 85 49 86 57 87 50 88 56 89
REMARK SMILES IDX 58 90 55 91 51 92 52 93 53 94 54 95
REMARK H PARENT 14 5 11 21 11 22 11 23 19 29 78 48 46 59
REMARK Flexibility Score: inf
ROOT
ATOM      1  C   UNL A   1      45.101  23.919  25.043  1.00  0.00     0.116 C 
ENDROOT
BRANCH   1   2
ATOM      2  N   UNL A   1      43.935  24.787  25.000  1.00  0.00    -0.351 N 
ATOM      3  C   UNL A   1      43.857  26.152  25.090  1.00  0.00     0.283 C 
ATOM      4  O   UNL A   1      42.762  26.674  24.860  1.00  0.00    -0.268 OA
ATOM      5  H   UNL A   1      43.074  24.325  24.890  1.00  0.00     0.163 HD
BRANCH   3   6
ATOM      6  C   UNL A   1      45.066  27.012  25.556  1.00  0.00     0.302 C 
BRANCH   6   7
ATOM      7  C   UNL A   1      44.740  28.162  26.502  1.00  0.00     0.023 A 
ATOM      8  C   UNL A   1      44.302  30.655  27.716  1.00  0.00     0.161 A 
ATOM      9  C   UNL A   1      43.220  29.908  27.251  1.00  0.00     0.051 A 
ATOM     10  C   UNL A   1      45.574  30.083  27.731  1.00  0.00     0.161 A 
ATOM     11  C   UNL A   1      43.433  28.639  26.700  1.00  0.00     0.014 A 
ATOM     12  C   UNL A   1      45.794  28.851  27.122  1.00  0.00     0.061 A 
BRANCH   8  13
ATOM     13  O   UNL A   1      44.194  31.981  28.033  1.00  0.00    -0.487 OA
BRANCH  13  14
ATOM     14  C   UNL A   1      44.217  32.876  26.923  1.00  0.00     0.258 C 
BRANCH  14  15
ATOM     15  C   UNL A   1      45.484  33.739  26.928  1.00  0.00     0.201 C 
BRANCH  15  16
ATOM     16  O   UNL A   1      46.058  33.987  25.643  1.00  0.00    -0.381 OA
ATOM     17  C   UNL A   1      47.246  34.759  25.638  1.00  0.00     0.195 C 
ENDBRANCH  15  16
ENDBRANCH  14  15
ENDBRANCH  13  14
ENDBRANCH   8  13
BRANCH  10  18
ATOM     18  O   UNL A   1      46.637  30.779  28.245  1.00  0.00    -0.493 OA
ATOM     19  C   UNL A   1      47.829  30.512  27.504  1.00  0.00     0.278 C 
ENDBRANCH  10  18
ENDBRANCH   6   7
BRANCH   6  20
ATOM     20  N   UNL A   1      45.783  27.498  24.345  1.00  0.00    -0.343 N 
ATOM     21  H   UNL A   1      45.182  28.139  23.827  1.00  0.00     0.345 HD
ATOM     22  H   UNL A   1      46.027  26.706  23.752  1.00  0.00     0.345 HD
ATOM     23  H   UNL A   1      46.635  27.985  24.628  1.00  0.00     0.345 HD
ENDBRANCH   6  20
ENDBRANCH   3   6
ENDBRANCH   1   2
BRANCH   1  24
ATOM     24  C   UNL A   1      44.828  22.591  25.735  1.00  0.00     0.023 C 
BRANCH  24  25
ATOM     25  C   UNL A   1      44.023  21.588  24.911  1.00  0.00     0.023 C 
BRANCH  25  26
ATOM     26  C   UNL A   1      43.712  20.265  25.604  1.00  0.00     0.116 C 
BRANCH  26  27
ATOM     27  N   UNL A   1      42.299  19.921  25.569  1.00  0.00    -0.352 N 
ATOM     28  C   UNL A   1      41.234  20.542  26.185  1.00  0.00     0.251 C 
ATOM     29  H   UNL A   1      42.072  19.131  25.028  1.00  0.00     0.163 HD
ATOM     30  O   UNL A   1      40.130  20.019  26.164  1.00  0.00    -0.269 OA
BRANCH  28  31
ATOM     31  C   UNL A   1      41.446  21.824  26.897  1.00  0.00     0.039 A 
ATOM     32  C   UNL A   1      42.063  21.807  28.150  1.00  0.00     0.014 A 
ATOM     33  C   UNL A   1      41.059  23.037  26.321  1.00  0.00     0.014 A 
ATOM     34  C   UNL A   1      42.363  23.014  28.789  1.00  0.00     0.010 A 
ATOM     35  C   UNL A   1      41.429  24.237  26.923  1.00  0.00     0.010 A 
ATOM     36  C   UNL A   1      42.090  24.240  28.162  1.00  0.00    -0.014 A 
BRANCH  36  37
ATOM     37  C   UNL A   1      42.495  25.533  28.780  1.00  0.00     0.031 A 
ATOM     38  C   UNL A   1      43.940  25.782  29.129  1.00  0.00     0.074 A 
ATOM     39  C   UNL A   1      41.556  26.452  29.086  1.00  0.00     0.049 A 
ATOM     40  N   UNL A   1      44.476  26.805  29.744  1.00  0.00    -0.248 NA
ATOM     41  C   UNL A   1      44.903  24.734  28.762  1.00  0.00     0.031 C 
ATOM     42  C   UNL A   1      40.120  26.311  28.830  1.00  0.00     0.029 A 
ATOM     43  N   UNL A   1      41.662  27.684  29.685  1.00  0.00    -0.354 N 
ATOM     44  C   UNL A   1      45.832  26.517  29.852  1.00  0.00     0.074 A 
ATOM     45  C   UNL A   1      46.026  25.200  29.284  1.00  0.00     0.031 C 
ATOM     46  C   UNL A   1      39.487  27.419  29.245  1.00  0.00     0.029 A 
ATOM     47  C   UNL A   1      40.455  28.329  29.848  1.00  0.00     0.049 A 
ATOM     48  H   UNL A   1      42.521  28.069  29.973  1.00  0.00     0.167 HD
ATOM     49  C   UNL A   1      46.825  27.288  30.361  1.00  0.00     0.034 A 
ATOM     50  C   UNL A   1      40.162  29.510  30.430  1.00  0.00     0.034 A 
ATOM     51  C   UNL A   1      46.619  28.609  30.901  1.00  0.00     0.049 A 
ATOM     52  C   UNL A   1      41.286  30.334  31.013  1.00  0.00     0.074 A 
ATOM     53  C   UNL A   1      47.567  29.498  31.377  1.00  0.00     0.029 A 
ATOM     54  N   UNL A   1      45.386  29.228  31.048  1.00  0.00    -0.354 N 
ATOM     55  N   UNL A   1      42.572  30.070  31.047  1.00  0.00    -0.248 NA
ATOM     56  C   UNL A   1      40.922  31.619  31.624  1.00  0.00     0.031 C 
ATOM     57  C   UNL A   1      46.903  30.619  31.883  1.00  0.00     0.029 A 
ATOM     58  C   UNL A   1      45.546  30.471  31.641  1.00  0.00     0.049 A 
ATOM     59  H   UNL A   1      44.524  28.842  30.771  1.00  0.00     0.167 HD
ATOM     60  C   UNL A   1      43.170  31.177  31.646  1.00  0.00     0.074 A 
ATOM     61  C   UNL A   1      42.108  32.114  31.939  1.00  0.00     0.031 C 
ATOM     62  C   UNL A   1      44.479  31.400  31.926  1.00  0.00     0.034 A 
BRANCH  49  63
ATOM     63  C   UNL A   1      48.222  26.717  30.381  1.00  0.00     0.023 A 
ATOM     64  C   UNL A   1      49.134  26.949  29.338  1.00  0.00     0.031 A 
ATOM     65  C   UNL A   1      48.653  25.945  31.474  1.00  0.00     0.131 A 
ATOM     66  C   UNL A   1      50.414  26.373  29.386  1.00  0.00     0.055 A 
ATOM     67  C   UNL A   1      49.952  25.439  31.553  1.00  0.00     0.041 A 
ATOM     68  F   UNL A   1      47.819  25.671  32.489  1.00  0.00    -0.206 F 
ATOM     69  C   UNL A   1      50.838  25.644  30.500  1.00  0.00     0.022 A 
BRANCH  66  70
ATOM     70  S   UNL A   1      51.479  26.500  27.925  1.00  0.00     0.124 S 
ATOM     71  O   UNL A   1      52.786  26.159  28.483  1.00  0.00    -0.237 OA
ATOM     72  O   UNL A   1      50.895  25.516  27.020  1.00  0.00    -0.237 OA
ATOM     73  O   UNL A   1      51.332  27.893  27.511  1.00  0.00    -0.744 OA
ENDBRANCH  66  70
ENDBRANCH  49  63
BRANCH  50  74
ATOM     74  C   UNL A   1      38.750  29.993  30.522  1.00  0.00     0.023 A 
ATOM     75  C   UNL A   1      38.278  31.011  29.677  1.00  0.00     0.031 A 
ATOM     76  C   UNL A   1      37.879  29.509  31.514  1.00  0.00     0.131 A 
ATOM     77  C   UNL A   1      37.006  31.564  29.888  1.00  0.00     0.055 A 
ATOM     78  C   UNL A   1      36.586  30.013  31.673  1.00  0.00     0.041 A 
ATOM     79  F   UNL A   1      38.274  28.536  32.351  1.00  0.00    -0.206 F 
ATOM     80  C   UNL A   1      36.150  31.062  30.871  1.00  0.00     0.022 A 
BRANCH  77  81
ATOM     81  S   UNL A   1      36.538  33.044  28.948  1.00  0.00     0.124 S 
ATOM     82  O   UNL A   1      35.720  33.764  29.918  1.00  0.00    -0.237 OA
ATOM     83  O   UNL A   1      37.838  33.631  28.642  1.00  0.00    -0.237 OA
ATOM     84  O   UNL A   1      35.813  32.502  27.800  1.00  0.00    -0.744 OA
ENDBRANCH  77  81
ENDBRANCH  50  74
BRANCH  62  85
ATOM     85  C   UNL A   1      44.838  32.738  32.526  1.00  0.00     0.023 A 
ATOM     86  C   UNL A   1      44.870  32.947  33.915  1.00  0.00     0.031 A 
ATOM     87  C   UNL A   1      45.148  33.825  31.687  1.00  0.00     0.131 A 
ATOM     88  C   UNL A   1      45.144  34.225  34.424  1.00  0.00     0.055 A 
ATOM     89  C   UNL A   1      45.486  35.077  32.201  1.00  0.00     0.041 A 
ATOM     90  F   UNL A   1      45.130  33.686  30.352  1.00  0.00    -0.206 F 
ATOM     91  C   UNL A   1      45.471  35.287  33.576  1.00  0.00     0.022 A 
BRANCH  88  92
ATOM     92  S   UNL A   1      44.972  34.509  36.208  1.00  0.00     0.124 S 
ATOM     93  O   UNL A   1      43.735  35.278  36.275  1.00  0.00    -0.237 OA
ATOM     94  O   UNL A   1      44.907  33.149  36.735  1.00  0.00    -0.237 OA
ATOM     95  O   UNL A   1      46.183  35.249  36.555  1.00  0.00    -0.744 OA
ENDBRANCH  88  92
ENDBRANCH  62  85
ENDBRANCH  36  37
ENDBRANCH  28  31
ENDBRANCH  26  27
ENDBRANCH  25  26
ENDBRANCH  24  25
ENDBRANCH   1  24
TORSDOF 21
ENDMDL
MODEL 2
REMARK VINA RESULT:      -7.4      5.059      9.582
REMARK SMILES COCCOc1ccc([C@H]([NH3+])C(=O)NCCCCNC(=O)c2ccc(-c3c4nc(c(-c5cc(S(=O)(=O)[O-])ccc5F)c5ccc([nH]5)c(-c5cc(S(=O)(=O)[O-])ccc5F)c5nc(c(-c6cc(S(=O)(=O)[O-])ccc6F)c6ccc3[nH]6)C=C5)C=C4)cc2)cc1OC
REMARK SMILES IDX 15 1 14 2 12 3 13 4 10 6 9 7 6 8 7 9 86 10 8 11 85 12 5 13
REMARK SMILES IDX 4 14 3 15 2 16 1 17 87 18 88 19 11 20 16 24 17 25 18 26
REMARK SMILES IDX 19 27 20 28 21 30 22 31 23 32 84 33 24 34 83 35 25 36 26 37
REMARK SMILES IDX 27 38 77 39 28 40 82 41 76 42 78 43 29 44 81 45 75 46 74 47
REMARK SMILES IDX 30 49 62 50 42 51 61 52 43 53 46 54 60 55 79 56 44 57 45 58
REMARK SMILES IDX 59 60 80 61 47 62 31 63 32 64 40 65 33 66 39 67 41 68 38 69
REMARK SMILES IDX 34 70 35 71 36 72 37 73 63 74 64 75 72 76 65 77 71 78 73 79
REMARK SMILES IDX 70 80 66 81 67 82 68 83 69 84 48 85 49 86 57 87 50 88 56 89
REMARK SMILES IDX 58 90 55 91 51 92 52 93 53 94 54 95
REMARK H PARENT 14 5 11 21 11 22 11 23 19 29 78 48 46 59
REMARK Flexibility Score: inf
ROOT
ATOM      1  C   UNL A   1      35.641  33.860  31.043  1.00  0.00     0.116 C 
ENDROOT
BRANCH   1   2
ATOM      2  N   UNL A   1      35.059  34.588  29.927  1.00  0.00    -0.351 N 
ATOM      3  C   UNL A   1      35.061  34.288  28.590  1.00  0.00     0.283 C 
ATOM      4  O   UNL A   1      34.354  34.980  27.852  1.00  0.00    -0.268 OA
ATOM      5  H   UNL A   1      34.594  35.421  30.168  1.00  0.00     0.163 HD
BRANCH   3   6
ATOM      6  C   UNL A   1      35.985  33.185  28.001  1.00  0.00     0.302 C 
BRANCH   6   7
ATOM      7  C   UNL A   1      35.411  31.772  27.988  1.00  0.00     0.023 A 
ATOM      8  C   UNL A   1      34.335  29.270  27.306  1.00  0.00     0.161 A 
ATOM      9  C   UNL A   1      35.694  29.387  27.602  1.00  0.00     0.051 A 
ATOM     10  C   UNL A   1      33.491  30.360  27.519  1.00  0.00     0.161 A 
ATOM     11  C   UNL A   1      36.218  30.622  28.000  1.00  0.00     0.014 A 
ATOM     12  C   UNL A   1      34.024  31.604  27.850  1.00  0.00     0.061 A 
BRANCH   8  13
ATOM     13  O   UNL A   1      33.814  28.171  26.682  1.00  0.00    -0.487 OA
BRANCH  13  14
ATOM     14  C   UNL A   1      33.945  28.157  25.262  1.00  0.00     0.258 C 
BRANCH  14  15
ATOM     15  C   UNL A   1      33.770  26.742  24.699  1.00  0.00     0.201 C 
BRANCH  15  16
ATOM     16  O   UNL A   1      33.322  26.676  23.344  1.00  0.00    -0.381 OA
ATOM     17  C   UNL A   1      32.123  27.375  23.058  1.00  0.00     0.195 C 
ENDBRANCH  15  16
ENDBRANCH  14  15
ENDBRANCH  13  14
ENDBRANCH   8  13
BRANCH  10  18
ATOM     18  O   UNL A   1      32.144  30.244  27.296  1.00  0.00    -0.493 OA
ATOM     19  C   UNL A   1      31.741  31.038  26.178  1.00  0.00     0.278 C 
ENDBRANCH  10  18
ENDBRANCH   6   7
BRANCH   6  20
ATOM     20  N   UNL A   1      37.284  33.230  28.727  1.00  0.00    -0.343 N 
ATOM     21  H   UNL A   1      37.583  34.200  28.831  1.00  0.00     0.345 HD
ATOM     22  H   UNL A   1      37.987  32.713  28.200  1.00  0.00     0.345 HD
ATOM     23  H   UNL A   1      37.173  32.808  29.650  1.00  0.00     0.345 HD
ENDBRANCH   6  20
ENDBRANCH   3   6
ENDBRANCH   1   2
BRANCH   1  24
ATOM     24  C   UNL A   1      34.794  32.676  31.488  1.00  0.00     0.023 C 
BRANCH  24  25
ATOM     25  C   UNL A   1      35.543  31.349  31.589  1.00  0.00     0.023 C 
BRANCH  25  26
ATOM     26  C   UNL A   1      36.482  31.212  32.784  1.00  0.00     0.116 C 
BRANCH  26  27
ATOM     27  N   UNL A   1      36.938  29.847  32.997  1.00  0.00    -0.352 N 
ATOM     28  C   UNL A   1      38.102  29.240  32.577  1.00  0.00     0.251 C 
ATOM     29  H   UNL A   1      36.326  29.275  33.513  1.00  0.00     0.163 HD
ATOM     30  O   UNL A   1      38.246  28.035  32.721  1.00  0.00    -0.269 OA
BRANCH  28  31
ATOM     31  C   UNL A   1      39.157  30.051  31.925  1.00  0.00     0.039 A 
ATOM     32  C   UNL A   1      40.159  30.617  32.716  1.00  0.00     0.014 A 
ATOM     33  C   UNL A   1      39.170  30.230  30.540  1.00  0.00     0.014 A 
ATOM     34  C   UNL A   1      41.219  31.297  32.107  1.00  0.00     0.010 A 
ATOM     35  C   UNL A   1      40.265  30.840  29.931  1.00  0.00     0.010 A 
ATOM     36  C   UNL A   1      41.305  31.375  30.707  1.00  0.00    -0.014 A 
BRANCH  36  37
ATOM     37  C   UNL A   1      42.477  32.006  30.038  1.00  0.00     0.031 A 
ATOM     38  C   UNL A   1      43.675  31.169  29.670  1.00  0.00     0.074 A 
ATOM     39  C   UNL A   1      42.489  33.338  29.823  1.00  0.00     0.049 A 
ATOM     40  N   UNL A   1      44.819  31.546  29.159  1.00  0.00    -0.248 NA
ATOM     41  C   UNL A   1      43.584  29.726  29.935  1.00  0.00     0.031 C 
ATOM     42  C   UNL A   1      41.403  34.259  30.169  1.00  0.00     0.029 A 
ATOM     43  N   UNL A   1      43.446  34.153  29.271  1.00  0.00    -0.354 N 
ATOM     44  C   UNL A   1      45.589  30.392  29.056  1.00  0.00     0.074 A 
ATOM     45  C   UNL A   1      44.799  29.312  29.606  1.00  0.00     0.031 C 
ATOM     46  C   UNL A   1      41.745  35.503  29.798  1.00  0.00     0.029 A 
ATOM     47  C   UNL A   1      43.094  35.485  29.240  1.00  0.00     0.049 A 
ATOM     48  H   UNL A   1      44.306  33.817  28.930  1.00  0.00     0.167 HD
ATOM     49  C   UNL A   1      46.832  30.246  28.535  1.00  0.00     0.034 A 
ATOM     50  C   UNL A   1      43.783  36.567  28.826  1.00  0.00     0.034 A 
ATOM     51  C   UNL A   1      47.597  31.328  27.967  1.00  0.00     0.049 A 
ATOM     52  C   UNL A   1      45.177  36.375  28.275  1.00  0.00     0.074 A 
ATOM     53  C   UNL A   1      48.836  31.273  27.352  1.00  0.00     0.029 A 
ATOM     54  N   UNL A   1      47.208  32.660  27.954  1.00  0.00    -0.354 N 
ATOM     55  N   UNL A   1      45.862  35.264  28.128  1.00  0.00    -0.248 NA
ATOM     56  C   UNL A   1      45.885  37.581  27.823  1.00  0.00     0.031 C 
ATOM     57  C   UNL A   1      49.229  32.576  27.037  1.00  0.00     0.029 A 
ATOM     58  C   UNL A   1      48.198  33.439  27.374  1.00  0.00     0.049 A 
ATOM     59  H   UNL A   1      46.353  33.002  28.304  1.00  0.00     0.167 HD
ATOM     60  C   UNL A   1      47.064  35.637  27.529  1.00  0.00     0.074 A 
ATOM     61  C   UNL A   1      47.000  37.068  27.327  1.00  0.00     0.031 C 
ATOM     62  C   UNL A   1      48.122  34.866  27.174  1.00  0.00     0.034 A 
BRANCH  49  63
ATOM     63  C   UNL A   1      47.456  28.871  28.571  1.00  0.00     0.023 A 
ATOM     64  C   UNL A   1      47.216  27.920  27.566  1.00  0.00     0.031 A 
ATOM     65  C   UNL A   1      48.322  28.518  29.621  1.00  0.00     0.131 A 
ATOM     66  C   UNL A   1      47.795  26.645  27.658  1.00  0.00     0.055 A 
ATOM     67  C   UNL A   1      48.956  27.275  29.667  1.00  0.00     0.041 A 
ATOM     68  F   UNL A   1      48.570  29.378  30.622  1.00  0.00    -0.206 F 
ATOM     69  C   UNL A   1      48.686  26.326  28.686  1.00  0.00     0.022 A 
BRANCH  66  70
ATOM     70  S   UNL A   1      47.284  25.371  26.473  1.00  0.00     0.124 S 
ATOM     71  O   UNL A   1      47.863  25.875  25.230  1.00  0.00    -0.237 OA
ATOM     72  O   UNL A   1      47.896  24.165  27.020  1.00  0.00    -0.237 OA
ATOM     73  O   UNL A   1      45.825  25.411  26.533  1.00  0.00    -0.744 OA
ENDBRANCH  66  70
ENDBRANCH  49  63
BRANCH  50  74
ATOM     74  C   UNL A   1      43.196  37.938  28.927  1.00  0.00     0.023 A 
ATOM     75  C   UNL A   1      42.408  38.465  27.891  1.00  0.00     0.031 A 
ATOM     76  C   UNL A   1      43.489  38.776  30.018  1.00  0.00     0.131 A 
ATOM     77  C   UNL A   1      42.006  39.810  27.930  1.00  0.00     0.055 A 
ATOM     78  C   UNL A   1      43.025  40.091  30.087  1.00  0.00     0.041 A 
ATOM     79  F   UNL A   1      44.238  38.328  31.039  1.00  0.00    -0.206 F 
ATOM     80  C   UNL A   1      42.296  40.622  29.028  1.00  0.00     0.022 A 
BRANCH  77  81
ATOM     81  S   UNL A   1      41.215  40.519  26.460  1.00  0.00     0.124 S 
ATOM     82  O   UNL A   1      40.807  39.320  25.736  1.00  0.00    -0.237 OA
ATOM     83  O   UNL A   1      40.140  41.312  27.047  1.00  0.00    -0.237 OA
ATOM     84  O   UNL A   1      42.288  41.290  25.835  1.00  0.00    -0.744 OA
ENDBRANCH  77  81
ENDBRANCH  50  74
BRANCH  62  85
ATOM     85  C   UNL A   1      49.271  35.551  26.474  1.00  0.00     0.023 A 
ATOM     86  C   UNL A   1      50.336  36.132  27.183  1.00  0.00     0.031 A 
ATOM     87  C   UNL A   1      49.294  35.627  25.068  1.00  0.00     0.131 A 
ATOM     88  C   UNL A   1      51.347  36.815  26.491  1.00  0.00     0.055 A 
ATOM     89  C   UNL A   1      50.337  36.249  24.383  1.00  0.00     0.041 A 
ATOM     90  F   UNL A   1      48.302  35.092  24.339  1.00  0.00    -0.206 F 
ATOM     91  C   UNL A   1      51.364  36.861  25.094  1.00  0.00     0.022 A 
BRANCH  88  92
ATOM     92  S   UNL A   1      52.590  37.730  27.444  1.00  0.00     0.124 S 
ATOM     93  O   UNL A   1      53.823  37.385  26.744  1.00  0.00    -0.237 OA
ATOM     94  O   UNL A   1      52.141  39.111  27.299  1.00  0.00    -0.237 OA
ATOM     95  O   UNL A   1      52.465  37.177  28.791  1.00  0.00    -0.744 OA
ENDBRANCH  88  92
ENDBRANCH  62  85
ENDBRANCH  36  37
ENDBRANCH  28  31
ENDBRANCH  26  27
ENDBRANCH  25  26
ENDBRANCH  24  25
ENDBRANCH   1  24
TORSDOF 21
ENDMDL
MODEL 3
REMARK VINA RESULT:      -7.3      7.444     12.646
REMARK SMILES COCCOc1ccc([C@H]([NH3+])C(=O)NCCCCNC(=O)c2ccc(-c3c4nc(c(-c5cc(S(=O)(=O)[O-])ccc5F)c5ccc([nH]5)c(-c5cc(S(=O)(=O)[O-])ccc5F)c5nc(c(-c6cc(S(=O)(=O)[O-])ccc6F)c6ccc3[nH]6)C=C5)C=C4)cc2)cc1OC
REMARK SMILES IDX 15 1 14 2 12 3 13 4 10 6 9 7 6 8 7 9 86 10 8 11 85 12 5 13
REMARK SMILES IDX 4 14 3 15 2 16 1 17 87 18 88 19 11 20 16 24 17 25 18 26
REMARK SMILES IDX 19 27 20 28 21 30 22 31 23 32 84 33 24 34 83 35 25 36 26 37
REMARK SMILES IDX 27 38 77 39 28 40 82 41 76 42 78 43 29 44 81 45 75 46 74 47
REMARK SMILES IDX 30 49 62 50 42 51 61 52 43 53 46 54 60 55 79 56 44 57 45 58
REMARK SMILES IDX 59 60 80 61 47 62 31 63 32 64 40 65 33 66 39 67 41 68 38 69
REMARK SMILES IDX 34 70 35 71 36 72 37 73 63 74 64 75 72 76 65 77 71 78 73 79
REMARK SMILES IDX 70 80 66 81 67 82 68 83 69 84 48 85 49 86 57 87 50 88 56 89
REMARK SMILES IDX 58 90 55 91 51 92 52 93 53 94 54 95
REMARK H PARENT 14 5 11 21 11 22 11 23 19 29 78 48 46 59
REMARK Flexibility Score: inf
ROOT
ATOM      1  C   UNL A   1      45.964  39.483  26.486  1.00  0.00     0.116 C 
ENDROOT
BRANCH   1   2
ATOM      2  N   UNL A   1      45.171  40.278  27.411  1.00  0.00    -0.351 N 
ATOM      3  C   UNL A   1      43.826  40.538  27.411  1.00  0.00     0.283 C 
ATOM      4  O   UNL A   1      43.358  41.109  28.401  1.00  0.00    -0.268 OA
ATOM      5  H   UNL A   1      45.677  40.690  28.148  1.00  0.00     0.163 HD
BRANCH   3   6
ATOM      6  C   UNL A   1      42.932  40.221  26.180  1.00  0.00     0.302 C 
BRANCH   6   7
ATOM      7  C   UNL A   1      42.734  41.362  25.188  1.00  0.00     0.023 A 
ATOM      8  C   UNL A   1      42.606  43.019  22.925  1.00  0.00     0.161 A 
ATOM      9  C   UNL A   1      41.449  42.404  23.404  1.00  0.00     0.051 A 
ATOM     10  C   UNL A   1      43.782  42.945  23.673  1.00  0.00     0.161 A 
ATOM     11  C   UNL A   1      41.502  41.627  24.567  1.00  0.00     0.014 A 
ATOM     12  C   UNL A   1      43.849  42.117  24.790  1.00  0.00     0.061 A 
BRANCH   8  13
ATOM     13  O   UNL A   1      42.676  43.579  21.680  1.00  0.00    -0.487 OA
BRANCH  13  14
ATOM     14  C   UNL A   1      42.876  42.658  20.609  1.00  0.00     0.258 C 
BRANCH  14  15
ATOM     15  C   UNL A   1      42.569  43.305  19.252  1.00  0.00     0.201 C 
BRANCH  15  16
ATOM     16  O   UNL A   1      43.704  43.811  18.548  1.00  0.00    -0.381 OA
ATOM     17  C   UNL A   1      44.394  44.876  19.178  1.00  0.00     0.195 C 
ENDBRANCH  15  16
ENDBRANCH  14  15
ENDBRANCH  13  14
ENDBRANCH   8  13
BRANCH  10  18
ATOM     18  O   UNL A   1      44.911  43.597  23.250  1.00  0.00    -0.493 OA
ATOM     19  C   UNL A   1      46.006  42.690  23.118  1.00  0.00     0.278 C 
ENDBRANCH  10  18
ENDBRANCH   6   7
BRANCH   6  20
ATOM     20  N   UNL A   1      41.625  39.706  26.674  1.00  0.00    -0.343 N 
ATOM     21  H   UNL A   1      40.865  40.205  26.212  1.00  0.00     0.345 HD
ATOM     22  H   UNL A   1      41.562  39.849  27.682  1.00  0.00     0.345 HD
ATOM     23  H   UNL A   1      41.552  38.709  26.468  1.00  0.00     0.345 HD
ENDBRANCH   6  20
ENDBRANCH   3   6
ENDBRANCH   1   2
BRANCH   1  24
ATOM     24  C   UNL A   1      46.156  38.047  26.950  1.00  0.00     0.023 C 
BRANCH  24  25
ATOM     25  C   UNL A   1      47.064  37.198  26.062  1.00  0.00     0.023 C 
BRANCH  25  26
ATOM     26  C   UNL A   1      46.829  35.692  26.129  1.00  0.00     0.116 C 
BRANCH  26  27
ATOM     27  N   UNL A   1      45.904  35.214  25.113  1.00  0.00    -0.352 N 
ATOM     28  C   UNL A   1      44.663  34.633  25.266  1.00  0.00     0.251 C 
ATOM     29  H   UNL A   1      46.208  35.320  24.183  1.00  0.00     0.163 HD
ATOM     30  O   UNL A   1      44.093  34.154  24.297  1.00  0.00    -0.269 OA
BRANCH  28  31
ATOM     31  C   UNL A   1      44.047  34.565  26.611  1.00  0.00     0.039 A 
ATOM     32  C   UNL A   1      44.189  33.395  27.361  1.00  0.00     0.014 A 
ATOM     33  C   UNL A   1      43.354  35.657  27.139  1.00  0.00     0.014 A 
ATOM     34  C   UNL A   1      43.704  33.350  28.671  1.00  0.00     0.010 A 
ATOM     35  C   UNL A   1      42.940  35.637  28.469  1.00  0.00     0.010 A 
ATOM     36  C   UNL A   1      43.116  34.486  29.253  1.00  0.00    -0.014 A 
BRANCH  36  37
ATOM     37  C   UNL A   1      42.686  34.490  30.679  1.00  0.00     0.031 A 
ATOM     38  C   UNL A   1      41.245  34.228  31.033  1.00  0.00     0.074 A 
ATOM     39  C   UNL A   1      43.577  34.792  31.646  1.00  0.00     0.049 A 
ATOM     40  N   UNL A   1      40.662  34.269  32.204  1.00  0.00    -0.248 NA
ATOM     41  C   UNL A   1      40.336  33.905  29.924  1.00  0.00     0.031 C 
ATOM     42  C   UNL A   1      44.993  35.098  31.425  1.00  0.00     0.029 A 
ATOM     43  N   UNL A   1      43.428  34.900  33.007  1.00  0.00    -0.354 N 
ATOM     44  C   UNL A   1      39.319  33.993  31.970  1.00  0.00     0.074 A 
ATOM     45  C   UNL A   1      39.166  33.838  30.540  1.00  0.00     0.031 C 
ATOM     46  C   UNL A   1      45.584  35.333  32.607  1.00  0.00     0.029 A 
ATOM     47  C   UNL A   1      44.585  35.251  33.668  1.00  0.00     0.049 A 
ATOM     48  H   UNL A   1      42.573  34.741  33.468  1.00  0.00     0.167 HD
ATOM     49  C   UNL A   1      38.312  33.864  32.869  1.00  0.00     0.034 A 
ATOM     50  C   UNL A   1      44.811  35.496  34.975  1.00  0.00     0.034 A 
ATOM     51  C   UNL A   1      38.484  33.998  34.294  1.00  0.00     0.049 A 
ATOM     52  C   UNL A   1      43.662  35.370  35.948  1.00  0.00     0.074 A 
ATOM     53  C   UNL A   1      37.544  33.818  35.293  1.00  0.00     0.029 A 
ATOM     54  N   UNL A   1      39.668  34.353  34.925  1.00  0.00    -0.354 N 
ATOM     55  N   UNL A   1      42.411  35.046  35.713  1.00  0.00    -0.248 NA
ATOM     56  C   UNL A   1      43.958  35.633  37.364  1.00  0.00     0.031 C 
ATOM     57  C   UNL A   1      38.135  34.139  36.518  1.00  0.00     0.029 A 
ATOM     58  C   UNL A   1      39.471  34.434  36.295  1.00  0.00     0.049 A 
ATOM     59  H   UNL A   1      40.523  34.523  34.467  1.00  0.00     0.167 HD
ATOM     60  C   UNL A   1      41.785  35.025  36.958  1.00  0.00     0.074 A 
ATOM     61  C   UNL A   1      42.798  35.352  37.938  1.00  0.00     0.031 C 
ATOM     62  C   UNL A   1      40.491  34.757  37.264  1.00  0.00     0.034 A 
BRANCH  49  63
ATOM     63  C   UNL A   1      36.925  33.586  32.340  1.00  0.00     0.023 A 
ATOM     64  C   UNL A   1      35.976  34.607  32.169  1.00  0.00     0.031 A 
ATOM     65  C   UNL A   1      36.557  32.277  31.982  1.00  0.00     0.131 A 
ATOM     66  C   UNL A   1      34.690  34.296  31.702  1.00  0.00     0.055 A 
ATOM     67  C   UNL A   1      35.301  31.985  31.445  1.00  0.00     0.041 A 
ATOM     68  F   UNL A   1      37.414  31.257  32.145  1.00  0.00    -0.206 F 
ATOM     69  C   UNL A   1      34.356  32.997  31.312  1.00  0.00     0.022 A 
BRANCH  66  70
ATOM     70  S   UNL A   1      33.424  35.594  31.712  1.00  0.00     0.124 S 
ATOM     71  O   UNL A   1      32.357  34.959  32.484  1.00  0.00    -0.237 OA
ATOM     72  O   UNL A   1      34.111  36.702  32.365  1.00  0.00    -0.237 OA
ATOM     73  O   UNL A   1      33.124  35.793  30.296  1.00  0.00    -0.744 OA
ENDBRANCH  66  70
ENDBRANCH  49  63
BRANCH  50  74
ATOM     74  C   UNL A   1      46.165  35.906  35.458  1.00  0.00     0.023 A 
ATOM     75  C   UNL A   1      46.550  37.256  35.465  1.00  0.00     0.031 A 
ATOM     76  C   UNL A   1      47.125  34.949  35.832  1.00  0.00     0.131 A 
ATOM     77  C   UNL A   1      47.877  37.606  35.764  1.00  0.00     0.055 A 
ATOM     78  C   UNL A   1      48.423  35.308  36.200  1.00  0.00     0.041 A 
ATOM     79  F   UNL A   1      46.814  33.643  35.845  1.00  0.00    -0.206 F 
ATOM     80  C   UNL A   1      48.812  36.642  36.146  1.00  0.00     0.022 A 
BRANCH  77  81
ATOM     81  S   UNL A   1      48.397  39.325  35.511  1.00  0.00     0.124 S 
ATOM     82  O   UNL A   1      48.580  39.783  36.884  1.00  0.00    -0.237 OA
ATOM     83  O   UNL A   1      49.613  39.161  34.721  1.00  0.00    -0.237 OA
ATOM     84  O   UNL A   1      47.268  39.921  34.799  1.00  0.00    -0.744 OA
ENDBRANCH  77  81
ENDBRANCH  50  74
BRANCH  62  85
ATOM     85  C   UNL A   1      40.115  34.746  38.726  1.00  0.00     0.023 A 
ATOM     86  C   UNL A   1      40.325  33.620  39.541  1.00  0.00     0.031 A 
ATOM     87  C   UNL A   1      39.530  35.885  39.311  1.00  0.00     0.131 A 
ATOM     88  C   UNL A   1      39.899  33.635  40.877  1.00  0.00     0.055 A 
ATOM     89  C   UNL A   1      39.170  35.917  40.658  1.00  0.00     0.041 A 
ATOM     90  F   UNL A   1      39.303  36.988  38.581  1.00  0.00    -0.206 F 
ATOM     91  C   UNL A   1      39.340  34.783  41.446  1.00  0.00     0.022 A 
BRANCH  88  92
ATOM     92  S   UNL A   1      39.994  32.100  41.840  1.00  0.00     0.124 S 
ATOM     93  O   UNL A   1      41.229  31.505  41.340  1.00  0.00    -0.237 OA
ATOM     94  O   UNL A   1      40.035  32.595  43.212  1.00  0.00    -0.237 OA
ATOM     95  O   UNL A   1      38.770  31.390  41.474  1.00  0.00    -0.744 OA
ENDBRANCH  88  92
ENDBRANCH  62  85
ENDBRANCH  36  37
ENDBRANCH  28  31
ENDBRANCH  26  27
ENDBRANCH  25  26
ENDBRANCH  24  25
ENDBRANCH   1  24
TORSDOF 21
ENDMDL
