MODEL 1
REMARK VINA RESULT:     -13.2      0.000      0.000
REMARK SMILES Cc1n[nH]c(C)c1C(=O)N1CC(n2cc(C(=O)NCCCCNC(=O)c3ccc(-c4c5nc(c(-c6cc(S(=O)(=O)[O-])ccc6F)c6ccc([nH]6)c(-c6cc(S(=O)(=O)[O-])ccc6F)c6nc(c(-c7cc(S(=O)(=O)[O-])ccc7F)c7ccc4[nH]7)C=C6)C=C5)cc3)nn2)C1
REMARK SMILES IDX 21 1 20 2 19 3 18 4 16 5 17 6 15 8 13 9 14 10 90 11 89 12
REMARK SMILES IDX 12 13 8 14 9 15 10 16 11 17 91 18 7 19 1 20 2 21 3 22 4 23
REMARK SMILES IDX 5 24 6 26 22 27 23 28 24 29 25 31 26 32 27 33 88 34 28 35
REMARK SMILES IDX 87 36 29 37 30 38 31 39 81 40 32 41 86 42 80 43 82 44 33 45
REMARK SMILES IDX 85 46 79 47 78 48 34 50 66 51 46 52 65 53 47 54 50 55 64 56
REMARK SMILES IDX 83 57 48 58 49 59 63 61 84 62 51 63 35 64 36 65 44 66 37 67
REMARK SMILES IDX 43 68 45 69 42 70 38 71 39 72 40 73 41 74 67 75 68 76 76 77
REMARK SMILES IDX 69 78 75 79 77 80 74 81 70 82 71 83 72 84 73 85 52 86 53 87
REMARK SMILES IDX 61 88 54 89 60 90 62 91 59 92 55 93 56 94 57 95 58 96
REMARK H PARENT 18 7 4 25 23 30 82 49 50 60
REMARK Flexibility Score: inf
ROOT
ATOM      1  C   UNL A   1      33.551  28.587  27.472  1.00  0.00     0.023 C 
ENDROOT
BRANCH   1   2
ATOM      2  C   UNL A   1      32.398  29.515  27.055  1.00  0.00     0.023 C 
BRANCH   2   3
ATOM      3  C   UNL A   1      32.564  30.191  25.693  1.00  0.00     0.116 C 
BRANCH   3   4
ATOM      4  N   UNL A   1      31.312  30.264  24.968  1.00  0.00    -0.351 N 
ATOM      5  C   UNL A   1      30.718  29.405  24.073  1.00  0.00     0.273 C 
ATOM      6  O   UNL A   1      29.583  29.699  23.697  1.00  0.00    -0.267 OA
ATOM      7  H   UNL A   1      30.790  31.078  25.150  1.00  0.00     0.163 HD
BRANCH   5   8
ATOM      8  C   UNL A   1      31.387  28.195  23.602  1.00  0.00     0.170 A 
ATOM      9  N   UNL A   1      32.584  26.412  23.265  1.00  0.00    -0.245 N 
ATOM     10  C   UNL A   1      32.471  27.493  24.095  1.00  0.00     0.145 A 
ATOM     11  N   UNL A   1      31.692  26.470  22.268  1.00  0.00    -0.066 NA
ATOM     12  N   UNL A   1      30.970  27.567  22.445  1.00  0.00    -0.125 NA
BRANCH   9  13
ATOM     13  C   UNL A   1      33.501  25.331  23.470  1.00  0.00     0.148 C 
ATOM     14  C   UNL A   1      34.136  22.229  23.952  1.00  0.00     0.257 C 
ATOM     15  O   UNL A   1      35.250  22.167  23.436  1.00  0.00    -0.269 OA
ATOM     16  N   UNL A   1      33.277  23.274  23.678  1.00  0.00    -0.334 N 
ATOM     17  C   UNL A   1      33.368  24.153  22.505  1.00  0.00     0.149 C 
ATOM     18  C   UNL A   1      32.996  24.394  24.580  1.00  0.00     0.149 C 
BRANCH  14  19
ATOM     19  C   UNL A   1      33.623  21.169  24.823  1.00  0.00     0.083 A 
ATOM     20  C   UNL A   1      32.347  19.729  23.035  1.00  0.00     0.069 C 
ATOM     21  C   UNL A   1      32.811  20.065  24.406  1.00  0.00     0.072 A 
ATOM     22  N   UNL A   1      32.444  19.288  25.431  1.00  0.00    -0.180 NA
ATOM     23  N   UNL A   1      33.000  19.875  26.495  1.00  0.00    -0.282 N 
ATOM     24  C   UNL A   1      33.714  21.004  26.200  1.00  0.00     0.045 A 
ATOM     25  H   UNL A   1      32.904  19.525  27.411  1.00  0.00     0.190 HD
ATOM     26  C   UNL A   1      34.365  21.769  27.291  1.00  0.00     0.067 C 
ENDBRANCH  14  19
ENDBRANCH   9  13
ENDBRANCH   5   8
ENDBRANCH   3   4
ENDBRANCH   2   3
ENDBRANCH   1   2
BRANCH   1  27
ATOM     27  C   UNL A   1      34.943  29.218  27.441  1.00  0.00     0.116 C 
BRANCH  27  28
ATOM     28  N   UNL A   1      35.205  30.075  28.595  1.00  0.00    -0.352 N 
ATOM     29  C   UNL A   1      36.260  30.015  29.485  1.00  0.00     0.251 C 
ATOM     30  H   UNL A   1      34.545  30.787  28.759  1.00  0.00     0.163 HD
ATOM     31  O   UNL A   1      36.159  30.522  30.597  1.00  0.00    -0.269 OA
BRANCH  29  32
ATOM     32  C   UNL A   1      37.501  29.327  29.080  1.00  0.00     0.039 A 
ATOM     33  C   UNL A   1      38.164  29.672  27.902  1.00  0.00     0.014 A 
ATOM     34  C   UNL A   1      38.023  28.354  29.928  1.00  0.00     0.014 A 
ATOM     35  C   UNL A   1      39.414  29.107  27.640  1.00  0.00     0.010 A 
ATOM     36  C   UNL A   1      39.303  27.883  29.725  1.00  0.00     0.010 A 
ATOM     37  C   UNL A   1      40.002  28.236  28.572  1.00  0.00    -0.014 A 
BRANCH  37  38
ATOM     38  C   UNL A   1      41.396  27.809  28.409  1.00  0.00     0.031 A 
ATOM     39  C   UNL A   1      41.600  26.523  27.679  1.00  0.00     0.074 A 
ATOM     40  C   UNL A   1      42.467  28.595  28.657  1.00  0.00     0.049 A 
ATOM     41  N   UNL A   1      42.103  25.423  28.131  1.00  0.00    -0.248 NA
ATOM     42  C   UNL A   1      41.090  26.416  26.303  1.00  0.00     0.031 C 
ATOM     43  C   UNL A   1      42.480  29.999  29.079  1.00  0.00     0.029 A 
ATOM     44  N   UNL A   1      43.790  28.331  28.452  1.00  0.00    -0.354 N 
ATOM     45  C   UNL A   1      42.190  24.554  27.045  1.00  0.00     0.074 A 
ATOM     46  C   UNL A   1      41.390  25.150  26.007  1.00  0.00     0.031 C 
ATOM     47  C   UNL A   1      43.704  30.524  28.863  1.00  0.00     0.029 A 
ATOM     48  C   UNL A   1      44.604  29.459  28.457  1.00  0.00     0.049 A 
ATOM     49  H   UNL A   1      44.139  27.420  28.313  1.00  0.00     0.167 HD
ATOM     50  C   UNL A   1      43.087  23.527  27.022  1.00  0.00     0.034 A 
ATOM     51  C   UNL A   1      45.920  29.532  28.134  1.00  0.00     0.034 A 
ATOM     52  C   UNL A   1      43.601  23.256  28.347  1.00  0.00     0.049 A 
ATOM     53  C   UNL A   1      46.486  28.175  28.307  1.00  0.00     0.074 A 
ATOM     54  C   UNL A   1      43.028  22.950  29.568  1.00  0.00     0.029 A 
ATOM     55  N   UNL A   1      44.887  23.650  28.649  1.00  0.00    -0.354 N 
ATOM     56  N   UNL A   1      46.574  27.579  29.463  1.00  0.00    -0.248 NA
ATOM     57  C   UNL A   1      46.546  27.293  27.152  1.00  0.00     0.031 C 
ATOM     58  C   UNL A   1      43.790  23.687  30.525  1.00  0.00     0.029 A 
ATOM     59  C   UNL A   1      44.826  24.327  29.843  1.00  0.00     0.049 A 
ATOM     60  H   UNL A   1      45.694  23.480  28.110  1.00  0.00     0.167 HD
ATOM     61  C   UNL A   1      46.246  26.258  29.210  1.00  0.00     0.074 A 
ATOM     62  C   UNL A   1      46.361  26.117  27.759  1.00  0.00     0.031 C 
ATOM     63  C   UNL A   1      45.639  25.485  30.160  1.00  0.00     0.034 A 
BRANCH  50  64
ATOM     64  C   UNL A   1      43.771  22.985  25.778  1.00  0.00     0.023 A 
ATOM     65  C   UNL A   1      43.789  21.585  25.609  1.00  0.00     0.031 A 
ATOM     66  C   UNL A   1      44.636  23.709  24.927  1.00  0.00     0.131 A 
ATOM     67  C   UNL A   1      44.705  20.967  24.739  1.00  0.00     0.055 A 
ATOM     68  C   UNL A   1      45.492  23.093  24.005  1.00  0.00     0.041 A 
ATOM     69  F   UNL A   1      44.774  25.038  24.992  1.00  0.00    -0.206 F 
ATOM     70  C   UNL A   1      45.558  21.713  23.934  1.00  0.00     0.022 A 
BRANCH  67  71
ATOM     71  S   UNL A   1      44.900  19.168  24.835  1.00  0.00     0.124 S 
ATOM     72  O   UNL A   1      46.160  19.050  25.559  1.00  0.00    -0.237 OA
ATOM     73  O   UNL A   1      43.697  18.775  25.561  1.00  0.00    -0.237 OA
ATOM     74  O   UNL A   1      44.945  18.757  23.433  1.00  0.00    -0.744 OA
ENDBRANCH  67  71
ENDBRANCH  50  64
BRANCH  51  75
ATOM     75  C   UNL A   1      46.639  30.643  27.462  1.00  0.00     0.023 A 
ATOM     76  C   UNL A   1      45.968  31.773  26.953  1.00  0.00     0.031 A 
ATOM     77  C   UNL A   1      48.048  30.721  27.541  1.00  0.00     0.131 A 
ATOM     78  C   UNL A   1      46.699  32.917  26.560  1.00  0.00     0.055 A 
ATOM     79  C   UNL A   1      48.766  31.851  27.145  1.00  0.00     0.041 A 
ATOM     80  F   UNL A   1      48.770  29.732  28.093  1.00  0.00    -0.206 F 
ATOM     81  C   UNL A   1      48.092  32.961  26.664  1.00  0.00     0.022 A 
BRANCH  78  82
ATOM     82  S   UNL A   1      45.828  34.424  26.024  1.00  0.00     0.124 S 
ATOM     83  O   UNL A   1      46.778  35.471  26.377  1.00  0.00    -0.237 OA
ATOM     84  O   UNL A   1      45.625  34.183  24.599  1.00  0.00    -0.237 OA
ATOM     85  O   UNL A   1      44.603  34.408  26.825  1.00  0.00    -0.744 OA
ENDBRANCH  78  82
ENDBRANCH  51  75
BRANCH  63  86
ATOM     86  C   UNL A   1      45.612  25.987  31.593  1.00  0.00     0.023 A 
ATOM     87  C   UNL A   1      46.669  25.842  32.521  1.00  0.00     0.031 A 
ATOM     88  C   UNL A   1      44.490  26.730  32.002  1.00  0.00     0.131 A 
ATOM     89  C   UNL A   1      46.567  26.405  33.808  1.00  0.00     0.055 A 
ATOM     90  C   UNL A   1      44.401  27.306  33.270  1.00  0.00     0.041 A 
ATOM     91  F   UNL A   1      43.462  26.933  31.162  1.00  0.00    -0.206 F 
ATOM     92  C   UNL A   1      45.436  27.137  34.182  1.00  0.00     0.022 A 
BRANCH  89  93
ATOM     93  S   UNL A   1      47.893  26.168  35.037  1.00  0.00     0.124 S 
ATOM     94  O   UNL A   1      48.318  24.789  34.828  1.00  0.00    -0.237 OA
ATOM     95  O   UNL A   1      48.859  27.197  34.661  1.00  0.00    -0.237 OA
ATOM     96  O   UNL A   1      47.217  26.409  36.314  1.00  0.00    -0.744 OA
ENDBRANCH  89  93
ENDBRANCH  63  86
ENDBRANCH  37  38
ENDBRANCH  29  32
ENDBRANCH  27  28
ENDBRANCH   1  27
TORSDOF 16
ENDMDL
MODEL 2
REMARK VINA RESULT:     -13.1      1.757      2.107
REMARK SMILES Cc1n[nH]c(C)c1C(=O)N1CC(n2cc(C(=O)NCCCCNC(=O)c3ccc(-c4c5nc(c(-c6cc(S(=O)(=O)[O-])ccc6F)c6ccc([nH]6)c(-c6cc(S(=O)(=O)[O-])ccc6F)c6nc(c(-c7cc(S(=O)(=O)[O-])ccc7F)c7ccc4[nH]7)C=C6)C=C5)cc3)nn2)C1
REMARK SMILES IDX 21 1 20 2 19 3 18 4 16 5 17 6 15 8 13 9 14 10 90 11 89 12
REMARK SMILES IDX 12 13 8 14 9 15 10 16 11 17 91 18 7 19 1 20 2 21 3 22 4 23
REMARK SMILES IDX 5 24 6 26 22 27 23 28 24 29 25 31 26 32 27 33 88 34 28 35
REMARK SMILES IDX 87 36 29 37 30 38 31 39 81 40 32 41 86 42 80 43 82 44 33 45
REMARK SMILES IDX 85 46 79 47 78 48 34 50 66 51 46 52 65 53 47 54 50 55 64 56
REMARK SMILES IDX 83 57 48 58 49 59 63 61 84 62 51 63 35 64 36 65 44 66 37 67
REMARK SMILES IDX 43 68 45 69 42 70 38 71 39 72 40 73 41 74 67 75 68 76 76 77
REMARK SMILES IDX 69 78 75 79 77 80 74 81 70 82 71 83 72 84 73 85 52 86 53 87
REMARK SMILES IDX 61 88 54 89 60 90 62 91 59 92 55 93 56 94 57 95 58 96
REMARK H PARENT 18 7 4 25 23 30 82 49 50 60
REMARK Flexibility Score: inf
ROOT
ATOM      1  C   UNL A   1      34.222  30.174  26.677  1.00  0.00     0.023 C 
ENDROOT
BRANCH   1   2
ATOM      2  C   UNL A   1      32.754  30.440  27.047  1.00  0.00     0.023 C 
BRANCH   2   3
ATOM      3  C   UNL A   1      31.748  29.427  26.497  1.00  0.00     0.116 C 
BRANCH   3   4
ATOM      4  N   UNL A   1      31.485  29.636  25.087  1.00  0.00    -0.351 N 
ATOM      5  C   UNL A   1      31.216  28.757  24.064  1.00  0.00     0.273 C 
ATOM      6  O   UNL A   1      30.930  29.252  22.973  1.00  0.00    -0.267 OA
ATOM      7  H   UNL A   1      31.503  30.580  24.811  1.00  0.00     0.163 HD
BRANCH   5   8
ATOM      8  C   UNL A   1      31.248  27.310  24.258  1.00  0.00     0.170 A 
ATOM      9  N   UNL A   1      31.638  25.234  24.772  1.00  0.00    -0.245 N 
ATOM     10  C   UNL A   1      32.207  26.477  24.807  1.00  0.00     0.145 A 
ATOM     11  N   UNL A   1      30.444  25.263  24.169  1.00  0.00    -0.066 NA
ATOM     12  N   UNL A   1      30.202  26.519  23.825  1.00  0.00    -0.125 NA
BRANCH   9  13
ATOM     13  C   UNL A   1      32.223  24.066  25.359  1.00  0.00     0.148 C 
ATOM     14  C   UNL A   1      34.762  22.361  26.313  1.00  0.00     0.257 C 
ATOM     15  O   UNL A   1      34.245  21.721  27.226  1.00  0.00    -0.269 OA
ATOM     16  N   UNL A   1      34.173  23.508  25.820  1.00  0.00    -0.334 N 
ATOM     17  C   UNL A   1      33.172  24.313  26.532  1.00  0.00     0.149 C 
ATOM     18  C   UNL A   1      33.447  23.606  24.550  1.00  0.00     0.149 C 
BRANCH  14  19
ATOM     19  C   UNL A   1      36.060  21.995  25.744  1.00  0.00     0.083 A 
ATOM     20  C   UNL A   1      35.452  19.628  24.782  1.00  0.00     0.069 C 
ATOM     21  C   UNL A   1      36.363  20.764  25.076  1.00  0.00     0.072 A 
ATOM     22  N   UNL A   1      37.648  20.685  24.714  1.00  0.00    -0.180 NA
ATOM     23  N   UNL A   1      38.175  21.837  25.140  1.00  0.00    -0.282 N 
ATOM     24  C   UNL A   1      37.281  22.661  25.767  1.00  0.00     0.045 A 
ATOM     25  H   UNL A   1      39.123  22.071  25.014  1.00  0.00     0.190 HD
ATOM     26  C   UNL A   1      37.736  23.963  26.310  1.00  0.00     0.067 C 
ENDBRANCH  14  19
ENDBRANCH   9  13
ENDBRANCH   5   8
ENDBRANCH   3   4
ENDBRANCH   2   3
ENDBRANCH   1   2
BRANCH   1  27
ATOM     27  C   UNL A   1      35.018  29.362  27.699  1.00  0.00     0.116 C 
BRANCH  27  28
ATOM     28  N   UNL A   1      35.271  30.097  28.936  1.00  0.00    -0.352 N 
ATOM     29  C   UNL A   1      36.295  29.915  29.847  1.00  0.00     0.251 C 
ATOM     30  H   UNL A   1      34.631  30.814  29.148  1.00  0.00     0.163 HD
ATOM     31  O   UNL A   1      36.175  30.320  30.998  1.00  0.00    -0.269 OA
BRANCH  29  32
ATOM     32  C   UNL A   1      37.525  29.224  29.415  1.00  0.00     0.039 A 
ATOM     33  C   UNL A   1      38.154  29.555  28.214  1.00  0.00     0.014 A 
ATOM     34  C   UNL A   1      38.071  28.259  30.258  1.00  0.00     0.014 A 
ATOM     35  C   UNL A   1      39.396  28.988  27.923  1.00  0.00     0.010 A 
ATOM     36  C   UNL A   1      39.345  27.787  30.024  1.00  0.00     0.010 A 
ATOM     37  C   UNL A   1      40.011  28.127  28.848  1.00  0.00    -0.014 A 
BRANCH  37  38
ATOM     38  C   UNL A   1      41.400  27.699  28.650  1.00  0.00     0.031 A 
ATOM     39  C   UNL A   1      41.585  26.432  27.885  1.00  0.00     0.074 A 
ATOM     40  C   UNL A   1      42.479  28.475  28.900  1.00  0.00     0.049 A 
ATOM     41  N   UNL A   1      42.092  25.319  28.300  1.00  0.00    -0.248 NA
ATOM     42  C   UNL A   1      41.051  26.361  26.516  1.00  0.00     0.031 C 
ATOM     43  C   UNL A   1      42.504  29.867  29.356  1.00  0.00     0.029 A 
ATOM     44  N   UNL A   1      43.796  28.210  28.665  1.00  0.00    -0.354 N 
ATOM     45  C   UNL A   1      42.156  24.477  27.190  1.00  0.00     0.074 A 
ATOM     46  C   UNL A   1      41.341  25.102  26.182  1.00  0.00     0.031 C 
ATOM     47  C   UNL A   1      43.727  30.393  29.133  1.00  0.00     0.029 A 
ATOM     48  C   UNL A   1      44.615  29.335  28.684  1.00  0.00     0.049 A 
ATOM     49  H   UNL A   1      44.139  27.302  28.497  1.00  0.00     0.167 HD
ATOM     50  C   UNL A   1      43.049  23.448  27.126  1.00  0.00     0.034 A 
ATOM     51  C   UNL A   1      45.926  29.411  28.341  1.00  0.00     0.034 A 
ATOM     52  C   UNL A   1      43.584  23.141  28.436  1.00  0.00     0.049 A 
ATOM     53  C   UNL A   1      46.489  28.048  28.470  1.00  0.00     0.074 A 
ATOM     54  C   UNL A   1      43.030  22.806  29.658  1.00  0.00     0.029 A 
ATOM     55  N   UNL A   1      44.876  23.522  28.725  1.00  0.00    -0.354 N 
ATOM     56  N   UNL A   1      46.594  27.422  29.609  1.00  0.00    -0.248 NA
ATOM     57  C   UNL A   1      46.525  27.195  27.292  1.00  0.00     0.031 C 
ATOM     58  C   UNL A   1      43.812  23.515  30.619  1.00  0.00     0.029 A 
ATOM     59  C   UNL A   1      44.839  24.168  29.937  1.00  0.00     0.049 A 
ATOM     60  H   UNL A   1      45.673  23.363  28.168  1.00  0.00     0.167 HD
ATOM     61  C   UNL A   1      46.256  26.110  29.328  1.00  0.00     0.074 A 
ATOM     62  C   UNL A   1      46.345  26.004  27.873  1.00  0.00     0.031 C 
ATOM     63  C   UNL A   1      45.662  25.315  30.269  1.00  0.00     0.034 A 
BRANCH  50  64
ATOM     64  C   UNL A   1      43.709  22.934  25.858  1.00  0.00     0.023 A 
ATOM     65  C   UNL A   1      43.784  21.536  25.689  1.00  0.00     0.031 A 
ATOM     66  C   UNL A   1      44.506  23.695  24.974  1.00  0.00     0.131 A 
ATOM     67  C   UNL A   1      44.694  20.958  24.785  1.00  0.00     0.055 A 
ATOM     68  C   UNL A   1      45.354  23.117  24.021  1.00  0.00     0.041 A 
ATOM     69  F   UNL A   1      44.586  25.029  25.033  1.00  0.00    -0.206 F 
ATOM     70  C   UNL A   1      45.481  21.741  23.947  1.00  0.00     0.022 A 
BRANCH  67  71
ATOM     71  S   UNL A   1      44.974  19.171  24.874  1.00  0.00     0.124 S 
ATOM     72  O   UNL A   1      43.827  18.736  25.663  1.00  0.00    -0.237 OA
ATOM     73  O   UNL A   1      44.968  18.796  23.464  1.00  0.00    -0.237 OA
ATOM     74  O   UNL A   1      46.269  19.064  25.543  1.00  0.00    -0.744 OA
ENDBRANCH  67  71
ENDBRANCH  50  64
BRANCH  51  75
ATOM     75  C   UNL A   1      46.638  30.536  27.685  1.00  0.00     0.023 A 
ATOM     76  C   UNL A   1      45.966  31.500  26.907  1.00  0.00     0.031 A 
ATOM     77  C   UNL A   1      47.978  30.821  28.033  1.00  0.00     0.131 A 
ATOM     78  C   UNL A   1      46.626  32.688  26.520  1.00  0.00     0.055 A 
ATOM     79  C   UNL A   1      48.628  31.993  27.643  1.00  0.00     0.041 A 
ATOM     80  F   UNL A   1      48.674  30.008  28.844  1.00  0.00    -0.206 F 
ATOM     81  C   UNL A   1      47.949  32.940  26.893  1.00  0.00     0.022 A 
BRANCH  78  82
ATOM     82  S   UNL A   1      45.721  33.991  25.625  1.00  0.00     0.124 S 
ATOM     83  O   UNL A   1      46.793  34.675  24.912  1.00  0.00    -0.237 OA
ATOM     84  O   UNL A   1      44.784  33.225  24.811  1.00  0.00    -0.237 OA
ATOM     85  O   UNL A   1      45.101  34.769  26.699  1.00  0.00    -0.744 OA
ENDBRANCH  78  82
ENDBRANCH  51  75
BRANCH  63  86
ATOM     86  C   UNL A   1      45.662  25.780  31.714  1.00  0.00     0.023 A 
ATOM     87  C   UNL A   1      44.518  26.212  32.425  1.00  0.00     0.031 A 
ATOM     88  C   UNL A   1      46.870  25.691  32.428  1.00  0.00     0.131 A 
ATOM     89  C   UNL A   1      44.617  26.561  33.786  1.00  0.00     0.055 A 
ATOM     90  C   UNL A   1      46.961  26.014  33.782  1.00  0.00     0.041 A 
ATOM     91  F   UNL A   1      47.990  25.259  31.824  1.00  0.00    -0.206 F 
ATOM     92  C   UNL A   1      45.835  26.461  34.464  1.00  0.00     0.022 A 
BRANCH  89  93
ATOM     93  S   UNL A   1      43.166  27.184  34.696  1.00  0.00     0.124 S 
ATOM     94  O   UNL A   1      43.736  27.759  35.908  1.00  0.00    -0.237 OA
ATOM     95  O   UNL A   1      42.585  28.135  33.751  1.00  0.00    -0.237 OA
ATOM     96  O   UNL A   1      42.361  25.980  34.915  1.00  0.00    -0.744 OA
ENDBRANCH  89  93
ENDBRANCH  63  86
ENDBRANCH  37  38
ENDBRANCH  29  32
ENDBRANCH  27  28
ENDBRANCH   1  27
TORSDOF 16
ENDMDL
MODEL 3
REMARK VINA RESULT:     -13.1      2.671      6.799
REMARK SMILES Cc1n[nH]c(C)c1C(=O)N1CC(n2cc(C(=O)NCCCCNC(=O)c3ccc(-c4c5nc(c(-c6cc(S(=O)(=O)[O-])ccc6F)c6ccc([nH]6)c(-c6cc(S(=O)(=O)[O-])ccc6F)c6nc(c(-c7cc(S(=O)(=O)[O-])ccc7F)c7ccc4[nH]7)C=C6)C=C5)cc3)nn2)C1
REMARK SMILES IDX 21 1 20 2 19 3 18 4 16 5 17 6 15 8 13 9 14 10 90 11 89 12
REMARK SMILES IDX 12 13 8 14 9 15 10 16 11 17 91 18 7 19 1 20 2 21 3 22 4 23
REMARK SMILES IDX 5 24 6 26 22 27 23 28 24 29 25 31 26 32 27 33 88 34 28 35
REMARK SMILES IDX 87 36 29 37 30 38 31 39 81 40 32 41 86 42 80 43 82 44 33 45
REMARK SMILES IDX 85 46 79 47 78 48 34 50 66 51 46 52 65 53 47 54 50 55 64 56
REMARK SMILES IDX 83 57 48 58 49 59 63 61 84 62 51 63 35 64 36 65 44 66 37 67
REMARK SMILES IDX 43 68 45 69 42 70 38 71 39 72 40 73 41 74 67 75 68 76 76 77
REMARK SMILES IDX 69 78 75 79 77 80 74 81 70 82 71 83 72 84 73 85 52 86 53 87
REMARK SMILES IDX 61 88 54 89 60 90 62 91 59 92 55 93 56 94 57 95 58 96
REMARK H PARENT 18 7 4 25 23 30 82 49 50 60
REMARK Flexibility Score: inf
ROOT
ATOM      1  C   UNL A   1      33.260  30.496  27.450  1.00  0.00     0.023 C 
ENDROOT
BRANCH   1   2
ATOM      2  C   UNL A   1      32.072  30.720  26.500  1.00  0.00     0.023 C 
BRANCH   2   3
ATOM      3  C   UNL A   1      31.802  29.583  25.513  1.00  0.00     0.116 C 
BRANCH   3   4
ATOM      4  N   UNL A   1      31.051  30.034  24.359  1.00  0.00    -0.351 N 
ATOM      5  C   UNL A   1      30.344  29.349  23.398  1.00  0.00     0.273 C 
ATOM      6  O   UNL A   1      29.716  30.030  22.586  1.00  0.00    -0.267 OA
ATOM      7  H   UNL A   1      31.046  31.011  24.241  1.00  0.00     0.163 HD
BRANCH   5   8
ATOM      8  C   UNL A   1      30.321  27.889  23.348  1.00  0.00     0.170 A 
ATOM      9  N   UNL A   1      30.694  25.754  23.189  1.00  0.00    -0.245 N 
ATOM     10  C   UNL A   1      31.268  26.969  22.937  1.00  0.00     0.145 A 
ATOM     11  N   UNL A   1      29.443  25.893  23.645  1.00  0.00    -0.066 NA
ATOM     12  N   UNL A   1      29.191  27.191  23.723  1.00  0.00    -0.125 NA
BRANCH   9  13
ATOM     13  C   UNL A   1      31.367  24.499  23.038  1.00  0.00     0.148 C 
ATOM     14  C   UNL A   1      33.339  22.213  24.109  1.00  0.00     0.257 C 
ATOM     15  O   UNL A   1      32.856  21.241  23.530  1.00  0.00    -0.269 OA
ATOM     16  N   UNL A   1      32.622  23.382  24.264  1.00  0.00    -0.334 N 
ATOM     17  C   UNL A   1      31.161  23.492  24.171  1.00  0.00     0.149 C 
ATOM     18  C   UNL A   1      32.832  24.610  23.492  1.00  0.00     0.149 C 
BRANCH  14  19
ATOM     19  C   UNL A   1      34.664  22.168  24.730  1.00  0.00     0.083 A 
ATOM     20  C   UNL A   1      33.969  21.471  27.165  1.00  0.00     0.069 C 
ATOM     21  C   UNL A   1      34.933  21.851  26.101  1.00  0.00     0.072 A 
ATOM     22  N   UNL A   1      36.234  21.945  26.399  1.00  0.00    -0.180 NA
ATOM     23  N   UNL A   1      36.801  22.321  25.248  1.00  0.00    -0.282 N 
ATOM     24  C   UNL A   1      35.918  22.475  24.215  1.00  0.00     0.045 A 
ATOM     25  H   UNL A   1      37.769  22.474  25.154  1.00  0.00     0.190 HD
ATOM     26  C   UNL A   1      36.410  22.911  22.886  1.00  0.00     0.067 C 
ENDBRANCH  14  19
ENDBRANCH   9  13
ENDBRANCH   5   8
ENDBRANCH   3   4
ENDBRANCH   2   3
ENDBRANCH   1   2
BRANCH   1  27
ATOM     27  C   UNL A   1      34.255  31.653  27.538  1.00  0.00     0.116 C 
BRANCH  27  28
ATOM     28  N   UNL A   1      34.268  32.293  28.852  1.00  0.00    -0.352 N 
ATOM     29  C   UNL A   1      35.070  32.002  29.939  1.00  0.00     0.251 C 
ATOM     30  H   UNL A   1      33.623  33.025  28.979  1.00  0.00     0.163 HD
ATOM     31  O   UNL A   1      34.725  32.337  31.067  1.00  0.00    -0.269 OA
BRANCH  29  32
ATOM     32  C   UNL A   1      36.339  31.281  29.721  1.00  0.00     0.039 A 
ATOM     33  C   UNL A   1      37.555  31.963  29.663  1.00  0.00     0.014 A 
ATOM     34  C   UNL A   1      36.300  29.893  29.618  1.00  0.00     0.014 A 
ATOM     35  C   UNL A   1      38.741  31.228  29.614  1.00  0.00     0.010 A 
ATOM     36  C   UNL A   1      37.471  29.168  29.682  1.00  0.00     0.010 A 
ATOM     37  C   UNL A   1      38.701  29.824  29.659  1.00  0.00    -0.014 A 
BRANCH  37  38
ATOM     38  C   UNL A   1      39.938  29.053  29.823  1.00  0.00     0.031 A 
ATOM     39  C   UNL A   1      40.307  28.713  31.228  1.00  0.00     0.074 A 
ATOM     40  C   UNL A   1      40.603  28.454  28.810  1.00  0.00     0.049 A 
ATOM     41  N   UNL A   1      41.346  29.097  31.893  1.00  0.00    -0.248 NA
ATOM     42  C   UNL A   1      39.354  27.927  32.027  1.00  0.00     0.031 C 
ATOM     43  C   UNL A   1      40.233  28.401  27.393  1.00  0.00     0.029 A 
ATOM     44  N   UNL A   1      41.699  27.644  28.866  1.00  0.00    -0.354 N 
ATOM     45  C   UNL A   1      41.304  28.423  33.113  1.00  0.00     0.074 A 
ATOM     46  C   UNL A   1      39.977  27.872  33.207  1.00  0.00     0.031 C 
ATOM     47  C   UNL A   1      40.931  27.420  26.781  1.00  0.00     0.029 A 
ATOM     48  C   UNL A   1      41.916  26.898  27.711  1.00  0.00     0.049 A 
ATOM     49  H   UNL A   1      42.287  27.592  29.654  1.00  0.00     0.167 HD
ATOM     50  C   UNL A   1      42.434  28.196  33.843  1.00  0.00     0.034 A 
ATOM     51  C   UNL A   1      42.823  25.907  27.524  1.00  0.00     0.034 A 
ATOM     52  C   UNL A   1      43.519  29.043  33.397  1.00  0.00     0.049 A 
ATOM     53  C   UNL A   1      43.897  26.106  28.524  1.00  0.00     0.074 A 
ATOM     54  C   UNL A   1      43.688  30.408  33.246  1.00  0.00     0.029 A 
ATOM     55  N   UNL A   1      44.537  28.477  32.661  1.00  0.00    -0.354 N 
ATOM     56  N   UNL A   1      44.694  27.138  28.523  1.00  0.00    -0.248 NA
ATOM     57  C   UNL A   1      43.810  25.396  29.790  1.00  0.00     0.031 C 
ATOM     58  C   UNL A   1      44.420  30.552  32.029  1.00  0.00     0.029 A 
ATOM     59  C   UNL A   1      44.722  29.274  31.558  1.00  0.00     0.049 A 
ATOM     60  H   UNL A   1      45.036  27.656  32.884  1.00  0.00     0.167 HD
ATOM     61  C   UNL A   1      44.845  27.474  29.856  1.00  0.00     0.074 A 
ATOM     62  C   UNL A   1      44.383  26.298  30.593  1.00  0.00     0.031 C 
ATOM     63  C   UNL A   1      45.058  28.769  30.241  1.00  0.00     0.034 A 
BRANCH  50  64
ATOM     64  C   UNL A   1      42.682  26.984  34.725  1.00  0.00     0.023 A 
ATOM     65  C   UNL A   1      43.504  25.963  34.205  1.00  0.00     0.031 A 
ATOM     66  C   UNL A   1      41.952  26.643  35.886  1.00  0.00     0.131 A 
ATOM     67  C   UNL A   1      43.482  24.664  34.743  1.00  0.00     0.055 A 
ATOM     68  C   UNL A   1      41.994  25.369  36.465  1.00  0.00     0.041 A 
ATOM     69  F   UNL A   1      41.092  27.480  36.475  1.00  0.00    -0.206 F 
ATOM     70  C   UNL A   1      42.731  24.359  35.873  1.00  0.00     0.022 A 
BRANCH  67  71
ATOM     71  S   UNL A   1      44.293  23.337  33.814  1.00  0.00     0.124 S 
ATOM     72  O   UNL A   1      43.330  23.099  32.746  1.00  0.00    -0.237 OA
ATOM     73  O   UNL A   1      45.549  23.969  33.423  1.00  0.00    -0.237 OA
ATOM     74  O   UNL A   1      44.415  22.262  34.796  1.00  0.00    -0.744 OA
ENDBRANCH  67  71
ENDBRANCH  50  64
BRANCH  51  75
ATOM     75  C   UNL A   1      42.684  24.681  26.700  1.00  0.00     0.023 A 
ATOM     76  C   UNL A   1      43.635  24.319  25.725  1.00  0.00     0.031 A 
ATOM     77  C   UNL A   1      41.723  23.703  27.045  1.00  0.00     0.131 A 
ATOM     78  C   UNL A   1      43.609  23.028  25.150  1.00  0.00     0.055 A 
ATOM     79  C   UNL A   1      41.697  22.432  26.469  1.00  0.00     0.041 A 
ATOM     80  F   UNL A   1      40.830  23.921  28.025  1.00  0.00    -0.206 F 
ATOM     81  C   UNL A   1      42.649  22.084  25.525  1.00  0.00     0.022 A 
BRANCH  78  82
ATOM     82  S   UNL A   1      44.912  22.514  23.986  1.00  0.00     0.124 S 
ATOM     83  O   UNL A   1      45.789  23.679  23.973  1.00  0.00    -0.237 OA
ATOM     84  O   UNL A   1      45.442  21.309  24.614  1.00  0.00    -0.237 OA
ATOM     85  O   UNL A   1      44.180  22.281  22.741  1.00  0.00    -0.744 OA
ENDBRANCH  78  82
ENDBRANCH  51  75
BRANCH  63  86
ATOM     86  C   UNL A   1      45.441  29.785  29.179  1.00  0.00     0.023 A 
ATOM     87  C   UNL A   1      46.763  30.048  28.750  1.00  0.00     0.031 A 
ATOM     88  C   UNL A   1      44.399  30.449  28.507  1.00  0.00     0.131 A 
ATOM     89  C   UNL A   1      47.002  30.966  27.709  1.00  0.00     0.055 A 
ATOM     90  C   UNL A   1      44.638  31.340  27.459  1.00  0.00     0.041 A 
ATOM     91  F   UNL A   1      43.117  30.224  28.841  1.00  0.00    -0.206 F 
ATOM     92  C   UNL A   1      45.942  31.609  27.063  1.00  0.00     0.022 A 
BRANCH  89  93
ATOM     93  S   UNL A   1      48.704  31.366  27.193  1.00  0.00     0.124 S 
ATOM     94  O   UNL A   1      49.399  31.617  28.450  1.00  0.00    -0.237 OA
ATOM     95  O   UNL A   1      49.107  30.161  26.471  1.00  0.00    -0.237 OA
ATOM     96  O   UNL A   1      48.531  32.550  26.347  1.00  0.00    -0.744 OA
ENDBRANCH  89  93
ENDBRANCH  63  86
ENDBRANCH  37  38
ENDBRANCH  29  32
ENDBRANCH  27  28
ENDBRANCH   1  27
TORSDOF 16
ENDMDL
