MODEL 1
REMARK VINA RESULT:     -11.5      0.000      0.000
REMARK SMILES Cc1nsc(NCC(C)C)c1C(=O)NCCCCNC(=O)c1ccc(-c2c3nc(c(-c4cc(S(=O)(=O)[O-])ccc4F)c4ccc([nH]4)c(-c4cc(S(=O)(=O)[O-])ccc4F)c4nc(c(-c5cc(S(=O)(=O)[O-])ccc5F)c5ccc2[nH]5)C=C4)C=C3)cc1
REMARK SMILES IDX 16 1 15 2 14 3 12 4 13 5 11 7 1 8 2 9 3 10 4 11 5 12 6 13
REMARK SMILES IDX 7 15 8 16 9 17 10 18 17 19 18 20 19 21 20 22 21 24 22 25
REMARK SMILES IDX 23 26 84 27 24 28 83 29 25 30 26 31 27 32 77 33 28 34 82 35
REMARK SMILES IDX 76 36 78 37 29 38 81 39 75 40 74 41 30 43 62 44 42 45 61 46
REMARK SMILES IDX 43 47 46 48 60 49 79 50 44 51 45 52 59 54 80 55 47 56 31 57
REMARK SMILES IDX 32 58 40 59 33 60 39 61 41 62 38 63 34 64 35 65 36 66 37 67
REMARK SMILES IDX 63 68 64 69 72 70 65 71 71 72 73 73 70 74 66 75 67 76 68 77
REMARK SMILES IDX 69 78 48 79 49 80 57 81 50 82 56 83 58 84 55 85 51 86 52 87
REMARK SMILES IDX 53 88 54 89
REMARK H PARENT 14 6 6 14 19 23 78 42 46 53
REMARK Flexibility Score: inf
ROOT
ATOM      1  C   UNL A   1      33.701  28.148  25.983  1.00  0.00     0.023 C 
ENDROOT
BRANCH   1   2
ATOM      2  C   UNL A   1      33.032  28.836  24.787  1.00  0.00     0.116 C 
BRANCH   2   3
ATOM      3  N   UNL A   1      33.494  28.268  23.547  1.00  0.00    -0.352 N 
ATOM      4  C   UNL A   1      33.229  27.143  22.819  1.00  0.00     0.256 C 
ATOM      5  O   UNL A   1      33.944  27.071  21.807  1.00  0.00    -0.269 OA
ATOM      6  H   UNL A   1      34.175  28.834  23.115  1.00  0.00     0.163 HD
BRANCH   4   7
ATOM      7  C   UNL A   1      32.208  26.106  23.096  1.00  0.00     0.097 A 
ATOM      8  C   UNL A   1      29.776  27.235  23.314  1.00  0.00     0.069 C 
ATOM      9  C   UNL A   1      30.755  26.118  23.279  1.00  0.00     0.066 A 
ATOM     10  N   UNL A   1      30.176  24.934  23.498  1.00  0.00    -0.195 NA
ATOM     11  S   UNL A   1      31.305  23.762  23.542  1.00  0.00    -0.018 S 
ATOM     12  C   UNL A   1      32.657  24.782  23.303  1.00  0.00     0.122 A 
BRANCH  12  13
ATOM     13  N   UNL A   1      33.953  24.358  23.310  1.00  0.00    -0.375 N 
ATOM     14  H   UNL A   1      34.259  23.860  22.518  1.00  0.00     0.161 HD
BRANCH  13  15
ATOM     15  C   UNL A   1      34.926  24.567  24.361  1.00  0.00     0.116 C 
BRANCH  15  16
ATOM     16  C   UNL A   1      35.818  23.327  24.527  1.00  0.00     0.002 C 
ATOM     17  C   UNL A   1      36.533  22.963  23.222  1.00  0.00     0.009 C 
ATOM     18  C   UNL A   1      36.848  23.575  25.631  1.00  0.00     0.009 C 
ENDBRANCH  15  16
ENDBRANCH  13  15
ENDBRANCH  12  13
ENDBRANCH   4   7
ENDBRANCH   2   3
ENDBRANCH   1   2
BRANCH   1  19
ATOM     19  C   UNL A   1      33.906  29.025  27.225  1.00  0.00     0.023 C 
BRANCH  19  20
ATOM     20  C   UNL A   1      35.357  29.382  27.520  1.00  0.00     0.116 C 
BRANCH  20  21
ATOM     21  N   UNL A   1      35.546  29.934  28.861  1.00  0.00    -0.352 N 
ATOM     22  C   UNL A   1      36.511  29.585  29.782  1.00  0.00     0.251 C 
ATOM     23  H   UNL A   1      34.910  30.633  29.139  1.00  0.00     0.163 HD
ATOM     24  O   UNL A   1      36.330  29.783  30.986  1.00  0.00    -0.269 OA
BRANCH  22  25
ATOM     25  C   UNL A   1      37.765  28.987  29.297  1.00  0.00     0.039 A 
ATOM     26  C   UNL A   1      38.449  29.504  28.195  1.00  0.00     0.014 A 
ATOM     27  C   UNL A   1      38.278  27.909  30.018  1.00  0.00     0.014 A 
ATOM     28  C   UNL A   1      39.703  28.982  27.880  1.00  0.00     0.010 A 
ATOM     29  C   UNL A   1      39.565  27.487  29.789  1.00  0.00     0.010 A 
ATOM     30  C   UNL A   1      40.268  27.987  28.698  1.00  0.00    -0.014 A 
BRANCH  30  31
ATOM     31  C   UNL A   1      41.663  27.578  28.533  1.00  0.00     0.031 A 
ATOM     32  C   UNL A   1      41.830  26.318  27.757  1.00  0.00     0.074 A 
ATOM     33  C   UNL A   1      42.714  28.374  28.837  1.00  0.00     0.049 A 
ATOM     34  N   UNL A   1      42.207  25.168  28.206  1.00  0.00    -0.248 NA
ATOM     35  C   UNL A   1      41.352  26.276  26.364  1.00  0.00     0.031 C 
ATOM     36  C   UNL A   1      42.688  29.753  29.333  1.00  0.00     0.029 A 
ATOM     37  N   UNL A   1      44.047  28.154  28.658  1.00  0.00    -0.354 N 
ATOM     38  C   UNL A   1      42.286  24.332  27.096  1.00  0.00     0.074 A 
ATOM     39  C   UNL A   1      41.527  24.987  26.065  1.00  0.00     0.031 C 
ATOM     40  C   UNL A   1      43.908  30.316  29.182  1.00  0.00     0.029 A 
ATOM     41  C   UNL A   1      44.844  29.300  28.732  1.00  0.00     0.049 A 
ATOM     42  H   UNL A   1      44.420  27.259  28.490  1.00  0.00     0.167 HD
ATOM     43  C   UNL A   1      43.196  23.320  27.051  1.00  0.00     0.034 A 
ATOM     44  C   UNL A   1      46.167  29.415  28.424  1.00  0.00     0.034 A 
ATOM     45  C   UNL A   1      43.732  23.057  28.372  1.00  0.00     0.049 A 
ATOM     46  C   UNL A   1      46.741  28.049  28.522  1.00  0.00     0.074 A 
ATOM     47  C   UNL A   1      43.173  22.731  29.594  1.00  0.00     0.029 A 
ATOM     48  N   UNL A   1      44.994  23.527  28.664  1.00  0.00    -0.354 N 
ATOM     49  N   UNL A   1      46.806  27.386  29.645  1.00  0.00    -0.248 NA
ATOM     50  C   UNL A   1      46.756  27.230  27.321  1.00  0.00     0.031 C 
ATOM     51  C   UNL A   1      43.899  23.509  30.545  1.00  0.00     0.029 A 
ATOM     52  C   UNL A   1      44.927  24.174  29.875  1.00  0.00     0.049 A 
ATOM     53  H   UNL A   1      45.798  23.419  28.106  1.00  0.00     0.167 HD
ATOM     54  C   UNL A   1      46.401  26.100  29.322  1.00  0.00     0.074 A 
ATOM     55  C   UNL A   1      46.478  26.039  27.861  1.00  0.00     0.031 C 
ATOM     56  C   UNL A   1      45.763  25.306  30.235  1.00  0.00     0.034 A 
BRANCH  43  57
ATOM     57  C   UNL A   1      43.906  22.839  25.798  1.00  0.00     0.023 A 
ATOM     58  C   UNL A   1      44.008  21.444  25.622  1.00  0.00     0.031 A 
ATOM     59  C   UNL A   1      44.724  23.619  24.950  1.00  0.00     0.131 A 
ATOM     60  C   UNL A   1      44.968  20.889  24.758  1.00  0.00     0.055 A 
ATOM     61  C   UNL A   1      45.630  23.063  24.042  1.00  0.00     0.041 A 
ATOM     62  F   UNL A   1      44.767  24.954  25.005  1.00  0.00    -0.206 F 
ATOM     63  C   UNL A   1      45.785  21.690  23.969  1.00  0.00     0.022 A 
BRANCH  60  64
ATOM     64  S   UNL A   1      45.259  19.104  24.840  1.00  0.00     0.124 S 
ATOM     65  O   UNL A   1      43.971  18.624  25.331  1.00  0.00    -0.237 OA
ATOM     66  O   UNL A   1      45.577  18.790  23.450  1.00  0.00    -0.237 OA
ATOM     67  O   UNL A   1      46.372  18.985  25.777  1.00  0.00    -0.744 OA
ENDBRANCH  60  64
ENDBRANCH  43  57
BRANCH  44  68
ATOM     68  C   UNL A   1      46.851  30.547  27.722  1.00  0.00     0.023 A 
ATOM     69  C   UNL A   1      46.155  31.568  27.030  1.00  0.00     0.031 A 
ATOM     70  C   UNL A   1      48.227  30.774  27.953  1.00  0.00     0.131 A 
ATOM     71  C   UNL A   1      46.832  32.745  26.615  1.00  0.00     0.055 A 
ATOM     72  C   UNL A   1      48.887  31.936  27.544  1.00  0.00     0.041 A 
ATOM     73  F   UNL A   1      48.966  29.911  28.667  1.00  0.00    -0.206 F 
ATOM     74  C   UNL A   1      48.189  32.933  26.884  1.00  0.00     0.022 A 
BRANCH  71  75
ATOM     75  S   UNL A   1      45.938  34.110  25.791  1.00  0.00     0.124 S 
ATOM     76  O   UNL A   1      44.902  33.400  25.051  1.00  0.00    -0.237 OA
ATOM     77  O   UNL A   1      45.494  34.924  26.916  1.00  0.00    -0.237 OA
ATOM     78  O   UNL A   1      46.966  34.736  24.956  1.00  0.00    -0.744 OA
ENDBRANCH  71  75
ENDBRANCH  44  68
BRANCH  56  79
ATOM     79  C   UNL A   1      45.766  25.732  31.694  1.00  0.00     0.023 A 
ATOM     80  C   UNL A   1      46.830  25.533  32.607  1.00  0.00     0.031 A 
ATOM     81  C   UNL A   1      44.652  26.460  32.151  1.00  0.00     0.131 A 
ATOM     82  C   UNL A   1      46.737  26.035  33.923  1.00  0.00     0.055 A 
ATOM     83  C   UNL A   1      44.576  26.977  33.443  1.00  0.00     0.041 A 
ATOM     84  F   UNL A   1      43.616  26.705  31.332  1.00  0.00    -0.206 F 
ATOM     85  C   UNL A   1      45.615  26.759  34.338  1.00  0.00     0.022 A 
BRANCH  82  86
ATOM     86  S   UNL A   1      48.056  25.720  35.143  1.00  0.00     0.124 S 
ATOM     87  O   UNL A   1      48.473  24.354  34.856  1.00  0.00    -0.237 OA
ATOM     88  O   UNL A   1      49.029  26.764  34.832  1.00  0.00    -0.237 OA
ATOM     89  O   UNL A   1      47.374  25.892  36.429  1.00  0.00    -0.744 OA
ENDBRANCH  82  86
ENDBRANCH  56  79
ENDBRANCH  30  31
ENDBRANCH  22  25
ENDBRANCH  20  21
ENDBRANCH  19  20
ENDBRANCH   1  19
TORSDOF 17
ENDMDL
MODEL 2
REMARK VINA RESULT:     -11.4      3.662      8.445
REMARK SMILES Cc1nsc(NCC(C)C)c1C(=O)NCCCCNC(=O)c1ccc(-c2c3nc(c(-c4cc(S(=O)(=O)[O-])ccc4F)c4ccc([nH]4)c(-c4cc(S(=O)(=O)[O-])ccc4F)c4nc(c(-c5cc(S(=O)(=O)[O-])ccc5F)c5ccc2[nH]5)C=C4)C=C3)cc1
REMARK SMILES IDX 16 1 15 2 14 3 12 4 13 5 11 7 1 8 2 9 3 10 4 11 5 12 6 13
REMARK SMILES IDX 7 15 8 16 9 17 10 18 17 19 18 20 19 21 20 22 21 24 22 25
REMARK SMILES IDX 23 26 84 27 24 28 83 29 25 30 26 31 27 32 77 33 28 34 82 35
REMARK SMILES IDX 76 36 78 37 29 38 81 39 75 40 74 41 30 43 62 44 42 45 61 46
REMARK SMILES IDX 43 47 46 48 60 49 79 50 44 51 45 52 59 54 80 55 47 56 31 57
REMARK SMILES IDX 32 58 40 59 33 60 39 61 41 62 38 63 34 64 35 65 36 66 37 67
REMARK SMILES IDX 63 68 64 69 72 70 65 71 71 72 73 73 70 74 66 75 67 76 68 77
REMARK SMILES IDX 69 78 48 79 49 80 57 81 50 82 56 83 58 84 55 85 51 86 52 87
REMARK SMILES IDX 53 88 54 89
REMARK H PARENT 14 6 6 14 19 23 78 42 46 53
REMARK Flexibility Score: inf
ROOT
ATOM      1  C   UNL A   1      36.844  21.141  24.642  1.00  0.00     0.023 C 
ENDROOT
BRANCH   1   2
ATOM      2  C   UNL A   1      36.704  22.237  25.704  1.00  0.00     0.116 C 
BRANCH   2   3
ATOM      3  N   UNL A   1      35.519  22.032  26.496  1.00  0.00    -0.352 N 
ATOM      4  C   UNL A   1      34.170  22.101  26.288  1.00  0.00     0.256 C 
ATOM      5  O   UNL A   1      33.532  21.876  27.329  1.00  0.00    -0.269 OA
ATOM      6  H   UNL A   1      35.736  21.778  27.423  1.00  0.00     0.163 HD
BRANCH   4   7
ATOM      7  C   UNL A   1      33.464  22.360  25.012  1.00  0.00     0.097 A 
ATOM      8  C   UNL A   1      33.337  25.006  24.543  1.00  0.00     0.069 C 
ATOM      9  C   UNL A   1      33.128  23.564  24.249  1.00  0.00     0.066 A 
ATOM     10  N   UNL A   1      32.482  23.374  23.096  1.00  0.00    -0.195 NA
ATOM     11  S   UNL A   1      32.198  21.786  22.872  1.00  0.00    -0.018 S 
ATOM     12  C   UNL A   1      32.901  21.253  24.337  1.00  0.00     0.122 A 
BRANCH  12  13
ATOM     13  N   UNL A   1      32.910  19.956  24.761  1.00  0.00    -0.375 N 
ATOM     14  H   UNL A   1      32.103  19.639  25.227  1.00  0.00     0.161 HD
BRANCH  13  15
ATOM     15  C   UNL A   1      33.983  18.999  24.594  1.00  0.00     0.116 C 
BRANCH  15  16
ATOM     16  C   UNL A   1      33.438  17.662  24.069  1.00  0.00     0.002 C 
ATOM     17  C   UNL A   1      32.574  16.950  25.115  1.00  0.00     0.009 C 
ATOM     18  C   UNL A   1      32.621  17.899  22.797  1.00  0.00     0.009 C 
ENDBRANCH  15  16
ENDBRANCH  13  15
ENDBRANCH  12  13
ENDBRANCH   4   7
ENDBRANCH   2   3
ENDBRANCH   1   2
BRANCH   1  19
ATOM     19  C   UNL A   1      37.812  20.001  24.986  1.00  0.00     0.023 C 
BRANCH  19  20
ATOM     20  C   UNL A   1      39.005  20.415  25.837  1.00  0.00     0.116 C 
BRANCH  20  21
ATOM     21  N   UNL A   1      40.057  19.400  25.873  1.00  0.00    -0.352 N 
ATOM     22  C   UNL A   1      41.417  19.607  25.963  1.00  0.00     0.251 C 
ATOM     23  H   UNL A   1      39.761  18.462  25.827  1.00  0.00     0.163 HD
ATOM     24  O   UNL A   1      42.210  18.749  25.566  1.00  0.00    -0.269 OA
BRANCH  22  25
ATOM     25  C   UNL A   1      41.902  20.863  26.557  1.00  0.00     0.039 A 
ATOM     26  C   UNL A   1      42.287  21.949  25.769  1.00  0.00     0.014 A 
ATOM     27  C   UNL A   1      41.910  20.949  27.949  1.00  0.00     0.014 A 
ATOM     28  C   UNL A   1      42.595  23.155  26.396  1.00  0.00     0.010 A 
ATOM     29  C   UNL A   1      42.085  22.169  28.556  1.00  0.00     0.010 A 
ATOM     30  C   UNL A   1      42.468  23.266  27.792  1.00  0.00    -0.014 A 
BRANCH  30  31
ATOM     31  C   UNL A   1      42.564  24.566  28.458  1.00  0.00     0.031 A 
ATOM     32  C   UNL A   1      41.407  25.464  28.189  1.00  0.00     0.074 A 
ATOM     33  C   UNL A   1      43.479  24.849  29.413  1.00  0.00     0.049 A 
ATOM     34  N   UNL A   1      41.401  26.539  27.475  1.00  0.00    -0.248 NA
ATOM     35  C   UNL A   1      40.061  25.028  28.602  1.00  0.00     0.031 C 
ATOM     36  C   UNL A   1      44.492  23.956  29.985  1.00  0.00     0.029 A 
ATOM     37  N   UNL A   1      43.627  25.975  30.165  1.00  0.00    -0.354 N 
ATOM     38  C   UNL A   1      40.118  27.065  27.586  1.00  0.00     0.074 A 
ATOM     39  C   UNL A   1      39.300  25.988  28.072  1.00  0.00     0.031 C 
ATOM     40  C   UNL A   1      44.970  24.483  31.135  1.00  0.00     0.029 A 
ATOM     41  C   UNL A   1      44.423  25.819  31.303  1.00  0.00     0.049 A 
ATOM     42  H   UNL A   1      43.206  26.832  29.926  1.00  0.00     0.167 HD
ATOM     43  C   UNL A   1      39.910  28.411  27.532  1.00  0.00     0.034 A 
ATOM     44  C   UNL A   1      44.603  26.708  32.322  1.00  0.00     0.034 A 
ATOM     45  C   UNL A   1      41.079  29.085  27.003  1.00  0.00     0.049 A 
ATOM     46  C   UNL A   1      44.264  28.046  31.775  1.00  0.00     0.074 A 
ATOM     47  C   UNL A   1      41.811  28.977  25.835  1.00  0.00     0.029 A 
ATOM     48  N   UNL A   1      41.906  29.740  27.891  1.00  0.00    -0.354 N 
ATOM     49  N   UNL A   1      44.951  28.619  30.824  1.00  0.00    -0.248 NA
ATOM     50  C   UNL A   1      42.891  28.506  31.906  1.00  0.00     0.031 C 
ATOM     51  C   UNL A   1      43.174  29.078  26.250  1.00  0.00     0.029 A 
ATOM     52  C   UNL A   1      43.196  29.356  27.618  1.00  0.00     0.049 A 
ATOM     53  H   UNL A   1      41.622  30.369  28.593  1.00  0.00     0.167 HD
ATOM     54  C   UNL A   1      43.999  29.141  29.963  1.00  0.00     0.074 A 
ATOM     55  C   UNL A   1      42.752  29.127  30.731  1.00  0.00     0.031 C 
ATOM     56  C   UNL A   1      44.242  29.259  28.622  1.00  0.00     0.034 A 
BRANCH  43  57
ATOM     57  C   UNL A   1      38.845  29.162  28.311  1.00  0.00     0.023 A 
ATOM     58  C   UNL A   1      38.955  29.143  29.716  1.00  0.00     0.031 A 
ATOM     59  C   UNL A   1      37.608  29.621  27.804  1.00  0.00     0.131 A 
ATOM     60  C   UNL A   1      37.850  29.429  30.535  1.00  0.00     0.055 A 
ATOM     61  C   UNL A   1      36.532  29.971  28.625  1.00  0.00     0.041 A 
ATOM     62  F   UNL A   1      37.331  29.677  26.498  1.00  0.00    -0.206 F 
ATOM     63  C   UNL A   1      36.634  29.839  29.999  1.00  0.00     0.022 A 
BRANCH  60  64
ATOM     64  S   UNL A   1      37.978  29.061  32.303  1.00  0.00     0.124 S 
ATOM     65  O   UNL A   1      36.662  29.473  32.780  1.00  0.00    -0.237 OA
ATOM     66  O   UNL A   1      38.240  27.626  32.291  1.00  0.00    -0.237 OA
ATOM     67  O   UNL A   1      39.093  29.895  32.741  1.00  0.00    -0.744 OA
ENDBRANCH  60  64
ENDBRANCH  43  57
BRANCH  44  68
ATOM     68  C   UNL A   1      44.700  26.417  33.787  1.00  0.00     0.023 A 
ATOM     69  C   UNL A   1      43.619  26.584  34.687  1.00  0.00     0.031 A 
ATOM     70  C   UNL A   1      45.819  25.708  34.279  1.00  0.00     0.131 A 
ATOM     71  C   UNL A   1      43.687  26.048  36.000  1.00  0.00     0.055 A 
ATOM     72  C   UNL A   1      45.879  25.180  35.572  1.00  0.00     0.041 A 
ATOM     73  F   UNL A   1      46.866  25.422  33.489  1.00  0.00    -0.206 F 
ATOM     74  C   UNL A   1      44.807  25.337  36.434  1.00  0.00     0.022 A 
BRANCH  71  75
ATOM     75  S   UNL A   1      42.274  26.183  37.151  1.00  0.00     0.124 S 
ATOM     76  O   UNL A   1      41.546  24.946  36.895  1.00  0.00    -0.237 OA
ATOM     77  O   UNL A   1      42.931  26.295  38.448  1.00  0.00    -0.237 OA
ATOM     78  O   UNL A   1      41.588  27.399  36.709  1.00  0.00    -0.744 OA
ENDBRANCH  71  75
ENDBRANCH  44  68
BRANCH  56  79
ATOM     79  C   UNL A   1      45.669  29.092  28.126  1.00  0.00     0.023 A 
ATOM     80  C   UNL A   1      46.280  27.863  27.774  1.00  0.00     0.031 A 
ATOM     81  C   UNL A   1      46.416  30.266  27.917  1.00  0.00     0.131 A 
ATOM     82  C   UNL A   1      47.594  27.848  27.262  1.00  0.00     0.055 A 
ATOM     83  C   UNL A   1      47.703  30.248  27.385  1.00  0.00     0.041 A 
ATOM     84  F   UNL A   1      45.890  31.468  28.207  1.00  0.00    -0.206 F 
ATOM     85  C   UNL A   1      48.302  29.037  27.064  1.00  0.00     0.022 A 
BRANCH  82  86
ATOM     86  S   UNL A   1      48.435  26.274  26.881  1.00  0.00     0.124 S 
ATOM     87  O   UNL A   1      47.578  25.659  25.876  1.00  0.00    -0.237 OA
ATOM     88  O   UNL A   1      49.746  26.721  26.416  1.00  0.00    -0.237 OA
ATOM     89  O   UNL A   1      48.455  25.581  28.172  1.00  0.00    -0.744 OA
ENDBRANCH  82  86
ENDBRANCH  56  79
ENDBRANCH  30  31
ENDBRANCH  22  25
ENDBRANCH  20  21
ENDBRANCH  19  20
ENDBRANCH   1  19
TORSDOF 17
ENDMDL
MODEL 3
REMARK VINA RESULT:     -11.1      2.670      7.397
REMARK SMILES Cc1nsc(NCC(C)C)c1C(=O)NCCCCNC(=O)c1ccc(-c2c3nc(c(-c4cc(S(=O)(=O)[O-])ccc4F)c4ccc([nH]4)c(-c4cc(S(=O)(=O)[O-])ccc4F)c4nc(c(-c5cc(S(=O)(=O)[O-])ccc5F)c5ccc2[nH]5)C=C4)C=C3)cc1
REMARK SMILES IDX 16 1 15 2 14 3 12 4 13 5 11 7 1 8 2 9 3 10 4 11 5 12 6 13
REMARK SMILES IDX 7 15 8 16 9 17 10 18 17 19 18 20 19 21 20 22 21 24 22 25
REMARK SMILES IDX 23 26 84 27 24 28 83 29 25 30 26 31 27 32 77 33 28 34 82 35
REMARK SMILES IDX 76 36 78 37 29 38 81 39 75 40 74 41 30 43 62 44 42 45 61 46
REMARK SMILES IDX 43 47 46 48 60 49 79 50 44 51 45 52 59 54 80 55 47 56 31 57
REMARK SMILES IDX 32 58 40 59 33 60 39 61 41 62 38 63 34 64 35 65 36 66 37 67
REMARK SMILES IDX 63 68 64 69 72 70 65 71 71 72 73 73 70 74 66 75 67 76 68 77
REMARK SMILES IDX 69 78 48 79 49 80 57 81 50 82 56 83 58 84 55 85 51 86 52 87
REMARK SMILES IDX 53 88 54 89
REMARK H PARENT 14 6 6 14 19 23 78 42 46 53
REMARK Flexibility Score: inf
ROOT
ATOM      1  C   UNL A   1      33.255  28.075  26.849  1.00  0.00     0.023 C 
ENDROOT
BRANCH   1   2
ATOM      2  C   UNL A   1      31.778  28.307  27.190  1.00  0.00     0.116 C 
BRANCH   2   3
ATOM      3  N   UNL A   1      31.032  27.079  27.085  1.00  0.00    -0.352 N 
ATOM      4  C   UNL A   1      30.724  26.195  26.090  1.00  0.00     0.256 C 
ATOM      5  O   UNL A   1      29.986  25.283  26.497  1.00  0.00    -0.269 OA
ATOM      6  H   UNL A   1      30.645  26.810  27.950  1.00  0.00     0.163 HD
BRANCH   4   7
ATOM      7  C   UNL A   1      31.198  26.211  24.687  1.00  0.00     0.097 A 
ATOM      8  C   UNL A   1      29.619  27.797  23.194  1.00  0.00     0.069 C 
ATOM      9  C   UNL A   1      30.769  26.894  23.465  1.00  0.00     0.066 A 
ATOM     10  N   UNL A   1      31.492  26.657  22.368  1.00  0.00    -0.195 NA
ATOM     11  S   UNL A   1      32.677  25.592  22.702  1.00  0.00    -0.018 S 
ATOM     12  C   UNL A   1      32.270  25.355  24.346  1.00  0.00     0.122 A 
BRANCH  12  13
ATOM     13  N   UNL A   1      32.901  24.477  25.178  1.00  0.00    -0.375 N 
ATOM     14  H   UNL A   1      32.412  23.654  25.406  1.00  0.00     0.161 HD
BRANCH  13  15
ATOM     15  C   UNL A   1      34.217  24.632  25.760  1.00  0.00     0.116 C 
BRANCH  15  16
ATOM     16  C   UNL A   1      35.088  23.401  25.462  1.00  0.00     0.002 C 
ATOM     17  C   UNL A   1      36.579  23.701  25.649  1.00  0.00     0.009 C 
ATOM     18  C   UNL A   1      34.675  22.242  26.371  1.00  0.00     0.009 C 
ENDBRANCH  15  16
ENDBRANCH  13  15
ENDBRANCH  12  13
ENDBRANCH   4   7
ENDBRANCH   2   3
ENDBRANCH   1   2
BRANCH   1  19
ATOM     19  C   UNL A   1      34.089  29.341  26.609  1.00  0.00     0.023 C 
BRANCH  19  20
ATOM     20  C   UNL A   1      34.163  30.289  27.799  1.00  0.00     0.116 C 
BRANCH  20  21
ATOM     21  N   UNL A   1      34.816  31.557  27.475  1.00  0.00    -0.352 N 
ATOM     22  C   UNL A   1      35.985  32.056  28.008  1.00  0.00     0.251 C 
ATOM     23  H   UNL A   1      34.368  32.118  26.801  1.00  0.00     0.163 HD
ATOM     24  O   UNL A   1      36.213  33.268  27.995  1.00  0.00    -0.269 OA
BRANCH  22  25
ATOM     25  C   UNL A   1      36.960  31.113  28.577  1.00  0.00     0.039 A 
ATOM     26  C   UNL A   1      36.957  29.758  28.240  1.00  0.00     0.014 A 
ATOM     27  C   UNL A   1      37.931  31.636  29.431  1.00  0.00     0.014 A 
ATOM     28  C   UNL A   1      37.996  28.951  28.700  1.00  0.00     0.010 A 
ATOM     29  C   UNL A   1      39.021  30.874  29.773  1.00  0.00     0.010 A 
ATOM     30  C   UNL A   1      39.042  29.522  29.448  1.00  0.00    -0.014 A 
BRANCH  30  31
ATOM     31  C   UNL A   1      40.253  28.760  29.754  1.00  0.00     0.031 A 
ATOM     32  C   UNL A   1      40.467  28.535  31.210  1.00  0.00     0.074 A 
ATOM     33  C   UNL A   1      40.984  28.113  28.817  1.00  0.00     0.049 A 
ATOM     34  N   UNL A   1      41.374  29.068  31.959  1.00  0.00    -0.248 NA
ATOM     35  C   UNL A   1      39.454  27.778  31.966  1.00  0.00     0.031 C 
ATOM     36  C   UNL A   1      40.718  28.008  27.379  1.00  0.00     0.029 A 
ATOM     37  N   UNL A   1      42.073  27.309  28.971  1.00  0.00    -0.354 N 
ATOM     38  C   UNL A   1      41.218  28.492  33.216  1.00  0.00     0.074 A 
ATOM     39  C   UNL A   1      39.902  27.915  33.217  1.00  0.00     0.031 C 
ATOM     40  C   UNL A   1      41.460  27.009  26.849  1.00  0.00     0.029 A 
ATOM     41  C   UNL A   1      42.370  26.509  27.865  1.00  0.00     0.049 A 
ATOM     42  H   UNL A   1      42.609  27.292  29.797  1.00  0.00     0.167 HD
ATOM     43  C   UNL A   1      42.292  28.306  34.035  1.00  0.00     0.034 A 
ATOM     44  C   UNL A   1      43.279  25.494  27.791  1.00  0.00     0.034 A 
ATOM     45  C   UNL A   1      43.424  29.086  33.574  1.00  0.00     0.049 A 
ATOM     46  C   UNL A   1      44.262  25.731  28.878  1.00  0.00     0.074 A 
ATOM     47  C   UNL A   1      43.633  30.428  33.318  1.00  0.00     0.029 A 
ATOM     48  N   UNL A   1      44.434  28.427  32.906  1.00  0.00    -0.354 N 
ATOM     49  N   UNL A   1      45.054  26.769  28.905  1.00  0.00    -0.248 NA
ATOM     50  C   UNL A   1      44.006  25.117  30.171  1.00  0.00     0.031 C 
ATOM     51  C   UNL A   1      44.398  30.454  32.112  1.00  0.00     0.029 A 
ATOM     52  C   UNL A   1      44.711  29.139  31.763  1.00  0.00     0.049 A 
ATOM     53  H   UNL A   1      44.878  27.597  33.195  1.00  0.00     0.167 HD
ATOM     54  C   UNL A   1      45.012  27.213  30.218  1.00  0.00     0.074 A 
ATOM     55  C   UNL A   1      44.431  26.100  30.972  1.00  0.00     0.031 C 
ATOM     56  C   UNL A   1      45.174  28.536  30.526  1.00  0.00     0.034 A 
BRANCH  43  57
ATOM     57  C   UNL A   1      42.468  27.143  34.994  1.00  0.00     0.023 A 
ATOM     58  C   UNL A   1      43.315  26.098  34.574  1.00  0.00     0.031 A 
ATOM     59  C   UNL A   1      41.657  26.855  36.115  1.00  0.00     0.131 A 
ATOM     60  C   UNL A   1      43.236  24.821  35.157  1.00  0.00     0.055 A 
ATOM     61  C   UNL A   1      41.632  25.602  36.735  1.00  0.00     0.041 A 
ATOM     62  F   UNL A   1      40.780  27.727  36.623  1.00  0.00    -0.206 F 
ATOM     63  C   UNL A   1      42.395  24.563  36.233  1.00  0.00     0.022 A 
BRANCH  60  64
ATOM     64  S   UNL A   1      44.110  23.458  34.348  1.00  0.00     0.124 S 
ATOM     65  O   UNL A   1      45.251  24.154  33.760  1.00  0.00    -0.237 OA
ATOM     66  O   UNL A   1      44.403  22.579  35.475  1.00  0.00    -0.237 OA
ATOM     67  O   UNL A   1      43.130  22.946  33.395  1.00  0.00    -0.744 OA
ENDBRANCH  60  64
ENDBRANCH  43  57
BRANCH  44  68
ATOM     68  C   UNL A   1      43.134  24.184  27.082  1.00  0.00     0.023 A 
ATOM     69  C   UNL A   1      44.041  23.728  26.094  1.00  0.00     0.031 A 
ATOM     70  C   UNL A   1      42.215  23.229  27.574  1.00  0.00     0.131 A 
ATOM     71  C   UNL A   1      44.005  22.380  25.652  1.00  0.00     0.055 A 
ATOM     72  C   UNL A   1      42.187  21.902  27.136  1.00  0.00     0.041 A 
ATOM     73  F   UNL A   1      41.363  23.529  28.567  1.00  0.00    -0.206 F 
ATOM     74  C   UNL A   1      43.090  21.468  26.182  1.00  0.00     0.022 A 
BRANCH  71  75
ATOM     75  S   UNL A   1      45.216  21.750  24.436  1.00  0.00     0.124 S 
ATOM     76  O   UNL A   1      46.383  21.485  25.268  1.00  0.00    -0.237 OA
ATOM     77  O   UNL A   1      44.533  20.587  23.881  1.00  0.00    -0.237 OA
ATOM     78  O   UNL A   1      45.373  22.867  23.501  1.00  0.00    -0.744 OA
ENDBRANCH  71  75
ENDBRANCH  44  68
BRANCH  56  79
ATOM     79  C   UNL A   1      45.697  29.473  29.449  1.00  0.00     0.023 A 
ATOM     80  C   UNL A   1      44.898  30.253  28.578  1.00  0.00     0.031 A 
ATOM     81  C   UNL A   1      47.091  29.643  29.369  1.00  0.00     0.131 A 
ATOM     82  C   UNL A   1      45.506  31.138  27.662  1.00  0.00     0.055 A 
ATOM     83  C   UNL A   1      47.686  30.538  28.482  1.00  0.00     0.041 A 
ATOM     84  F   UNL A   1      47.909  28.951  30.181  1.00  0.00    -0.206 F 
ATOM     85  C   UNL A   1      46.895  31.282  27.617  1.00  0.00     0.022 A 
BRANCH  82  86
ATOM     86  S   UNL A   1      44.504  32.091  26.472  1.00  0.00     0.124 S 
ATOM     87  O   UNL A   1      43.412  31.186  26.137  1.00  0.00    -0.237 OA
ATOM     88  O   UNL A   1      44.137  33.274  27.246  1.00  0.00    -0.237 OA
ATOM     89  O   UNL A   1      45.439  32.351  25.375  1.00  0.00    -0.744 OA
ENDBRANCH  82  86
ENDBRANCH  56  79
ENDBRANCH  30  31
ENDBRANCH  22  25
ENDBRANCH  20  21
ENDBRANCH  19  20
ENDBRANCH   1  19
TORSDOF 17
ENDMDL
