MODEL 1
REMARK VINA RESULT:     -11.5      0.000      0.000
REMARK SMILES C[C@@H](C(=O)NCCCCNC(=O)c1ccc(-c2c3nc(c(-c4cc(S(=O)(=O)[O-])ccc4F)c4ccc([nH]4)c(-c4cc(S(=O)(=O)[O-])ccc4F)c4nc(c(-c5cc(S(=O)(=O)[O-])ccc5F)c5ccc2[nH]5)C=C4)C=C3)cc1)c1cc(/C=C/S(C)(=O)=O)cc(C(=O)c2ccccc2)c1
REMARK SMILES IDX 7 1 6 2 5 3 3 4 4 5 2 7 1 8 76 9 77 10 95 11 78 12 86 13
REMARK SMILES IDX 85 14 79 15 80 16 81 17 82 18 83 19 84 20 87 21 88 22 89 23
REMARK SMILES IDX 90 24 94 25 91 26 93 27 92 28 8 29 9 30 10 31 11 32 12 34
REMARK SMILES IDX 13 35 14 36 75 37 15 38 74 39 16 40 17 41 18 42 68 43 19 44
REMARK SMILES IDX 73 45 67 46 69 47 20 48 72 49 66 50 65 51 21 53 53 54 33 55
REMARK SMILES IDX 52 56 34 57 37 58 51 59 70 60 35 61 36 62 50 64 71 65 38 66
REMARK SMILES IDX 22 67 23 68 31 69 24 70 30 71 32 72 29 73 25 74 26 75 27 76
REMARK SMILES IDX 28 77 54 78 55 79 63 80 56 81 62 82 64 83 61 84 57 85 58 86
REMARK SMILES IDX 59 87 60 88 39 89 40 90 48 91 41 92 47 93 49 94 46 95 42 96
REMARK SMILES IDX 43 97 44 98 45 99
REMARK H PARENT 5 6 10 33 69 52 37 63
REMARK Flexibility Score: inf
ROOT
ATOM      1  C   UNL A   1      37.494  19.822  25.007  1.00  0.00     0.023 C 
ENDROOT
BRANCH   1   2
ATOM      2  C   UNL A   1      37.758  21.316  25.212  1.00  0.00     0.116 C 
BRANCH   2   3
ATOM      3  N   UNL A   1      37.629  22.036  23.961  1.00  0.00    -0.356 N 
ATOM      4  C   UNL A   1      36.676  22.937  23.576  1.00  0.00     0.227 C 
ATOM      5  O   UNL A   1      36.559  23.132  22.366  1.00  0.00    -0.274 OA
ATOM      6  H   UNL A   1      38.327  21.850  23.292  1.00  0.00     0.163 HD
BRANCH   4   7
ATOM      7  C   UNL A   1      35.824  23.637  24.650  1.00  0.00     0.105 C 
ATOM      8  C   UNL A   1      36.703  23.872  25.887  1.00  0.00     0.023 C 
BRANCH   7   9
ATOM      9  C   UNL A   1      34.500  22.959  25.030  1.00  0.00    -0.035 A 
ATOM     10  C   UNL A   1      34.272  21.580  24.919  1.00  0.00     0.012 A 
ATOM     11  C   UNL A   1      33.424  23.751  25.458  1.00  0.00     0.016 A 
ATOM     12  C   UNL A   1      33.056  20.979  25.293  1.00  0.00    -0.024 A 
ATOM     13  C   UNL A   1      32.186  23.194  25.801  1.00  0.00     0.023 A 
ATOM     14  C   UNL A   1      32.018  21.805  25.743  1.00  0.00     0.020 A 
BRANCH  12  15
ATOM     15  C   UNL A   1      32.834  19.520  25.198  1.00  0.00     0.020 C 
ATOM     16  C   UNL A   1      33.656  18.654  24.583  1.00  0.00     0.106 C 
BRANCH  16  17
ATOM     17  S   UNL A   1      33.246  16.971  24.467  1.00  0.00     0.168 S 
ATOM     18  C   UNL A   1      34.693  16.221  25.179  1.00  0.00     0.163 C 
ATOM     19  O   UNL A   1      32.138  16.703  25.363  1.00  0.00    -0.225 OA
ATOM     20  O   UNL A   1      33.189  16.555  23.079  1.00  0.00    -0.225 OA
ENDBRANCH  16  17
ENDBRANCH  12  15
BRANCH  13  21
ATOM     21  C   UNL A   1      31.057  24.055  26.266  1.00  0.00     0.193 C 
ATOM     22  O   UNL A   1      30.364  23.712  27.217  1.00  0.00    -0.289 OA
BRANCH  21  23
ATOM     23  C   UNL A   1      30.779  25.360  25.615  1.00  0.00     0.022 A 
ATOM     24  C   UNL A   1      31.330  26.517  26.175  1.00  0.00     0.012 A 
ATOM     25  C   UNL A   1      30.004  25.440  24.450  1.00  0.00     0.012 A 
ATOM     26  C   UNL A   1      31.145  27.748  25.543  1.00  0.00     0.001 A 
ATOM     27  C   UNL A   1      29.827  26.674  23.821  1.00  0.00     0.001 A 
ATOM     28  C   UNL A   1      30.402  27.823  24.364  1.00  0.00     0.000 A 
ENDBRANCH  21  23
ENDBRANCH  13  21
ENDBRANCH   7   9
ENDBRANCH   4   7
ENDBRANCH   2   3
ENDBRANCH   1   2
BRANCH   1  29
ATOM     29  C   UNL A   1      38.677  18.914  25.343  1.00  0.00     0.023 C 
BRANCH  29  30
ATOM     30  C   UNL A   1      39.717  19.543  26.256  1.00  0.00     0.116 C 
BRANCH  30  31
ATOM     31  N   UNL A   1      41.024  18.923  26.114  1.00  0.00    -0.352 N 
ATOM     32  C   UNL A   1      42.260  19.523  26.091  1.00  0.00     0.251 C 
ATOM     33  H   UNL A   1      41.025  17.943  26.020  1.00  0.00     0.163 HD
ATOM     34  O   UNL A   1      43.252  18.871  25.781  1.00  0.00    -0.269 OA
BRANCH  32  35
ATOM     35  C   UNL A   1      42.368  20.963  26.413  1.00  0.00     0.039 A 
ATOM     36  C   UNL A   1      42.559  21.350  27.739  1.00  0.00     0.014 A 
ATOM     37  C   UNL A   1      42.316  21.920  25.396  1.00  0.00     0.014 A 
ATOM     38  C   UNL A   1      42.760  22.698  28.039  1.00  0.00     0.010 A 
ATOM     39  C   UNL A   1      42.602  23.250  25.687  1.00  0.00     0.010 A 
ATOM     40  C   UNL A   1      42.819  23.655  27.012  1.00  0.00    -0.014 A 
BRANCH  40  41
ATOM     41  C   UNL A   1      43.080  25.088  27.301  1.00  0.00     0.031 A 
ATOM     42  C   UNL A   1      44.453  25.658  27.067  1.00  0.00     0.074 A 
ATOM     43  C   UNL A   1      42.109  25.855  27.834  1.00  0.00     0.049 A 
ATOM     44  N   UNL A   1      44.916  26.849  27.347  1.00  0.00    -0.248 NA
ATOM     45  C   UNL A   1      45.446  24.753  26.468  1.00  0.00     0.031 C 
ATOM     46  C   UNL A   1      40.748  25.407  28.137  1.00  0.00     0.029 A 
ATOM     47  N   UNL A   1      42.118  27.170  28.227  1.00  0.00    -0.354 N 
ATOM     48  C   UNL A   1      46.255  26.832  26.972  1.00  0.00     0.074 A 
ATOM     49  C   UNL A   1      46.544  25.491  26.513  1.00  0.00     0.031 C 
ATOM     50  C   UNL A   1      40.048  26.436  28.642  1.00  0.00     0.029 A 
ATOM     51  C   UNL A   1      40.920  27.601  28.751  1.00  0.00     0.049 A 
ATOM     52  H   UNL A   1      42.907  27.753  28.140  1.00  0.00     0.167 HD
ATOM     53  C   UNL A   1      47.153  27.848  26.986  1.00  0.00     0.034 A 
ATOM     54  C   UNL A   1      40.572  28.792  29.279  1.00  0.00     0.034 A 
ATOM     55  C   UNL A   1      46.843  29.182  27.441  1.00  0.00     0.049 A 
ATOM     56  C   UNL A   1      41.599  29.896  29.324  1.00  0.00     0.074 A 
ATOM     57  C   UNL A   1      47.660  30.299  27.454  1.00  0.00     0.029 A 
ATOM     58  N   UNL A   1      45.621  29.578  27.973  1.00  0.00    -0.354 N 
ATOM     59  N   UNL A   1      42.851  29.878  28.925  1.00  0.00    -0.248 NA
ATOM     60  C   UNL A   1      41.164  31.183  29.881  1.00  0.00     0.031 C 
ATOM     61  C   UNL A   1      46.962  31.345  28.066  1.00  0.00     0.029 A 
ATOM     62  C   UNL A   1      45.676  30.911  28.349  1.00  0.00     0.049 A 
ATOM     63  H   UNL A   1      44.832  28.997  28.067  1.00  0.00     0.167 HD
ATOM     64  C   UNL A   1      43.339  31.162  29.151  1.00  0.00     0.074 A 
ATOM     65  C   UNL A   1      42.244  31.930  29.709  1.00  0.00     0.031 C 
ATOM     66  C   UNL A   1      44.578  31.665  28.912  1.00  0.00     0.034 A 
BRANCH  53  67
ATOM     67  C   UNL A   1      48.559  27.539  26.525  1.00  0.00     0.023 A 
ATOM     68  C   UNL A   1      49.604  27.310  27.437  1.00  0.00     0.031 A 
ATOM     69  C   UNL A   1      48.868  27.507  25.154  1.00  0.00     0.131 A 
ATOM     70  C   UNL A   1      50.918  27.147  26.974  1.00  0.00     0.055 A 
ATOM     71  C   UNL A   1      50.163  27.252  24.695  1.00  0.00     0.041 A 
ATOM     72  F   UNL A   1      47.921  27.742  24.232  1.00  0.00    -0.206 F 
ATOM     73  C   UNL A   1      51.201  27.088  25.608  1.00  0.00     0.022 A 
BRANCH  70  74
ATOM     74  S   UNL A   1      52.271  27.185  28.182  1.00  0.00     0.124 S 
ATOM     75  O   UNL A   1      51.618  26.643  29.371  1.00  0.00    -0.237 OA
ATOM     76  O   UNL A   1      53.274  26.331  27.559  1.00  0.00    -0.237 OA
ATOM     77  O   UNL A   1      52.618  28.602  28.263  1.00  0.00    -0.744 OA
ENDBRANCH  70  74
ENDBRANCH  53  67
BRANCH  54  78
ATOM     78  C   UNL A   1      39.199  29.006  29.819  1.00  0.00     0.023 A 
ATOM     79  C   UNL A   1      38.167  29.497  29.003  1.00  0.00     0.031 A 
ATOM     80  C   UNL A   1      38.906  28.764  31.174  1.00  0.00     0.131 A 
ATOM     81  C   UNL A   1      36.907  29.776  29.557  1.00  0.00     0.055 A 
ATOM     82  C   UNL A   1      37.635  28.987  31.707  1.00  0.00     0.041 A 
ATOM     83  F   UNL A   1      39.854  28.292  31.999  1.00  0.00    -0.206 F 
ATOM     84  C   UNL A   1      36.631  29.509  30.900  1.00  0.00     0.022 A 
BRANCH  81  85
ATOM     85  S   UNL A   1      35.660  30.580  28.515  1.00  0.00     0.124 S 
ATOM     86  O   UNL A   1      35.064  31.531  29.446  1.00  0.00    -0.237 OA
ATOM     87  O   UNL A   1      36.478  31.151  27.450  1.00  0.00    -0.237 OA
ATOM     88  O   UNL A   1      34.794  29.476  28.108  1.00  0.00    -0.744 OA
ENDBRANCH  81  85
ENDBRANCH  54  78
BRANCH  66  89
ATOM     89  C   UNL A   1      44.798  33.130  29.203  1.00  0.00     0.023 A 
ATOM     90  C   UNL A   1      45.262  33.582  30.450  1.00  0.00     0.031 A 
ATOM     91  C   UNL A   1      44.533  34.092  28.211  1.00  0.00     0.131 A 
ATOM     92  C   UNL A   1      45.392  34.958  30.691  1.00  0.00     0.055 A 
ATOM     93  C   UNL A   1      44.730  35.455  28.434  1.00  0.00     0.041 A 
ATOM     94  F   UNL A   1      44.082  33.720  27.001  1.00  0.00    -0.206 F 
ATOM     95  C   UNL A   1      45.149  35.897  29.685  1.00  0.00     0.022 A 
BRANCH  92  96
ATOM     96  S   UNL A   1      45.787  35.516  32.372  1.00  0.00     0.124 S 
ATOM     97  O   UNL A   1      46.754  36.579  32.117  1.00  0.00    -0.237 OA
ATOM     98  O   UNL A   1      44.485  35.946  32.872  1.00  0.00    -0.237 OA
ATOM     99  O   UNL A   1      46.333  34.321  33.011  1.00  0.00    -0.744 OA
ENDBRANCH  92  96
ENDBRANCH  66  89
ENDBRANCH  40  41
ENDBRANCH  32  35
ENDBRANCH  30  31
ENDBRANCH  29  30
ENDBRANCH   1  29
TORSDOF 19
ENDMDL
MODEL 2
REMARK VINA RESULT:     -11.4      1.750      2.042
REMARK SMILES C[C@@H](C(=O)NCCCCNC(=O)c1ccc(-c2c3nc(c(-c4cc(S(=O)(=O)[O-])ccc4F)c4ccc([nH]4)c(-c4cc(S(=O)(=O)[O-])ccc4F)c4nc(c(-c5cc(S(=O)(=O)[O-])ccc5F)c5ccc2[nH]5)C=C4)C=C3)cc1)c1cc(/C=C/S(C)(=O)=O)cc(C(=O)c2ccccc2)c1
REMARK SMILES IDX 7 1 6 2 5 3 3 4 4 5 2 7 1 8 76 9 77 10 95 11 78 12 86 13
REMARK SMILES IDX 85 14 79 15 80 16 81 17 82 18 83 19 84 20 87 21 88 22 89 23
REMARK SMILES IDX 90 24 94 25 91 26 93 27 92 28 8 29 9 30 10 31 11 32 12 34
REMARK SMILES IDX 13 35 14 36 75 37 15 38 74 39 16 40 17 41 18 42 68 43 19 44
REMARK SMILES IDX 73 45 67 46 69 47 20 48 72 49 66 50 65 51 21 53 53 54 33 55
REMARK SMILES IDX 52 56 34 57 37 58 51 59 70 60 35 61 36 62 50 64 71 65 38 66
REMARK SMILES IDX 22 67 23 68 31 69 24 70 30 71 32 72 29 73 25 74 26 75 27 76
REMARK SMILES IDX 28 77 54 78 55 79 63 80 56 81 62 82 64 83 61 84 57 85 58 86
REMARK SMILES IDX 59 87 60 88 39 89 40 90 48 91 41 92 47 93 49 94 46 95 42 96
REMARK SMILES IDX 43 97 44 98 45 99
REMARK H PARENT 5 6 10 33 69 52 37 63
REMARK Flexibility Score: inf
ROOT
ATOM      1  C   UNL A   1      37.408  19.821  25.169  1.00  0.00     0.023 C 
ENDROOT
BRANCH   1   2
ATOM      2  C   UNL A   1      37.467  21.326  25.445  1.00  0.00     0.116 C 
BRANCH   2   3
ATOM      3  N   UNL A   1      37.609  22.069  24.209  1.00  0.00    -0.356 N 
ATOM      4  C   UNL A   1      36.803  23.043  23.688  1.00  0.00     0.227 C 
ATOM      5  O   UNL A   1      36.913  23.261  22.482  1.00  0.00    -0.274 OA
ATOM      6  H   UNL A   1      38.398  21.840  23.667  1.00  0.00     0.163 HD
BRANCH   4   7
ATOM      7  C   UNL A   1      35.829  23.790  24.616  1.00  0.00     0.105 C 
ATOM      8  C   UNL A   1      36.497  23.952  25.989  1.00  0.00     0.023 C 
BRANCH   7   9
ATOM      9  C   UNL A   1      34.417  23.202  24.751  1.00  0.00    -0.035 A 
ATOM     10  C   UNL A   1      34.134  21.831  24.674  1.00  0.00     0.012 A 
ATOM     11  C   UNL A   1      33.326  24.071  24.900  1.00  0.00     0.016 A 
ATOM     12  C   UNL A   1      32.835  21.314  24.821  1.00  0.00    -0.024 A 
ATOM     13  C   UNL A   1      32.013  23.597  25.010  1.00  0.00     0.023 A 
ATOM     14  C   UNL A   1      31.777  22.216  24.997  1.00  0.00     0.020 A 
BRANCH  12  15
ATOM     15  C   UNL A   1      32.549  19.864  24.766  1.00  0.00     0.020 C 
ATOM     16  C   UNL A   1      33.457  18.910  24.499  1.00  0.00     0.106 C 
BRANCH  16  17
ATOM     17  S   UNL A   1      32.985  17.244  24.382  1.00  0.00     0.168 S 
ATOM     18  C   UNL A   1      34.266  16.462  25.335  1.00  0.00     0.163 C 
ATOM     19  O   UNL A   1      31.741  17.064  25.104  1.00  0.00    -0.225 OA
ATOM     20  O   UNL A   1      33.120  16.772  23.017  1.00  0.00    -0.225 OA
ENDBRANCH  16  17
ENDBRANCH  12  15
BRANCH  13  21
ATOM     21  C   UNL A   1      30.866  24.539  25.180  1.00  0.00     0.193 C 
ATOM     22  O   UNL A   1      30.096  24.418  26.127  1.00  0.00    -0.289 OA
BRANCH  21  23
ATOM     23  C   UNL A   1      30.660  25.664  24.234  1.00  0.00     0.022 A 
ATOM     24  C   UNL A   1      29.950  26.786  24.674  1.00  0.00     0.012 A 
ATOM     25  C   UNL A   1      31.183  25.627  22.935  1.00  0.00     0.012 A 
ATOM     26  C   UNL A   1      29.803  27.888  23.830  1.00  0.00     0.001 A 
ATOM     27  C   UNL A   1      31.038  26.734  22.098  1.00  0.00     0.001 A 
ATOM     28  C   UNL A   1      30.355  27.864  22.548  1.00  0.00     0.000 A 
ENDBRANCH  21  23
ENDBRANCH  13  21
ENDBRANCH   7   9
ENDBRANCH   4   7
ENDBRANCH   2   3
ENDBRANCH   1   2
BRANCH   1  29
ATOM     29  C   UNL A   1      38.745  19.094  25.314  1.00  0.00     0.023 C 
BRANCH  29  30
ATOM     30  C   UNL A   1      39.784  19.841  26.135  1.00  0.00     0.116 C 
BRANCH  30  31
ATOM     31  N   UNL A   1      41.095  19.215  26.067  1.00  0.00    -0.352 N 
ATOM     32  C   UNL A   1      42.332  19.808  26.141  1.00  0.00     0.251 C 
ATOM     33  H   UNL A   1      41.097  18.237  25.953  1.00  0.00     0.163 HD
ATOM     34  O   UNL A   1      43.339  19.156  25.883  1.00  0.00    -0.269 OA
BRANCH  32  35
ATOM     35  C   UNL A   1      42.425  21.239  26.499  1.00  0.00     0.039 A 
ATOM     36  C   UNL A   1      42.585  21.595  27.838  1.00  0.00     0.014 A 
ATOM     37  C   UNL A   1      42.392  22.221  25.504  1.00  0.00     0.014 A 
ATOM     38  C   UNL A   1      42.772  22.936  28.176  1.00  0.00     0.010 A 
ATOM     39  C   UNL A   1      42.665  23.544  25.834  1.00  0.00     0.010 A 
ATOM     40  C   UNL A   1      42.850  23.918  27.173  1.00  0.00    -0.014 A 
BRANCH  40  41
ATOM     41  C   UNL A   1      43.097  25.345  27.503  1.00  0.00     0.031 A 
ATOM     42  C   UNL A   1      44.486  25.910  27.374  1.00  0.00     0.074 A 
ATOM     43  C   UNL A   1      42.095  26.109  27.979  1.00  0.00     0.049 A 
ATOM     44  N   UNL A   1      44.934  27.093  27.705  1.00  0.00    -0.248 NA
ATOM     45  C   UNL A   1      45.514  25.008  26.831  1.00  0.00     0.031 C 
ATOM     46  C   UNL A   1      40.715  25.665  28.180  1.00  0.00     0.029 A 
ATOM     47  N   UNL A   1      42.083  27.418  28.393  1.00  0.00    -0.354 N 
ATOM     48  C   UNL A   1      46.296  27.074  27.423  1.00  0.00     0.074 A 
ATOM     49  C   UNL A   1      46.610  25.738  26.963  1.00  0.00     0.031 C 
ATOM     50  C   UNL A   1      39.986  26.690  28.651  1.00  0.00     0.029 A 
ATOM     51  C   UNL A   1      40.855  27.847  28.840  1.00  0.00     0.049 A 
ATOM     52  H   UNL A   1      42.880  27.997  28.370  1.00  0.00     0.167 HD
ATOM     53  C   UNL A   1      47.197  28.084  27.516  1.00  0.00     0.034 A 
ATOM     54  C   UNL A   1      40.476  29.032  29.361  1.00  0.00     0.034 A 
ATOM     55  C   UNL A   1      46.862  29.413  27.969  1.00  0.00     0.049 A 
ATOM     56  C   UNL A   1      41.503  30.129  29.495  1.00  0.00     0.074 A 
ATOM     57  C   UNL A   1      47.681  30.525  28.057  1.00  0.00     0.029 A 
ATOM     58  N   UNL A   1      45.608  29.808  28.421  1.00  0.00    -0.354 N 
ATOM     59  N   UNL A   1      42.780  30.110  29.183  1.00  0.00    -0.248 NA
ATOM     60  C   UNL A   1      41.037  31.410  30.041  1.00  0.00     0.031 C 
ATOM     61  C   UNL A   1      46.947  31.566  28.636  1.00  0.00     0.029 A 
ATOM     62  C   UNL A   1      45.643  31.135  28.822  1.00  0.00     0.049 A 
ATOM     63  H   UNL A   1      44.812  29.231  28.451  1.00  0.00     0.167 HD
ATOM     64  C   UNL A   1      43.258  31.387  29.464  1.00  0.00     0.074 A 
ATOM     65  C   UNL A   1      42.130  32.153  29.957  1.00  0.00     0.031 C 
ATOM     66  C   UNL A   1      44.513  31.886  29.319  1.00  0.00     0.034 A 
BRANCH  53  67
ATOM     67  C   UNL A   1      48.629  27.774  27.148  1.00  0.00     0.023 A 
ATOM     68  C   UNL A   1      49.139  28.041  25.865  1.00  0.00     0.031 A 
ATOM     69  C   UNL A   1      49.490  27.171  28.082  1.00  0.00     0.131 A 
ATOM     70  C   UNL A   1      50.435  27.629  25.524  1.00  0.00     0.055 A 
ATOM     71  C   UNL A   1      50.812  26.848  27.765  1.00  0.00     0.041 A 
ATOM     72  F   UNL A   1      49.057  26.868  29.316  1.00  0.00    -0.206 F 
ATOM     73  C   UNL A   1      51.286  27.059  26.474  1.00  0.00     0.022 A 
BRANCH  70  74
ATOM     74  S   UNL A   1      50.932  27.693  23.781  1.00  0.00     0.124 S 
ATOM     75  O   UNL A   1      52.239  27.042  23.824  1.00  0.00    -0.237 OA
ATOM     76  O   UNL A   1      49.868  26.947  23.122  1.00  0.00    -0.237 OA
ATOM     77  O   UNL A   1      50.968  29.124  23.488  1.00  0.00    -0.744 OA
ENDBRANCH  70  74
ENDBRANCH  53  67
BRANCH  54  78
ATOM     78  C   UNL A   1      39.070  29.246  29.808  1.00  0.00     0.023 A 
ATOM     79  C   UNL A   1      38.153  29.945  29.006  1.00  0.00     0.031 A 
ATOM     80  C   UNL A   1      38.631  28.792  31.064  1.00  0.00     0.131 A 
ATOM     81  C   UNL A   1      36.861  30.213  29.488  1.00  0.00     0.055 A 
ATOM     82  C   UNL A   1      37.328  29.009  31.515  1.00  0.00     0.041 A 
ATOM     83  F   UNL A   1      39.464  28.116  31.871  1.00  0.00    -0.206 F 
ATOM     84  C   UNL A   1      36.439  29.735  30.731  1.00  0.00     0.022 A 
BRANCH  81  85
ATOM     85  S   UNL A   1      35.770  31.275  28.503  1.00  0.00     0.124 S 
ATOM     86  O   UNL A   1      36.698  32.298  28.035  1.00  0.00    -0.237 OA
ATOM     87  O   UNL A   1      35.275  30.346  27.493  1.00  0.00    -0.237 OA
ATOM     88  O   UNL A   1      34.774  31.729  29.472  1.00  0.00    -0.744 OA
ENDBRANCH  81  85
ENDBRANCH  54  78
BRANCH  66  89
ATOM     89  C   UNL A   1      44.719  33.346  29.649  1.00  0.00     0.023 A 
ATOM     90  C   UNL A   1      44.604  34.353  28.676  1.00  0.00     0.031 A 
ATOM     91  C   UNL A   1      45.041  33.731  30.963  1.00  0.00     0.131 A 
ATOM     92  C   UNL A   1      44.865  35.689  29.019  1.00  0.00     0.055 A 
ATOM     93  C   UNL A   1      45.232  35.068  31.313  1.00  0.00     0.041 A 
ATOM     94  F   UNL A   1      45.169  32.811  31.934  1.00  0.00    -0.206 F 
ATOM     95  C   UNL A   1      45.158  36.056  30.335  1.00  0.00     0.022 A 
BRANCH  92  96
ATOM     96  S   UNL A   1      44.916  36.934  27.700  1.00  0.00     0.124 S 
ATOM     97  O   UNL A   1      43.500  37.226  27.505  1.00  0.00    -0.237 OA
ATOM     98  O   UNL A   1      45.709  37.999  28.308  1.00  0.00    -0.237 OA
ATOM     99  O   UNL A   1      45.564  36.235  26.593  1.00  0.00    -0.744 OA
ENDBRANCH  92  96
ENDBRANCH  66  89
ENDBRANCH  40  41
ENDBRANCH  32  35
ENDBRANCH  30  31
ENDBRANCH  29  30
ENDBRANCH   1  29
TORSDOF 19
ENDMDL
MODEL 3
REMARK VINA RESULT:     -11.4      2.682      8.373
REMARK SMILES C[C@@H](C(=O)NCCCCNC(=O)c1ccc(-c2c3nc(c(-c4cc(S(=O)(=O)[O-])ccc4F)c4ccc([nH]4)c(-c4cc(S(=O)(=O)[O-])ccc4F)c4nc(c(-c5cc(S(=O)(=O)[O-])ccc5F)c5ccc2[nH]5)C=C4)C=C3)cc1)c1cc(/C=C/S(C)(=O)=O)cc(C(=O)c2ccccc2)c1
REMARK SMILES IDX 7 1 6 2 5 3 3 4 4 5 2 7 1 8 76 9 77 10 95 11 78 12 86 13
REMARK SMILES IDX 85 14 79 15 80 16 81 17 82 18 83 19 84 20 87 21 88 22 89 23
REMARK SMILES IDX 90 24 94 25 91 26 93 27 92 28 8 29 9 30 10 31 11 32 12 34
REMARK SMILES IDX 13 35 14 36 75 37 15 38 74 39 16 40 17 41 18 42 68 43 19 44
REMARK SMILES IDX 73 45 67 46 69 47 20 48 72 49 66 50 65 51 21 53 53 54 33 55
REMARK SMILES IDX 52 56 34 57 37 58 51 59 70 60 35 61 36 62 50 64 71 65 38 66
REMARK SMILES IDX 22 67 23 68 31 69 24 70 30 71 32 72 29 73 25 74 26 75 27 76
REMARK SMILES IDX 28 77 54 78 55 79 63 80 56 81 62 82 64 83 61 84 57 85 58 86
REMARK SMILES IDX 59 87 60 88 39 89 40 90 48 91 41 92 47 93 49 94 46 95 42 96
REMARK SMILES IDX 43 97 44 98 45 99
REMARK H PARENT 5 6 10 33 69 52 37 63
REMARK Flexibility Score: inf
ROOT
ATOM      1  C   UNL A   1      40.163  23.084  26.784  1.00  0.00     0.023 C 
ENDROOT
BRANCH   1   2
ATOM      2  C   UNL A   1      38.737  23.592  27.016  1.00  0.00     0.116 C 
BRANCH   2   3
ATOM      3  N   UNL A   1      38.111  23.954  25.760  1.00  0.00    -0.356 N 
ATOM      4  C   UNL A   1      37.297  23.209  24.953  1.00  0.00     0.227 C 
ATOM      5  O   UNL A   1      37.190  23.581  23.785  1.00  0.00    -0.274 OA
ATOM      6  H   UNL A   1      38.299  24.867  25.442  1.00  0.00     0.163 HD
BRANCH   4   7
ATOM      7  C   UNL A   1      36.580  21.979  25.537  1.00  0.00     0.105 C 
ATOM      8  C   UNL A   1      37.297  20.718  25.034  1.00  0.00     0.023 C 
BRANCH   7   9
ATOM      9  C   UNL A   1      35.065  21.888  25.301  1.00  0.00    -0.035 A 
ATOM     10  C   UNL A   1      34.146  22.838  25.770  1.00  0.00     0.012 A 
ATOM     11  C   UNL A   1      34.543  20.770  24.634  1.00  0.00     0.016 A 
ATOM     12  C   UNL A   1      32.764  22.743  25.524  1.00  0.00    -0.024 A 
ATOM     13  C   UNL A   1      33.169  20.621  24.405  1.00  0.00     0.023 A 
ATOM     14  C   UNL A   1      32.289  21.624  24.828  1.00  0.00     0.020 A 
BRANCH  12  15
ATOM     15  C   UNL A   1      31.805  23.764  25.999  1.00  0.00     0.020 C 
ATOM     16  C   UNL A   1      31.331  24.779  25.257  1.00  0.00     0.106 C 
BRANCH  16  17
ATOM     17  S   UNL A   1      30.270  25.964  25.950  1.00  0.00     0.168 S 
ATOM     18  C   UNL A   1      29.656  26.766  24.487  1.00  0.00     0.163 C 
ATOM     19  O   UNL A   1      29.150  25.278  26.565  1.00  0.00    -0.225 OA
ATOM     20  O   UNL A   1      31.026  26.953  26.694  1.00  0.00    -0.225 OA
ENDBRANCH  16  17
ENDBRANCH  12  15
BRANCH  13  21
ATOM     21  C   UNL A   1      32.635  19.427  23.682  1.00  0.00     0.193 C 
ATOM     22  O   UNL A   1      31.963  19.565  22.666  1.00  0.00    -0.289 OA
BRANCH  21  23
ATOM     23  C   UNL A   1      32.942  18.053  24.153  1.00  0.00     0.022 A 
ATOM     24  C   UNL A   1      33.900  17.307  23.459  1.00  0.00     0.012 A 
ATOM     25  C   UNL A   1      32.311  17.514  25.282  1.00  0.00     0.012 A 
ATOM     26  C   UNL A   1      34.259  16.040  23.922  1.00  0.00     0.001 A 
ATOM     27  C   UNL A   1      32.679  16.249  25.743  1.00  0.00     0.001 A 
ATOM     28  C   UNL A   1      33.656  15.518  25.067  1.00  0.00     0.000 A 
ENDBRANCH  21  23
ENDBRANCH  13  21
ENDBRANCH   7   9
ENDBRANCH   4   7
ENDBRANCH   2   3
ENDBRANCH   1   2
BRANCH   1  29
ATOM     29  C   UNL A   1      40.346  21.581  26.995  1.00  0.00     0.023 C 
BRANCH  29  30
ATOM     30  C   UNL A   1      40.427  20.768  25.714  1.00  0.00     0.116 C 
BRANCH  30  31
ATOM     31  N   UNL A   1      41.485  19.771  25.759  1.00  0.00    -0.352 N 
ATOM     32  C   UNL A   1      42.838  19.964  25.899  1.00  0.00     0.251 C 
ATOM     33  H   UNL A   1      41.194  18.834  25.678  1.00  0.00     0.163 HD
ATOM     34  O   UNL A   1      43.610  19.025  25.734  1.00  0.00    -0.269 OA
BRANCH  32  35
ATOM     35  C   UNL A   1      43.344  21.317  26.215  1.00  0.00     0.039 A 
ATOM     36  C   UNL A   1      43.502  22.242  25.181  1.00  0.00     0.014 A 
ATOM     37  C   UNL A   1      43.626  21.677  27.536  1.00  0.00     0.014 A 
ATOM     38  C   UNL A   1      43.884  23.549  25.482  1.00  0.00     0.010 A 
ATOM     39  C   UNL A   1      43.923  23.001  27.840  1.00  0.00     0.010 A 
ATOM     40  C   UNL A   1      44.063  23.950  26.817  1.00  0.00    -0.014 A 
BRANCH  40  41
ATOM     41  C   UNL A   1      44.423  25.348  27.165  1.00  0.00     0.031 A 
ATOM     42  C   UNL A   1      43.366  26.279  27.696  1.00  0.00     0.074 A 
ATOM     43  C   UNL A   1      45.673  25.797  26.943  1.00  0.00     0.049 A 
ATOM     44  N   UNL A   1      43.445  27.557  27.964  1.00  0.00    -0.248 NA
ATOM     45  C   UNL A   1      42.033  25.700  27.923  1.00  0.00     0.031 C 
ATOM     46  C   UNL A   1      46.775  24.999  26.401  1.00  0.00     0.029 A 
ATOM     47  N   UNL A   1      46.229  27.038  27.134  1.00  0.00    -0.354 N 
ATOM     48  C   UNL A   1      42.173  27.937  28.377  1.00  0.00     0.074 A 
ATOM     49  C   UNL A   1      41.327  26.769  28.254  1.00  0.00     0.031 C 
ATOM     50  C   UNL A   1      47.878  25.761  26.330  1.00  0.00     0.029 A 
ATOM     51  C   UNL A   1      47.553  27.115  26.766  1.00  0.00     0.049 A 
ATOM     52  H   UNL A   1      45.727  27.801  27.502  1.00  0.00     0.167 HD
ATOM     53  C   UNL A   1      41.754  29.141  28.840  1.00  0.00     0.034 A 
ATOM     54  C   UNL A   1      48.401  28.163  26.761  1.00  0.00     0.034 A 
ATOM     55  C   UNL A   1      42.616  30.292  28.963  1.00  0.00     0.049 A 
ATOM     56  C   UNL A   1      47.904  29.505  27.240  1.00  0.00     0.074 A 
ATOM     57  C   UNL A   1      42.311  31.546  29.464  1.00  0.00     0.029 A 
ATOM     58  N   UNL A   1      43.949  30.335  28.573  1.00  0.00    -0.354 N 
ATOM     59  N   UNL A   1      46.707  29.838  27.669  1.00  0.00    -0.248 NA
ATOM     60  C   UNL A   1      48.873  30.607  27.243  1.00  0.00     0.031 C 
ATOM     61  C   UNL A   1      43.432  32.366  29.302  1.00  0.00     0.029 A 
ATOM     62  C   UNL A   1      44.468  31.602  28.789  1.00  0.00     0.049 A 
ATOM     63  H   UNL A   1      44.452  29.576  28.199  1.00  0.00     0.167 HD
ATOM     64  C   UNL A   1      46.793  31.181  28.026  1.00  0.00     0.074 A 
ATOM     65  C   UNL A   1      48.160  31.590  27.774  1.00  0.00     0.031 C 
ATOM     66  C   UNL A   1      45.832  32.000  28.526  1.00  0.00     0.034 A 
BRANCH  53  67
ATOM     67  C   UNL A   1      40.296  29.273  29.213  1.00  0.00     0.023 A 
ATOM     68  C   UNL A   1      39.872  29.267  30.554  1.00  0.00     0.031 A 
ATOM     69  C   UNL A   1      39.310  29.372  28.215  1.00  0.00     0.131 A 
ATOM     70  C   UNL A   1      38.502  29.269  30.858  1.00  0.00     0.055 A 
ATOM     71  C   UNL A   1      37.952  29.468  28.527  1.00  0.00     0.041 A 
ATOM     72  F   UNL A   1      39.648  29.358  26.916  1.00  0.00    -0.206 F 
ATOM     73  C   UNL A   1      37.539  29.399  29.854  1.00  0.00     0.022 A 
BRANCH  70  74
ATOM     74  S   UNL A   1      37.995  28.930  32.566  1.00  0.00     0.124 S 
ATOM     75  O   UNL A   1      38.129  27.477  32.629  1.00  0.00    -0.237 OA
ATOM     76  O   UNL A   1      38.964  29.696  33.341  1.00  0.00    -0.237 OA
ATOM     77  O   UNL A   1      36.621  29.423  32.620  1.00  0.00    -0.744 OA
ENDBRANCH  70  74
ENDBRANCH  53  67
BRANCH  54  78
ATOM     78  C   UNL A   1      49.803  27.998  26.279  1.00  0.00     0.023 A 
ATOM     79  C   UNL A   1      50.144  28.262  24.942  1.00  0.00     0.031 A 
ATOM     80  C   UNL A   1      50.816  27.534  27.136  1.00  0.00     0.131 A 
ATOM     81  C   UNL A   1      51.451  28.013  24.491  1.00  0.00     0.055 A 
ATOM     82  C   UNL A   1      52.127  27.343  26.697  1.00  0.00     0.041 A 
ATOM     83  F   UNL A   1      50.546  27.268  28.424  1.00  0.00    -0.206 F 
ATOM     84  C   UNL A   1      52.447  27.571  25.363  1.00  0.00     0.022 A 
BRANCH  81  85
ATOM     85  S   UNL A   1      51.805  28.190  22.721  1.00  0.00     0.124 S 
ATOM     86  O   UNL A   1      52.021  26.803  22.323  1.00  0.00    -0.237 OA
ATOM     87  O   UNL A   1      50.583  28.816  22.228  1.00  0.00    -0.237 OA
ATOM     88  O   UNL A   1      52.993  29.040  22.696  1.00  0.00    -0.744 OA
ENDBRANCH  81  85
ENDBRANCH  54  78
BRANCH  66  89
ATOM     89  C   UNL A   1      46.242  33.409  28.884  1.00  0.00     0.023 A 
ATOM     90  C   UNL A   1      46.064  34.486  27.998  1.00  0.00     0.031 A 
ATOM     91  C   UNL A   1      46.827  33.675  30.136  1.00  0.00     0.131 A 
ATOM     92  C   UNL A   1      46.517  35.766  28.354  1.00  0.00     0.055 A 
ATOM     93  C   UNL A   1      47.213  34.962  30.511  1.00  0.00     0.041 A 
ATOM     94  F   UNL A   1      47.028  32.684  31.021  1.00  0.00    -0.206 F 
ATOM     95  C   UNL A   1      47.072  36.015  29.612  1.00  0.00     0.022 A 
BRANCH  92  96
ATOM     96  S   UNL A   1      46.465  37.086  27.111  1.00  0.00     0.124 S 
ATOM     97  O   UNL A   1      47.111  36.450  25.967  1.00  0.00    -0.237 OA
ATOM     98  O   UNL A   1      45.033  37.333  26.979  1.00  0.00    -0.237 OA
ATOM     99  O   UNL A   1      47.226  38.170  27.729  1.00  0.00    -0.744 OA
ENDBRANCH  92  96
ENDBRANCH  66  89
ENDBRANCH  40  41
ENDBRANCH  32  35
ENDBRANCH  30  31
ENDBRANCH  29  30
ENDBRANCH   1  29
TORSDOF 19
ENDMDL
