MODEL 1
REMARK VINA RESULT:     -13.4      0.000      0.000
REMARK SMILES Cc1ccccc1OCC(=O)N[C@@H](Cc1c[nH]c2ccccc12)C(=O)NCCCCNC(=O)c1ccc(-c2c3nc(c(-c4cc(S(=O)(=O)[O-])ccc4F)c4ccc([nH]4)c(-c4cc(S(=O)(=O)[O-])ccc4F)c4nc(c(-c5cc(S(=O)(=O)[O-])ccc5F)c5ccc2[nH]5)C=C4)C=C3)cc1
REMARK SMILES IDX 28 1 27 2 26 3 24 4 25 5 13 7 12 8 10 9 11 10 9 12 8 13 7 14
REMARK SMILES IDX 1 15 2 16 3 17 4 18 6 19 5 20 14 21 15 22 16 23 23 24 17 25
REMARK SMILES IDX 18 26 22 27 19 29 21 30 20 31 29 32 30 33 31 34 32 35 33 37
REMARK SMILES IDX 34 38 35 39 96 40 36 41 95 42 37 43 38 44 39 45 89 46 40 47
REMARK SMILES IDX 94 48 88 49 90 50 41 51 93 52 87 53 86 54 42 56 74 57 54 58
REMARK SMILES IDX 73 59 55 60 58 61 72 62 91 63 56 64 57 65 71 67 92 68 59 69
REMARK SMILES IDX 43 70 44 71 52 72 45 73 51 74 53 75 50 76 46 77 47 78 48 79
REMARK SMILES IDX 49 80 75 81 76 82 84 83 77 84 83 85 85 86 82 87 78 88 79 89
REMARK SMILES IDX 80 90 81 91 60 92 61 93 69 94 62 95 68 96 70 97 67 98 63 99
REMARK SMILES IDX 64 100 65 101 66 102
REMARK H PARENT 26 6 12 11 17 28 31 36 90 55 58 66
REMARK Flexibility Score: inf
ROOT
ATOM      1  C   UNL A   1      31.808  29.827  26.064  1.00  0.00     0.023 C 
ENDROOT
BRANCH   1   2
ATOM      2  C   UNL A   1      32.524  29.451  24.764  1.00  0.00     0.116 C 
BRANCH   2   3
ATOM      3  N   UNL A   1      31.652  29.406  23.592  1.00  0.00    -0.354 N 
ATOM      4  C   UNL A   1      31.234  28.374  22.801  1.00  0.00     0.242 C 
ATOM      5  O   UNL A   1      30.250  28.592  22.081  1.00  0.00    -0.273 OA
ATOM      6  H   UNL A   1      31.300  30.284  23.322  1.00  0.00     0.163 HD
BRANCH   4   7
ATOM      7  C   UNL A   1      31.871  26.961  22.805  1.00  0.00     0.175 C 
BRANCH   7   8
ATOM      8  N   UNL A   1      32.711  26.755  21.625  1.00  0.00    -0.341 N 
ATOM      9  C   UNL A   1      32.862  25.586  20.943  1.00  0.00     0.258 C 
ATOM     10  O   UNL A   1      32.966  25.613  19.715  1.00  0.00    -0.271 OA
ATOM     11  H   UNL A   1      33.213  27.534  21.292  1.00  0.00     0.164 HD
BRANCH   9  12
ATOM     12  C   UNL A   1      32.898  24.264  21.716  1.00  0.00     0.329 C 
BRANCH  12  13
ATOM     13  O   UNL A   1      34.126  23.809  22.252  1.00  0.00    -0.484 OA
BRANCH  13  14
ATOM     14  C   UNL A   1      34.205  22.728  23.084  1.00  0.00     0.122 A 
ATOM     15  C   UNL A   1      36.701  22.734  23.801  1.00  0.00     0.048 C 
ATOM     16  C   UNL A   1      35.294  22.208  23.799  1.00  0.00    -0.009 A 
ATOM     17  C   UNL A   1      35.080  21.087  24.634  1.00  0.00     0.007 A 
ATOM     18  C   UNL A   1      33.841  20.454  24.717  1.00  0.00     0.001 A 
ATOM     19  C   UNL A   1      32.968  22.057  23.158  1.00  0.00     0.047 A 
ATOM     20  C   UNL A   1      32.782  20.934  23.964  1.00  0.00     0.004 A 
ENDBRANCH  13  14
ENDBRANCH  12  13
ENDBRANCH   9  12
ENDBRANCH   7   8
BRANCH   7  21
ATOM     21  C   UNL A   1      32.486  26.557  24.155  1.00  0.00     0.072 C 
BRANCH  21  22
ATOM     22  C   UNL A   1      31.853  25.389  24.828  1.00  0.00    -0.020 A 
ATOM     23  C   UNL A   1      30.521  25.022  24.753  1.00  0.00     0.087 A 
ATOM     24  C   UNL A   1      32.496  24.467  25.710  1.00  0.00     0.003 A 
ATOM     25  N   UNL A   1      30.314  23.982  25.624  1.00  0.00    -0.361 N 
ATOM     26  C   UNL A   1      31.503  23.639  26.225  1.00  0.00     0.046 A 
ATOM     27  C   UNL A   1      33.817  24.304  26.179  1.00  0.00     0.010 A 
ATOM     28  H   UNL A   1      29.447  23.549  25.794  1.00  0.00     0.166 HD
ATOM     29  C   UNL A   1      31.770  22.691  27.210  1.00  0.00     0.026 A 
ATOM     30  C   UNL A   1      34.098  23.340  27.154  1.00  0.00     0.001 A 
ATOM     31  C   UNL A   1      33.079  22.553  27.672  1.00  0.00     0.002 A 
ENDBRANCH  21  22
ENDBRANCH   7  21
ENDBRANCH   4   7
ENDBRANCH   2   3
ENDBRANCH   1   2
BRANCH   1  32
ATOM     32  C   UNL A   1      32.516  30.867  26.933  1.00  0.00     0.023 C 
BRANCH  32  33
ATOM     33  C   UNL A   1      33.969  30.551  27.265  1.00  0.00     0.116 C 
BRANCH  33  34
ATOM     34  N   UNL A   1      34.638  31.482  28.158  1.00  0.00    -0.352 N 
ATOM     35  C   UNL A   1      35.707  31.256  29.013  1.00  0.00     0.251 C 
ATOM     36  H   UNL A   1      34.283  32.401  28.156  1.00  0.00     0.163 HD
ATOM     37  O   UNL A   1      36.018  32.084  29.856  1.00  0.00    -0.269 OA
BRANCH  35  38
ATOM     38  C   UNL A   1      36.561  30.049  28.827  1.00  0.00     0.039 A 
ATOM     39  C   UNL A   1      36.812  29.253  29.955  1.00  0.00     0.014 A 
ATOM     40  C   UNL A   1      37.266  29.815  27.651  1.00  0.00     0.014 A 
ATOM     41  C   UNL A   1      37.924  28.414  29.973  1.00  0.00     0.010 A 
ATOM     42  C   UNL A   1      38.433  29.084  27.704  1.00  0.00     0.010 A 
ATOM     43  C   UNL A   1      38.797  28.442  28.888  1.00  0.00    -0.014 A 
BRANCH  43  44
ATOM     44  C   UNL A   1      40.171  27.963  28.947  1.00  0.00     0.031 A 
ATOM     45  C   UNL A   1      40.506  26.601  28.489  1.00  0.00     0.074 A 
ATOM     46  C   UNL A   1      41.139  28.823  29.337  1.00  0.00     0.049 A 
ATOM     47  N   UNL A   1      41.539  25.931  28.874  1.00  0.00    -0.248 NA
ATOM     48  C   UNL A   1      39.644  25.856  27.578  1.00  0.00     0.031 C 
ATOM     49  C   UNL A   1      42.584  28.657  29.205  1.00  0.00     0.029 A 
ATOM     50  N   UNL A   1      41.005  29.948  30.159  1.00  0.00    -0.354 N 
ATOM     51  C   UNL A   1      41.623  24.803  28.087  1.00  0.00     0.074 A 
ATOM     52  C   UNL A   1      40.389  24.774  27.337  1.00  0.00     0.031 C 
ATOM     53  C   UNL A   1      43.184  29.415  30.139  1.00  0.00     0.029 A 
ATOM     54  C   UNL A   1      42.129  29.941  30.996  1.00  0.00     0.049 A 
ATOM     55  H   UNL A   1      40.273  30.607  30.151  1.00  0.00     0.167 HD
ATOM     56  C   UNL A   1      42.782  24.086  28.047  1.00  0.00     0.034 A 
ATOM     57  C   UNL A   1      42.076  29.798  32.352  1.00  0.00     0.034 A 
ATOM     58  C   UNL A   1      43.788  24.649  28.943  1.00  0.00     0.049 A 
ATOM     59  C   UNL A   1      42.955  28.675  32.842  1.00  0.00     0.074 A 
ATOM     60  C   UNL A   1      44.846  25.513  28.721  1.00  0.00     0.029 A 
ATOM     61  N   UNL A   1      43.605  24.588  30.321  1.00  0.00    -0.354 N 
ATOM     62  N   UNL A   1      43.273  27.632  32.125  1.00  0.00    -0.248 NA
ATOM     63  C   UNL A   1      43.515  28.637  34.187  1.00  0.00     0.031 C 
ATOM     64  C   UNL A   1      45.254  26.032  29.975  1.00  0.00     0.029 A 
ATOM     65  C   UNL A   1      44.472  25.453  30.961  1.00  0.00     0.049 A 
ATOM     66  H   UNL A   1      42.951  24.010  30.775  1.00  0.00     0.167 HD
ATOM     67  C   UNL A   1      44.040  26.786  32.886  1.00  0.00     0.074 A 
ATOM     68  C   UNL A   1      44.180  27.472  34.159  1.00  0.00     0.031 C 
ATOM     69  C   UNL A   1      44.480  25.583  32.410  1.00  0.00     0.034 A 
BRANCH  56  70
ATOM     70  C   UNL A   1      43.110  23.095  26.950  1.00  0.00     0.023 A 
ATOM     71  C   UNL A   1      42.604  21.781  27.033  1.00  0.00     0.031 A 
ATOM     72  C   UNL A   1      43.943  23.351  25.844  1.00  0.00     0.131 A 
ATOM     73  C   UNL A   1      43.015  20.775  26.140  1.00  0.00     0.055 A 
ATOM     74  C   UNL A   1      44.404  22.337  24.991  1.00  0.00     0.041 A 
ATOM     75  F   UNL A   1      44.309  24.597  25.516  1.00  0.00    -0.206 F 
ATOM     76  C   UNL A   1      43.954  21.035  25.148  1.00  0.00     0.022 A 
BRANCH  73  77
ATOM     77  S   UNL A   1      42.299  19.115  26.294  1.00  0.00     0.124 S 
ATOM     78  O   UNL A   1      42.301  18.907  27.737  1.00  0.00    -0.237 OA
ATOM     79  O   UNL A   1      40.992  19.286  25.668  1.00  0.00    -0.237 OA
ATOM     80  O   UNL A   1      43.233  18.273  25.548  1.00  0.00    -0.744 OA
ENDBRANCH  73  77
ENDBRANCH  56  70
BRANCH  57  81
ATOM     81  C   UNL A   1      40.775  30.151  32.990  1.00  0.00     0.023 A 
ATOM     82  C   UNL A   1      40.466  31.509  33.174  1.00  0.00     0.031 A 
ATOM     83  C   UNL A   1      39.724  29.228  33.084  1.00  0.00     0.131 A 
ATOM     84  C   UNL A   1      39.131  31.929  33.257  1.00  0.00     0.055 A 
ATOM     85  C   UNL A   1      38.398  29.645  33.251  1.00  0.00     0.041 A 
ATOM     86  F   UNL A   1      39.946  27.921  32.889  1.00  0.00    -0.206 F 
ATOM     87  C   UNL A   1      38.090  31.003  33.296  1.00  0.00     0.022 A 
BRANCH  84  88
ATOM     88  S   UNL A   1      38.758  33.702  33.130  1.00  0.00     0.124 S 
ATOM     89  O   UNL A   1      37.694  33.869  34.117  1.00  0.00    -0.237 OA
ATOM     90  O   UNL A   1      40.049  34.289  33.478  1.00  0.00    -0.237 OA
ATOM     91  O   UNL A   1      38.346  33.867  31.741  1.00  0.00    -0.744 OA
ENDBRANCH  84  88
ENDBRANCH  57  81
BRANCH  69  92
ATOM     92  C   UNL A   1      45.052  24.470  33.261  1.00  0.00     0.023 A 
ATOM     93  C   UNL A   1      46.379  24.462  33.719  1.00  0.00     0.031 A 
ATOM     94  C   UNL A   1      44.242  23.406  33.725  1.00  0.00     0.131 A 
ATOM     95  C   UNL A   1      46.880  23.405  34.495  1.00  0.00     0.055 A 
ATOM     96  C   UNL A   1      44.720  22.399  34.571  1.00  0.00     0.041 A 
ATOM     97  F   UNL A   1      42.947  23.307  33.394  1.00  0.00    -0.206 F 
ATOM     98  C   UNL A   1      46.053  22.381  34.945  1.00  0.00     0.022 A 
BRANCH  95  99
ATOM     99  S   UNL A   1      48.659  23.370  34.837  1.00  0.00     0.124 S 
ATOM    100  O   UNL A   1      49.054  22.100  34.232  1.00  0.00    -0.237 OA
ATOM    101  O   UNL A   1      49.133  24.569  34.154  1.00  0.00    -0.237 OA
ATOM    102  O   UNL A   1      48.732  23.412  36.295  1.00  0.00    -0.744 OA
ENDBRANCH  95  99
ENDBRANCH  69  92
ENDBRANCH  43  44
ENDBRANCH  35  38
ENDBRANCH  33  34
ENDBRANCH  32  33
ENDBRANCH   1  32
TORSDOF 20
ENDMDL
MODEL 2
REMARK VINA RESULT:     -13.3      1.241      1.976
REMARK SMILES Cc1ccccc1OCC(=O)N[C@@H](Cc1c[nH]c2ccccc12)C(=O)NCCCCNC(=O)c1ccc(-c2c3nc(c(-c4cc(S(=O)(=O)[O-])ccc4F)c4ccc([nH]4)c(-c4cc(S(=O)(=O)[O-])ccc4F)c4nc(c(-c5cc(S(=O)(=O)[O-])ccc5F)c5ccc2[nH]5)C=C4)C=C3)cc1
REMARK SMILES IDX 28 1 27 2 26 3 24 4 25 5 13 7 12 8 10 9 11 10 9 12 8 13 7 14
REMARK SMILES IDX 1 15 2 16 3 17 4 18 6 19 5 20 14 21 15 22 16 23 23 24 17 25
REMARK SMILES IDX 18 26 22 27 19 29 21 30 20 31 29 32 30 33 31 34 32 35 33 37
REMARK SMILES IDX 34 38 35 39 96 40 36 41 95 42 37 43 38 44 39 45 89 46 40 47
REMARK SMILES IDX 94 48 88 49 90 50 41 51 93 52 87 53 86 54 42 56 74 57 54 58
REMARK SMILES IDX 73 59 55 60 58 61 72 62 91 63 56 64 57 65 71 67 92 68 59 69
REMARK SMILES IDX 43 70 44 71 52 72 45 73 51 74 53 75 50 76 46 77 47 78 48 79
REMARK SMILES IDX 49 80 75 81 76 82 84 83 77 84 83 85 85 86 82 87 78 88 79 89
REMARK SMILES IDX 80 90 81 91 60 92 61 93 69 94 62 95 68 96 70 97 67 98 63 99
REMARK SMILES IDX 64 100 65 101 66 102
REMARK H PARENT 26 6 12 11 17 28 31 36 90 55 58 66
REMARK Flexibility Score: inf
ROOT
ATOM      1  C   UNL A   1      32.290  30.541  26.555  1.00  0.00     0.023 C 
ENDROOT
BRANCH   1   2
ATOM      2  C   UNL A   1      32.979  29.236  26.145  1.00  0.00     0.116 C 
BRANCH   2   3
ATOM      3  N   UNL A   1      33.701  29.315  24.876  1.00  0.00    -0.354 N 
ATOM      4  C   UNL A   1      33.660  28.543  23.750  1.00  0.00     0.242 C 
ATOM      5  O   UNL A   1      34.145  29.036  22.723  1.00  0.00    -0.273 OA
ATOM      6  H   UNL A   1      34.337  30.064  24.823  1.00  0.00     0.163 HD
BRANCH   4   7
ATOM      7  C   UNL A   1      32.995  27.145  23.676  1.00  0.00     0.175 C 
BRANCH   7   8
ATOM      8  N   UNL A   1      31.758  27.188  22.896  1.00  0.00    -0.341 N 
ATOM      9  C   UNL A   1      30.526  26.792  23.323  1.00  0.00     0.258 C 
ATOM     10  O   UNL A   1      29.532  27.431  22.973  1.00  0.00    -0.271 OA
ATOM     11  H   UNL A   1      31.820  27.536  21.977  1.00  0.00     0.164 HD
BRANCH   9  12
ATOM     12  C   UNL A   1      30.405  25.564  24.230  1.00  0.00     0.329 C 
BRANCH  12  13
ATOM     13  O   UNL A   1      30.250  24.285  23.646  1.00  0.00    -0.484 OA
BRANCH  13  14
ATOM     14  C   UNL A   1      31.003  23.211  24.027  1.00  0.00     0.122 A 
ATOM     15  C   UNL A   1      30.493  23.020  26.566  1.00  0.00     0.048 C 
ATOM     16  C   UNL A   1      31.148  22.601  25.282  1.00  0.00    -0.009 A 
ATOM     17  C   UNL A   1      31.972  21.455  25.384  1.00  0.00     0.007 A 
ATOM     18  C   UNL A   1      32.684  20.958  24.294  1.00  0.00     0.001 A 
ATOM     19  C   UNL A   1      31.753  22.712  22.944  1.00  0.00     0.047 A 
ATOM     20  C   UNL A   1      32.585  21.598  23.070  1.00  0.00     0.004 A 
ENDBRANCH  13  14
ENDBRANCH  12  13
ENDBRANCH   9  12
ENDBRANCH   7   8
BRANCH   7  21
ATOM     21  C   UNL A   1      33.971  26.006  23.339  1.00  0.00     0.072 C 
BRANCH  21  22
ATOM     22  C   UNL A   1      34.221  25.027  24.433  1.00  0.00    -0.020 A 
ATOM     23  C   UNL A   1      33.706  25.080  25.716  1.00  0.00     0.087 A 
ATOM     24  C   UNL A   1      35.076  23.884  24.369  1.00  0.00     0.003 A 
ATOM     25  N   UNL A   1      34.287  24.080  26.453  1.00  0.00    -0.361 N 
ATOM     26  C   UNL A   1      35.133  23.349  25.653  1.00  0.00     0.046 A 
ATOM     27  C   UNL A   1      35.868  23.296  23.360  1.00  0.00     0.010 A 
ATOM     28  H   UNL A   1      34.123  23.912  27.409  1.00  0.00     0.166 HD
ATOM     29  C   UNL A   1      35.974  22.284  25.972  1.00  0.00     0.026 A 
ATOM     30  C   UNL A   1      36.699  22.213  23.667  1.00  0.00     0.001 A 
ATOM     31  C   UNL A   1      36.759  21.724  24.965  1.00  0.00     0.002 A 
ENDBRANCH  21  22
ENDBRANCH   7  21
ENDBRANCH   4   7
ENDBRANCH   2   3
ENDBRANCH   1   2
BRANCH   1  32
ATOM     32  C   UNL A   1      33.102  31.460  27.467  1.00  0.00     0.023 C 
BRANCH  32  33
ATOM     33  C   UNL A   1      34.464  30.919  27.886  1.00  0.00     0.116 C 
BRANCH  33  34
ATOM     34  N   UNL A   1      35.211  31.729  28.831  1.00  0.00    -0.352 N 
ATOM     35  C   UNL A   1      36.331  31.390  29.578  1.00  0.00     0.251 C 
ATOM     36  H   UNL A   1      34.877  32.646  28.960  1.00  0.00     0.163 HD
ATOM     37  O   UNL A   1      36.715  32.109  30.487  1.00  0.00    -0.269 OA
BRANCH  35  38
ATOM     38  C   UNL A   1      37.144  30.202  29.193  1.00  0.00     0.039 A 
ATOM     39  C   UNL A   1      37.241  29.155  30.123  1.00  0.00     0.014 A 
ATOM     40  C   UNL A   1      37.954  30.194  28.063  1.00  0.00     0.014 A 
ATOM     41  C   UNL A   1      38.306  28.261  30.046  1.00  0.00     0.010 A 
ATOM     42  C   UNL A   1      39.076  29.392  28.049  1.00  0.00     0.010 A 
ATOM     43  C   UNL A   1      39.287  28.476  29.079  1.00  0.00    -0.014 A 
BRANCH  43  44
ATOM     44  C   UNL A   1      40.625  27.904  29.148  1.00  0.00     0.031 A 
ATOM     45  C   UNL A   1      40.879  26.538  28.649  1.00  0.00     0.074 A 
ATOM     46  C   UNL A   1      41.639  28.683  29.586  1.00  0.00     0.049 A 
ATOM     47  N   UNL A   1      41.857  25.789  29.030  1.00  0.00    -0.248 NA
ATOM     48  C   UNL A   1      39.989  25.884  27.695  1.00  0.00     0.031 C 
ATOM     49  C   UNL A   1      43.072  28.426  29.477  1.00  0.00     0.029 A 
ATOM     50  N   UNL A   1      41.561  29.786  30.445  1.00  0.00    -0.354 N 
ATOM     51  C   UNL A   1      41.883  24.685  28.206  1.00  0.00     0.074 A 
ATOM     52  C   UNL A   1      40.666  24.764  27.431  1.00  0.00     0.031 C 
ATOM     53  C   UNL A   1      43.701  29.110  30.449  1.00  0.00     0.029 A 
ATOM     54  C   UNL A   1      42.664  29.676  31.303  1.00  0.00     0.049 A 
ATOM     55  H   UNL A   1      40.875  30.492  30.446  1.00  0.00     0.167 HD
ATOM     56  C   UNL A   1      42.992  23.893  28.163  1.00  0.00     0.034 A 
ATOM     57  C   UNL A   1      42.573  29.491  32.652  1.00  0.00     0.034 A 
ATOM     58  C   UNL A   1      44.013  24.357  29.098  1.00  0.00     0.049 A 
ATOM     59  C   UNL A   1      43.364  28.295  33.119  1.00  0.00     0.074 A 
ATOM     60  C   UNL A   1      45.131  25.156  28.927  1.00  0.00     0.029 A 
ATOM     61  N   UNL A   1      43.797  24.262  30.468  1.00  0.00    -0.354 N 
ATOM     62  N   UNL A   1      43.628  27.258  32.372  1.00  0.00    -0.248 NA
ATOM     63  C   UNL A   1      43.891  28.175  34.473  1.00  0.00     0.031 C 
ATOM     64  C   UNL A   1      45.545  25.604  30.206  1.00  0.00     0.029 A 
ATOM     65  C   UNL A   1      44.705  25.045  31.155  1.00  0.00     0.049 A 
ATOM     66  H   UNL A   1      43.096  23.714  30.889  1.00  0.00     0.167 HD
ATOM     67  C   UNL A   1      44.320  26.338  33.117  1.00  0.00     0.074 A 
ATOM     68  C   UNL A   1      44.478  26.969  34.416  1.00  0.00     0.031 C 
ATOM     69  C   UNL A   1      44.690  25.124  32.608  1.00  0.00     0.034 A 
BRANCH  56  70
ATOM     70  C   UNL A   1      43.278  22.920  27.038  1.00  0.00     0.023 A 
ATOM     71  C   UNL A   1      42.724  21.624  27.091  1.00  0.00     0.031 A 
ATOM     72  C   UNL A   1      44.113  23.174  25.934  1.00  0.00     0.131 A 
ATOM     73  C   UNL A   1      43.094  20.627  26.169  1.00  0.00     0.055 A 
ATOM     74  C   UNL A   1      44.532  22.168  25.052  1.00  0.00     0.041 A 
ATOM     75  F   UNL A   1      44.522  24.415  25.636  1.00  0.00    -0.206 F 
ATOM     76  C   UNL A   1      44.035  20.879  25.178  1.00  0.00     0.022 A 
BRANCH  73  77
ATOM     77  S   UNL A   1      42.318  18.991  26.284  1.00  0.00     0.124 S 
ATOM     78  O   UNL A   1      42.351  18.731  27.719  1.00  0.00    -0.237 OA
ATOM     79  O   UNL A   1      41.003  19.233  25.701  1.00  0.00    -0.237 OA
ATOM     80  O   UNL A   1      43.200  18.141  25.484  1.00  0.00    -0.744 OA
ENDBRANCH  73  77
ENDBRANCH  56  70
BRANCH  57  81
ATOM     81  C   UNL A   1      41.284  29.908  33.277  1.00  0.00     0.023 A 
ATOM     82  C   UNL A   1      41.124  31.254  33.646  1.00  0.00     0.031 A 
ATOM     83  C   UNL A   1      40.130  29.119  33.186  1.00  0.00     0.131 A 
ATOM     84  C   UNL A   1      39.844  31.821  33.731  1.00  0.00     0.055 A 
ATOM     85  C   UNL A   1      38.853  29.669  33.354  1.00  0.00     0.041 A 
ATOM     86  F   UNL A   1      40.210  27.835  32.809  1.00  0.00    -0.206 F 
ATOM     87  C   UNL A   1      38.702  31.034  33.586  1.00  0.00     0.022 A 
BRANCH  84  88
ATOM     88  S   UNL A   1      39.688  33.626  33.851  1.00  0.00     0.124 S 
ATOM     89  O   UNL A   1      38.874  33.947  32.681  1.00  0.00    -0.237 OA
ATOM     90  O   UNL A   1      39.027  33.768  35.146  1.00  0.00    -0.237 OA
ATOM     91  O   UNL A   1      41.068  34.094  33.794  1.00  0.00    -0.744 OA
ENDBRANCH  84  88
ENDBRANCH  57  81
BRANCH  69  92
ATOM     92  C   UNL A   1      45.169  23.948  33.430  1.00  0.00     0.023 A 
ATOM     93  C   UNL A   1      46.484  23.832  33.907  1.00  0.00     0.031 A 
ATOM     94  C   UNL A   1      44.278  22.930  33.848  1.00  0.00     0.131 A 
ATOM     95  C   UNL A   1      46.897  22.718  34.655  1.00  0.00     0.055 A 
ATOM     96  C   UNL A   1      44.671  21.865  34.667  1.00  0.00     0.041 A 
ATOM     97  F   UNL A   1      42.986  22.933  33.495  1.00  0.00    -0.206 F 
ATOM     98  C   UNL A   1      45.993  21.741  35.060  1.00  0.00     0.022 A 
BRANCH  95  99
ATOM     99  S   UNL A   1      48.663  22.547  35.021  1.00  0.00     0.124 S 
ATOM    100  O   UNL A   1      49.032  21.409  34.182  1.00  0.00    -0.237 OA
ATOM    101  O   UNL A   1      49.196  23.839  34.602  1.00  0.00    -0.237 OA
ATOM    102  O   UNL A   1      48.696  22.295  36.459  1.00  0.00    -0.744 OA
ENDBRANCH  95  99
ENDBRANCH  69  92
ENDBRANCH  43  44
ENDBRANCH  35  38
ENDBRANCH  33  34
ENDBRANCH  32  33
ENDBRANCH   1  32
TORSDOF 20
ENDMDL
MODEL 3
REMARK VINA RESULT:     -13.1      4.169     10.211
REMARK SMILES Cc1ccccc1OCC(=O)N[C@@H](Cc1c[nH]c2ccccc12)C(=O)NCCCCNC(=O)c1ccc(-c2c3nc(c(-c4cc(S(=O)(=O)[O-])ccc4F)c4ccc([nH]4)c(-c4cc(S(=O)(=O)[O-])ccc4F)c4nc(c(-c5cc(S(=O)(=O)[O-])ccc5F)c5ccc2[nH]5)C=C4)C=C3)cc1
REMARK SMILES IDX 28 1 27 2 26 3 24 4 25 5 13 7 12 8 10 9 11 10 9 12 8 13 7 14
REMARK SMILES IDX 1 15 2 16 3 17 4 18 6 19 5 20 14 21 15 22 16 23 23 24 17 25
REMARK SMILES IDX 18 26 22 27 19 29 21 30 20 31 29 32 30 33 31 34 32 35 33 37
REMARK SMILES IDX 34 38 35 39 96 40 36 41 95 42 37 43 38 44 39 45 89 46 40 47
REMARK SMILES IDX 94 48 88 49 90 50 41 51 93 52 87 53 86 54 42 56 74 57 54 58
REMARK SMILES IDX 73 59 55 60 58 61 72 62 91 63 56 64 57 65 71 67 92 68 59 69
REMARK SMILES IDX 43 70 44 71 52 72 45 73 51 74 53 75 50 76 46 77 47 78 48 79
REMARK SMILES IDX 49 80 75 81 76 82 84 83 77 84 83 85 85 86 82 87 78 88 79 89
REMARK SMILES IDX 80 90 81 91 60 92 61 93 69 94 62 95 68 96 70 97 67 98 63 99
REMARK SMILES IDX 64 100 65 101 66 102
REMARK H PARENT 26 6 12 11 17 28 31 36 90 55 58 66
REMARK Flexibility Score: inf
ROOT
ATOM      1  C   UNL A   1      38.003  23.635  26.076  1.00  0.00     0.023 C 
ENDROOT
BRANCH   1   2
ATOM      2  C   UNL A   1      36.540  23.360  25.717  1.00  0.00     0.116 C 
BRANCH   2   3
ATOM      3  N   UNL A   1      35.737  22.853  26.827  1.00  0.00    -0.354 N 
ATOM      4  C   UNL A   1      34.395  22.634  26.962  1.00  0.00     0.242 C 
ATOM      5  O   UNL A   1      34.045  21.902  27.899  1.00  0.00    -0.273 OA
ATOM      6  H   UNL A   1      36.261  22.627  27.629  1.00  0.00     0.163 HD
BRANCH   4   7
ATOM      7  C   UNL A   1      33.321  23.184  25.990  1.00  0.00     0.175 C 
BRANCH   7   8
ATOM      8  N   UNL A   1      32.446  22.115  25.508  1.00  0.00    -0.341 N 
ATOM      9  C   UNL A   1      32.232  21.781  24.205  1.00  0.00     0.258 C 
ATOM     10  O   UNL A   1      32.101  20.594  23.900  1.00  0.00    -0.271 OA
ATOM     11  H   UNL A   1      31.969  21.587  26.188  1.00  0.00     0.164 HD
BRANCH   9  12
ATOM     12  C   UNL A   1      32.159  22.888  23.149  1.00  0.00     0.329 C 
BRANCH  12  13
ATOM     13  O   UNL A   1      30.933  23.559  22.933  1.00  0.00    -0.484 OA
BRANCH  13  14
ATOM     14  C   UNL A   1      30.828  24.922  22.973  1.00  0.00     0.122 A 
ATOM     15  C   UNL A   1      32.506  25.683  21.143  1.00  0.00     0.048 C 
ATOM     16  C   UNL A   1      31.479  25.906  22.214  1.00  0.00    -0.009 A 
ATOM     17  C   UNL A   1      31.141  27.262  22.437  1.00  0.00     0.007 A 
ATOM     18  C   UNL A   1      30.233  27.644  23.424  1.00  0.00     0.001 A 
ATOM     19  C   UNL A   1      29.936  25.329  23.984  1.00  0.00     0.047 A 
ATOM     20  C   UNL A   1      29.638  26.673  24.211  1.00  0.00     0.004 A 
ENDBRANCH  13  14
ENDBRANCH  12  13
ENDBRANCH   9  12
ENDBRANCH   7   8
BRANCH   7  21
ATOM     21  C   UNL A   1      32.623  24.460  26.489  1.00  0.00     0.072 C 
BRANCH  21  22
ATOM     22  C   UNL A   1      33.037  25.724  25.819  1.00  0.00    -0.020 A 
ATOM     23  C   UNL A   1      33.927  25.842  24.766  1.00  0.00     0.087 A 
ATOM     24  C   UNL A   1      32.626  27.046  26.174  1.00  0.00     0.003 A 
ATOM     25  N   UNL A   1      34.144  27.177  24.537  1.00  0.00    -0.361 N 
ATOM     26  C   UNL A   1      33.370  27.925  25.393  1.00  0.00     0.046 A 
ATOM     27  C   UNL A   1      31.746  27.583  27.138  1.00  0.00     0.010 A 
ATOM     28  H   UNL A   1      34.762  27.543  23.863  1.00  0.00     0.166 HD
ATOM     29  C   UNL A   1      33.300  29.306  25.564  1.00  0.00     0.026 A 
ATOM     30  C   UNL A   1      31.654  28.970  27.303  1.00  0.00     0.001 A 
ATOM     31  C   UNL A   1      32.435  29.819  26.531  1.00  0.00     0.002 A 
ENDBRANCH  21  22
ENDBRANCH   7  21
ENDBRANCH   4   7
ENDBRANCH   2   3
ENDBRANCH   1   2
BRANCH   1  32
ATOM     32  C   UNL A   1      38.931  22.421  26.048  1.00  0.00     0.023 C 
BRANCH  32  33
ATOM     33  C   UNL A   1      40.020  22.413  27.114  1.00  0.00     0.116 C 
BRANCH  33  34
ATOM     34  N   UNL A   1      41.319  22.917  26.704  1.00  0.00    -0.352 N 
ATOM     35  C   UNL A   1      41.718  24.229  26.485  1.00  0.00     0.251 C 
ATOM     36  H   UNL A   1      42.014  22.233  26.561  1.00  0.00     0.163 HD
ATOM     37  O   UNL A   1      42.781  24.474  25.937  1.00  0.00    -0.269 OA
BRANCH  35  38
ATOM     38  C   UNL A   1      40.901  25.350  27.030  1.00  0.00     0.039 A 
ATOM     39  C   UNL A   1      40.808  26.518  26.258  1.00  0.00     0.014 A 
ATOM     40  C   UNL A   1      40.420  25.349  28.335  1.00  0.00     0.014 A 
ATOM     41  C   UNL A   1      40.474  27.724  26.869  1.00  0.00     0.010 A 
ATOM     42  C   UNL A   1      40.209  26.554  28.972  1.00  0.00     0.010 A 
ATOM     43  C   UNL A   1      40.307  27.745  28.252  1.00  0.00    -0.014 A 
BRANCH  43  44
ATOM     44  C   UNL A   1      40.377  28.959  29.054  1.00  0.00     0.031 A 
ATOM     45  C   UNL A   1      39.254  29.917  29.057  1.00  0.00     0.074 A 
ATOM     46  C   UNL A   1      41.446  29.139  29.862  1.00  0.00     0.049 A 
ATOM     47  N   UNL A   1      39.358  31.168  29.353  1.00  0.00    -0.248 NA
ATOM     48  C   UNL A   1      37.904  29.527  28.666  1.00  0.00     0.031 C 
ATOM     49  C   UNL A   1      41.595  30.114  30.939  1.00  0.00     0.029 A 
ATOM     50  N   UNL A   1      42.733  28.608  29.711  1.00  0.00    -0.354 N 
ATOM     51  C   UNL A   1      38.083  31.683  29.445  1.00  0.00     0.074 A 
ATOM     52  C   UNL A   1      37.217  30.637  28.952  1.00  0.00     0.031 C 
ATOM     53  C   UNL A   1      42.907  30.337  31.130  1.00  0.00     0.029 A 
ATOM     54  C   UNL A   1      43.612  29.642  30.061  1.00  0.00     0.049 A 
ATOM     55  H   UNL A   1      42.970  27.698  29.420  1.00  0.00     0.167 HD
ATOM     56  C   UNL A   1      37.877  32.884  30.057  1.00  0.00     0.034 A 
ATOM     57  C   UNL A   1      44.498  30.221  29.200  1.00  0.00     0.034 A 
ATOM     58  C   UNL A   1      39.135  33.481  30.496  1.00  0.00     0.049 A 
ATOM     59  C   UNL A   1      44.351  31.721  29.153  1.00  0.00     0.074 A 
ATOM     60  C   UNL A   1      39.782  33.481  31.719  1.00  0.00     0.029 A 
ATOM     61  N   UNL A   1      40.057  33.931  29.557  1.00  0.00    -0.354 N 
ATOM     62  N   UNL A   1      43.239  32.354  29.410  1.00  0.00    -0.248 NA
ATOM     63  C   UNL A   1      45.445  32.613  28.788  1.00  0.00     0.031 C 
ATOM     64  C   UNL A   1      41.128  33.866  31.500  1.00  0.00     0.029 A 
ATOM     65  C   UNL A   1      41.287  34.138  30.151  1.00  0.00     0.049 A 
ATOM     66  H   UNL A   1      39.860  34.081  28.604  1.00  0.00     0.167 HD
ATOM     67  C   UNL A   1      43.439  33.699  29.231  1.00  0.00     0.074 A 
ATOM     68  C   UNL A   1      44.841  33.809  28.865  1.00  0.00     0.031 C 
ATOM     69  C   UNL A   1      42.430  34.608  29.382  1.00  0.00     0.034 A 
BRANCH  56  70
ATOM     70  C   UNL A   1      36.522  33.342  30.556  1.00  0.00     0.023 A 
ATOM     71  C   UNL A   1      35.647  34.002  29.668  1.00  0.00     0.031 A 
ATOM     72  C   UNL A   1      36.057  33.217  31.878  1.00  0.00     0.131 A 
ATOM     73  C   UNL A   1      34.456  34.601  30.116  1.00  0.00     0.055 A 
ATOM     74  C   UNL A   1      34.903  33.866  32.341  1.00  0.00     0.041 A 
ATOM     75  F   UNL A   1      36.674  32.426  32.766  1.00  0.00    -0.206 F 
ATOM     76  C   UNL A   1      34.103  34.580  31.461  1.00  0.00     0.022 A 
BRANCH  73  77
ATOM     77  S   UNL A   1      33.368  35.408  28.909  1.00  0.00     0.124 S 
ATOM     78  O   UNL A   1      32.766  34.270  28.223  1.00  0.00    -0.237 OA
ATOM     79  O   UNL A   1      32.482  36.187  29.767  1.00  0.00    -0.237 OA
ATOM     80  O   UNL A   1      34.292  36.199  28.097  1.00  0.00    -0.744 OA
ENDBRANCH  73  77
ENDBRANCH  56  70
BRANCH  57  81
ATOM     81  C   UNL A   1      44.873  29.404  28.009  1.00  0.00     0.023 A 
ATOM     82  C   UNL A   1      45.951  28.510  28.124  1.00  0.00     0.031 A 
ATOM     83  C   UNL A   1      44.000  29.232  26.926  1.00  0.00     0.131 A 
ATOM     84  C   UNL A   1      46.030  27.382  27.294  1.00  0.00     0.055 A 
ATOM     85  C   UNL A   1      44.130  28.151  26.047  1.00  0.00     0.041 A 
ATOM     86  F   UNL A   1      42.935  30.033  26.776  1.00  0.00    -0.206 F 
ATOM     87  C   UNL A   1      45.123  27.195  26.252  1.00  0.00     0.022 A 
BRANCH  84  88
ATOM     88  S   UNL A   1      47.218  26.071  27.704  1.00  0.00     0.124 S 
ATOM     89  O   UNL A   1      46.361  24.892  27.799  1.00  0.00    -0.237 OA
ATOM     90  O   UNL A   1      48.107  26.122  26.546  1.00  0.00    -0.237 OA
ATOM     91  O   UNL A   1      47.800  26.518  28.964  1.00  0.00    -0.744 OA
ENDBRANCH  84  88
ENDBRANCH  57  81
BRANCH  69  92
ATOM     92  C   UNL A   1      42.479  36.045  28.909  1.00  0.00     0.023 A 
ATOM     93  C   UNL A   1      43.154  37.057  29.608  1.00  0.00     0.031 A 
ATOM     94  C   UNL A   1      41.916  36.433  27.670  1.00  0.00     0.131 A 
ATOM     95  C   UNL A   1      43.166  38.384  29.148  1.00  0.00     0.055 A 
ATOM     96  C   UNL A   1      42.003  37.737  27.170  1.00  0.00     0.041 A 
ATOM     97  F   UNL A   1      41.272  35.560  26.883  1.00  0.00    -0.206 F 
ATOM     98  C   UNL A   1      42.614  38.729  27.919  1.00  0.00     0.022 A 
BRANCH  95  99
ATOM     99  S   UNL A   1      43.859  39.655  30.236  1.00  0.00     0.124 S 
ATOM    100  O   UNL A   1      42.925  40.761  30.036  1.00  0.00    -0.237 OA
ATOM    101  O   UNL A   1      43.804  39.012  31.545  1.00  0.00    -0.237 OA
ATOM    102  O   UNL A   1      45.202  39.873  29.704  1.00  0.00    -0.744 OA
ENDBRANCH  95  99
ENDBRANCH  69  92
ENDBRANCH  43  44
ENDBRANCH  35  38
ENDBRANCH  33  34
ENDBRANCH  32  33
ENDBRANCH   1  32
TORSDOF 20
ENDMDL
