MODEL 1
REMARK VINA RESULT:     -11.2      0.000      0.000
REMARK SMILES CCC1(C(=O)NCCc2ccc(C(=O)NCCCCNC(=O)c3ccc(-c4c5nc(c(-c6cc(S(=O)(=O)[O-])ccc6F)c6ccc([nH]6)c(-c6cc(S(=O)(=O)[O-])ccc6F)c6nc(c(-c7cc(S(=O)(=O)[O-])ccc7F)c7ccc4[nH]7)C=C6)C=C5)cc3)cc2)CCCC1
REMARK SMILES IDX 16 1 15 2 13 3 14 4 12 6 9 7 10 8 87 9 11 10 86 11 8 12 7 13
REMARK SMILES IDX 6 14 4 15 5 16 3 18 88 19 91 20 89 21 90 22 2 23 1 24 17 25
REMARK SMILES IDX 18 26 19 27 20 28 21 29 22 31 23 32 24 33 85 34 25 35 84 36
REMARK SMILES IDX 26 37 27 38 28 39 78 40 29 41 83 42 77 43 79 44 30 45 82 46
REMARK SMILES IDX 76 47 75 48 31 50 63 51 43 52 62 53 44 54 47 55 61 56 80 57
REMARK SMILES IDX 45 58 46 59 60 61 81 62 48 63 32 64 33 65 41 66 34 67 40 68
REMARK SMILES IDX 42 69 39 70 35 71 36 72 37 73 38 74 64 75 65 76 73 77 66 78
REMARK SMILES IDX 72 79 74 80 71 81 67 82 68 83 69 84 70 85 49 86 50 87 58 88
REMARK SMILES IDX 51 89 57 90 59 91 56 92 52 93 53 94 54 95 55 96
REMARK H PARENT 15 5 6 17 20 30 79 49 47 60
REMARK Flexibility Score: inf
ROOT
ATOM      1  C   UNL A   1      32.503  29.369  24.255  1.00  0.00     0.116 C 
ENDROOT
BRANCH   1   2
ATOM      2  N   UNL A   1      31.514  29.544  23.205  1.00  0.00    -0.352 N 
ATOM      3  C   UNL A   1      30.711  28.622  22.577  1.00  0.00     0.251 C 
ATOM      4  O   UNL A   1      29.870  29.007  21.768  1.00  0.00    -0.269 OA
ATOM      5  H   UNL A   1      31.400  30.472  22.895  1.00  0.00     0.163 HD
BRANCH   3   6
ATOM      6  C   UNL A   1      30.793  27.177  22.907  1.00  0.00     0.039 A 
ATOM      7  C   UNL A   1      30.874  24.393  23.312  1.00  0.00    -0.046 A 
ATOM      8  C   UNL A   1      31.816  25.026  22.484  1.00  0.00     0.004 A 
ATOM      9  C   UNL A   1      29.954  25.184  23.999  1.00  0.00     0.004 A 
ATOM     10  C   UNL A   1      31.772  26.407  22.276  1.00  0.00     0.014 A 
ATOM     11  C   UNL A   1      29.942  26.562  23.821  1.00  0.00     0.014 A 
BRANCH   7  12
ATOM     12  C   UNL A   1      30.935  22.897  23.462  1.00  0.00     0.056 C 
BRANCH  12  13
ATOM     13  C   UNL A   1      32.161  22.182  22.889  1.00  0.00     0.120 C 
BRANCH  13  14
ATOM     14  N   UNL A   1      32.792  21.271  23.826  1.00  0.00    -0.355 N 
ATOM     15  C   UNL A   1      33.859  21.412  24.659  1.00  0.00     0.226 C 
ATOM     16  O   UNL A   1      34.096  20.441  25.387  1.00  0.00    -0.274 OA
ATOM     17  H   UNL A   1      32.369  20.382  23.867  1.00  0.00     0.163 HD
BRANCH  15  18
ATOM     18  C   UNL A   1      34.721  22.707  24.738  1.00  0.00     0.049 C 
ATOM     19  C   UNL A   1      35.128  23.166  23.322  1.00  0.00     0.017 C 
ATOM     20  C   UNL A   1      36.027  22.489  25.524  1.00  0.00     0.017 C 
ATOM     21  C   UNL A   1      36.628  22.967  23.185  1.00  0.00     0.001 C 
ATOM     22  C   UNL A   1      37.183  22.858  24.597  1.00  0.00     0.001 C 
BRANCH  18  23
ATOM     23  C   UNL A   1      33.837  23.803  25.417  1.00  0.00     0.013 C 
ATOM     24  C   UNL A   1      34.301  25.252  25.280  1.00  0.00     0.005 C 
ENDBRANCH  18  23
ENDBRANCH  15  18
ENDBRANCH  13  14
ENDBRANCH  12  13
ENDBRANCH   7  12
ENDBRANCH   3   6
ENDBRANCH   1   2
BRANCH   1  25
ATOM     25  C   UNL A   1      31.836  29.251  25.629  1.00  0.00     0.023 C 
BRANCH  25  26
ATOM     26  C   UNL A   1      32.633  28.454  26.656  1.00  0.00     0.023 C 
BRANCH  26  27
ATOM     27  C   UNL A   1      33.889  29.151  27.148  1.00  0.00     0.116 C 
BRANCH  27  28
ATOM     28  N   UNL A   1      33.696  30.571  27.386  1.00  0.00    -0.352 N 
ATOM     29  C   UNL A   1      34.495  31.422  28.116  1.00  0.00     0.251 C 
ATOM     30  H   UNL A   1      32.897  30.974  26.976  1.00  0.00     0.163 HD
ATOM     31  O   UNL A   1      34.132  32.565  28.340  1.00  0.00    -0.269 OA
BRANCH  29  32
ATOM     32  C   UNL A   1      35.771  30.905  28.658  1.00  0.00     0.039 A 
ATOM     33  C   UNL A   1      35.734  29.862  29.584  1.00  0.00     0.014 A 
ATOM     34  C   UNL A   1      36.994  31.416  28.216  1.00  0.00     0.014 A 
ATOM     35  C   UNL A   1      36.931  29.301  30.031  1.00  0.00     0.010 A 
ATOM     36  C   UNL A   1      38.179  30.797  28.591  1.00  0.00     0.010 A 
ATOM     37  C   UNL A   1      38.161  29.745  29.519  1.00  0.00    -0.014 A 
BRANCH  37  38
ATOM     38  C   UNL A   1      39.441  29.153  29.983  1.00  0.00     0.031 A 
ATOM     39  C   UNL A   1      40.130  29.725  31.193  1.00  0.00     0.074 A 
ATOM     40  C   UNL A   1      39.995  28.135  29.298  1.00  0.00     0.049 A 
ATOM     41  N   UNL A   1      41.262  29.371  31.746  1.00  0.00    -0.248 NA
ATOM     42  C   UNL A   1      39.477  30.870  31.846  1.00  0.00     0.031 C 
ATOM     43  C   UNL A   1      39.444  27.537  28.078  1.00  0.00     0.029 A 
ATOM     44  N   UNL A   1      41.143  27.420  29.528  1.00  0.00    -0.354 N 
ATOM     45  C   UNL A   1      41.459  30.255  32.803  1.00  0.00     0.074 A 
ATOM     46  C   UNL A   1      40.372  31.208  32.761  1.00  0.00     0.031 C 
ATOM     47  C   UNL A   1      40.235  26.523  27.692  1.00  0.00     0.029 A 
ATOM     48  C   UNL A   1      41.366  26.421  28.609  1.00  0.00     0.049 A 
ATOM     49  H   UNL A   1      41.749  27.603  30.281  1.00  0.00     0.167 HD
ATOM     50  C   UNL A   1      42.438  30.253  33.740  1.00  0.00     0.034 A 
ATOM     51  C   UNL A   1      42.368  25.524  28.520  1.00  0.00     0.034 A 
ATOM     52  C   UNL A   1      43.507  29.284  33.774  1.00  0.00     0.049 A 
ATOM     53  C   UNL A   1      43.442  25.535  29.579  1.00  0.00     0.074 A 
ATOM     54  C   UNL A   1      44.531  29.158  34.695  1.00  0.00     0.029 A 
ATOM     55  N   UNL A   1      43.690  28.272  32.838  1.00  0.00    -0.354 N 
ATOM     56  N   UNL A   1      43.587  26.344  30.604  1.00  0.00    -0.248 NA
ATOM     57  C   UNL A   1      44.473  24.495  29.481  1.00  0.00     0.031 C 
ATOM     58  C   UNL A   1      45.366  28.113  34.284  1.00  0.00     0.029 A 
ATOM     59  C   UNL A   1      44.819  27.531  33.151  1.00  0.00     0.049 A 
ATOM     60  H   UNL A   1      43.102  28.105  32.066  1.00  0.00     0.167 HD
ATOM     61  C   UNL A   1      44.704  25.883  31.296  1.00  0.00     0.074 A 
ATOM     62  C   UNL A   1      45.180  24.717  30.579  1.00  0.00     0.031 C 
ATOM     63  C   UNL A   1      45.283  26.373  32.422  1.00  0.00     0.034 A 
BRANCH  50  64
ATOM     64  C   UNL A   1      42.399  31.345  34.785  1.00  0.00     0.023 A 
ATOM     65  C   UNL A   1      43.004  32.597  34.568  1.00  0.00     0.031 A 
ATOM     66  C   UNL A   1      41.787  31.121  36.031  1.00  0.00     0.131 A 
ATOM     67  C   UNL A   1      43.059  33.540  35.605  1.00  0.00     0.055 A 
ATOM     68  C   UNL A   1      41.767  32.099  37.028  1.00  0.00     0.041 A 
ATOM     69  F   UNL A   1      41.213  29.940  36.308  1.00  0.00    -0.206 F 
ATOM     70  C   UNL A   1      42.421  33.311  36.825  1.00  0.00     0.022 A 
BRANCH  67  71
ATOM     71  S   UNL A   1      44.111  35.003  35.391  1.00  0.00     0.124 S 
ATOM     72  O   UNL A   1      45.278  34.646  36.195  1.00  0.00    -0.237 OA
ATOM     73  O   UNL A   1      44.316  35.035  33.947  1.00  0.00    -0.237 OA
ATOM     74  O   UNL A   1      43.301  36.091  35.933  1.00  0.00    -0.744 OA
ENDBRANCH  67  71
ENDBRANCH  50  64
BRANCH  51  75
ATOM     75  C   UNL A   1      42.401  24.532  27.407  1.00  0.00     0.023 A 
ATOM     76  C   UNL A   1      41.655  23.344  27.472  1.00  0.00     0.031 A 
ATOM     77  C   UNL A   1      43.218  24.735  26.282  1.00  0.00     0.131 A 
ATOM     78  C   UNL A   1      41.782  22.380  26.460  1.00  0.00     0.055 A 
ATOM     79  C   UNL A   1      43.300  23.797  25.250  1.00  0.00     0.041 A 
ATOM     80  F   UNL A   1      43.947  25.857  26.164  1.00  0.00    -0.206 F 
ATOM     81  C   UNL A   1      42.590  22.604  25.342  1.00  0.00     0.022 A 
BRANCH  78  82
ATOM     82  S   UNL A   1      40.944  20.785  26.668  1.00  0.00     0.124 S 
ATOM     83  O   UNL A   1      39.666  21.033  26.008  1.00  0.00    -0.237 OA
ATOM     84  O   UNL A   1      41.854  19.874  25.984  1.00  0.00    -0.237 OA
ATOM     85  O   UNL A   1      40.876  20.623  28.118  1.00  0.00    -0.744 OA
ENDBRANCH  78  82
ENDBRANCH  51  75
BRANCH  63  86
ATOM     86  C   UNL A   1      46.461  25.605  32.975  1.00  0.00     0.023 A 
ATOM     87  C   UNL A   1      47.765  25.790  32.484  1.00  0.00     0.031 A 
ATOM     88  C   UNL A   1      46.265  24.647  33.985  1.00  0.00     0.131 A 
ATOM     89  C   UNL A   1      48.808  24.974  32.948  1.00  0.00     0.055 A 
ATOM     90  C   UNL A   1      47.319  23.888  34.495  1.00  0.00     0.041 A 
ATOM     91  F   UNL A   1      45.040  24.428  34.491  1.00  0.00    -0.206 F 
ATOM     92  C   UNL A   1      48.596  24.037  33.962  1.00  0.00     0.022 A 
BRANCH  89  93
ATOM     93  S   UNL A   1      50.418  25.064  32.116  1.00  0.00     0.124 S 
ATOM     94  O   UNL A   1      50.810  23.660  32.061  1.00  0.00    -0.237 OA
ATOM     95  O   UNL A   1      50.073  25.680  30.839  1.00  0.00    -0.237 OA
ATOM     96  O   UNL A   1      51.220  25.897  33.010  1.00  0.00    -0.744 OA
ENDBRANCH  89  93
ENDBRANCH  63  86
ENDBRANCH  37  38
ENDBRANCH  29  32
ENDBRANCH  27  28
ENDBRANCH  26  27
ENDBRANCH  25  26
ENDBRANCH   1  25
TORSDOF 19
ENDMDL
MODEL 2
REMARK VINA RESULT:     -11.2      4.037      9.399
REMARK SMILES CCC1(C(=O)NCCc2ccc(C(=O)NCCCCNC(=O)c3ccc(-c4c5nc(c(-c6cc(S(=O)(=O)[O-])ccc6F)c6ccc([nH]6)c(-c6cc(S(=O)(=O)[O-])ccc6F)c6nc(c(-c7cc(S(=O)(=O)[O-])ccc7F)c7ccc4[nH]7)C=C6)C=C5)cc3)cc2)CCCC1
REMARK SMILES IDX 16 1 15 2 13 3 14 4 12 6 9 7 10 8 87 9 11 10 86 11 8 12 7 13
REMARK SMILES IDX 6 14 4 15 5 16 3 18 88 19 91 20 89 21 90 22 2 23 1 24 17 25
REMARK SMILES IDX 18 26 19 27 20 28 21 29 22 31 23 32 24 33 85 34 25 35 84 36
REMARK SMILES IDX 26 37 27 38 28 39 78 40 29 41 83 42 77 43 79 44 30 45 82 46
REMARK SMILES IDX 76 47 75 48 31 50 63 51 43 52 62 53 44 54 47 55 61 56 80 57
REMARK SMILES IDX 45 58 46 59 60 61 81 62 48 63 32 64 33 65 41 66 34 67 40 68
REMARK SMILES IDX 42 69 39 70 35 71 36 72 37 73 38 74 64 75 65 76 73 77 66 78
REMARK SMILES IDX 72 79 74 80 71 81 67 82 68 83 69 84 70 85 49 86 50 87 58 88
REMARK SMILES IDX 51 89 57 90 59 91 56 92 52 93 53 94 54 95 55 96
REMARK H PARENT 15 5 6 17 20 30 79 49 47 60
REMARK Flexibility Score: inf
ROOT
ATOM      1  C   UNL A   1      34.966  21.443  26.129  1.00  0.00     0.116 C 
ENDROOT
BRANCH   1   2
ATOM      2  N   UNL A   1      34.112  20.277  25.980  1.00  0.00    -0.352 N 
ATOM      3  C   UNL A   1      32.863  20.155  25.417  1.00  0.00     0.251 C 
ATOM      4  O   UNL A   1      32.354  19.041  25.317  1.00  0.00    -0.269 OA
ATOM      5  H   UNL A   1      34.487  19.440  26.340  1.00  0.00     0.163 HD
BRANCH   3   6
ATOM      6  C   UNL A   1      32.148  21.333  24.866  1.00  0.00     0.039 A 
ATOM      7  C   UNL A   1      31.004  23.669  23.792  1.00  0.00    -0.046 A 
ATOM      8  C   UNL A   1      31.717  22.777  22.974  1.00  0.00     0.004 A 
ATOM      9  C   UNL A   1      30.798  23.328  25.129  1.00  0.00     0.004 A 
ATOM     10  C   UNL A   1      32.291  21.621  23.508  1.00  0.00     0.014 A 
ATOM     11  C   UNL A   1      31.337  22.155  25.644  1.00  0.00     0.014 A 
BRANCH   7  12
ATOM     12  C   UNL A   1      30.447  24.925  23.177  1.00  0.00     0.056 C 
BRANCH  12  13
ATOM     13  C   UNL A   1      29.879  25.981  24.129  1.00  0.00     0.120 C 
BRANCH  13  14
ATOM     14  N   UNL A   1      30.271  27.337  23.791  1.00  0.00    -0.355 N 
ATOM     15  C   UNL A   1      31.278  28.136  24.239  1.00  0.00     0.226 C 
ATOM     16  O   UNL A   1      31.372  29.235  23.682  1.00  0.00    -0.274 OA
ATOM     17  H   UNL A   1      29.701  27.760  23.108  1.00  0.00     0.163 HD
BRANCH  15  18
ATOM     18  C   UNL A   1      32.281  27.709  25.351  1.00  0.00     0.049 C 
ATOM     19  C   UNL A   1      31.519  27.161  26.577  1.00  0.00     0.017 C 
ATOM     20  C   UNL A   1      33.132  28.890  25.852  1.00  0.00     0.017 C 
ATOM     21  C   UNL A   1      31.701  28.152  27.714  1.00  0.00     0.001 C 
ATOM     22  C   UNL A   1      32.908  29.006  27.358  1.00  0.00     0.001 C 
BRANCH  18  23
ATOM     23  C   UNL A   1      33.186  26.586  24.745  1.00  0.00     0.013 C 
ATOM     24  C   UNL A   1      33.748  25.549  25.714  1.00  0.00     0.005 C 
ENDBRANCH  18  23
ENDBRANCH  15  18
ENDBRANCH  13  14
ENDBRANCH  12  13
ENDBRANCH   7  12
ENDBRANCH   3   6
ENDBRANCH   1   2
BRANCH   1  25
ATOM     25  C   UNL A   1      35.748  21.722  24.842  1.00  0.00     0.023 C 
BRANCH  25  26
ATOM     26  C   UNL A   1      36.328  23.129  24.743  1.00  0.00     0.023 C 
BRANCH  26  27
ATOM     27  C   UNL A   1      37.355  23.457  25.811  1.00  0.00     0.116 C 
BRANCH  27  28
ATOM     28  N   UNL A   1      38.317  22.389  26.022  1.00  0.00    -0.352 N 
ATOM     29  C   UNL A   1      39.609  22.496  26.489  1.00  0.00     0.251 C 
ATOM     30  H   UNL A   1      38.010  21.479  25.808  1.00  0.00     0.163 HD
ATOM     31  O   UNL A   1      40.345  21.522  26.486  1.00  0.00    -0.269 OA
BRANCH  29  32
ATOM     32  C   UNL A   1      40.092  23.819  26.942  1.00  0.00     0.039 A 
ATOM     33  C   UNL A   1      40.108  24.876  26.032  1.00  0.00     0.014 A 
ATOM     34  C   UNL A   1      40.480  24.021  28.269  1.00  0.00     0.014 A 
ATOM     35  C   UNL A   1      40.470  26.151  26.469  1.00  0.00     0.010 A 
ATOM     36  C   UNL A   1      40.750  25.305  28.723  1.00  0.00     0.010 A 
ATOM     37  C   UNL A   1      40.768  26.381  27.823  1.00  0.00    -0.014 A 
BRANCH  37  38
ATOM     38  C   UNL A   1      41.151  27.733  28.302  1.00  0.00     0.031 A 
ATOM     39  C   UNL A   1      42.596  28.151  28.274  1.00  0.00     0.074 A 
ATOM     40  C   UNL A   1      40.208  28.561  28.793  1.00  0.00     0.049 A 
ATOM     41  N   UNL A   1      43.141  29.274  28.667  1.00  0.00    -0.248 NA
ATOM     42  C   UNL A   1      43.560  27.162  27.770  1.00  0.00     0.031 C 
ATOM     43  C   UNL A   1      38.783  28.240  28.919  1.00  0.00     0.029 A 
ATOM     44  N   UNL A   1      40.303  29.841  29.274  1.00  0.00    -0.354 N 
ATOM     45  C   UNL A   1      44.510  29.121  28.467  1.00  0.00     0.074 A 
ATOM     46  C   UNL A   1      44.715  27.769  27.994  1.00  0.00     0.031 C 
ATOM     47  C   UNL A   1      38.135  29.309  29.409  1.00  0.00     0.029 A 
ATOM     48  C   UNL A   1      39.098  30.376  29.665  1.00  0.00     0.049 A 
ATOM     49  H   UNL A   1      41.154  30.332  29.333  1.00  0.00     0.167 HD
ATOM     50  C   UNL A   1      45.499  30.032  28.631  1.00  0.00     0.034 A 
ATOM     51  C   UNL A   1      38.804  31.591  30.171  1.00  0.00     0.034 A 
ATOM     52  C   UNL A   1      45.272  31.381  29.090  1.00  0.00     0.049 A 
ATOM     53  C   UNL A   1      39.920  32.592  30.337  1.00  0.00     0.074 A 
ATOM     54  C   UNL A   1      46.188  32.403  29.258  1.00  0.00     0.029 A 
ATOM     55  N   UNL A   1      44.033  31.896  29.457  1.00  0.00    -0.354 N 
ATOM     56  N   UNL A   1      41.204  32.451  30.093  1.00  0.00    -0.248 NA
ATOM     57  C   UNL A   1      39.543  33.924  30.823  1.00  0.00     0.031 C 
ATOM     58  C   UNL A   1      45.518  33.513  29.784  1.00  0.00     0.029 A 
ATOM     59  C   UNL A   1      44.167  33.214  29.868  1.00  0.00     0.049 A 
ATOM     60  H   UNL A   1      43.185  31.397  29.430  1.00  0.00     0.167 HD
ATOM     61  C   UNL A   1      41.779  33.690  30.359  1.00  0.00     0.074 A 
ATOM     62  C   UNL A   1      40.699  34.567  30.764  1.00  0.00     0.031 C 
ATOM     63  C   UNL A   1      43.079  34.074  30.273  1.00  0.00     0.034 A 
BRANCH  50  64
ATOM     64  C   UNL A   1      46.911  29.583  28.331  1.00  0.00     0.023 A 
ATOM     65  C   UNL A   1      47.723  28.990  29.315  1.00  0.00     0.031 A 
ATOM     66  C   UNL A   1      47.471  29.788  27.057  1.00  0.00     0.131 A 
ATOM     67  C   UNL A   1      49.068  28.702  29.037  1.00  0.00     0.055 A 
ATOM     68  C   UNL A   1      48.784  29.416  26.761  1.00  0.00     0.041 A 
ATOM     69  F   UNL A   1      46.756  30.370  26.082  1.00  0.00    -0.206 F 
ATOM     70  C   UNL A   1      49.596  28.886  27.759  1.00  0.00     0.022 A 
BRANCH  67  71
ATOM     71  S   UNL A   1      50.155  28.234  30.412  1.00  0.00     0.124 S 
ATOM     72  O   UNL A   1      51.262  27.593  29.706  1.00  0.00    -0.237 OA
ATOM     73  O   UNL A   1      50.452  29.520  31.032  1.00  0.00    -0.237 OA
ATOM     74  O   UNL A   1      49.329  27.330  31.210  1.00  0.00    -0.744 OA
ENDBRANCH  67  71
ENDBRANCH  50  64
BRANCH  51  75
ATOM     75  C   UNL A   1      37.403  31.940  30.540  1.00  0.00     0.023 A 
ATOM     76  C   UNL A   1      36.529  32.516  29.604  1.00  0.00     0.031 A 
ATOM     77  C   UNL A   1      36.930  31.747  31.849  1.00  0.00     0.131 A 
ATOM     78  C   UNL A   1      35.248  32.930  30.002  1.00  0.00     0.055 A 
ATOM     79  C   UNL A   1      35.635  32.110  32.228  1.00  0.00     0.041 A 
ATOM     80  F   UNL A   1      37.720  31.192  32.782  1.00  0.00    -0.206 F 
ATOM     81  C   UNL A   1      34.790  32.719  31.306  1.00  0.00     0.022 A 
BRANCH  78  82
ATOM     82  S   UNL A   1      34.216  33.832  28.814  1.00  0.00     0.124 S 
ATOM     83  O   UNL A   1      35.104  34.922  28.419  1.00  0.00    -0.237 OA
ATOM     84  O   UNL A   1      33.960  32.814  27.802  1.00  0.00    -0.237 OA
ATOM     85  O   UNL A   1      33.054  34.230  29.605  1.00  0.00    -0.744 OA
ENDBRANCH  78  82
ENDBRANCH  51  75
BRANCH  63  86
ATOM     86  C   UNL A   1      43.385  35.523  30.568  1.00  0.00     0.023 A 
ATOM     87  C   UNL A   1      43.370  36.506  29.562  1.00  0.00     0.031 A 
ATOM     88  C   UNL A   1      43.734  35.918  31.872  1.00  0.00     0.131 A 
ATOM     89  C   UNL A   1      43.772  37.816  29.860  1.00  0.00     0.055 A 
ATOM     90  C   UNL A   1      44.064  37.239  32.177  1.00  0.00     0.041 A 
ATOM     91  F   UNL A   1      43.767  35.022  32.872  1.00  0.00    -0.206 F 
ATOM     92  C   UNL A   1      44.102  38.193  31.165  1.00  0.00     0.022 A 
BRANCH  89  93
ATOM     93  S   UNL A   1      43.984  38.992  28.495  1.00  0.00     0.124 S 
ATOM     94  O   UNL A   1      45.354  39.449  28.697  1.00  0.00    -0.237 OA
ATOM     95  O   UNL A   1      43.759  38.151  27.324  1.00  0.00    -0.237 OA
ATOM     96  O   UNL A   1      42.952  39.997  28.745  1.00  0.00    -0.744 OA
ENDBRANCH  89  93
ENDBRANCH  63  86
ENDBRANCH  37  38
ENDBRANCH  29  32
ENDBRANCH  27  28
ENDBRANCH  26  27
ENDBRANCH  25  26
ENDBRANCH   1  25
TORSDOF 19
ENDMDL
MODEL 3
REMARK VINA RESULT:     -11.1      4.057      9.400
REMARK SMILES CCC1(C(=O)NCCc2ccc(C(=O)NCCCCNC(=O)c3ccc(-c4c5nc(c(-c6cc(S(=O)(=O)[O-])ccc6F)c6ccc([nH]6)c(-c6cc(S(=O)(=O)[O-])ccc6F)c6nc(c(-c7cc(S(=O)(=O)[O-])ccc7F)c7ccc4[nH]7)C=C6)C=C5)cc3)cc2)CCCC1
REMARK SMILES IDX 16 1 15 2 13 3 14 4 12 6 9 7 10 8 87 9 11 10 86 11 8 12 7 13
REMARK SMILES IDX 6 14 4 15 5 16 3 18 88 19 91 20 89 21 90 22 2 23 1 24 17 25
REMARK SMILES IDX 18 26 19 27 20 28 21 29 22 31 23 32 24 33 85 34 25 35 84 36
REMARK SMILES IDX 26 37 27 38 28 39 78 40 29 41 83 42 77 43 79 44 30 45 82 46
REMARK SMILES IDX 76 47 75 48 31 50 63 51 43 52 62 53 44 54 47 55 61 56 80 57
REMARK SMILES IDX 45 58 46 59 60 61 81 62 48 63 32 64 33 65 41 66 34 67 40 68
REMARK SMILES IDX 42 69 39 70 35 71 36 72 37 73 38 74 64 75 65 76 73 77 66 78
REMARK SMILES IDX 72 79 74 80 71 81 67 82 68 83 69 84 70 85 49 86 50 87 58 88
REMARK SMILES IDX 51 89 57 90 59 91 56 92 52 93 53 94 54 95 55 96
REMARK H PARENT 15 5 6 17 20 30 79 49 47 60
REMARK Flexibility Score: inf
ROOT
ATOM      1  C   UNL A   1      34.910  21.158  26.069  1.00  0.00     0.116 C 
ENDROOT
BRANCH   1   2
ATOM      2  N   UNL A   1      34.054  20.022  25.770  1.00  0.00    -0.352 N 
ATOM      3  C   UNL A   1      32.809  19.975  25.190  1.00  0.00     0.251 C 
ATOM      4  O   UNL A   1      32.298  18.885  24.947  1.00  0.00    -0.269 OA
ATOM      5  H   UNL A   1      34.427  19.146  26.022  1.00  0.00     0.163 HD
BRANCH   3   6
ATOM      6  C   UNL A   1      32.097  21.215  24.791  1.00  0.00     0.039 A 
ATOM      7  C   UNL A   1      30.961  23.672  24.021  1.00  0.00    -0.046 A 
ATOM      8  C   UNL A   1      31.688  22.897  23.102  1.00  0.00     0.004 A 
ATOM      9  C   UNL A   1      30.738  23.156  25.297  1.00  0.00     0.004 A 
ATOM     10  C   UNL A   1      32.258  21.681  23.485  1.00  0.00     0.014 A 
ATOM     11  C   UNL A   1      31.273  21.926  25.660  1.00  0.00     0.014 A 
BRANCH   7  12
ATOM     12  C   UNL A   1      30.409  24.998  23.571  1.00  0.00     0.056 C 
BRANCH  12  13
ATOM     13  C   UNL A   1      30.039  26.011  24.658  1.00  0.00     0.120 C 
BRANCH  13  14
ATOM     14  N   UNL A   1      30.275  27.390  24.270  1.00  0.00    -0.355 N 
ATOM     15  C   UNL A   1      31.321  28.234  24.489  1.00  0.00     0.226 C 
ATOM     16  O   UNL A   1      31.228  29.344  23.952  1.00  0.00    -0.274 OA
ATOM     17  H   UNL A   1      29.541  27.791  23.750  1.00  0.00     0.163 HD
BRANCH  15  18
ATOM     18  C   UNL A   1      32.577  27.846  25.324  1.00  0.00     0.049 C 
ATOM     19  C   UNL A   1      33.736  27.440  24.390  1.00  0.00     0.017 C 
ATOM     20  C   UNL A   1      32.311  26.643  26.248  1.00  0.00     0.017 C 
ATOM     21  C   UNL A   1      33.972  25.949  24.568  1.00  0.00     0.001 C 
ATOM     22  C   UNL A   1      33.329  25.562  25.891  1.00  0.00     0.001 C 
BRANCH  18  23
ATOM     23  C   UNL A   1      32.981  29.108  26.154  1.00  0.00     0.013 C 
ATOM     24  C   UNL A   1      31.916  29.706  27.071  1.00  0.00     0.005 C 
ENDBRANCH  18  23
ENDBRANCH  15  18
ENDBRANCH  13  14
ENDBRANCH  12  13
ENDBRANCH   7  12
ENDBRANCH   3   6
ENDBRANCH   1   2
BRANCH   1  25
ATOM     25  C   UNL A   1      35.668  21.623  24.822  1.00  0.00     0.023 C 
BRANCH  25  26
ATOM     26  C   UNL A   1      36.175  23.059  24.885  1.00  0.00     0.023 C 
BRANCH  26  27
ATOM     27  C   UNL A   1      37.236  23.300  25.944  1.00  0.00     0.116 C 
BRANCH  27  28
ATOM     28  N   UNL A   1      38.244  22.255  25.988  1.00  0.00    -0.352 N 
ATOM     29  C   UNL A   1      39.572  22.377  26.330  1.00  0.00     0.251 C 
ATOM     30  H   UNL A   1      37.942  21.351  25.745  1.00  0.00     0.163 HD
ATOM     31  O   UNL A   1      40.332  21.432  26.191  1.00  0.00    -0.269 OA
BRANCH  29  32
ATOM     32  C   UNL A   1      40.062  23.684  26.821  1.00  0.00     0.039 A 
ATOM     33  C   UNL A   1      40.126  24.755  25.929  1.00  0.00     0.014 A 
ATOM     34  C   UNL A   1      40.407  23.860  28.164  1.00  0.00     0.014 A 
ATOM     35  C   UNL A   1      40.493  26.017  26.399  1.00  0.00     0.010 A 
ATOM     36  C   UNL A   1      40.683  25.132  28.646  1.00  0.00     0.010 A 
ATOM     37  C   UNL A   1      40.749  26.221  27.765  1.00  0.00    -0.014 A 
BRANCH  37  38
ATOM     38  C   UNL A   1      41.137  27.559  28.278  1.00  0.00     0.031 A 
ATOM     39  C   UNL A   1      42.588  27.958  28.293  1.00  0.00     0.074 A 
ATOM     40  C   UNL A   1      40.193  28.390  28.760  1.00  0.00     0.049 A 
ATOM     41  N   UNL A   1      43.137  29.067  28.720  1.00  0.00    -0.248 NA
ATOM     42  C   UNL A   1      43.552  26.965  27.795  1.00  0.00     0.031 C 
ATOM     43  C   UNL A   1      38.762  28.086  28.846  1.00  0.00     0.029 A 
ATOM     44  N   UNL A   1      40.293  29.660  29.267  1.00  0.00    -0.354 N 
ATOM     45  C   UNL A   1      44.508  28.899  28.551  1.00  0.00     0.074 A 
ATOM     46  C   UNL A   1      44.708  27.553  28.059  1.00  0.00     0.031 C 
ATOM     47  C   UNL A   1      38.115  29.155  29.339  1.00  0.00     0.029 A 
ATOM     48  C   UNL A   1      39.085  30.204  29.639  1.00  0.00     0.049 A 
ATOM     49  H   UNL A   1      41.148  30.139  29.356  1.00  0.00     0.167 HD
ATOM     50  C   UNL A   1      45.505  29.793  28.756  1.00  0.00     0.034 A 
ATOM     51  C   UNL A   1      38.795  31.414  30.159  1.00  0.00     0.034 A 
ATOM     52  C   UNL A   1      45.284  31.137  29.234  1.00  0.00     0.049 A 
ATOM     53  C   UNL A   1      39.919  32.396  30.371  1.00  0.00     0.074 A 
ATOM     54  C   UNL A   1      46.209  32.144  29.444  1.00  0.00     0.029 A 
ATOM     55  N   UNL A   1      44.044  31.662  29.580  1.00  0.00    -0.354 N 
ATOM     56  N   UNL A   1      41.206  32.242  30.156  1.00  0.00    -0.248 NA
ATOM     57  C   UNL A   1      39.547  33.724  30.872  1.00  0.00     0.031 C 
ATOM     58  C   UNL A   1      45.540  33.252  29.973  1.00  0.00     0.029 A 
ATOM     59  C   UNL A   1      44.184  32.969  30.018  1.00  0.00     0.049 A 
ATOM     60  H   UNL A   1      43.190  31.175  29.523  1.00  0.00     0.167 HD
ATOM     61  C   UNL A   1      41.790  33.469  30.459  1.00  0.00     0.074 A 
ATOM     62  C   UNL A   1      40.712  34.353  30.853  1.00  0.00     0.031 C 
ATOM     63  C   UNL A   1      43.097  33.837  30.412  1.00  0.00     0.034 A 
BRANCH  50  64
ATOM     64  C   UNL A   1      46.918  29.331  28.483  1.00  0.00     0.023 A 
ATOM     65  C   UNL A   1      47.365  29.055  27.178  1.00  0.00     0.031 A 
ATOM     66  C   UNL A   1      47.820  29.124  29.541  1.00  0.00     0.131 A 
ATOM     67  C   UNL A   1      48.641  28.507  26.973  1.00  0.00     0.055 A 
ATOM     68  C   UNL A   1      49.121  28.664  29.321  1.00  0.00     0.041 A 
ATOM     69  F   UNL A   1      47.448  29.348  30.811  1.00  0.00    -0.206 F 
ATOM     70  C   UNL A   1      49.532  28.335  28.033  1.00  0.00     0.022 A 
BRANCH  67  71
ATOM     71  S   UNL A   1      49.058  27.876  25.323  1.00  0.00     0.124 S 
ATOM     72  O   UNL A   1      50.279  28.621  25.025  1.00  0.00    -0.237 OA
ATOM     73  O   UNL A   1      49.224  26.447  25.564  1.00  0.00    -0.237 OA
ATOM     74  O   UNL A   1      47.900  28.244  24.512  1.00  0.00    -0.744 OA
ENDBRANCH  67  71
ENDBRANCH  50  64
BRANCH  51  75
ATOM     75  C   UNL A   1      37.389  31.775  30.500  1.00  0.00     0.023 A 
ATOM     76  C   UNL A   1      36.529  32.326  29.537  1.00  0.00     0.031 A 
ATOM     77  C   UNL A   1      36.898  31.618  31.808  1.00  0.00     0.131 A 
ATOM     78  C   UNL A   1      35.244  32.752  29.907  1.00  0.00     0.055 A 
ATOM     79  C   UNL A   1      35.600  31.993  32.159  1.00  0.00     0.041 A 
ATOM     80  F   UNL A   1      37.676  31.088  32.766  1.00  0.00    -0.206 F 
ATOM     81  C   UNL A   1      34.768  32.578  31.209  1.00  0.00     0.022 A 
BRANCH  78  82
ATOM     82  S   UNL A   1      34.229  33.624  28.681  1.00  0.00     0.124 S 
ATOM     83  O   UNL A   1      35.224  34.456  28.011  1.00  0.00    -0.237 OA
ATOM     84  O   UNL A   1      33.685  32.520  27.899  1.00  0.00    -0.237 OA
ATOM     85  O   UNL A   1      33.257  34.347  29.496  1.00  0.00    -0.744 OA
ENDBRANCH  78  82
ENDBRANCH  51  75
BRANCH  63  86
ATOM     86  C   UNL A   1      43.415  35.276  30.741  1.00  0.00     0.023 A 
ATOM     87  C   UNL A   1      43.441  36.276  29.753  1.00  0.00     0.031 A 
ATOM     88  C   UNL A   1      43.733  35.643  32.061  1.00  0.00     0.131 A 
ATOM     89  C   UNL A   1      43.852  37.576  30.085  1.00  0.00     0.055 A 
ATOM     90  C   UNL A   1      44.072  36.954  32.398  1.00  0.00     0.041 A 
ATOM     91  F   UNL A   1      43.726  34.730  33.045  1.00  0.00    -0.206 F 
ATOM     92  C   UNL A   1      44.151  37.925  31.405  1.00  0.00     0.022 A 
BRANCH  89  93
ATOM     93  S   UNL A   1      44.117  38.772  28.747  1.00  0.00     0.124 S 
ATOM     94  O   UNL A   1      43.995  40.045  29.450  1.00  0.00    -0.237 OA
ATOM     95  O   UNL A   1      45.456  38.427  28.283  1.00  0.00    -0.237 OA
ATOM     96  O   UNL A   1      43.039  38.478  27.805  1.00  0.00    -0.744 OA
ENDBRANCH  89  93
ENDBRANCH  63  86
ENDBRANCH  37  38
ENDBRANCH  29  32
ENDBRANCH  27  28
ENDBRANCH  26  27
ENDBRANCH  25  26
ENDBRANCH   1  25
TORSDOF 19
ENDMDL
