MODEL 1
REMARK VINA RESULT:     -12.7      0.000      0.000
REMARK SMILES Cc1ccc(Nc2c(F)cccc2I)c(CC(=O)NCCCCNC(=O)c2ccc(-c3c4nc(c(-c5cc(S(=O)(=O)[O-])ccc5F)c5ccc([nH]5)c(-c5cc(S(=O)(=O)[O-])ccc5F)c5nc(c(-c6cc(S(=O)(=O)[O-])ccc6F)c6ccc3[nH]6)C=C5)C=C4)cc2)c1
REMARK SMILES IDX 21 1 20 2 19 3 17 4 18 5 16 7 15 8 1 9 2 10 3 11 90 12 4 13
REMARK SMILES IDX 5 14 6 15 7 17 8 18 13 19 9 20 10 21 12 22 14 23 11 24 22 25
REMARK SMILES IDX 23 26 24 27 25 28 26 30 27 31 28 32 89 33 29 34 88 35 30 36
REMARK SMILES IDX 31 37 32 38 82 39 33 40 87 41 81 42 83 43 34 44 86 45 80 46
REMARK SMILES IDX 79 47 35 49 67 50 47 51 66 52 48 53 51 54 65 55 84 56 49 57
REMARK SMILES IDX 50 58 64 60 85 61 52 62 36 63 37 64 45 65 38 66 44 67 46 68
REMARK SMILES IDX 43 69 39 70 40 71 41 72 42 73 68 74 69 75 77 76 70 77 76 78
REMARK SMILES IDX 78 79 75 80 71 81 72 82 73 83 74 84 53 85 54 86 62 87 55 88
REMARK SMILES IDX 61 89 63 90 60 91 56 92 57 93 58 94 59 95
REMARK H PARENT 19 6 6 16 24 29 83 48 51 59
REMARK Flexibility Score: inf
ROOT
ATOM      1  C   UNL A   1      31.918  29.545  27.006  1.00  0.00     0.023 C 
ENDROOT
BRANCH   1   2
ATOM      2  C   UNL A   1      32.386  28.137  27.409  1.00  0.00     0.116 C 
BRANCH   2   3
ATOM      3  N   UNL A   1      31.365  27.113  27.200  1.00  0.00    -0.356 N 
ATOM      4  C   UNL A   1      31.453  25.917  26.555  1.00  0.00     0.224 C 
ATOM      5  O   UNL A   1      30.432  25.233  26.428  1.00  0.00    -0.275 OA
ATOM      6  H   UNL A   1      30.481  27.319  27.582  1.00  0.00     0.163 HD
BRANCH   4   7
ATOM      7  C   UNL A   1      32.765  25.428  25.974  1.00  0.00     0.137 C 
BRANCH   7   8
ATOM      8  C   UNL A   1      32.625  24.217  25.080  1.00  0.00    -0.015 A 
ATOM      9  C   UNL A   1      33.081  20.464  25.625  1.00  0.00     0.044 C 
ATOM     10  C   UNL A   1      32.773  21.774  24.962  1.00  0.00    -0.051 A 
ATOM     11  C   UNL A   1      32.608  21.852  23.581  1.00  0.00     0.005 A 
ATOM     12  C   UNL A   1      32.737  22.954  25.705  1.00  0.00     0.009 A 
ATOM     13  C   UNL A   1      32.444  23.093  22.956  1.00  0.00     0.026 A 
ATOM     14  C   UNL A   1      32.478  24.299  23.676  1.00  0.00     0.042 A 
BRANCH  14  15
ATOM     15  N   UNL A   1      32.376  25.547  23.017  1.00  0.00    -0.352 N 
ATOM     16  H   UNL A   1      33.056  25.705  22.323  1.00  0.00     0.167 HD
BRANCH  15  17
ATOM     17  C   UNL A   1      31.455  26.605  23.196  1.00  0.00     0.088 A 
ATOM     18  C   UNL A   1      30.071  26.378  23.289  1.00  0.00     0.147 A 
ATOM     19  C   UNL A   1      31.880  27.949  23.210  1.00  0.00     0.040 A 
ATOM     20  F   UNL A   1      29.585  25.127  23.303  1.00  0.00    -0.205 F 
ATOM     21  C   UNL A   1      29.152  27.424  23.401  1.00  0.00     0.041 A 
ATOM     22  C   UNL A   1      30.961  29.005  23.324  1.00  0.00     0.017 A 
ATOM     23  I   UNL A   1      33.899  28.492  23.003  1.00  0.00    -0.042 I 
ATOM     24  C   UNL A   1      29.596  28.741  23.417  1.00  0.00     0.004 A 
ENDBRANCH  15  17
ENDBRANCH  14  15
ENDBRANCH   7   8
ENDBRANCH   4   7
ENDBRANCH   2   3
ENDBRANCH   1   2
BRANCH   1  25
ATOM     25  C   UNL A   1      32.941  30.663  27.188  1.00  0.00     0.023 C 
BRANCH  25  26
ATOM     26  C   UNL A   1      34.271  30.192  27.755  1.00  0.00     0.116 C 
BRANCH  26  27
ATOM     27  N   UNL A   1      35.051  31.222  28.430  1.00  0.00    -0.352 N 
ATOM     28  C   UNL A   1      36.300  31.093  29.022  1.00  0.00     0.251 C 
ATOM     29  H   UNL A   1      34.643  32.117  28.472  1.00  0.00     0.163 HD
ATOM     30  O   UNL A   1      36.825  32.005  29.638  1.00  0.00    -0.269 OA
BRANCH  28  31
ATOM     31  C   UNL A   1      37.054  29.841  28.769  1.00  0.00     0.039 A 
ATOM     32  C   UNL A   1      37.247  28.991  29.862  1.00  0.00     0.014 A 
ATOM     33  C   UNL A   1      37.784  29.667  27.595  1.00  0.00     0.014 A 
ATOM     34  C   UNL A   1      38.342  28.132  29.870  1.00  0.00     0.010 A 
ATOM     35  C   UNL A   1      38.922  28.880  27.636  1.00  0.00     0.010 A 
ATOM     36  C   UNL A   1      39.242  28.177  28.806  1.00  0.00    -0.014 A 
BRANCH  36  37
ATOM     37  C   UNL A   1      40.604  27.661  28.907  1.00  0.00     0.031 A 
ATOM     38  C   UNL A   1      40.912  26.253  28.592  1.00  0.00     0.074 A 
ATOM     39  C   UNL A   1      41.609  28.483  29.287  1.00  0.00     0.049 A 
ATOM     40  N   UNL A   1      41.998  25.659  28.957  1.00  0.00    -0.248 NA
ATOM     41  C   UNL A   1      39.972  25.360  27.919  1.00  0.00     0.031 C 
ATOM     42  C   UNL A   1      43.047  28.230  29.214  1.00  0.00     0.029 A 
ATOM     43  N   UNL A   1      41.498  29.595  30.122  1.00  0.00    -0.354 N 
ATOM     44  C   UNL A   1      42.049  24.453  28.310  1.00  0.00     0.074 A 
ATOM     45  C   UNL A   1      40.710  24.249  27.819  1.00  0.00     0.031 C 
ATOM     46  C   UNL A   1      43.659  28.940  30.171  1.00  0.00     0.029 A 
ATOM     47  C   UNL A   1      42.628  29.575  30.968  1.00  0.00     0.049 A 
ATOM     48  H   UNL A   1      40.774  30.262  30.122  1.00  0.00     0.167 HD
ATOM     49  C   UNL A   1      43.259  23.848  28.147  1.00  0.00     0.034 A 
ATOM     50  C   UNL A   1      42.486  29.482  32.323  1.00  0.00     0.034 A 
ATOM     51  C   UNL A   1      44.260  24.386  29.079  1.00  0.00     0.049 A 
ATOM     52  C   UNL A   1      43.133  28.251  32.933  1.00  0.00     0.074 A 
ATOM     53  C   UNL A   1      45.444  25.096  28.972  1.00  0.00     0.029 A 
ATOM     54  N   UNL A   1      43.965  24.361  30.438  1.00  0.00    -0.354 N 
ATOM     55  N   UNL A   1      43.788  27.344  32.259  1.00  0.00    -0.248 NA
ATOM     56  C   UNL A   1      43.007  27.901  34.347  1.00  0.00     0.031 C 
ATOM     57  C   UNL A   1      45.824  25.531  30.283  1.00  0.00     0.029 A 
ATOM     58  C   UNL A   1      44.894  25.053  31.189  1.00  0.00     0.049 A 
ATOM     59  H   UNL A   1      43.182  23.903  30.820  1.00  0.00     0.167 HD
ATOM     60  C   UNL A   1      44.092  26.289  33.083  1.00  0.00     0.074 A 
ATOM     61  C   UNL A   1      43.585  26.689  34.384  1.00  0.00     0.031 C 
ATOM     62  C   UNL A   1      44.687  25.142  32.631  1.00  0.00     0.034 A 
BRANCH  49  63
ATOM     63  C   UNL A   1      43.584  22.857  27.039  1.00  0.00     0.023 A 
ATOM     64  C   UNL A   1      42.910  21.617  27.007  1.00  0.00     0.031 A 
ATOM     65  C   UNL A   1      44.621  22.993  26.086  1.00  0.00     0.131 A 
ATOM     66  C   UNL A   1      43.269  20.608  26.088  1.00  0.00     0.055 A 
ATOM     67  C   UNL A   1      44.928  22.018  25.130  1.00  0.00     0.041 A 
ATOM     68  F   UNL A   1      45.453  24.039  26.057  1.00  0.00    -0.206 F 
ATOM     69  C   UNL A   1      44.259  20.812  25.132  1.00  0.00     0.022 A 
BRANCH  66  70
ATOM     70  S   UNL A   1      42.497  18.970  26.210  1.00  0.00     0.124 S 
ATOM     71  O   UNL A   1      42.622  18.679  27.635  1.00  0.00    -0.237 OA
ATOM     72  O   UNL A   1      41.150  19.223  25.714  1.00  0.00    -0.237 OA
ATOM     73  O   UNL A   1      43.328  18.137  25.341  1.00  0.00    -0.744 OA
ENDBRANCH  66  70
ENDBRANCH  49  63
BRANCH  50  74
ATOM     74  C   UNL A   1      41.266  30.188  32.817  1.00  0.00     0.023 A 
ATOM     75  C   UNL A   1      41.303  31.601  32.785  1.00  0.00     0.031 A 
ATOM     76  C   UNL A   1      40.013  29.571  32.911  1.00  0.00     0.131 A 
ATOM     77  C   UNL A   1      40.121  32.336  32.633  1.00  0.00     0.055 A 
ATOM     78  C   UNL A   1      38.829  30.320  32.867  1.00  0.00     0.041 A 
ATOM     79  F   UNL A   1      39.903  28.234  32.908  1.00  0.00    -0.206 F 
ATOM     80  C   UNL A   1      38.879  31.703  32.674  1.00  0.00     0.022 A 
BRANCH  77  81
ATOM     81  S   UNL A   1      40.246  34.056  32.046  1.00  0.00     0.124 S 
ATOM     82  O   UNL A   1      39.011  34.645  32.547  1.00  0.00    -0.237 OA
ATOM     83  O   UNL A   1      41.479  34.528  32.678  1.00  0.00    -0.237 OA
ATOM     84  O   UNL A   1      40.339  33.914  30.595  1.00  0.00    -0.744 OA
ENDBRANCH  77  81
ENDBRANCH  50  74
BRANCH  62  85
ATOM     85  C   UNL A   1      45.053  23.976  33.525  1.00  0.00     0.023 A 
ATOM     86  C   UNL A   1      46.384  23.657  33.845  1.00  0.00     0.031 A 
ATOM     87  C   UNL A   1      44.071  23.098  34.041  1.00  0.00     0.131 A 
ATOM     88  C   UNL A   1      46.687  22.589  34.711  1.00  0.00     0.055 A 
ATOM     89  C   UNL A   1      44.381  21.990  34.836  1.00  0.00     0.041 A 
ATOM     90  F   UNL A   1      42.763  23.292  33.823  1.00  0.00    -0.206 F 
ATOM     91  C   UNL A   1      45.696  21.739  35.194  1.00  0.00     0.022 A 
BRANCH  88  92
ATOM     92  S   UNL A   1      48.403  22.374  35.254  1.00  0.00     0.124 S 
ATOM     93  O   UNL A   1      48.247  21.830  36.598  1.00  0.00    -0.237 OA
ATOM     94  O   UNL A   1      48.918  21.446  34.250  1.00  0.00    -0.237 OA
ATOM     95  O   UNL A   1      48.960  23.724  35.190  1.00  0.00    -0.744 OA
ENDBRANCH  88  92
ENDBRANCH  62  85
ENDBRANCH  36  37
ENDBRANCH  28  31
ENDBRANCH  26  27
ENDBRANCH  25  26
ENDBRANCH   1  25
TORSDOF 17
ENDMDL
MODEL 2
REMARK VINA RESULT:     -12.6      4.140     10.391
REMARK SMILES Cc1ccc(Nc2c(F)cccc2I)c(CC(=O)NCCCCNC(=O)c2ccc(-c3c4nc(c(-c5cc(S(=O)(=O)[O-])ccc5F)c5ccc([nH]5)c(-c5cc(S(=O)(=O)[O-])ccc5F)c5nc(c(-c6cc(S(=O)(=O)[O-])ccc6F)c6ccc3[nH]6)C=C5)C=C4)cc2)c1
REMARK SMILES IDX 21 1 20 2 19 3 17 4 18 5 16 7 15 8 1 9 2 10 3 11 90 12 4 13
REMARK SMILES IDX 5 14 6 15 7 17 8 18 13 19 9 20 10 21 12 22 14 23 11 24 22 25
REMARK SMILES IDX 23 26 24 27 25 28 26 30 27 31 28 32 89 33 29 34 88 35 30 36
REMARK SMILES IDX 31 37 32 38 82 39 33 40 87 41 81 42 83 43 34 44 86 45 80 46
REMARK SMILES IDX 79 47 35 49 67 50 47 51 66 52 48 53 51 54 65 55 84 56 49 57
REMARK SMILES IDX 50 58 64 60 85 61 52 62 36 63 37 64 45 65 38 66 44 67 46 68
REMARK SMILES IDX 43 69 39 70 40 71 41 72 42 73 68 74 69 75 77 76 70 77 76 78
REMARK SMILES IDX 78 79 75 80 71 81 72 82 73 83 74 84 53 85 54 86 62 87 55 88
REMARK SMILES IDX 61 89 63 90 60 91 56 92 57 93 58 94 59 95
REMARK H PARENT 19 6 6 16 24 29 83 48 51 59
REMARK Flexibility Score: inf
ROOT
ATOM      1  C   UNL A   1      37.824  20.999  24.959  1.00  0.00     0.023 C 
ENDROOT
BRANCH   1   2
ATOM      2  C   UNL A   1      36.304  20.932  25.183  1.00  0.00     0.116 C 
BRANCH   2   3
ATOM      3  N   UNL A   1      35.797  22.034  25.996  1.00  0.00    -0.356 N 
ATOM      4  C   UNL A   1      34.568  22.206  26.556  1.00  0.00     0.224 C 
ATOM      5  O   UNL A   1      34.326  23.264  27.146  1.00  0.00    -0.275 OA
ATOM      6  H   UNL A   1      36.439  22.762  26.163  1.00  0.00     0.163 HD
BRANCH   4   7
ATOM      7  C   UNL A   1      33.493  21.143  26.446  1.00  0.00     0.137 C 
BRANCH   7   8
ATOM      8  C   UNL A   1      32.938  20.974  25.049  1.00  0.00    -0.015 A 
ATOM      9  C   UNL A   1      32.471  17.968  22.739  1.00  0.00     0.044 C 
ATOM     10  C   UNL A   1      32.434  19.373  23.265  1.00  0.00    -0.051 A 
ATOM     11  C   UNL A   1      32.129  20.440  22.423  1.00  0.00     0.005 A 
ATOM     12  C   UNL A   1      32.795  19.647  24.584  1.00  0.00     0.009 A 
ATOM     13  C   UNL A   1      32.217  21.757  22.888  1.00  0.00     0.026 A 
ATOM     14  C   UNL A   1      32.648  22.059  24.190  1.00  0.00     0.042 A 
BRANCH  14  15
ATOM     15  N   UNL A   1      32.794  23.399  24.621  1.00  0.00    -0.352 N 
ATOM     16  H   UNL A   1      33.717  23.667  24.831  1.00  0.00     0.167 HD
BRANCH  15  17
ATOM     17  C   UNL A   1      31.826  24.414  24.800  1.00  0.00     0.088 A 
ATOM     18  C   UNL A   1      30.935  24.409  25.887  1.00  0.00     0.147 A 
ATOM     19  C   UNL A   1      31.659  25.441  23.848  1.00  0.00     0.040 A 
ATOM     20  F   UNL A   1      31.039  23.478  26.848  1.00  0.00    -0.205 F 
ATOM     21  C   UNL A   1      29.936  25.374  26.034  1.00  0.00     0.041 A 
ATOM     22  C   UNL A   1      30.657  26.415  23.991  1.00  0.00     0.017 A 
ATOM     23  I   UNL A   1      32.842  25.571  22.116  1.00  0.00    -0.042 I 
ATOM     24  C   UNL A   1      29.795  26.378  25.085  1.00  0.00     0.004 A 
ENDBRANCH  15  17
ENDBRANCH  14  15
ENDBRANCH   7   8
ENDBRANCH   4   7
ENDBRANCH   2   3
ENDBRANCH   1   2
BRANCH   1  25
ATOM     25  C   UNL A   1      38.649  21.510  26.138  1.00  0.00     0.023 C 
BRANCH  25  26
ATOM     26  C   UNL A   1      39.251  22.889  25.914  1.00  0.00     0.116 C 
BRANCH  26  27
ATOM     27  N   UNL A   1      40.661  23.007  26.260  1.00  0.00    -0.352 N 
ATOM     28  C   UNL A   1      41.343  24.142  26.675  1.00  0.00     0.251 C 
ATOM     29  H   UNL A   1      41.195  22.183  26.190  1.00  0.00     0.163 HD
ATOM     30  O   UNL A   1      42.549  24.147  26.855  1.00  0.00    -0.269 OA
BRANCH  28  31
ATOM     31  C   UNL A   1      40.538  25.337  27.029  1.00  0.00     0.039 A 
ATOM     32  C   UNL A   1      40.783  26.501  26.295  1.00  0.00     0.014 A 
ATOM     33  C   UNL A   1      39.806  25.384  28.214  1.00  0.00     0.014 A 
ATOM     34  C   UNL A   1      40.513  27.738  26.872  1.00  0.00     0.010 A 
ATOM     35  C   UNL A   1      39.619  26.611  28.826  1.00  0.00     0.010 A 
ATOM     36  C   UNL A   1      40.049  27.782  28.186  1.00  0.00    -0.014 A 
BRANCH  36  37
ATOM     37  C   UNL A   1      40.146  28.981  29.014  1.00  0.00     0.031 A 
ATOM     38  C   UNL A   1      39.126  30.045  28.939  1.00  0.00     0.074 A 
ATOM     39  C   UNL A   1      41.181  29.125  29.874  1.00  0.00     0.049 A 
ATOM     40  N   UNL A   1      39.305  31.242  29.386  1.00  0.00    -0.248 NA
ATOM     41  C   UNL A   1      37.843  29.875  28.261  1.00  0.00     0.031 C 
ATOM     42  C   UNL A   1      41.325  30.112  30.942  1.00  0.00     0.029 A 
ATOM     43  N   UNL A   1      42.461  28.590  29.725  1.00  0.00    -0.354 N 
ATOM     44  C   UNL A   1      38.095  31.882  29.356  1.00  0.00     0.074 A 
ATOM     45  C   UNL A   1      37.271  31.059  28.507  1.00  0.00     0.031 C 
ATOM     46  C   UNL A   1      42.630  30.333  31.152  1.00  0.00     0.029 A 
ATOM     47  C   UNL A   1      43.363  29.590  30.146  1.00  0.00     0.049 A 
ATOM     48  H   UNL A   1      42.689  27.693  29.390  1.00  0.00     0.167 HD
ATOM     49  C   UNL A   1      37.901  32.953  30.175  1.00  0.00     0.034 A 
ATOM     50  C   UNL A   1      44.293  30.102  29.287  1.00  0.00     0.034 A 
ATOM     51  C   UNL A   1      39.178  33.513  30.642  1.00  0.00     0.049 A 
ATOM     52  C   UNL A   1      44.161  31.594  29.045  1.00  0.00     0.074 A 
ATOM     53  C   UNL A   1      39.821  33.651  31.860  1.00  0.00     0.029 A 
ATOM     54  N   UNL A   1      40.114  33.889  29.684  1.00  0.00    -0.354 N 
ATOM     55  N   UNL A   1      43.261  32.361  29.600  1.00  0.00    -0.248 NA
ATOM     56  C   UNL A   1      44.982  32.322  28.078  1.00  0.00     0.031 C 
ATOM     57  C   UNL A   1      41.168  34.071  31.609  1.00  0.00     0.029 A 
ATOM     58  C   UNL A   1      41.330  34.225  30.244  1.00  0.00     0.049 A 
ATOM     59  H   UNL A   1      39.930  33.910  28.717  1.00  0.00     0.167 HD
ATOM     60  C   UNL A   1      43.313  33.613  29.039  1.00  0.00     0.074 A 
ATOM     61  C   UNL A   1      44.413  33.539  28.093  1.00  0.00     0.031 C 
ATOM     62  C   UNL A   1      42.419  34.602  29.349  1.00  0.00     0.034 A 
BRANCH  49  63
ATOM     63  C   UNL A   1      36.543  33.419  30.676  1.00  0.00     0.023 A 
ATOM     64  C   UNL A   1      35.648  34.030  29.769  1.00  0.00     0.031 A 
ATOM     65  C   UNL A   1      36.117  33.430  32.026  1.00  0.00     0.131 A 
ATOM     66  C   UNL A   1      34.435  34.605  30.206  1.00  0.00     0.055 A 
ATOM     67  C   UNL A   1      34.883  33.938  32.446  1.00  0.00     0.041 A 
ATOM     68  F   UNL A   1      36.890  33.020  33.036  1.00  0.00    -0.206 F 
ATOM     69  C   UNL A   1      34.036  34.539  31.538  1.00  0.00     0.022 A 
BRANCH  66  70
ATOM     70  S   UNL A   1      33.413  35.538  29.033  1.00  0.00     0.124 S 
ATOM     71  O   UNL A   1      32.705  36.463  29.912  1.00  0.00    -0.237 OA
ATOM     72  O   UNL A   1      34.412  36.120  28.145  1.00  0.00    -0.237 OA
ATOM     73  O   UNL A   1      32.572  34.508  28.422  1.00  0.00    -0.744 OA
ENDBRANCH  66  70
ENDBRANCH  49  63
BRANCH  50  74
ATOM     74  C   UNL A   1      44.795  29.080  28.319  1.00  0.00     0.023 A 
ATOM     75  C   UNL A   1      45.675  28.103  28.839  1.00  0.00     0.031 A 
ATOM     76  C   UNL A   1      44.160  28.804  27.103  1.00  0.00     0.131 A 
ATOM     77  C   UNL A   1      45.732  26.827  28.266  1.00  0.00     0.055 A 
ATOM     78  C   UNL A   1      44.305  27.560  26.474  1.00  0.00     0.041 A 
ATOM     79  F   UNL A   1      43.285  29.671  26.572  1.00  0.00    -0.206 F 
ATOM     80  C   UNL A   1      45.050  26.547  27.082  1.00  0.00     0.022 A 
BRANCH  77  81
ATOM     81  S   UNL A   1      46.422  25.467  29.262  1.00  0.00     0.124 S 
ATOM     82  O   UNL A   1      47.821  25.465  28.858  1.00  0.00    -0.237 OA
ATOM     83  O   UNL A   1      46.155  25.899  30.635  1.00  0.00    -0.237 OA
ATOM     84  O   UNL A   1      45.638  24.307  28.842  1.00  0.00    -0.744 OA
ENDBRANCH  77  81
ENDBRANCH  50  74
BRANCH  62  85
ATOM     85  C   UNL A   1      42.472  35.997  28.760  1.00  0.00     0.023 A 
ATOM     86  C   UNL A   1      42.916  37.110  29.494  1.00  0.00     0.031 A 
ATOM     87  C   UNL A   1      42.014  36.269  27.450  1.00  0.00     0.131 A 
ATOM     88  C   UNL A   1      42.989  38.387  28.904  1.00  0.00     0.055 A 
ATOM     89  C   UNL A   1      42.012  37.552  26.894  1.00  0.00     0.041 A 
ATOM     90  F   UNL A   1      41.574  35.297  26.638  1.00  0.00    -0.206 F 
ATOM     91  C   UNL A   1      42.521  38.621  27.614  1.00  0.00     0.022 A 
BRANCH  88  92
ATOM     92  S   UNL A   1      43.778  39.728  29.834  1.00  0.00     0.124 S 
ATOM     93  O   UNL A   1      43.872  39.172  31.179  1.00  0.00    -0.237 OA
ATOM     94  O   UNL A   1      45.043  39.880  29.120  1.00  0.00    -0.237 OA
ATOM     95  O   UNL A   1      42.847  40.846  29.687  1.00  0.00    -0.744 OA
ENDBRANCH  88  92
ENDBRANCH  62  85
ENDBRANCH  36  37
ENDBRANCH  28  31
ENDBRANCH  26  27
ENDBRANCH  25  26
ENDBRANCH   1  25
TORSDOF 17
ENDMDL
MODEL 3
REMARK VINA RESULT:     -12.6      4.213     10.605
REMARK SMILES Cc1ccc(Nc2c(F)cccc2I)c(CC(=O)NCCCCNC(=O)c2ccc(-c3c4nc(c(-c5cc(S(=O)(=O)[O-])ccc5F)c5ccc([nH]5)c(-c5cc(S(=O)(=O)[O-])ccc5F)c5nc(c(-c6cc(S(=O)(=O)[O-])ccc6F)c6ccc3[nH]6)C=C5)C=C4)cc2)c1
REMARK SMILES IDX 21 1 20 2 19 3 17 4 18 5 16 7 15 8 1 9 2 10 3 11 90 12 4 13
REMARK SMILES IDX 5 14 6 15 7 17 8 18 13 19 9 20 10 21 12 22 14 23 11 24 22 25
REMARK SMILES IDX 23 26 24 27 25 28 26 30 27 31 28 32 89 33 29 34 88 35 30 36
REMARK SMILES IDX 31 37 32 38 82 39 33 40 87 41 81 42 83 43 34 44 86 45 80 46
REMARK SMILES IDX 79 47 35 49 67 50 47 51 66 52 48 53 51 54 65 55 84 56 49 57
REMARK SMILES IDX 50 58 64 60 85 61 52 62 36 63 37 64 45 65 38 66 44 67 46 68
REMARK SMILES IDX 43 69 39 70 40 71 41 72 42 73 68 74 69 75 77 76 70 77 76 78
REMARK SMILES IDX 78 79 75 80 71 81 72 82 73 83 74 84 53 85 54 86 62 87 55 88
REMARK SMILES IDX 61 89 63 90 60 91 56 92 57 93 58 94 59 95
REMARK H PARENT 19 6 6 16 24 29 83 48 51 59
REMARK Flexibility Score: inf
ROOT
ATOM      1  C   UNL A   1      36.769  21.956  24.662  1.00  0.00     0.023 C 
ENDROOT
BRANCH   1   2
ATOM      2  C   UNL A   1      36.184  23.378  24.629  1.00  0.00     0.116 C 
BRANCH   2   3
ATOM      3  N   UNL A   1      35.415  23.652  23.418  1.00  0.00    -0.356 N 
ATOM      4  C   UNL A   1      34.421  24.558  23.207  1.00  0.00     0.224 C 
ATOM      5  O   UNL A   1      33.847  24.568  22.114  1.00  0.00    -0.275 OA
ATOM      6  H   UNL A   1      35.651  23.099  22.638  1.00  0.00     0.163 HD
BRANCH   4   7
ATOM      7  C   UNL A   1      33.993  25.528  24.291  1.00  0.00     0.137 C 
BRANCH   7   8
ATOM      8  C   UNL A   1      32.523  25.879  24.254  1.00  0.00    -0.015 A 
ATOM      9  C   UNL A   1      30.573  28.983  23.182  1.00  0.00     0.044 C 
ATOM     10  C   UNL A   1      30.878  27.599  23.675  1.00  0.00    -0.051 A 
ATOM     11  C   UNL A   1      29.886  26.818  24.264  1.00  0.00     0.005 A 
ATOM     12  C   UNL A   1      32.181  27.103  23.637  1.00  0.00     0.009 A 
ATOM     13  C   UNL A   1      30.203  25.579  24.833  1.00  0.00     0.026 A 
ATOM     14  C   UNL A   1      31.521  25.094  24.870  1.00  0.00     0.042 A 
BRANCH  14  15
ATOM     15  N   UNL A   1      31.831  23.870  25.508  1.00  0.00    -0.352 N 
ATOM     16  H   UNL A   1      31.762  23.886  26.489  1.00  0.00     0.167 HD
BRANCH  15  17
ATOM     17  C   UNL A   1      32.226  22.627  24.962  1.00  0.00     0.088 A 
ATOM     18  C   UNL A   1      31.774  22.188  23.706  1.00  0.00     0.147 A 
ATOM     19  C   UNL A   1      33.035  21.732  25.692  1.00  0.00     0.040 A 
ATOM     20  F   UNL A   1      31.017  22.988  22.938  1.00  0.00    -0.205 F 
ATOM     21  C   UNL A   1      32.110  20.935  23.190  1.00  0.00     0.041 A 
ATOM     22  C   UNL A   1      33.377  20.470  25.179  1.00  0.00     0.017 A 
ATOM     23  I   UNL A   1      33.743  22.174  27.621  1.00  0.00    -0.042 I 
ATOM     24  C   UNL A   1      32.911  20.072  23.928  1.00  0.00     0.004 A 
ENDBRANCH  15  17
ENDBRANCH  14  15
ENDBRANCH   7   8
ENDBRANCH   4   7
ENDBRANCH   2   3
ENDBRANCH   1   2
BRANCH   1  25
ATOM     25  C   UNL A   1      38.061  21.786  25.458  1.00  0.00     0.023 C 
BRANCH  25  26
ATOM     26  C   UNL A   1      38.585  23.081  26.061  1.00  0.00     0.116 C 
BRANCH  26  27
ATOM     27  N   UNL A   1      39.981  23.044  26.478  1.00  0.00    -0.352 N 
ATOM     28  C   UNL A   1      40.768  24.101  26.913  1.00  0.00     0.251 C 
ATOM     29  H   UNL A   1      40.419  22.163  26.446  1.00  0.00     0.163 HD
ATOM     30  O   UNL A   1      41.955  23.971  27.155  1.00  0.00    -0.269 OA
BRANCH  28  31
ATOM     31  C   UNL A   1      40.088  25.386  27.210  1.00  0.00     0.039 A 
ATOM     32  C   UNL A   1      40.507  26.503  26.479  1.00  0.00     0.014 A 
ATOM     33  C   UNL A   1      39.303  25.536  28.350  1.00  0.00     0.014 A 
ATOM     34  C   UNL A   1      40.352  27.771  27.029  1.00  0.00     0.010 A 
ATOM     35  C   UNL A   1      39.226  26.787  28.939  1.00  0.00     0.010 A 
ATOM     36  C   UNL A   1      39.824  27.890  28.314  1.00  0.00    -0.014 A 
BRANCH  36  37
ATOM     37  C   UNL A   1      40.014  29.082  29.134  1.00  0.00     0.031 A 
ATOM     38  C   UNL A   1      39.035  30.187  29.113  1.00  0.00     0.074 A 
ATOM     39  C   UNL A   1      41.098  29.183  29.938  1.00  0.00     0.049 A 
ATOM     40  N   UNL A   1      39.287  31.375  29.549  1.00  0.00    -0.248 NA
ATOM     41  C   UNL A   1      37.713  30.071  28.505  1.00  0.00     0.031 C 
ATOM     42  C   UNL A   1      41.339  30.161  30.996  1.00  0.00     0.029 A 
ATOM     43  N   UNL A   1      42.346  28.596  29.721  1.00  0.00    -0.354 N 
ATOM     44  C   UNL A   1      38.104  32.064  29.584  1.00  0.00     0.074 A 
ATOM     45  C   UNL A   1      37.203  31.277  28.781  1.00  0.00     0.031 C 
ATOM     46  C   UNL A   1      42.661  30.329  31.135  1.00  0.00     0.029 A 
ATOM     47  C   UNL A   1      43.309  29.558  30.093  1.00  0.00     0.049 A 
ATOM     48  H   UNL A   1      42.519  27.691  29.375  1.00  0.00     0.167 HD
ATOM     49  C   UNL A   1      37.998  33.141  30.411  1.00  0.00     0.034 A 
ATOM     50  C   UNL A   1      44.211  30.033  29.184  1.00  0.00     0.034 A 
ATOM     51  C   UNL A   1      39.319  33.648  30.808  1.00  0.00     0.049 A 
ATOM     52  C   UNL A   1      44.128  31.530  28.949  1.00  0.00     0.074 A 
ATOM     53  C   UNL A   1      40.032  33.757  31.990  1.00  0.00     0.029 A 
ATOM     54  N   UNL A   1      40.217  33.986  29.802  1.00  0.00    -0.354 N 
ATOM     55  N   UNL A   1      43.291  32.332  29.551  1.00  0.00    -0.248 NA
ATOM     56  C   UNL A   1      44.925  32.225  27.938  1.00  0.00     0.031 C 
ATOM     57  C   UNL A   1      41.379  34.122  31.667  1.00  0.00     0.029 A 
ATOM     58  C   UNL A   1      41.474  34.272  30.296  1.00  0.00     0.049 A 
ATOM     59  H   UNL A   1      39.983  34.017  28.846  1.00  0.00     0.167 HD
ATOM     60  C   UNL A   1      43.364  33.581  28.987  1.00  0.00     0.074 A 
ATOM     61  C   UNL A   1      44.407  33.465  27.984  1.00  0.00     0.031 C 
ATOM     62  C   UNL A   1      42.529  34.606  29.343  1.00  0.00     0.034 A 
BRANCH  49  63
ATOM     63  C   UNL A   1      36.688  33.661  30.983  1.00  0.00     0.023 A 
ATOM     64  C   UNL A   1      35.696  34.144  30.102  1.00  0.00     0.031 A 
ATOM     65  C   UNL A   1      36.401  33.845  32.357  1.00  0.00     0.131 A 
ATOM     66  C   UNL A   1      34.523  34.764  30.582  1.00  0.00     0.055 A 
ATOM     67  C   UNL A   1      35.205  34.397  32.832  1.00  0.00     0.041 A 
ATOM     68  F   UNL A   1      37.278  33.575  33.328  1.00  0.00    -0.206 F 
ATOM     69  C   UNL A   1      34.261  34.870  31.945  1.00  0.00     0.022 A 
BRANCH  66  70
ATOM     70  S   UNL A   1      33.371  35.532  29.409  1.00  0.00     0.124 S 
ATOM     71  O   UNL A   1      34.275  36.040  28.382  1.00  0.00    -0.237 OA
ATOM     72  O   UNL A   1      32.521  34.410  29.029  1.00  0.00    -0.237 OA
ATOM     73  O   UNL A   1      32.710  36.564  30.207  1.00  0.00    -0.744 OA
ENDBRANCH  66  70
ENDBRANCH  49  63
BRANCH  50  74
ATOM     74  C   UNL A   1      44.620  28.993  28.192  1.00  0.00     0.023 A 
ATOM     75  C   UNL A   1      45.438  27.948  28.678  1.00  0.00     0.031 A 
ATOM     76  C   UNL A   1      43.941  28.782  26.986  1.00  0.00     0.131 A 
ATOM     77  C   UNL A   1      45.392  26.680  28.087  1.00  0.00     0.055 A 
ATOM     78  C   UNL A   1      43.984  27.541  26.336  1.00  0.00     0.041 A 
ATOM     79  F   UNL A   1      43.120  29.717  26.486  1.00  0.00    -0.206 F 
ATOM     80  C   UNL A   1      44.667  26.468  26.915  1.00  0.00     0.022 A 
BRANCH  77  81
ATOM     81  S   UNL A   1      46.002  25.259  29.049  1.00  0.00     0.124 S 
ATOM     82  O   UNL A   1      44.765  24.635  29.500  1.00  0.00    -0.237 OA
ATOM     83  O   UNL A   1      46.774  24.503  28.062  1.00  0.00    -0.237 OA
ATOM     84  O   UNL A   1      46.817  25.879  30.092  1.00  0.00    -0.744 OA
ENDBRANCH  77  81
ENDBRANCH  50  74
BRANCH  62  85
ATOM     85  C   UNL A   1      42.607  35.998  28.752  1.00  0.00     0.023 A 
ATOM     86  C   UNL A   1      43.083  37.102  29.479  1.00  0.00     0.031 A 
ATOM     87  C   UNL A   1      42.142  36.279  27.446  1.00  0.00     0.131 A 
ATOM     88  C   UNL A   1      43.179  38.376  28.887  1.00  0.00     0.055 A 
ATOM     89  C   UNL A   1      42.164  37.560  26.887  1.00  0.00     0.041 A 
ATOM     90  F   UNL A   1      41.673  35.315  26.640  1.00  0.00    -0.206 F 
ATOM     91  C   UNL A   1      42.703  38.618  27.600  1.00  0.00     0.022 A 
BRANCH  88  92
ATOM     92  S   UNL A   1      44.006  39.701  29.807  1.00  0.00     0.124 S 
ATOM     93  O   UNL A   1      43.467  40.905  29.186  1.00  0.00    -0.237 OA
ATOM     94  O   UNL A   1      43.559  39.437  31.172  1.00  0.00    -0.237 OA
ATOM     95  O   UNL A   1      45.427  39.458  29.564  1.00  0.00    -0.744 OA
ENDBRANCH  88  92
ENDBRANCH  62  85
ENDBRANCH  36  37
ENDBRANCH  28  31
ENDBRANCH  26  27
ENDBRANCH  25  26
ENDBRANCH   1  25
TORSDOF 17
ENDMDL
