MODEL 1
REMARK VINA RESULT:     -13.0      0.000      0.000
REMARK SMILES Cc1cc(C(=O)NCCCCNC(=O)c2ccc(-c3c4nc(c(-c5cc(S(=O)(=O)[O-])ccc5F)c5ccc([nH]5)c(-c5cc(S(=O)(=O)[O-])ccc5F)c5nc(c(-c6cc(S(=O)(=O)[O-])ccc6F)c6ccc3[nH]6)C=C5)C=C4)cc2)nc(N2CCN(c3ccccc3Cl)CC2)n1
REMARK SMILES IDX 10 1 9 2 8 3 7 4 5 5 6 6 4 8 1 9 2 10 3 11 93 12 79 13 78 14
REMARK SMILES IDX 80 15 81 16 92 17 82 18 91 19 83 20 84 21 85 22 89 23 86 24
REMARK SMILES IDX 88 25 90 26 87 27 11 28 12 29 13 30 14 32 15 33 16 34 77 35
REMARK SMILES IDX 17 36 76 37 18 38 19 39 20 40 70 41 21 42 75 43 69 44 71 45
REMARK SMILES IDX 22 46 74 47 68 48 67 49 23 51 55 52 35 53 54 54 36 55 39 56
REMARK SMILES IDX 53 57 72 58 37 59 38 60 52 62 73 63 40 64 24 65 25 66 33 67
REMARK SMILES IDX 26 68 32 69 34 70 31 71 27 72 28 73 29 74 30 75 56 76 57 77
REMARK SMILES IDX 65 78 58 79 64 80 66 81 63 82 59 83 60 84 61 85 62 86 41 87
REMARK SMILES IDX 42 88 50 89 43 90 49 91 51 92 48 93 44 94 45 95 46 96 47 97
REMARK H PARENT 7 7 12 31 71 50 39 61
REMARK Flexibility Score: inf
ROOT
ATOM      1  C   UNL A   1      31.920  31.390  26.662  1.00  0.00     0.023 C 
ENDROOT
BRANCH   1   2
ATOM      2  C   UNL A   1      32.002  29.868  26.823  1.00  0.00     0.023 C 
BRANCH   2   3
ATOM      3  C   UNL A   1      33.366  29.285  26.447  1.00  0.00     0.116 C 
BRANCH   3   4
ATOM      4  N   UNL A   1      33.627  29.522  25.047  1.00  0.00    -0.351 N 
ATOM      5  C   UNL A   1      33.127  28.951  23.903  1.00  0.00     0.270 C 
ATOM      6  O   UNL A   1      33.650  29.311  22.845  1.00  0.00    -0.268 OA
ATOM      7  H   UNL A   1      34.291  30.229  24.881  1.00  0.00     0.163 HD
BRANCH   5   8
ATOM      8  C   UNL A   1      31.976  27.982  23.871  1.00  0.00     0.133 A 
ATOM      9  C   UNL A   1      28.297  27.476  23.499  1.00  0.00     0.067 C 
ATOM     10  C   UNL A   1      29.771  27.239  23.642  1.00  0.00     0.044 A 
ATOM     11  C   UNL A   1      30.644  28.301  23.776  1.00  0.00     0.058 A 
ATOM     12  N   UNL A   1      30.181  25.955  23.681  1.00  0.00    -0.218 NA
ATOM     13  C   UNL A   1      31.483  25.730  23.894  1.00  0.00     0.226 A 
ATOM     14  N   UNL A   1      32.386  26.705  23.965  1.00  0.00    -0.208 NA
BRANCH  13  15
ATOM     15  N   UNL A   1      31.954  24.457  24.104  1.00  0.00    -0.337 N 
ATOM     16  C   UNL A   1      32.884  23.866  23.146  1.00  0.00     0.141 C 
ATOM     17  C   UNL A   1      30.939  23.555  24.675  1.00  0.00     0.141 C 
ATOM     18  C   UNL A   1      33.554  22.615  23.773  1.00  0.00     0.138 C 
ATOM     19  C   UNL A   1      31.589  22.287  25.256  1.00  0.00     0.138 C 
ATOM     20  N   UNL A   1      32.520  21.704  24.276  1.00  0.00    -0.367 N 
BRANCH  20  21
ATOM     21  C   UNL A   1      32.643  20.333  24.191  1.00  0.00     0.056 A 
ATOM     22  C   UNL A   1      33.113  19.593  25.284  1.00  0.00     0.027 A 
ATOM     23  C   UNL A   1      32.312  19.625  23.016  1.00  0.00     0.064 A 
ATOM     24  C   UNL A   1      33.250  18.202  25.215  1.00  0.00     0.002 A 
ATOM     25  C   UNL A   1      32.455  18.236  22.942  1.00  0.00     0.023 A 
ATOM     26  Cl  UNL A   1      31.779  20.442  21.582  1.00  0.00    -0.082 Cl
ATOM     27  C   UNL A   1      32.924  17.524  24.043  1.00  0.00     0.002 A 
ENDBRANCH  20  21
ENDBRANCH  13  15
ENDBRANCH   5   8
ENDBRANCH   3   4
ENDBRANCH   2   3
ENDBRANCH   1   2
BRANCH   1  28
ATOM     28  C   UNL A   1      33.032  32.164  27.363  1.00  0.00     0.116 C 
BRANCH  28  29
ATOM     29  N   UNL A   1      32.681  33.552  27.615  1.00  0.00    -0.352 N 
ATOM     30  C   UNL A   1      33.223  34.419  28.536  1.00  0.00     0.251 C 
ATOM     31  H   UNL A   1      31.961  33.920  27.054  1.00  0.00     0.163 HD
ATOM     32  O   UNL A   1      32.733  35.521  28.700  1.00  0.00    -0.269 OA
BRANCH  30  33
ATOM     33  C   UNL A   1      34.373  33.966  29.348  1.00  0.00     0.039 A 
ATOM     34  C   UNL A   1      34.130  33.133  30.442  1.00  0.00     0.014 A 
ATOM     35  C   UNL A   1      35.678  34.326  29.003  1.00  0.00     0.014 A 
ATOM     36  C   UNL A   1      35.208  32.605  31.156  1.00  0.00     0.010 A 
ATOM     37  C   UNL A   1      36.751  33.749  29.676  1.00  0.00     0.010 A 
ATOM     38  C   UNL A   1      36.525  32.882  30.755  1.00  0.00    -0.014 A 
BRANCH  38  39
ATOM     39  C   UNL A   1      37.683  32.271  31.455  1.00  0.00     0.031 A 
ATOM     40  C   UNL A   1      38.437  31.142  30.810  1.00  0.00     0.074 A 
ATOM     41  C   UNL A   1      38.002  32.683  32.697  1.00  0.00     0.049 A 
ATOM     42  N   UNL A   1      39.417  30.421  31.289  1.00  0.00    -0.248 NA
ATOM     43  C   UNL A   1      38.004  30.751  29.461  1.00  0.00     0.031 C 
ATOM     44  C   UNL A   1      37.309  33.737  33.442  1.00  0.00     0.029 A 
ATOM     45  N   UNL A   1      38.981  32.258  33.557  1.00  0.00    -0.354 N 
ATOM     46  C   UNL A   1      39.709  29.481  30.306  1.00  0.00     0.074 A 
ATOM     47  C   UNL A   1      38.759  29.688  29.234  1.00  0.00     0.031 C 
ATOM     48  C   UNL A   1      37.896  33.887  34.640  1.00  0.00     0.029 A 
ATOM     49  C   UNL A   1      38.980  32.917  34.765  1.00  0.00     0.049 A 
ATOM     50  H   UNL A   1      39.625  31.548  33.333  1.00  0.00     0.167 HD
ATOM     51  C   UNL A   1      40.695  28.548  30.292  1.00  0.00     0.034 A 
ATOM     52  C   UNL A   1      39.757  32.750  35.852  1.00  0.00     0.034 A 
ATOM     53  C   UNL A   1      41.641  28.367  31.365  1.00  0.00     0.049 A 
ATOM     54  C   UNL A   1      40.843  31.707  35.817  1.00  0.00     0.074 A 
ATOM     55  C   UNL A   1      42.714  27.497  31.434  1.00  0.00     0.029 A 
ATOM     56  N   UNL A   1      41.621  29.066  32.568  1.00  0.00    -0.354 N 
ATOM     57  N   UNL A   1      41.143  30.861  34.859  1.00  0.00    -0.248 NA
ATOM     58  C   UNL A   1      41.700  31.605  37.004  1.00  0.00     0.031 C 
ATOM     59  C   UNL A   1      43.305  27.626  32.697  1.00  0.00     0.029 A 
ATOM     60  C   UNL A   1      42.646  28.627  33.392  1.00  0.00     0.049 A 
ATOM     61  H   UNL A   1      40.973  29.770  32.799  1.00  0.00     0.167 HD
ATOM     62  C   UNL A   1      42.245  30.145  35.318  1.00  0.00     0.074 A 
ATOM     63  C   UNL A   1      42.560  30.666  36.633  1.00  0.00     0.031 C 
ATOM     64  C   UNL A   1      42.937  29.149  34.707  1.00  0.00     0.034 A 
BRANCH  51  65
ATOM     65  C   UNL A   1      40.770  27.645  29.083  1.00  0.00     0.023 A 
ATOM     66  C   UNL A   1      41.702  27.868  28.054  1.00  0.00     0.031 A 
ATOM     67  C   UNL A   1      39.868  26.578  28.932  1.00  0.00     0.131 A 
ATOM     68  C   UNL A   1      41.651  27.097  26.882  1.00  0.00     0.055 A 
ATOM     69  C   UNL A   1      39.880  25.758  27.802  1.00  0.00     0.041 A 
ATOM     70  F   UNL A   1      38.942  26.327  29.871  1.00  0.00    -0.206 F 
ATOM     71  C   UNL A   1      40.762  26.027  26.759  1.00  0.00     0.022 A 
BRANCH  68  72
ATOM     72  S   UNL A   1      42.649  27.619  25.461  1.00  0.00     0.124 S 
ATOM     73  O   UNL A   1      42.624  26.420  24.626  1.00  0.00    -0.237 OA
ATOM     74  O   UNL A   1      41.903  28.766  24.956  1.00  0.00    -0.237 OA
ATOM     75  O   UNL A   1      43.950  27.930  26.051  1.00  0.00    -0.744 OA
ENDBRANCH  68  72
ENDBRANCH  51  65
BRANCH  52  76
ATOM     76  C   UNL A   1      39.540  33.586  37.065  1.00  0.00     0.023 A 
ATOM     77  C   UNL A   1      38.974  33.040  38.228  1.00  0.00     0.031 A 
ATOM     78  C   UNL A   1      39.876  34.952  37.072  1.00  0.00     0.131 A 
ATOM     79  C   UNL A   1      38.723  33.863  39.336  1.00  0.00     0.055 A 
ATOM     80  C   UNL A   1      39.665  35.757  38.193  1.00  0.00     0.041 A 
ATOM     81  F   UNL A   1      40.431  35.519  35.989  1.00  0.00    -0.206 F 
ATOM     82  C   UNL A   1      39.076  35.215  39.330  1.00  0.00     0.022 A 
BRANCH  79  83
ATOM     83  S   UNL A   1      37.870  33.152  40.770  1.00  0.00     0.124 S 
ATOM     84  O   UNL A   1      38.488  31.835  40.862  1.00  0.00    -0.237 OA
ATOM     85  O   UNL A   1      38.214  34.098  41.827  1.00  0.00    -0.237 OA
ATOM     86  O   UNL A   1      36.466  33.158  40.366  1.00  0.00    -0.744 OA
ENDBRANCH  79  83
ENDBRANCH  52  76
BRANCH  64  87
ATOM     87  C   UNL A   1      44.131  28.597  35.446  1.00  0.00     0.023 A 
ATOM     88  C   UNL A   1      44.006  27.550  36.375  1.00  0.00     0.031 A 
ATOM     89  C   UNL A   1      45.410  29.137  35.220  1.00  0.00     0.131 A 
ATOM     90  C   UNL A   1      45.134  27.110  37.085  1.00  0.00     0.055 A 
ATOM     91  C   UNL A   1      46.536  28.657  35.888  1.00  0.00     0.041 A 
ATOM     92  F   UNL A   1      45.583  30.139  34.343  1.00  0.00    -0.206 F 
ATOM     93  C   UNL A   1      46.401  27.647  36.836  1.00  0.00     0.022 A 
BRANCH  90  94
ATOM     94  S   UNL A   1      44.913  25.881  38.400  1.00  0.00     0.124 S 
ATOM     95  O   UNL A   1      44.768  24.645  37.638  1.00  0.00    -0.237 OA
ATOM     96  O   UNL A   1      46.148  26.018  39.166  1.00  0.00    -0.237 OA
ATOM     97  O   UNL A   1      43.705  26.330  39.090  1.00  0.00    -0.744 OA
ENDBRANCH  90  94
ENDBRANCH  64  87
ENDBRANCH  38  39
ENDBRANCH  30  33
ENDBRANCH  28  29
ENDBRANCH   1  28
TORSDOF 16
ENDMDL
MODEL 2
REMARK VINA RESULT:     -12.6      1.478      1.764
REMARK SMILES Cc1cc(C(=O)NCCCCNC(=O)c2ccc(-c3c4nc(c(-c5cc(S(=O)(=O)[O-])ccc5F)c5ccc([nH]5)c(-c5cc(S(=O)(=O)[O-])ccc5F)c5nc(c(-c6cc(S(=O)(=O)[O-])ccc6F)c6ccc3[nH]6)C=C5)C=C4)cc2)nc(N2CCN(c3ccccc3Cl)CC2)n1
REMARK SMILES IDX 10 1 9 2 8 3 7 4 5 5 6 6 4 8 1 9 2 10 3 11 93 12 79 13 78 14
REMARK SMILES IDX 80 15 81 16 92 17 82 18 91 19 83 20 84 21 85 22 89 23 86 24
REMARK SMILES IDX 88 25 90 26 87 27 11 28 12 29 13 30 14 32 15 33 16 34 77 35
REMARK SMILES IDX 17 36 76 37 18 38 19 39 20 40 70 41 21 42 75 43 69 44 71 45
REMARK SMILES IDX 22 46 74 47 68 48 67 49 23 51 55 52 35 53 54 54 36 55 39 56
REMARK SMILES IDX 53 57 72 58 37 59 38 60 52 62 73 63 40 64 24 65 25 66 33 67
REMARK SMILES IDX 26 68 32 69 34 70 31 71 27 72 28 73 29 74 30 75 56 76 57 77
REMARK SMILES IDX 65 78 58 79 64 80 66 81 63 82 59 83 60 84 61 85 62 86 41 87
REMARK SMILES IDX 42 88 50 89 43 90 49 91 51 92 48 93 44 94 45 95 46 96 47 97
REMARK H PARENT 7 7 12 31 71 50 39 61
REMARK Flexibility Score: inf
ROOT
ATOM      1  C   UNL A   1      31.783  31.567  26.457  1.00  0.00     0.023 C 
ENDROOT
BRANCH   1   2
ATOM      2  C   UNL A   1      31.801  30.072  26.796  1.00  0.00     0.023 C 
BRANCH   2   3
ATOM      3  C   UNL A   1      33.040  29.341  26.278  1.00  0.00     0.116 C 
BRANCH   3   4
ATOM      4  N   UNL A   1      33.173  29.559  24.856  1.00  0.00    -0.351 N 
ATOM      5  C   UNL A   1      32.677  28.888  23.767  1.00  0.00     0.270 C 
ATOM      6  O   UNL A   1      33.078  29.274  22.665  1.00  0.00    -0.268 OA
ATOM      7  H   UNL A   1      33.728  30.339  24.625  1.00  0.00     0.163 HD
BRANCH   5   8
ATOM      8  C   UNL A   1      31.663  27.779  23.842  1.00  0.00     0.133 A 
ATOM      9  C   UNL A   1      28.060  26.806  23.876  1.00  0.00     0.067 C 
ATOM     10  C   UNL A   1      29.559  26.760  23.846  1.00  0.00     0.044 A 
ATOM     11  C   UNL A   1      30.299  27.925  23.905  1.00  0.00     0.058 A 
ATOM     12  N   UNL A   1      30.130  25.540  23.808  1.00  0.00    -0.218 NA
ATOM     13  C   UNL A   1      31.466  25.482  23.867  1.00  0.00     0.226 A 
ATOM     14  N   UNL A   1      32.240  26.565  23.858  1.00  0.00    -0.208 NA
BRANCH  13  15
ATOM     15  N   UNL A   1      32.116  24.279  23.993  1.00  0.00    -0.337 N 
ATOM     16  C   UNL A   1      32.804  23.708  22.838  1.00  0.00     0.141 C 
ATOM     17  C   UNL A   1      31.407  23.330  24.868  1.00  0.00     0.141 C 
ATOM     18  C   UNL A   1      33.757  22.577  23.305  1.00  0.00     0.138 C 
ATOM     19  C   UNL A   1      32.330  22.176  25.298  1.00  0.00     0.138 C 
ATOM     20  N   UNL A   1      33.012  21.613  24.122  1.00  0.00    -0.367 N 
BRANCH  20  21
ATOM     21  C   UNL A   1      33.259  20.257  24.068  1.00  0.00     0.056 A 
ATOM     22  C   UNL A   1      32.350  19.393  23.441  1.00  0.00     0.027 A 
ATOM     23  C   UNL A   1      34.417  19.685  24.637  1.00  0.00     0.064 A 
ATOM     24  C   UNL A   1      32.582  18.015  23.380  1.00  0.00     0.002 A 
ATOM     25  C   UNL A   1      34.647  18.307  24.584  1.00  0.00     0.023 A 
ATOM     26  Cl  UNL A   1      35.581  20.648  25.491  1.00  0.00    -0.082 Cl
ATOM     27  C   UNL A   1      33.728  17.471  23.955  1.00  0.00     0.002 A 
ENDBRANCH  20  21
ENDBRANCH  13  15
ENDBRANCH   5   8
ENDBRANCH   3   4
ENDBRANCH   2   3
ENDBRANCH   1   2
BRANCH   1  28
ATOM     28  C   UNL A   1      32.950  32.363  27.032  1.00  0.00     0.116 C 
BRANCH  28  29
ATOM     29  N   UNL A   1      32.574  33.708  27.432  1.00  0.00    -0.352 N 
ATOM     30  C   UNL A   1      33.102  34.482  28.441  1.00  0.00     0.251 C 
ATOM     31  H   UNL A   1      31.845  34.120  26.915  1.00  0.00     0.163 HD
ATOM     32  O   UNL A   1      32.591  35.550  28.723  1.00  0.00    -0.269 OA
BRANCH  30  33
ATOM     33  C   UNL A   1      34.264  33.967  29.197  1.00  0.00     0.039 A 
ATOM     34  C   UNL A   1      34.036  33.052  30.228  1.00  0.00     0.014 A 
ATOM     35  C   UNL A   1      35.563  34.351  28.861  1.00  0.00     0.014 A 
ATOM     36  C   UNL A   1      35.124  32.471  30.882  1.00  0.00     0.010 A 
ATOM     37  C   UNL A   1      36.645  33.724  29.470  1.00  0.00     0.010 A 
ATOM     38  C   UNL A   1      36.435  32.777  30.483  1.00  0.00    -0.014 A 
BRANCH  38  39
ATOM     39  C   UNL A   1      37.602  32.113  31.116  1.00  0.00     0.031 A 
ATOM     40  C   UNL A   1      38.378  31.076  30.354  1.00  0.00     0.074 A 
ATOM     41  C   UNL A   1      37.911  32.391  32.397  1.00  0.00     0.049 A 
ATOM     42  N   UNL A   1      39.370  30.324  30.754  1.00  0.00    -0.248 NA
ATOM     43  C   UNL A   1      37.955  30.829  28.968  1.00  0.00     0.031 C 
ATOM     44  C   UNL A   1      37.198  33.344  33.251  1.00  0.00     0.029 A 
ATOM     45  N   UNL A   1      38.897  31.891  33.209  1.00  0.00    -0.354 N 
ATOM     46  C   UNL A   1      39.682  29.503  29.674  1.00  0.00     0.074 A 
ATOM     47  C   UNL A   1      38.729  29.810  28.628  1.00  0.00     0.031 C 
ATOM     48  C   UNL A   1      37.780  33.371  34.460  1.00  0.00     0.029 A 
ATOM     49  C   UNL A   1      38.881  32.412  34.482  1.00  0.00     0.049 A 
ATOM     50  H   UNL A   1      39.554  31.222  32.910  1.00  0.00     0.167 HD
ATOM     51  C   UNL A   1      40.684  28.596  29.561  1.00  0.00     0.034 A 
ATOM     52  C   UNL A   1      39.659  32.141  35.547  1.00  0.00     0.034 A 
ATOM     53  C   UNL A   1      41.631  28.315  30.612  1.00  0.00     0.049 A 
ATOM     54  C   UNL A   1      40.763  31.127  35.402  1.00  0.00     0.074 A 
ATOM     55  C   UNL A   1      42.720  27.461  30.588  1.00  0.00     0.029 A 
ATOM     56  N   UNL A   1      41.596  28.876  31.884  1.00  0.00    -0.354 N 
ATOM     57  N   UNL A   1      41.081  30.398  34.357  1.00  0.00    -0.248 NA
ATOM     58  C   UNL A   1      41.620  30.910  36.574  1.00  0.00     0.031 C 
ATOM     59  C   UNL A   1      43.306  27.461  31.860  1.00  0.00     0.029 A 
ATOM     60  C   UNL A   1      42.627  28.367  32.659  1.00  0.00     0.049 A 
ATOM     61  H   UNL A   1      40.935  29.538  32.189  1.00  0.00     0.167 HD
ATOM     62  C   UNL A   1      42.195  29.655  34.739  1.00  0.00     0.074 A 
ATOM     63  C   UNL A   1      42.497  30.034  36.104  1.00  0.00     0.031 C 
ATOM     64  C   UNL A   1      42.906  28.746  34.025  1.00  0.00     0.034 A 
BRANCH  51  65
ATOM     65  C   UNL A   1      40.778  27.833  28.260  1.00  0.00     0.023 A 
ATOM     66  C   UNL A   1      40.260  26.534  28.129  1.00  0.00     0.031 A 
ATOM     67  C   UNL A   1      41.437  28.392  27.151  1.00  0.00     0.131 A 
ATOM     68  C   UNL A   1      40.488  25.802  26.954  1.00  0.00     0.055 A 
ATOM     69  C   UNL A   1      41.584  27.691  25.952  1.00  0.00     0.041 A 
ATOM     70  F   UNL A   1      41.970  29.622  27.220  1.00  0.00    -0.206 F 
ATOM     71  C   UNL A   1      41.125  26.380  25.854  1.00  0.00     0.022 A 
BRANCH  68  72
ATOM     72  S   UNL A   1      40.086  24.033  26.946  1.00  0.00     0.124 S 
ATOM     73  O   UNL A   1      38.674  24.053  26.569  1.00  0.00    -0.237 OA
ATOM     74  O   UNL A   1      41.008  23.504  25.948  1.00  0.00    -0.237 OA
ATOM     75  O   UNL A   1      40.348  23.616  28.323  1.00  0.00    -0.744 OA
ENDBRANCH  68  72
ENDBRANCH  51  65
BRANCH  52  76
ATOM     76  C   UNL A   1      39.424  32.834  36.844  1.00  0.00     0.023 A 
ATOM     77  C   UNL A   1      38.515  32.322  37.783  1.00  0.00     0.031 A 
ATOM     78  C   UNL A   1      40.092  34.032  37.156  1.00  0.00     0.131 A 
ATOM     79  C   UNL A   1      38.266  33.026  38.971  1.00  0.00     0.055 A 
ATOM     80  C   UNL A   1      39.874  34.706  38.358  1.00  0.00     0.041 A 
ATOM     81  F   UNL A   1      40.980  34.556  36.296  1.00  0.00    -0.206 F 
ATOM     82  C   UNL A   1      38.948  34.208  39.270  1.00  0.00     0.022 A 
BRANCH  79  83
ATOM     83  S   UNL A   1      36.988  32.404  40.097  1.00  0.00     0.124 S 
ATOM     84  O   UNL A   1      37.473  31.060  40.386  1.00  0.00    -0.237 OA
ATOM     85  O   UNL A   1      37.060  33.362  41.196  1.00  0.00    -0.237 OA
ATOM     86  O   UNL A   1      35.768  32.471  39.296  1.00  0.00    -0.744 OA
ENDBRANCH  79  83
ENDBRANCH  52  76
BRANCH  64  87
ATOM     87  C   UNL A   1      44.109  28.137  34.702  1.00  0.00     0.023 A 
ATOM     88  C   UNL A   1      44.014  26.950  35.450  1.00  0.00     0.031 A 
ATOM     89  C   UNL A   1      45.364  28.762  34.603  1.00  0.00     0.131 A 
ATOM     90  C   UNL A   1      45.145  26.454  36.115  1.00  0.00     0.055 A 
ATOM     91  C   UNL A   1      46.497  28.233  35.221  1.00  0.00     0.041 A 
ATOM     92  F   UNL A   1      45.508  29.898  33.902  1.00  0.00    -0.206 F 
ATOM     93  C   UNL A   1      46.390  27.079  35.993  1.00  0.00     0.022 A 
BRANCH  90  94
ATOM     94  S   UNL A   1      44.954  25.022  37.213  1.00  0.00     0.124 S 
ATOM     95  O   UNL A   1      44.307  25.619  38.378  1.00  0.00    -0.237 OA
ATOM     96  O   UNL A   1      44.126  24.125  36.414  1.00  0.00    -0.237 OA
ATOM     97  O   UNL A   1      46.326  24.570  37.429  1.00  0.00    -0.744 OA
ENDBRANCH  90  94
ENDBRANCH  64  87
ENDBRANCH  38  39
ENDBRANCH  30  33
ENDBRANCH  28  29
ENDBRANCH   1  28
TORSDOF 16
ENDMDL
MODEL 3
REMARK VINA RESULT:     -12.6      1.735      2.418
REMARK SMILES Cc1cc(C(=O)NCCCCNC(=O)c2ccc(-c3c4nc(c(-c5cc(S(=O)(=O)[O-])ccc5F)c5ccc([nH]5)c(-c5cc(S(=O)(=O)[O-])ccc5F)c5nc(c(-c6cc(S(=O)(=O)[O-])ccc6F)c6ccc3[nH]6)C=C5)C=C4)cc2)nc(N2CCN(c3ccccc3Cl)CC2)n1
REMARK SMILES IDX 10 1 9 2 8 3 7 4 5 5 6 6 4 8 1 9 2 10 3 11 93 12 79 13 78 14
REMARK SMILES IDX 80 15 81 16 92 17 82 18 91 19 83 20 84 21 85 22 89 23 86 24
REMARK SMILES IDX 88 25 90 26 87 27 11 28 12 29 13 30 14 32 15 33 16 34 77 35
REMARK SMILES IDX 17 36 76 37 18 38 19 39 20 40 70 41 21 42 75 43 69 44 71 45
REMARK SMILES IDX 22 46 74 47 68 48 67 49 23 51 55 52 35 53 54 54 36 55 39 56
REMARK SMILES IDX 53 57 72 58 37 59 38 60 52 62 73 63 40 64 24 65 25 66 33 67
REMARK SMILES IDX 26 68 32 69 34 70 31 71 27 72 28 73 29 74 30 75 56 76 57 77
REMARK SMILES IDX 65 78 58 79 64 80 66 81 63 82 59 83 60 84 61 85 62 86 41 87
REMARK SMILES IDX 42 88 50 89 43 90 49 91 51 92 48 93 44 94 45 95 46 96 47 97
REMARK H PARENT 7 7 12 31 71 50 39 61
REMARK Flexibility Score: inf
ROOT
ATOM      1  C   UNL A   1      31.454  32.045  26.620  1.00  0.00     0.023 C 
ENDROOT
BRANCH   1   2
ATOM      2  C   UNL A   1      31.585  30.615  26.085  1.00  0.00     0.023 C 
BRANCH   2   3
ATOM      3  C   UNL A   1      32.983  30.022  26.257  1.00  0.00     0.116 C 
BRANCH   3   4
ATOM      4  N   UNL A   1      33.511  29.638  24.969  1.00  0.00    -0.351 N 
ATOM      5  C   UNL A   1      33.596  28.427  24.327  1.00  0.00     0.270 C 
ATOM      6  O   UNL A   1      34.216  28.423  23.260  1.00  0.00    -0.268 OA
ATOM      7  H   UNL A   1      33.881  30.389  24.452  1.00  0.00     0.163 HD
BRANCH   5   8
ATOM      8  C   UNL A   1      32.947  27.161  24.815  1.00  0.00     0.133 A 
ATOM      9  C   UNL A   1      29.830  25.463  25.970  1.00  0.00     0.067 C 
ATOM     10  C   UNL A   1      31.238  25.734  25.528  1.00  0.00     0.044 A 
ATOM     11  C   UNL A   1      31.649  27.020  25.239  1.00  0.00     0.058 A 
ATOM     12  N   UNL A   1      32.075  24.678  25.479  1.00  0.00    -0.218 NA
ATOM     13  C   UNL A   1      33.355  24.919  25.170  1.00  0.00     0.226 A 
ATOM     14  N   UNL A   1      33.801  26.122  24.815  1.00  0.00    -0.208 NA
BRANCH  13  15
ATOM     15  N   UNL A   1      34.300  23.927  25.252  1.00  0.00    -0.337 N 
ATOM     16  C   UNL A   1      34.632  23.354  26.554  1.00  0.00     0.141 C 
ATOM     17  C   UNL A   1      35.421  24.122  24.317  1.00  0.00     0.141 C 
ATOM     18  C   UNL A   1      35.416  22.030  26.356  1.00  0.00     0.138 C 
ATOM     19  C   UNL A   1      36.237  22.827  24.151  1.00  0.00     0.138 C 
ATOM     20  N   UNL A   1      36.563  22.266  25.472  1.00  0.00    -0.367 N 
BRANCH  20  21
ATOM     21  C   UNL A   1      37.778  21.640  25.660  1.00  0.00     0.056 A 
ATOM     22  C   UNL A   1      38.879  22.357  26.146  1.00  0.00     0.027 A 
ATOM     23  C   UNL A   1      37.965  20.271  25.371  1.00  0.00     0.064 A 
ATOM     24  C   UNL A   1      40.120  21.740  26.339  1.00  0.00     0.002 A 
ATOM     25  C   UNL A   1      39.206  19.655  25.555  1.00  0.00     0.023 A 
ATOM     26  Cl  UNL A   1      36.691  19.299  24.707  1.00  0.00    -0.082 Cl
ATOM     27  C   UNL A   1      40.285  20.390  26.040  1.00  0.00     0.002 A 
ENDBRANCH  20  21
ENDBRANCH  13  15
ENDBRANCH   5   8
ENDBRANCH   3   4
ENDBRANCH   2   3
ENDBRANCH   1   2
BRANCH   1  28
ATOM     28  C   UNL A   1      32.753  32.649  27.145  1.00  0.00     0.116 C 
BRANCH  28  29
ATOM     29  N   UNL A   1      32.571  33.973  27.717  1.00  0.00    -0.352 N 
ATOM     30  C   UNL A   1      33.272  34.567  28.741  1.00  0.00     0.251 C 
ATOM     31  H   UNL A   1      31.852  34.515  27.319  1.00  0.00     0.163 HD
ATOM     32  O   UNL A   1      32.914  35.645  29.181  1.00  0.00    -0.269 OA
BRANCH  30  33
ATOM     33  C   UNL A   1      34.428  33.850  29.322  1.00  0.00     0.039 A 
ATOM     34  C   UNL A   1      35.714  34.264  28.969  1.00  0.00     0.014 A 
ATOM     35  C   UNL A   1      34.239  32.812  30.236  1.00  0.00     0.014 A 
ATOM     36  C   UNL A   1      36.818  33.675  29.588  1.00  0.00     0.010 A 
ATOM     37  C   UNL A   1      35.337  32.270  30.897  1.00  0.00     0.010 A 
ATOM     38  C   UNL A   1      36.635  32.698  30.581  1.00  0.00    -0.014 A 
BRANCH  38  39
ATOM     39  C   UNL A   1      37.792  32.114  31.303  1.00  0.00     0.031 A 
ATOM     40  C   UNL A   1      38.586  31.004  30.673  1.00  0.00     0.074 A 
ATOM     41  C   UNL A   1      38.076  32.532  32.552  1.00  0.00     0.049 A 
ATOM     42  N   UNL A   1      39.573  30.306  31.172  1.00  0.00    -0.248 NA
ATOM     43  C   UNL A   1      38.190  30.605  29.315  1.00  0.00     0.031 C 
ATOM     44  C   UNL A   1      37.343  33.568  33.283  1.00  0.00     0.029 A 
ATOM     45  N   UNL A   1      39.048  32.129  33.431  1.00  0.00    -0.354 N 
ATOM     46  C   UNL A   1      39.908  29.374  30.194  1.00  0.00     0.074 A 
ATOM     47  C   UNL A   1      38.974  29.560  29.103  1.00  0.00     0.031 C 
ATOM     48  C   UNL A   1      37.902  33.730  34.493  1.00  0.00     0.029 A 
ATOM     49  C   UNL A   1      39.006  32.786  34.640  1.00  0.00     0.049 A 
ATOM     50  H   UNL A   1      39.713  31.435  33.220  1.00  0.00     0.167 HD
ATOM     51  C   UNL A   1      40.916  28.466  30.199  1.00  0.00     0.034 A 
ATOM     52  C   UNL A   1      39.764  32.637  35.742  1.00  0.00     0.034 A 
ATOM     53  C   UNL A   1      41.843  28.306  31.291  1.00  0.00     0.049 A 
ATOM     54  C   UNL A   1      40.875  31.619  35.729  1.00  0.00     0.074 A 
ATOM     55  C   UNL A   1      42.935  27.461  31.381  1.00  0.00     0.029 A 
ATOM     56  N   UNL A   1      41.782  29.002  32.493  1.00  0.00    -0.354 N 
ATOM     57  N   UNL A   1      41.215  30.782  34.776  1.00  0.00    -0.248 NA
ATOM     58  C   UNL A   1      41.710  31.536  36.933  1.00  0.00     0.031 C 
ATOM     59  C   UNL A   1      43.497  27.602  32.656  1.00  0.00     0.029 A 
ATOM     60  C   UNL A   1      42.800  28.586  33.338  1.00  0.00     0.049 A 
ATOM     61  H   UNL A   1      41.113  29.690  32.713  1.00  0.00     0.167 HD
ATOM     62  C   UNL A   1      42.324  30.091  35.257  1.00  0.00     0.074 A 
ATOM     63  C   UNL A   1      42.599  30.619  36.578  1.00  0.00     0.031 C 
ATOM     64  C   UNL A   1      43.051  29.114  34.660  1.00  0.00     0.034 A 
BRANCH  51  65
ATOM     65  C   UNL A   1      41.037  27.566  28.991  1.00  0.00     0.023 A 
ATOM     66  C   UNL A   1      42.027  27.772  28.015  1.00  0.00     0.031 A 
ATOM     67  C   UNL A   1      40.121  26.520  28.785  1.00  0.00     0.131 A 
ATOM     68  C   UNL A   1      42.024  27.008  26.838  1.00  0.00     0.055 A 
ATOM     69  C   UNL A   1      40.176  25.705  27.653  1.00  0.00     0.041 A 
ATOM     70  F   UNL A   1      39.140  26.285  29.672  1.00  0.00    -0.206 F 
ATOM     71  C   UNL A   1      41.119  25.958  26.662  1.00  0.00     0.022 A 
BRANCH  68  72
ATOM     72  S   UNL A   1      43.109  27.514  25.476  1.00  0.00     0.124 S 
ATOM     73  O   UNL A   1      44.098  28.332  26.176  1.00  0.00    -0.237 OA
ATOM     74  O   UNL A   1      43.585  26.236  24.960  1.00  0.00    -0.237 OA
ATOM     75  O   UNL A   1      42.217  28.256  24.586  1.00  0.00    -0.744 OA
ENDBRANCH  68  72
ENDBRANCH  51  65
BRANCH  52  76
ATOM     76  C   UNL A   1      39.502  33.465  36.952  1.00  0.00     0.023 A 
ATOM     77  C   UNL A   1      38.896  32.912  38.090  1.00  0.00     0.031 A 
ATOM     78  C   UNL A   1      39.837  34.832  36.978  1.00  0.00     0.131 A 
ATOM     79  C   UNL A   1      38.605  33.729  39.194  1.00  0.00     0.055 A 
ATOM     80  C   UNL A   1      39.585  35.630  38.095  1.00  0.00     0.041 A 
ATOM     81  F   UNL A   1      40.429  35.405  35.918  1.00  0.00    -0.206 F 
ATOM     82  C   UNL A   1      38.955  35.081  39.207  1.00  0.00     0.022 A 
BRANCH  79  83
ATOM     83  S   UNL A   1      37.702  33.009  40.592  1.00  0.00     0.124 S 
ATOM     84  O   UNL A   1      38.321  31.694  40.701  1.00  0.00    -0.237 OA
ATOM     85  O   UNL A   1      38.003  33.951  41.664  1.00  0.00    -0.237 OA
ATOM     86  O   UNL A   1      36.313  33.011  40.136  1.00  0.00    -0.744 OA
ENDBRANCH  79  83
ENDBRANCH  52  76
BRANCH  64  87
ATOM     87  C   UNL A   1      44.243  28.589  35.422  1.00  0.00     0.023 A 
ATOM     88  C   UNL A   1      44.124  27.540  36.350  1.00  0.00     0.031 A 
ATOM     89  C   UNL A   1      45.514  29.157  35.220  1.00  0.00     0.131 A 
ATOM     90  C   UNL A   1      45.247  27.126  37.082  1.00  0.00     0.055 A 
ATOM     91  C   UNL A   1      46.637  28.704  35.911  1.00  0.00     0.041 A 
ATOM     92  F   UNL A   1      45.681  30.163  34.347  1.00  0.00    -0.206 F 
ATOM     93  C   UNL A   1      46.506  27.691  36.857  1.00  0.00     0.022 A 
BRANCH  90  94
ATOM     94  S   UNL A   1      45.028  25.893  38.394  1.00  0.00     0.124 S 
ATOM     95  O   UNL A   1      44.372  26.676  39.438  1.00  0.00    -0.237 OA
ATOM     96  O   UNL A   1      44.200  24.885  37.740  1.00  0.00    -0.237 OA
ATOM     97  O   UNL A   1      46.392  25.470  38.700  1.00  0.00    -0.744 OA
ENDBRANCH  90  94
ENDBRANCH  64  87
ENDBRANCH  38  39
ENDBRANCH  30  33
ENDBRANCH  28  29
ENDBRANCH   1  28
TORSDOF 16
ENDMDL
