MODEL 1
REMARK VINA RESULT:     -13.0      0.000      0.000
REMARK SMILES O=C(NCCCCNC(=O)[C@H]1CCCC[C@H]1C(=O)N1CCN(S(=O)(=O)c2ccc(F)cc2)CC1)c1ccc(-c2c3nc(c(-c4cc(S(=O)(=O)[O-])ccc4F)c4ccc([nH]4)c(-c4cc(S(=O)(=O)[O-])ccc4F)c4nc(c(-c5cc(S(=O)(=O)[O-])ccc5F)c5ccc2[nH]5)C=C4)C=C3)cc1
REMARK SMILES IDX 5 1 4 2 3 3 1 4 2 5 35 7 36 8 97 9 37 10 96 11 38 12 39 13
REMARK SMILES IDX 40 14 90 15 41 16 95 17 89 18 91 19 42 20 94 21 88 22 87 23
REMARK SMILES IDX 43 25 75 26 55 27 74 28 56 29 59 30 73 31 92 32 57 33 58 34
REMARK SMILES IDX 72 36 93 37 60 38 44 39 45 40 53 41 46 42 52 43 54 44 51 45
REMARK SMILES IDX 47 46 48 47 49 48 50 49 76 50 77 51 85 52 78 53 84 54 86 55
REMARK SMILES IDX 83 56 79 57 80 58 81 59 82 60 61 61 62 62 70 63 63 64 69 65
REMARK SMILES IDX 71 66 68 67 64 68 65 69 66 70 67 71 6 72 7 73 8 74 9 75
REMARK SMILES IDX 10 77 11 78 12 79 16 80 13 81 15 82 14 83 17 84 18 85 19 86
REMARK SMILES IDX 20 87 34 88 21 89 33 90 22 91 23 92 24 93 25 94 26 95 27 96
REMARK SMILES IDX 32 97 28 98 31 99 29 100 30 101
REMARK H PARENT 3 6 91 24 59 35 8 76
REMARK Flexibility Score: inf
ROOT
ATOM      1  C   UNL A   1      31.925  31.899  27.045  1.00  0.00     0.023 C 
ENDROOT
BRANCH   1   2
ATOM      2  C   UNL A   1      33.148  32.795  27.197  1.00  0.00     0.116 C 
BRANCH   2   3
ATOM      3  N   UNL A   1      32.836  34.043  27.870  1.00  0.00    -0.352 N 
ATOM      4  O   UNL A   1      32.721  35.534  29.535  1.00  0.00    -0.269 OA
ATOM      5  C   UNL A   1      33.289  34.548  29.067  1.00  0.00     0.251 C 
ATOM      6  H   UNL A   1      32.196  34.620  27.396  1.00  0.00     0.163 HD
BRANCH   5   7
ATOM      7  C   UNL A   1      34.437  33.949  29.803  1.00  0.00     0.039 A 
ATOM      8  C   UNL A   1      34.279  32.895  30.705  1.00  0.00     0.014 A 
ATOM      9  C   UNL A   1      35.732  34.394  29.499  1.00  0.00     0.014 A 
ATOM     10  C   UNL A   1      35.386  32.363  31.371  1.00  0.00     0.010 A 
ATOM     11  C   UNL A   1      36.850  33.805  30.108  1.00  0.00     0.010 A 
ATOM     12  C   UNL A   1      36.688  32.791  31.062  1.00  0.00    -0.014 A 
BRANCH  12  13
ATOM     13  C   UNL A   1      37.858  32.115  31.689  1.00  0.00     0.031 A 
ATOM     14  C   UNL A   1      38.637  31.060  30.949  1.00  0.00     0.074 A 
ATOM     15  C   UNL A   1      38.235  32.476  32.935  1.00  0.00     0.049 A 
ATOM     16  N   UNL A   1      39.673  30.368  31.353  1.00  0.00    -0.248 NA
ATOM     17  C   UNL A   1      38.197  30.733  29.583  1.00  0.00     0.031 C 
ATOM     18  C   UNL A   1      37.558  33.480  33.759  1.00  0.00     0.029 A 
ATOM     19  N   UNL A   1      39.286  32.065  33.719  1.00  0.00    -0.354 N 
ATOM     20  C   UNL A   1      39.997  29.512  30.306  1.00  0.00     0.074 A 
ATOM     21  C   UNL A   1      39.035  29.758  29.253  1.00  0.00     0.031 C 
ATOM     22  C   UNL A   1      38.240  33.648  34.902  1.00  0.00     0.029 A 
ATOM     23  C   UNL A   1      39.364  32.718  34.928  1.00  0.00     0.049 A 
ATOM     24  H   UNL A   1      39.924  31.368  33.442  1.00  0.00     0.167 HD
ATOM     25  C   UNL A   1      41.010  28.615  30.229  1.00  0.00     0.034 A 
ATOM     26  C   UNL A   1      40.228  32.579  35.953  1.00  0.00     0.034 A 
ATOM     27  C   UNL A   1      41.983  28.397  31.271  1.00  0.00     0.049 A 
ATOM     28  C   UNL A   1      41.321  31.551  35.852  1.00  0.00     0.074 A 
ATOM     29  C   UNL A   1      43.074  27.544  31.262  1.00  0.00     0.029 A 
ATOM     30  N   UNL A   1      41.987  29.032  32.504  1.00  0.00    -0.354 N 
ATOM     31  N   UNL A   1      41.603  30.748  34.854  1.00  0.00    -0.248 NA
ATOM     32  C   UNL A   1      42.202  31.395  37.018  1.00  0.00     0.031 C 
ATOM     33  C   UNL A   1      43.704  27.623  32.506  1.00  0.00     0.029 A 
ATOM     34  C   UNL A   1      43.042  28.568  33.273  1.00  0.00     0.049 A 
ATOM     35  H   UNL A   1      41.335  29.713  32.791  1.00  0.00     0.167 HD
ATOM     36  C   UNL A   1      42.692  29.993  35.272  1.00  0.00     0.074 A 
ATOM     37  C   UNL A   1      43.032  30.448  36.605  1.00  0.00     0.031 C 
ATOM     38  C   UNL A   1      43.352  29.012  34.609  1.00  0.00     0.034 A 
BRANCH  25  39
ATOM     39  C   UNL A   1      41.115  27.770  28.985  1.00  0.00     0.023 A 
ATOM     40  C   UNL A   1      42.076  28.030  27.994  1.00  0.00     0.031 A 
ATOM     41  C   UNL A   1      40.282  26.649  28.826  1.00  0.00     0.131 A 
ATOM     42  C   UNL A   1      42.164  27.192  26.872  1.00  0.00     0.055 A 
ATOM     43  C   UNL A   1      40.407  25.789  27.733  1.00  0.00     0.041 A 
ATOM     44  F   UNL A   1      39.342  26.361  29.741  1.00  0.00    -0.206 F 
ATOM     45  C   UNL A   1      41.352  26.060  26.748  1.00  0.00     0.022 A 
BRANCH  42  46
ATOM     46  S   UNL A   1      43.345  27.599  25.557  1.00  0.00     0.124 S 
ATOM     47  O   UNL A   1      42.454  27.944  24.454  1.00  0.00    -0.237 OA
ATOM     48  O   UNL A   1      44.103  28.704  26.135  1.00  0.00    -0.237 OA
ATOM     49  O   UNL A   1      44.100  26.360  25.378  1.00  0.00    -0.744 OA
ENDBRANCH  42  46
ENDBRANCH  25  39
BRANCH  26  50
ATOM     50  C   UNL A   1      40.067  33.403  37.185  1.00  0.00     0.023 A 
ATOM     51  C   UNL A   1      39.253  32.973  38.244  1.00  0.00     0.031 A 
ATOM     52  C   UNL A   1      40.725  34.639  37.313  1.00  0.00     0.131 A 
ATOM     53  C   UNL A   1      39.102  33.785  39.381  1.00  0.00     0.055 A 
ATOM     54  C   UNL A   1      40.605  35.423  38.462  1.00  0.00     0.041 A 
ATOM     55  F   UNL A   1      41.516  35.092  36.328  1.00  0.00    -0.206 F 
ATOM     56  C   UNL A   1      39.783  34.999  39.501  1.00  0.00     0.022 A 
BRANCH  53  57
ATOM     57  S   UNL A   1      37.966  33.251  40.691  1.00  0.00     0.124 S 
ATOM     58  O   UNL A   1      38.862  32.520  41.580  1.00  0.00    -0.237 OA
ATOM     59  O   UNL A   1      37.461  34.524  41.194  1.00  0.00    -0.237 OA
ATOM     60  O   UNL A   1      36.987  32.433  39.980  1.00  0.00    -0.744 OA
ENDBRANCH  53  57
ENDBRANCH  26  50
BRANCH  38  61
ATOM     61  C   UNL A   1      44.513  28.364  35.312  1.00  0.00     0.023 A 
ATOM     62  C   UNL A   1      44.352  27.173  36.037  1.00  0.00     0.031 A 
ATOM     63  C   UNL A   1      45.800  28.921  35.217  1.00  0.00     0.131 A 
ATOM     64  C   UNL A   1      45.461  26.582  36.660  1.00  0.00     0.055 A 
ATOM     65  C   UNL A   1      46.907  28.308  35.804  1.00  0.00     0.041 A 
ATOM     66  F   UNL A   1      46.002  30.059  34.533  1.00  0.00    -0.206 F 
ATOM     67  C   UNL A   1      46.740  27.134  36.533  1.00  0.00     0.022 A 
BRANCH  64  68
ATOM     68  S   UNL A   1      45.214  25.085  37.653  1.00  0.00     0.124 S 
ATOM     69  O   UNL A   1      46.589  24.674  37.925  1.00  0.00    -0.237 OA
ATOM     70  O   UNL A   1      44.460  25.583  38.798  1.00  0.00    -0.237 OA
ATOM     71  O   UNL A   1      44.468  24.201  36.760  1.00  0.00    -0.744 OA
ENDBRANCH  64  68
ENDBRANCH  38  61
ENDBRANCH  12  13
ENDBRANCH   5   7
ENDBRANCH   2   3
ENDBRANCH   1   2
BRANCH   1  72
ATOM     72  C   UNL A   1      32.182  30.396  26.992  1.00  0.00     0.023 C 
BRANCH  72  73
ATOM     73  C   UNL A   1      33.606  29.976  26.626  1.00  0.00     0.116 C 
BRANCH  73  74
ATOM     74  N   UNL A   1      33.712  29.078  25.485  1.00  0.00    -0.356 N 
ATOM     75  C   UNL A   1      32.788  28.576  24.622  1.00  0.00     0.223 C 
ATOM     76  H   UNL A   1      34.630  28.776  25.303  1.00  0.00     0.163 HD
ATOM     77  O   UNL A   1      33.221  28.003  23.618  1.00  0.00    -0.275 OA
BRANCH  75  78
ATOM     78  C   UNL A   1      31.293  28.712  24.872  1.00  0.00     0.091 C 
ATOM     79  C   UNL A   1      30.673  29.555  23.728  1.00  0.00     0.014 C 
ATOM     80  C   UNL A   1      30.484  27.423  25.184  1.00  0.00     0.091 C 
ATOM     81  C   UNL A   1      30.084  28.732  22.586  1.00  0.00     0.001 C 
ATOM     82  C   UNL A   1      29.642  26.791  24.059  1.00  0.00     0.014 C 
ATOM     83  C   UNL A   1      29.015  27.799  23.118  1.00  0.00     0.001 C 
BRANCH  80  84
ATOM     84  C   UNL A   1      31.111  26.285  26.007  1.00  0.00     0.226 C 
ATOM     85  O   UNL A   1      31.424  26.535  27.178  1.00  0.00    -0.275 OA
ATOM     86  N   UNL A   1      31.173  24.983  25.518  1.00  0.00    -0.340 N 
ATOM     87  C   UNL A   1      31.462  23.917  26.495  1.00  0.00     0.136 C 
ATOM     88  C   UNL A   1      31.425  24.649  24.112  1.00  0.00     0.136 C 
ATOM     89  C   UNL A   1      31.085  22.502  26.015  1.00  0.00     0.124 C 
ATOM     90  C   UNL A   1      31.141  23.206  23.693  1.00  0.00     0.124 C 
ATOM     91  N   UNL A   1      31.653  22.203  24.654  1.00  0.00    -0.194 NA
BRANCH  91  92
ATOM     92  S   UNL A   1      33.307  21.796  24.706  1.00  0.00     0.243 S 
ATOM     93  O   UNL A   1      33.955  22.432  23.582  1.00  0.00    -0.207 OA
ATOM     94  O   UNL A   1      33.780  22.066  26.045  1.00  0.00    -0.207 OA
BRANCH  92  95
ATOM     95  C   UNL A   1      33.439  20.051  24.403  1.00  0.00     0.082 A 
ATOM     96  C   UNL A   1      32.470  19.442  23.586  1.00  0.00     0.025 A 
ATOM     97  C   UNL A   1      34.591  19.351  24.773  1.00  0.00     0.025 A 
ATOM     98  C   UNL A   1      32.634  18.120  23.177  1.00  0.00     0.040 A 
ATOM     99  C   UNL A   1      34.755  18.030  24.346  1.00  0.00     0.040 A 
ATOM    100  C   UNL A   1      33.776  17.428  23.559  1.00  0.00     0.123 A 
ATOM    101  F   UNL A   1      33.940  16.166  23.142  1.00  0.00    -0.207 F 
ENDBRANCH  92  95
ENDBRANCH  91  92
ENDBRANCH  80  84
ENDBRANCH  75  78
ENDBRANCH  73  74
ENDBRANCH  72  73
ENDBRANCH   1  72
TORSDOF 17
ENDMDL
MODEL 2
REMARK VINA RESULT:     -12.8      1.474      7.328
REMARK SMILES O=C(NCCCCNC(=O)[C@H]1CCCC[C@H]1C(=O)N1CCN(S(=O)(=O)c2ccc(F)cc2)CC1)c1ccc(-c2c3nc(c(-c4cc(S(=O)(=O)[O-])ccc4F)c4ccc([nH]4)c(-c4cc(S(=O)(=O)[O-])ccc4F)c4nc(c(-c5cc(S(=O)(=O)[O-])ccc5F)c5ccc2[nH]5)C=C4)C=C3)cc1
REMARK SMILES IDX 5 1 4 2 3 3 1 4 2 5 35 7 36 8 97 9 37 10 96 11 38 12 39 13
REMARK SMILES IDX 40 14 90 15 41 16 95 17 89 18 91 19 42 20 94 21 88 22 87 23
REMARK SMILES IDX 43 25 75 26 55 27 74 28 56 29 59 30 73 31 92 32 57 33 58 34
REMARK SMILES IDX 72 36 93 37 60 38 44 39 45 40 53 41 46 42 52 43 54 44 51 45
REMARK SMILES IDX 47 46 48 47 49 48 50 49 76 50 77 51 85 52 78 53 84 54 86 55
REMARK SMILES IDX 83 56 79 57 80 58 81 59 82 60 61 61 62 62 70 63 63 64 69 65
REMARK SMILES IDX 71 66 68 67 64 68 65 69 66 70 67 71 6 72 7 73 8 74 9 75
REMARK SMILES IDX 10 77 11 78 12 79 16 80 13 81 15 82 14 83 17 84 18 85 19 86
REMARK SMILES IDX 20 87 34 88 21 89 33 90 22 91 23 92 24 93 25 94 26 95 27 96
REMARK SMILES IDX 32 97 28 98 31 99 29 100 30 101
REMARK H PARENT 3 6 91 24 59 35 8 76
REMARK Flexibility Score: inf
ROOT
ATOM      1  C   UNL A   1      33.105  31.736  27.654  1.00  0.00     0.023 C 
ENDROOT
BRANCH   1   2
ATOM      2  C   UNL A   1      33.404  33.099  27.041  1.00  0.00     0.116 C 
BRANCH   2   3
ATOM      3  N   UNL A   1      32.971  34.192  27.892  1.00  0.00    -0.352 N 
ATOM      4  O   UNL A   1      32.695  35.384  29.766  1.00  0.00    -0.269 OA
ATOM      5  C   UNL A   1      33.357  34.537  29.167  1.00  0.00     0.251 C 
ATOM      6  H   UNL A   1      32.291  34.781  27.494  1.00  0.00     0.163 HD
BRANCH   5   7
ATOM      7  C   UNL A   1      34.541  33.928  29.835  1.00  0.00     0.039 A 
ATOM      8  C   UNL A   1      34.419  32.972  30.846  1.00  0.00     0.014 A 
ATOM      9  C   UNL A   1      35.819  34.253  29.358  1.00  0.00     0.014 A 
ATOM     10  C   UNL A   1      35.559  32.426  31.442  1.00  0.00     0.010 A 
ATOM     11  C   UNL A   1      36.959  33.646  29.903  1.00  0.00     0.010 A 
ATOM     12  C   UNL A   1      36.842  32.734  30.961  1.00  0.00    -0.014 A 
BRANCH  12  13
ATOM     13  C   UNL A   1      38.032  32.037  31.527  1.00  0.00     0.031 A 
ATOM     14  C   UNL A   1      38.578  32.404  32.882  1.00  0.00     0.074 A 
ATOM     15  C   UNL A   1      38.610  31.044  30.817  1.00  0.00     0.049 A 
ATOM     16  N   UNL A   1      39.610  31.904  33.513  1.00  0.00    -0.248 NA
ATOM     17  C   UNL A   1      37.885  33.471  33.620  1.00  0.00     0.031 C 
ATOM     18  C   UNL A   1      38.179  30.600  29.489  1.00  0.00     0.029 A 
ATOM     19  N   UNL A   1      39.664  30.214  31.113  1.00  0.00    -0.354 N 
ATOM     20  C   UNL A   1      39.704  32.605  34.712  1.00  0.00     0.074 A 
ATOM     21  C   UNL A   1      38.635  33.580  34.710  1.00  0.00     0.031 C 
ATOM     22  C   UNL A   1      38.919  29.547  29.112  1.00  0.00     0.029 A 
ATOM     23  C   UNL A   1      39.924  29.279  30.136  1.00  0.00     0.049 A 
ATOM     24  H   UNL A   1      40.185  30.281  31.945  1.00  0.00     0.167 HD
ATOM     25  C   UNL A   1      40.593  32.440  35.721  1.00  0.00     0.034 A 
ATOM     26  C   UNL A   1      40.871  28.323  30.057  1.00  0.00     0.034 A 
ATOM     27  C   UNL A   1      41.638  31.445  35.729  1.00  0.00     0.049 A 
ATOM     28  C   UNL A   1      41.865  28.186  31.178  1.00  0.00     0.074 A 
ATOM     29  C   UNL A   1      42.555  31.172  36.729  1.00  0.00     0.029 A 
ATOM     30  N   UNL A   1      41.907  30.563  34.692  1.00  0.00    -0.354 N 
ATOM     31  N   UNL A   1      41.938  28.867  32.297  1.00  0.00    -0.248 NA
ATOM     32  C   UNL A   1      42.914  27.170  31.021  1.00  0.00     0.031 C 
ATOM     33  C   UNL A   1      43.411  30.163  36.278  1.00  0.00     0.029 A 
ATOM     34  C   UNL A   1      42.993  29.766  35.018  1.00  0.00     0.049 A 
ATOM     35  H   UNL A   1      41.401  30.511  33.849  1.00  0.00     0.167 HD
ATOM     36  C   UNL A   1      43.039  28.359  32.976  1.00  0.00     0.074 A 
ATOM     37  C   UNL A   1      43.591  27.303  32.153  1.00  0.00     0.031 C 
ATOM     38  C   UNL A   1      43.547  28.736  34.176  1.00  0.00     0.034 A 
BRANCH  25  39
ATOM     39  C   UNL A   1      40.504  33.370  36.903  1.00  0.00     0.023 A 
ATOM     40  C   UNL A   1      41.363  34.473  37.042  1.00  0.00     0.031 A 
ATOM     41  C   UNL A   1      39.500  33.184  37.869  1.00  0.00     0.131 A 
ATOM     42  C   UNL A   1      41.216  35.337  38.138  1.00  0.00     0.055 A 
ATOM     43  C   UNL A   1      39.326  34.073  38.930  1.00  0.00     0.041 A 
ATOM     44  F   UNL A   1      38.659  32.140  37.786  1.00  0.00    -0.206 F 
ATOM     45  C   UNL A   1      40.189  35.157  39.070  1.00  0.00     0.022 A 
BRANCH  42  46
ATOM     46  S   UNL A   1      42.394  36.699  38.352  1.00  0.00     0.124 S 
ATOM     47  O   UNL A   1      41.610  37.649  39.135  1.00  0.00    -0.237 OA
ATOM     48  O   UNL A   1      43.504  36.060  39.051  1.00  0.00    -0.237 OA
ATOM     49  O   UNL A   1      42.685  37.118  36.982  1.00  0.00    -0.744 OA
ENDBRANCH  42  46
ENDBRANCH  25  39
BRANCH  26  50
ATOM     50  C   UNL A   1      40.954  27.449  28.853  1.00  0.00     0.023 A 
ATOM     51  C   UNL A   1      41.932  27.661  27.869  1.00  0.00     0.031 A 
ATOM     52  C   UNL A   1      40.047  26.391  28.670  1.00  0.00     0.131 A 
ATOM     53  C   UNL A   1      41.968  26.835  26.733  1.00  0.00     0.055 A 
ATOM     54  C   UNL A   1      40.113  25.547  27.560  1.00  0.00     0.041 A 
ATOM     55  F   UNL A   1      39.096  26.147  29.584  1.00  0.00    -0.206 F 
ATOM     56  C   UNL A   1      41.074  25.773  26.580  1.00  0.00     0.022 A 
BRANCH  53  57
ATOM     57  S   UNL A   1      43.179  27.193  25.430  1.00  0.00     0.124 S 
ATOM     58  O   UNL A   1      43.478  25.857  24.928  1.00  0.00    -0.237 OA
ATOM     59  O   UNL A   1      42.419  28.060  24.537  1.00  0.00    -0.237 OA
ATOM     60  O   UNL A   1      44.268  27.849  26.150  1.00  0.00    -0.744 OA
ENDBRANCH  53  57
ENDBRANCH  26  50
BRANCH  38  61
ATOM     61  C   UNL A   1      44.759  27.997  34.675  1.00  0.00     0.023 A 
ATOM     62  C   UNL A   1      44.634  26.848  35.472  1.00  0.00     0.031 A 
ATOM     63  C   UNL A   1      46.048  28.422  34.310  1.00  0.00     0.131 A 
ATOM     64  C   UNL A   1      45.784  26.169  35.898  1.00  0.00     0.055 A 
ATOM     65  C   UNL A   1      47.187  27.720  34.703  1.00  0.00     0.041 A 
ATOM     66  F   UNL A   1      46.216  29.515  33.547  1.00  0.00    -0.206 F 
ATOM     67  C   UNL A   1      47.059  26.588  35.504  1.00  0.00     0.022 A 
BRANCH  64  68
ATOM     68  S   UNL A   1      45.600  24.732  36.989  1.00  0.00     0.124 S 
ATOM     69  O   UNL A   1      44.213  24.861  37.425  1.00  0.00    -0.237 OA
ATOM     70  O   UNL A   1      45.886  23.615  36.095  1.00  0.00    -0.237 OA
ATOM     71  O   UNL A   1      46.601  24.962  38.029  1.00  0.00    -0.744 OA
ENDBRANCH  64  68
ENDBRANCH  38  61
ENDBRANCH  12  13
ENDBRANCH   5   7
ENDBRANCH   2   3
ENDBRANCH   1   2
BRANCH   1  72
ATOM     72  C   UNL A   1      34.208  30.686  27.555  1.00  0.00     0.023 C 
BRANCH  72  73
ATOM     73  C   UNL A   1      33.738  29.239  27.407  1.00  0.00     0.116 C 
BRANCH  73  74
ATOM     74  N   UNL A   1      34.004  28.632  26.111  1.00  0.00    -0.356 N 
ATOM     75  C   UNL A   1      33.239  28.472  24.997  1.00  0.00     0.223 C 
ATOM     76  H   UNL A   1      34.913  28.266  26.023  1.00  0.00     0.163 HD
ATOM     77  O   UNL A   1      33.822  28.104  23.973  1.00  0.00    -0.275 OA
BRANCH  75  78
ATOM     78  C   UNL A   1      31.740  28.737  25.003  1.00  0.00     0.091 C 
ATOM     79  C   UNL A   1      31.391  29.646  23.797  1.00  0.00     0.014 C 
ATOM     80  C   UNL A   1      30.785  27.519  25.143  1.00  0.00     0.091 C 
ATOM     81  C   UNL A   1      30.932  28.893  22.551  1.00  0.00     0.001 C 
ATOM     82  C   UNL A   1      30.090  26.979  23.879  1.00  0.00     0.014 C 
ATOM     83  C   UNL A   1      29.714  28.051  22.876  1.00  0.00     0.001 C 
BRANCH  80  84
ATOM     84  C   UNL A   1      31.169  26.319  26.026  1.00  0.00     0.226 C 
ATOM     85  O   UNL A   1      31.259  26.515  27.244  1.00  0.00    -0.275 OA
ATOM     86  N   UNL A   1      31.249  25.030  25.505  1.00  0.00    -0.340 N 
ATOM     87  C   UNL A   1      31.275  23.921  26.476  1.00  0.00     0.136 C 
ATOM     88  C   UNL A   1      31.753  24.720  24.163  1.00  0.00     0.136 C 
ATOM     89  C   UNL A   1      30.918  22.548  25.874  1.00  0.00     0.124 C 
ATOM     90  C   UNL A   1      31.471  23.312  23.639  1.00  0.00     0.124 C 
ATOM     91  N   UNL A   1      31.724  22.250  24.640  1.00  0.00    -0.194 NA
BRANCH  91  92
ATOM     92  S   UNL A   1      33.309  21.734  24.996  1.00  0.00     0.243 S 
ATOM     93  O   UNL A   1      34.224  22.571  24.255  1.00  0.00    -0.207 OA
ATOM     94  O   UNL A   1      33.426  21.651  26.435  1.00  0.00    -0.207 OA
BRANCH  92  95
ATOM     95  C   UNL A   1      33.505  20.103  24.320  1.00  0.00     0.082 A 
ATOM     96  C   UNL A   1      34.597  19.330  24.752  1.00  0.00     0.025 A 
ATOM     97  C   UNL A   1      32.484  19.522  23.562  1.00  0.00     0.025 A 
ATOM     98  C   UNL A   1      34.688  17.989  24.387  1.00  0.00     0.040 A 
ATOM     99  C   UNL A   1      32.576  18.171  23.213  1.00  0.00     0.040 A 
ATOM    100  C   UNL A   1      33.676  17.421  23.624  1.00  0.00     0.123 A 
ATOM    101  F   UNL A   1      33.758  16.125  23.298  1.00  0.00    -0.207 F 
ENDBRANCH  92  95
ENDBRANCH  91  92
ENDBRANCH  80  84
ENDBRANCH  75  78
ENDBRANCH  73  74
ENDBRANCH  72  73
ENDBRANCH   1  72
TORSDOF 17
ENDMDL
MODEL 3
REMARK VINA RESULT:     -12.8      1.373      7.399
REMARK SMILES O=C(NCCCCNC(=O)[C@H]1CCCC[C@H]1C(=O)N1CCN(S(=O)(=O)c2ccc(F)cc2)CC1)c1ccc(-c2c3nc(c(-c4cc(S(=O)(=O)[O-])ccc4F)c4ccc([nH]4)c(-c4cc(S(=O)(=O)[O-])ccc4F)c4nc(c(-c5cc(S(=O)(=O)[O-])ccc5F)c5ccc2[nH]5)C=C4)C=C3)cc1
REMARK SMILES IDX 5 1 4 2 3 3 1 4 2 5 35 7 36 8 97 9 37 10 96 11 38 12 39 13
REMARK SMILES IDX 40 14 90 15 41 16 95 17 89 18 91 19 42 20 94 21 88 22 87 23
REMARK SMILES IDX 43 25 75 26 55 27 74 28 56 29 59 30 73 31 92 32 57 33 58 34
REMARK SMILES IDX 72 36 93 37 60 38 44 39 45 40 53 41 46 42 52 43 54 44 51 45
REMARK SMILES IDX 47 46 48 47 49 48 50 49 76 50 77 51 85 52 78 53 84 54 86 55
REMARK SMILES IDX 83 56 79 57 80 58 81 59 82 60 61 61 62 62 70 63 63 64 69 65
REMARK SMILES IDX 71 66 68 67 64 68 65 69 66 70 67 71 6 72 7 73 8 74 9 75
REMARK SMILES IDX 10 77 11 78 12 79 16 80 13 81 15 82 14 83 17 84 18 85 19 86
REMARK SMILES IDX 20 87 34 88 21 89 33 90 22 91 23 92 24 93 25 94 26 95 27 96
REMARK SMILES IDX 32 97 28 98 31 99 29 100 30 101
REMARK H PARENT 3 6 91 24 59 35 8 76
REMARK Flexibility Score: inf
ROOT
ATOM      1  C   UNL A   1      31.775  31.220  27.123  1.00  0.00     0.023 C 
ENDROOT
BRANCH   1   2
ATOM      2  C   UNL A   1      32.635  32.326  26.524  1.00  0.00     0.116 C 
BRANCH   2   3
ATOM      3  N   UNL A   1      32.478  33.586  27.226  1.00  0.00    -0.352 N 
ATOM      4  O   UNL A   1      32.690  35.091  28.868  1.00  0.00    -0.269 OA
ATOM      5  C   UNL A   1      33.142  34.084  28.323  1.00  0.00     0.251 C 
ATOM      6  H   UNL A   1      31.785  34.181  26.858  1.00  0.00     0.163 HD
BRANCH   5   7
ATOM      7  C   UNL A   1      34.378  33.454  28.862  1.00  0.00     0.039 A 
ATOM      8  C   UNL A   1      35.618  34.097  28.835  1.00  0.00     0.014 A 
ATOM      9  C   UNL A   1      34.271  32.215  29.510  1.00  0.00     0.014 A 
ATOM     10  C   UNL A   1      36.752  33.468  29.355  1.00  0.00     0.010 A 
ATOM     11  C   UNL A   1      35.394  31.620  30.103  1.00  0.00     0.010 A 
ATOM     12  C   UNL A   1      36.651  32.235  30.020  1.00  0.00    -0.014 A 
BRANCH  12  13
ATOM     13  C   UNL A   1      37.852  31.649  30.680  1.00  0.00     0.031 A 
ATOM     14  C   UNL A   1      38.199  31.989  32.106  1.00  0.00     0.074 A 
ATOM     15  C   UNL A   1      38.624  30.782  29.990  1.00  0.00     0.049 A 
ATOM     16  N   UNL A   1      39.212  31.575  32.825  1.00  0.00    -0.248 NA
ATOM     17  C   UNL A   1      37.301  32.914  32.815  1.00  0.00     0.031 C 
ATOM     18  C   UNL A   1      38.397  30.379  28.600  1.00  0.00     0.029 A 
ATOM     19  N   UNL A   1      39.736  30.066  30.361  1.00  0.00    -0.354 N 
ATOM     20  C   UNL A   1      39.088  32.201  34.061  1.00  0.00     0.074 A 
ATOM     21  C   UNL A   1      37.910  33.039  33.988  1.00  0.00     0.031 C 
ATOM     22  C   UNL A   1      39.300  29.449  28.256  1.00  0.00     0.029 A 
ATOM     23  C   UNL A   1      40.215  29.236  29.373  1.00  0.00     0.049 A 
ATOM     24  H   UNL A   1      40.152  30.141  31.250  1.00  0.00     0.167 HD
ATOM     25  C   UNL A   1      39.877  32.077  35.156  1.00  0.00     0.034 A 
ATOM     26  C   UNL A   1      41.279  28.408  29.353  1.00  0.00     0.034 A 
ATOM     27  C   UNL A   1      41.032  31.216  35.231  1.00  0.00     0.049 A 
ATOM     28  C   UNL A   1      42.156  28.318  30.571  1.00  0.00     0.074 A 
ATOM     29  C   UNL A   1      41.864  30.989  36.314  1.00  0.00     0.029 A 
ATOM     30  N   UNL A   1      41.520  30.444  34.187  1.00  0.00    -0.354 N 
ATOM     31  N   UNL A   1      42.022  28.926  31.726  1.00  0.00    -0.248 NA
ATOM     32  C   UNL A   1      43.336  27.447  30.482  1.00  0.00     0.031 C 
ATOM     33  C   UNL A   1      42.884  30.122  35.912  1.00  0.00     0.029 A 
ATOM     34  C   UNL A   1      42.657  29.763  34.593  1.00  0.00     0.049 A 
ATOM     35  H   UNL A   1      41.118  30.388  33.290  1.00  0.00     0.167 HD
ATOM     36  C   UNL A   1      43.099  28.510  32.499  1.00  0.00     0.074 A 
ATOM     37  C   UNL A   1      43.865  27.585  31.690  1.00  0.00     0.031 C 
ATOM     38  C   UNL A   1      43.424  28.864  33.767  1.00  0.00     0.034 A 
BRANCH  25  39
ATOM     39  C   UNL A   1      39.545  32.910  36.367  1.00  0.00     0.023 A 
ATOM     40  C   UNL A   1      38.684  32.440  37.373  1.00  0.00     0.031 A 
ATOM     41  C   UNL A   1      40.154  34.165  36.545  1.00  0.00     0.131 A 
ATOM     42  C   UNL A   1      38.436  33.234  38.504  1.00  0.00     0.055 A 
ATOM     43  C   UNL A   1      39.943  34.927  37.695  1.00  0.00     0.041 A 
ATOM     44  F   UNL A   1      40.979  34.662  35.609  1.00  0.00    -0.206 F 
ATOM     45  C   UNL A   1      39.078  34.463  38.682  1.00  0.00     0.022 A 
BRANCH  42  46
ATOM     46  S   UNL A   1      37.248  32.653  39.745  1.00  0.00     0.124 S 
ATOM     47  O   UNL A   1      37.377  33.674  40.780  1.00  0.00    -0.237 OA
ATOM     48  O   UNL A   1      35.988  32.647  39.009  1.00  0.00    -0.237 OA
ATOM     49  O   UNL A   1      37.754  31.332  40.113  1.00  0.00    -0.744 OA
ENDBRANCH  42  46
ENDBRANCH  25  39
BRANCH  26  50
ATOM     50  C   UNL A   1      41.601  27.632  28.122  1.00  0.00     0.023 A 
ATOM     51  C   UNL A   1      41.301  26.265  28.026  1.00  0.00     0.031 A 
ATOM     52  C   UNL A   1      42.221  28.254  27.023  1.00  0.00     0.131 A 
ATOM     53  C   UNL A   1      41.641  25.556  26.862  1.00  0.00     0.055 A 
ATOM     54  C   UNL A   1      42.519  27.555  25.852  1.00  0.00     0.041 A 
ATOM     55  F   UNL A   1      42.526  29.560  27.066  1.00  0.00    -0.206 F 
ATOM     56  C   UNL A   1      42.235  26.195  25.771  1.00  0.00     0.022 A 
BRANCH  53  57
ATOM     57  S   UNL A   1      41.332  23.769  26.805  1.00  0.00     0.124 S 
ATOM     58  O   UNL A   1      42.150  23.363  25.668  1.00  0.00    -0.237 OA
ATOM     59  O   UNL A   1      41.797  23.337  28.118  1.00  0.00    -0.237 OA
ATOM     60  O   UNL A   1      39.888  23.681  26.600  1.00  0.00    -0.744 OA
ENDBRANCH  53  57
ENDBRANCH  26  50
BRANCH  38  61
ATOM     61  C   UNL A   1      44.659  28.245  34.362  1.00  0.00     0.023 A 
ATOM     62  C   UNL A   1      44.603  27.016  35.039  1.00  0.00     0.031 A 
ATOM     63  C   UNL A   1      45.909  28.869  34.209  1.00  0.00     0.131 A 
ATOM     64  C   UNL A   1      45.778  26.455  35.559  1.00  0.00     0.055 A 
ATOM     65  C   UNL A   1      47.080  28.286  34.692  1.00  0.00     0.041 A 
ATOM     66  F   UNL A   1      46.011  30.044  33.567  1.00  0.00    -0.206 F 
ATOM     67  C   UNL A   1      47.019  27.074  35.375  1.00  0.00     0.022 A 
BRANCH  64  68
ATOM     68  S   UNL A   1      45.669  24.905  36.494  1.00  0.00     0.124 S 
ATOM     69  O   UNL A   1      44.367  25.035  37.142  1.00  0.00    -0.237 OA
ATOM     70  O   UNL A   1      45.762  23.893  35.447  1.00  0.00    -0.237 OA
ATOM     71  O   UNL A   1      46.819  24.968  37.395  1.00  0.00    -0.744 OA
ENDBRANCH  64  68
ENDBRANCH  38  61
ENDBRANCH  12  13
ENDBRANCH   5   7
ENDBRANCH   2   3
ENDBRANCH   1   2
BRANCH   1  72
ATOM     72  C   UNL A   1      32.428  29.849  27.268  1.00  0.00     0.023 C 
BRANCH  72  73
ATOM     73  C   UNL A   1      33.821  29.707  26.654  1.00  0.00     0.116 C 
BRANCH  73  74
ATOM     74  N   UNL A   1      33.909  28.792  25.525  1.00  0.00    -0.356 N 
ATOM     75  C   UNL A   1      32.995  28.370  24.611  1.00  0.00     0.223 C 
ATOM     76  H   UNL A   1      34.804  28.403  25.398  1.00  0.00     0.163 HD
ATOM     77  O   UNL A   1      33.430  27.751  23.636  1.00  0.00    -0.275 OA
BRANCH  75  78
ATOM     78  C   UNL A   1      31.506  28.649  24.771  1.00  0.00     0.091 C 
ATOM     79  C   UNL A   1      31.025  29.487  23.559  1.00  0.00     0.014 C 
ATOM     80  C   UNL A   1      30.571  27.451  25.093  1.00  0.00     0.091 C 
ATOM     81  C   UNL A   1      30.424  28.665  22.422  1.00  0.00     0.001 C 
ATOM     82  C   UNL A   1      29.734  26.842  23.951  1.00  0.00     0.014 C 
ATOM     83  C   UNL A   1      29.249  27.856  22.934  1.00  0.00     0.001 C 
BRANCH  80  84
ATOM     84  C   UNL A   1      31.050  26.303  25.998  1.00  0.00     0.226 C 
ATOM     85  O   UNL A   1      31.219  26.557  27.196  1.00  0.00    -0.275 OA
ATOM     86  N   UNL A   1      31.130  24.994  25.530  1.00  0.00    -0.340 N 
ATOM     87  C   UNL A   1      31.256  23.932  26.544  1.00  0.00     0.136 C 
ATOM     88  C   UNL A   1      31.547  24.636  24.170  1.00  0.00     0.136 C 
ATOM     89  C   UNL A   1      30.896  22.523  26.030  1.00  0.00     0.124 C 
ATOM     90  C   UNL A   1      31.270  23.198  23.729  1.00  0.00     0.124 C 
ATOM     91  N   UNL A   1      31.622  22.190  24.755  1.00  0.00    -0.194 NA
BRANCH  91  92
ATOM     92  S   UNL A   1      33.242  21.731  25.020  1.00  0.00     0.243 S 
ATOM     93  O   UNL A   1      34.084  22.614  24.247  1.00  0.00    -0.207 OA
ATOM     94  O   UNL A   1      33.438  21.632  26.449  1.00  0.00    -0.207 OA
BRANCH  92  95
ATOM     95  C   UNL A   1      33.464  20.119  24.307  1.00  0.00     0.082 A 
ATOM     96  C   UNL A   1      34.523  19.323  24.779  1.00  0.00     0.025 A 
ATOM     97  C   UNL A   1      32.486  19.571  23.473  1.00  0.00     0.025 A 
ATOM     98  C   UNL A   1      34.625  17.992  24.380  1.00  0.00     0.040 A 
ATOM     99  C   UNL A   1      32.587  18.231  23.089  1.00  0.00     0.040 A 
ATOM    100  C   UNL A   1      33.655  17.458  23.541  1.00  0.00     0.123 A 
ATOM    101  F   UNL A   1      33.745  16.171  23.181  1.00  0.00    -0.207 F 
ENDBRANCH  92  95
ENDBRANCH  91  92
ENDBRANCH  80  84
ENDBRANCH  75  78
ENDBRANCH  73  74
ENDBRANCH  72  73
ENDBRANCH   1  72
TORSDOF 17
ENDMDL
