MODEL 1
REMARK VINA RESULT:     -12.6      0.000      0.000
REMARK SMILES C[C@H](C(=O)NCCCCNC(=O)c1ccc(-c2c3nc(c(-c4cc(S(=O)(=O)[O-])ccc4F)c4ccc([nH]4)c(-c4cc(S(=O)(=O)[O-])ccc4F)c4nc(c(-c5cc(S(=O)(=O)[O-])ccc5F)c5ccc2[nH]5)C=C4)C=C3)cc1)N1C(=O)C[C@@H](N2C(=O)/C(=C/c3ccccc3)SC2=S)C1=O
REMARK SMILES IDX 7 1 6 2 5 3 3 4 4 5 2 7 1 8 76 9 77 10 95 11 78 12 79 13
REMARK SMILES IDX 80 14 96 15 81 16 82 17 93 18 83 19 84 20 92 21 94 22 85 23
REMARK SMILES IDX 86 24 87 25 91 26 88 27 90 28 89 29 8 30 9 31 10 32 11 33
REMARK SMILES IDX 12 35 13 36 14 37 75 38 15 39 74 40 16 41 17 42 18 43 68 44
REMARK SMILES IDX 19 45 73 46 67 47 69 48 20 49 72 50 66 51 65 52 21 54 53 55
REMARK SMILES IDX 33 56 52 57 34 58 37 59 51 60 70 61 35 62 36 63 50 65 71 66
REMARK SMILES IDX 38 67 22 68 23 69 31 70 24 71 30 72 32 73 29 74 25 75 26 76
REMARK SMILES IDX 27 77 28 78 54 79 55 80 63 81 56 82 62 83 64 84 61 85 57 86
REMARK SMILES IDX 58 87 59 88 60 89 39 90 40 91 48 92 41 93 47 94 49 95 46 96
REMARK SMILES IDX 42 97 43 98 44 99 45 100
REMARK H PARENT 5 6 10 34 69 53 37 64
REMARK Flexibility Score: inf
ROOT
ATOM      1  C   UNL A   1      34.748  30.045  27.674  1.00  0.00     0.023 C 
ENDROOT
BRANCH   1   2
ATOM      2  C   UNL A   1      34.019  28.915  26.950  1.00  0.00     0.116 C 
BRANCH   2   3
ATOM      3  N   UNL A   1      33.993  29.153  25.518  1.00  0.00    -0.354 N 
ATOM      4  C   UNL A   1      32.940  29.224  24.650  1.00  0.00     0.243 C 
ATOM      5  O   UNL A   1      33.213  29.322  23.451  1.00  0.00    -0.273 OA
ATOM      6  H   UNL A   1      34.877  29.286  25.106  1.00  0.00     0.163 HD
BRANCH   4   7
ATOM      7  C   UNL A   1      31.479  29.137  25.157  1.00  0.00     0.179 C 
ATOM      8  C   UNL A   1      30.710  30.340  24.605  1.00  0.00     0.042 C 
BRANCH   7   9
ATOM      9  N   UNL A   1      30.904  27.828  24.812  1.00  0.00    -0.268 N 
ATOM     10  C   UNL A   1      30.263  27.494  23.650  1.00  0.00     0.232 C 
ATOM     11  C   UNL A   1      30.919  26.767  25.673  1.00  0.00     0.253 C 
ATOM     12  O   UNL A   1      29.894  28.235  22.751  1.00  0.00    -0.274 OA
ATOM     13  C   UNL A   1      29.877  26.039  23.700  1.00  0.00     0.136 C 
ATOM     14  C   UNL A   1      30.640  25.499  24.896  1.00  0.00     0.191 C 
ATOM     15  O   UNL A   1      31.140  26.806  26.875  1.00  0.00    -0.272 OA
BRANCH  14  16
ATOM     16  N   UNL A   1      31.863  24.722  24.579  1.00  0.00    -0.280 N 
ATOM     17  C   UNL A   1      32.407  23.860  25.517  1.00  0.00     0.266 C 
ATOM     18  C   UNL A   1      32.538  24.779  23.374  1.00  0.00     0.149 C 
ATOM     19  O   UNL A   1      31.900  23.571  26.589  1.00  0.00    -0.268 OA
ATOM     20  C   UNL A   1      33.730  23.353  25.080  1.00  0.00     0.081 C 
ATOM     21  S   UNL A   1      34.031  23.844  23.469  1.00  0.00    -0.054 SA
ATOM     22  S   UNL A   1      32.117  25.621  21.998  1.00  0.00    -0.052 S 
ATOM     23  C   UNL A   1      34.527  22.688  25.928  1.00  0.00     0.029 C 
BRANCH  23  24
ATOM     24  C   UNL A   1      35.922  22.293  25.705  1.00  0.00    -0.024 A 
ATOM     25  C   UNL A   1      36.225  21.020  25.210  1.00  0.00     0.008 A 
ATOM     26  C   UNL A   1      36.969  23.146  26.082  1.00  0.00     0.008 A 
ATOM     27  C   UNL A   1      37.556  20.617  25.072  1.00  0.00     0.001 A 
ATOM     28  C   UNL A   1      38.297  22.741  25.945  1.00  0.00     0.001 A 
ATOM     29  C   UNL A   1      38.591  21.476  25.438  1.00  0.00     0.000 A 
ENDBRANCH  23  24
ENDBRANCH  14  16
ENDBRANCH   7   9
ENDBRANCH   4   7
ENDBRANCH   2   3
ENDBRANCH   1   2
BRANCH   1  30
ATOM     30  C   UNL A   1      34.325  31.452  27.277  1.00  0.00     0.023 C 
BRANCH  30  31
ATOM     31  C   UNL A   1      32.891  31.799  27.636  1.00  0.00     0.116 C 
BRANCH  31  32
ATOM     32  N   UNL A   1      32.639  33.232  27.681  1.00  0.00    -0.352 N 
ATOM     33  C   UNL A   1      33.254  34.186  28.458  1.00  0.00     0.251 C 
ATOM     34  H   UNL A   1      31.934  33.561  27.076  1.00  0.00     0.163 HD
ATOM     35  O   UNL A   1      32.839  35.340  28.465  1.00  0.00    -0.269 OA
BRANCH  33  36
ATOM     36  C   UNL A   1      34.388  33.782  29.312  1.00  0.00     0.039 A 
ATOM     37  C   UNL A   1      34.150  32.955  30.411  1.00  0.00     0.014 A 
ATOM     38  C   UNL A   1      35.690  34.161  28.977  1.00  0.00     0.014 A 
ATOM     39  C   UNL A   1      35.233  32.444  31.129  1.00  0.00     0.010 A 
ATOM     40  C   UNL A   1      36.766  33.573  29.630  1.00  0.00     0.010 A 
ATOM     41  C   UNL A   1      36.548  32.713  30.717  1.00  0.00    -0.014 A 
BRANCH  41  42
ATOM     42  C   UNL A   1      37.717  32.121  31.418  1.00  0.00     0.031 A 
ATOM     43  C   UNL A   1      38.481  30.999  30.771  1.00  0.00     0.074 A 
ATOM     44  C   UNL A   1      38.043  32.545  32.655  1.00  0.00     0.049 A 
ATOM     45  N   UNL A   1      39.468  30.285  31.248  1.00  0.00    -0.248 NA
ATOM     46  C   UNL A   1      38.049  30.599  29.422  1.00  0.00     0.031 C 
ATOM     47  C   UNL A   1      37.344  33.594  33.402  1.00  0.00     0.029 A 
ATOM     48  N   UNL A   1      39.038  32.141  33.508  1.00  0.00    -0.354 N 
ATOM     49  C   UNL A   1      39.763  29.344  30.266  1.00  0.00     0.074 A 
ATOM     50  C   UNL A   1      38.801  29.532  29.202  1.00  0.00     0.031 C 
ATOM     51  C   UNL A   1      37.953  33.770  34.586  1.00  0.00     0.029 A 
ATOM     52  C   UNL A   1      39.051  32.817  34.707  1.00  0.00     0.049 A 
ATOM     53  H   UNL A   1      39.684  31.433  33.284  1.00  0.00     0.167 HD
ATOM     54  C   UNL A   1      40.763  28.429  30.241  1.00  0.00     0.034 A 
ATOM     55  C   UNL A   1      39.851  32.678  35.782  1.00  0.00     0.034 A 
ATOM     56  C   UNL A   1      41.724  28.272  31.304  1.00  0.00     0.049 A 
ATOM     57  C   UNL A   1      40.946  31.642  35.739  1.00  0.00     0.074 A 
ATOM     58  C   UNL A   1      42.813  27.419  31.362  1.00  0.00     0.029 A 
ATOM     59  N   UNL A   1      41.710  28.979  32.500  1.00  0.00    -0.354 N 
ATOM     60  N   UNL A   1      41.247  30.795  34.780  1.00  0.00    -0.248 NA
ATOM     61  C   UNL A   1      41.816  31.548  36.919  1.00  0.00     0.031 C 
ATOM     62  C   UNL A   1      43.414  27.563  32.617  1.00  0.00     0.029 A 
ATOM     63  C   UNL A   1      42.751  28.560  33.314  1.00  0.00     0.049 A 
ATOM     64  H   UNL A   1      41.056  29.676  32.735  1.00  0.00     0.167 HD
ATOM     65  C   UNL A   1      42.360  30.091  35.231  1.00  0.00     0.074 A 
ATOM     66  C   UNL A   1      42.686  30.625  36.538  1.00  0.00     0.031 C 
ATOM     67  C   UNL A   1      43.054  29.097  34.620  1.00  0.00     0.034 A 
BRANCH  54  68
ATOM     68  C   UNL A   1      40.843  27.521  29.037  1.00  0.00     0.023 A 
ATOM     69  C   UNL A   1      41.801  27.720  28.025  1.00  0.00     0.031 A 
ATOM     70  C   UNL A   1      39.929  26.465  28.876  1.00  0.00     0.131 A 
ATOM     71  C   UNL A   1      41.769  26.932  26.864  1.00  0.00     0.055 A 
ATOM     72  C   UNL A   1      39.960  25.628  27.759  1.00  0.00     0.041 A 
ATOM     73  F   UNL A   1      38.978  26.239  29.795  1.00  0.00    -0.206 F 
ATOM     74  C   UNL A   1      40.871  25.870  26.736  1.00  0.00     0.022 A 
BRANCH  71  75
ATOM     75  S   UNL A   1      42.812  27.416  25.462  1.00  0.00     0.124 S 
ATOM     76  O   UNL A   1      42.906  26.162  24.719  1.00  0.00    -0.237 OA
ATOM     77  O   UNL A   1      42.028  28.474  24.835  1.00  0.00    -0.237 OA
ATOM     78  O   UNL A   1      44.055  27.851  26.094  1.00  0.00    -0.744 OA
ENDBRANCH  71  75
ENDBRANCH  54  68
BRANCH  55  79
ATOM     79  C   UNL A   1      39.652  33.528  36.992  1.00  0.00     0.023 A 
ATOM     80  C   UNL A   1      38.949  33.046  38.107  1.00  0.00     0.031 A 
ATOM     81  C   UNL A   1      40.124  34.853  37.034  1.00  0.00     0.131 A 
ATOM     82  C   UNL A   1      38.693  33.895  39.195  1.00  0.00     0.055 A 
ATOM     83  C   UNL A   1      39.915  35.676  38.142  1.00  0.00     0.041 A 
ATOM     84  F   UNL A   1      40.806  35.364  35.997  1.00  0.00    -0.206 F 
ATOM     85  C   UNL A   1      39.182  35.202  39.226  1.00  0.00     0.022 A 
BRANCH  82  86
ATOM     86  S   UNL A   1      37.629  33.293  40.536  1.00  0.00     0.124 S 
ATOM     87  O   UNL A   1      38.429  32.205  41.085  1.00  0.00    -0.237 OA
ATOM     88  O   UNL A   1      37.499  34.481  41.374  1.00  0.00    -0.237 OA
ATOM     89  O   UNL A   1      36.408  32.885  39.844  1.00  0.00    -0.744 OA
ENDBRANCH  82  86
ENDBRANCH  55  79
BRANCH  67  90
ATOM     90  C   UNL A   1      44.261  28.556  35.348  1.00  0.00     0.023 A 
ATOM     91  C   UNL A   1      44.148  27.549  36.323  1.00  0.00     0.031 A 
ATOM     92  C   UNL A   1      45.541  29.064  35.067  1.00  0.00     0.131 A 
ATOM     93  C   UNL A   1      45.287  27.123  37.022  1.00  0.00     0.055 A 
ATOM     94  C   UNL A   1      46.680  28.591  35.720  1.00  0.00     0.041 A 
ATOM     95  F   UNL A   1      45.708  30.029  34.148  1.00  0.00    -0.206 F 
ATOM     96  C   UNL A   1      46.555  27.624  36.714  1.00  0.00     0.022 A 
BRANCH  93  97
ATOM     97  S   UNL A   1      45.079  25.972  38.407  1.00  0.00     0.124 S 
ATOM     98  O   UNL A   1      44.232  26.741  39.315  1.00  0.00    -0.237 OA
ATOM     99  O   UNL A   1      44.447  24.823  37.766  1.00  0.00    -0.237 OA
ATOM    100  O   UNL A   1      46.444  25.745  38.874  1.00  0.00    -0.744 OA
ENDBRANCH  93  97
ENDBRANCH  67  90
ENDBRANCH  41  42
ENDBRANCH  33  36
ENDBRANCH  31  32
ENDBRANCH  30  31
ENDBRANCH   1  30
TORSDOF 17
ENDMDL
MODEL 2
REMARK VINA RESULT:     -12.3      5.591      9.935
REMARK SMILES C[C@H](C(=O)NCCCCNC(=O)c1ccc(-c2c3nc(c(-c4cc(S(=O)(=O)[O-])ccc4F)c4ccc([nH]4)c(-c4cc(S(=O)(=O)[O-])ccc4F)c4nc(c(-c5cc(S(=O)(=O)[O-])ccc5F)c5ccc2[nH]5)C=C4)C=C3)cc1)N1C(=O)C[C@@H](N2C(=O)/C(=C/c3ccccc3)SC2=S)C1=O
REMARK SMILES IDX 7 1 6 2 5 3 3 4 4 5 2 7 1 8 76 9 77 10 95 11 78 12 79 13
REMARK SMILES IDX 80 14 96 15 81 16 82 17 93 18 83 19 84 20 92 21 94 22 85 23
REMARK SMILES IDX 86 24 87 25 91 26 88 27 90 28 89 29 8 30 9 31 10 32 11 33
REMARK SMILES IDX 12 35 13 36 14 37 75 38 15 39 74 40 16 41 17 42 18 43 68 44
REMARK SMILES IDX 19 45 73 46 67 47 69 48 20 49 72 50 66 51 65 52 21 54 53 55
REMARK SMILES IDX 33 56 52 57 34 58 37 59 51 60 70 61 35 62 36 63 50 65 71 66
REMARK SMILES IDX 38 67 22 68 23 69 31 70 24 71 30 72 32 73 29 74 25 75 26 76
REMARK SMILES IDX 27 77 28 78 54 79 55 80 63 81 56 82 62 83 64 84 61 85 57 86
REMARK SMILES IDX 58 87 59 88 60 89 39 90 40 91 48 92 41 93 47 94 49 95 46 96
REMARK SMILES IDX 42 97 43 98 44 99 45 100
REMARK H PARENT 5 6 10 34 69 53 37 64
REMARK Flexibility Score: inf
ROOT
ATOM      1  C   UNL A   1      39.018  22.401  26.317  1.00  0.00     0.023 C 
ENDROOT
BRANCH   1   2
ATOM      2  C   UNL A   1      37.737  22.947  25.688  1.00  0.00     0.116 C 
BRANCH   2   3
ATOM      3  N   UNL A   1      36.576  22.562  26.468  1.00  0.00    -0.354 N 
ATOM      4  C   UNL A   1      35.470  21.838  26.117  1.00  0.00     0.243 C 
ATOM      5  O   UNL A   1      34.569  21.758  26.954  1.00  0.00    -0.273 OA
ATOM      6  H   UNL A   1      36.586  22.872  27.403  1.00  0.00     0.163 HD
BRANCH   4   7
ATOM      7  C   UNL A   1      35.351  21.194  24.713  1.00  0.00     0.179 C 
ATOM      8  C   UNL A   1      35.303  19.675  24.888  1.00  0.00     0.042 C 
BRANCH   7   9
ATOM      9  N   UNL A   1      34.203  21.768  23.994  1.00  0.00    -0.268 N 
ATOM     10  C   UNL A   1      32.923  21.284  23.972  1.00  0.00     0.232 C 
ATOM     11  C   UNL A   1      34.310  22.877  23.203  1.00  0.00     0.253 C 
ATOM     12  O   UNL A   1      32.514  20.214  24.395  1.00  0.00    -0.274 OA
ATOM     13  C   UNL A   1      32.061  22.205  23.149  1.00  0.00     0.136 C 
ATOM     14  C   UNL A   1      32.927  23.437  22.952  1.00  0.00     0.191 C 
ATOM     15  O   UNL A   1      35.343  23.370  22.773  1.00  0.00    -0.272 OA
BRANCH  14  16
ATOM     16  N   UNL A   1      32.596  24.597  23.816  1.00  0.00    -0.280 N 
ATOM     17  C   UNL A   1      33.030  25.868  23.476  1.00  0.00     0.266 C 
ATOM     18  C   UNL A   1      31.855  24.523  24.980  1.00  0.00     0.149 C 
ATOM     19  O   UNL A   1      33.587  26.169  22.433  1.00  0.00    -0.268 OA
ATOM     20  C   UNL A   1      32.777  26.835  24.572  1.00  0.00     0.081 C 
ATOM     21  S   UNL A   1      31.842  26.088  25.794  1.00  0.00    -0.054 SA
ATOM     22  S   UNL A   1      31.095  23.189  25.632  1.00  0.00    -0.052 S 
ATOM     23  C   UNL A   1      33.315  28.062  24.544  1.00  0.00     0.029 C 
BRANCH  23  24
ATOM     24  C   UNL A   1      33.313  29.052  25.627  1.00  0.00    -0.024 A 
ATOM     25  C   UNL A   1      32.271  29.980  25.732  1.00  0.00     0.008 A 
ATOM     26  C   UNL A   1      34.403  29.147  26.503  1.00  0.00     0.008 A 
ATOM     27  C   UNL A   1      32.309  30.972  26.716  1.00  0.00     0.001 A 
ATOM     28  C   UNL A   1      34.440  30.140  27.483  1.00  0.00     0.001 A 
ATOM     29  C   UNL A   1      33.392  31.052  27.590  1.00  0.00     0.000 A 
ENDBRANCH  23  24
ENDBRANCH  14  16
ENDBRANCH   7   9
ENDBRANCH   4   7
ENDBRANCH   2   3
ENDBRANCH   1   2
BRANCH   1  30
ATOM     30  C   UNL A   1      39.450  21.028  25.823  1.00  0.00     0.023 C 
BRANCH  30  31
ATOM     31  C   UNL A   1      40.385  20.290  26.764  1.00  0.00     0.116 C 
BRANCH  31  32
ATOM     32  N   UNL A   1      41.356  19.453  26.074  1.00  0.00    -0.352 N 
ATOM     33  C   UNL A   1      42.599  19.798  25.599  1.00  0.00     0.251 C 
ATOM     34  H   UNL A   1      41.085  18.517  25.928  1.00  0.00     0.163 HD
ATOM     35  O   UNL A   1      43.249  19.002  24.929  1.00  0.00    -0.269 OA
BRANCH  33  36
ATOM     36  C   UNL A   1      43.113  21.154  25.873  1.00  0.00     0.039 A 
ATOM     37  C   UNL A   1      43.086  22.109  24.856  1.00  0.00     0.014 A 
ATOM     38  C   UNL A   1      43.547  21.496  27.156  1.00  0.00     0.014 A 
ATOM     39  C   UNL A   1      43.423  23.432  25.150  1.00  0.00     0.010 A 
ATOM     40  C   UNL A   1      43.786  22.828  27.469  1.00  0.00     0.010 A 
ATOM     41  C   UNL A   1      43.731  23.809  26.468  1.00  0.00    -0.014 A 
BRANCH  41  42
ATOM     42  C   UNL A   1      44.021  25.222  26.822  1.00  0.00     0.031 A 
ATOM     43  C   UNL A   1      45.418  25.756  26.667  1.00  0.00     0.074 A 
ATOM     44  C   UNL A   1      43.048  25.996  27.345  1.00  0.00     0.049 A 
ATOM     45  N   UNL A   1      45.901  26.925  27.003  1.00  0.00    -0.248 NA
ATOM     46  C   UNL A   1      46.415  24.837  26.095  1.00  0.00     0.031 C 
ATOM     47  C   UNL A   1      41.667  25.572  27.586  1.00  0.00     0.029 A 
ATOM     48  N   UNL A   1      43.072  27.298  27.775  1.00  0.00    -0.354 N 
ATOM     49  C   UNL A   1      47.258  26.874  26.698  1.00  0.00     0.074 A 
ATOM     50  C   UNL A   1      47.531  25.536  26.222  1.00  0.00     0.031 C 
ATOM     51  C   UNL A   1      40.972  26.604  28.092  1.00  0.00     0.029 A 
ATOM     52  C   UNL A   1      41.864  27.746  28.258  1.00  0.00     0.049 A 
ATOM     53  H   UNL A   1      43.880  27.860  27.743  1.00  0.00     0.167 HD
ATOM     54  C   UNL A   1      48.183  27.862  26.779  1.00  0.00     0.034 A 
ATOM     55  C   UNL A   1      41.518  28.939  28.782  1.00  0.00     0.034 A 
ATOM     56  C   UNL A   1      47.884  29.196  27.237  1.00  0.00     0.049 A 
ATOM     57  C   UNL A   1      42.567  30.017  28.878  1.00  0.00     0.074 A 
ATOM     58  C   UNL A   1      48.726  30.292  27.306  1.00  0.00     0.029 A 
ATOM     59  N   UNL A   1      46.647  29.616  27.712  1.00  0.00    -0.354 N 
ATOM     60  N   UNL A   1      43.835  29.972  28.534  1.00  0.00    -0.248 NA
ATOM     61  C   UNL A   1      42.139  31.312  29.423  1.00  0.00     0.031 C 
ATOM     62  C   UNL A   1      48.018  31.351  27.884  1.00  0.00     0.029 A 
ATOM     63  C   UNL A   1      46.712  30.944  28.104  1.00  0.00     0.049 A 
ATOM     64  H   UNL A   1      45.842  29.052  27.761  1.00  0.00     0.167 HD
ATOM     65  C   UNL A   1      44.344  31.241  28.794  1.00  0.00     0.074 A 
ATOM     66  C   UNL A   1      43.243  32.032  29.305  1.00  0.00     0.031 C 
ATOM     67  C   UNL A   1      45.606  31.713  28.622  1.00  0.00     0.034 A 
BRANCH  54  68
ATOM     68  C   UNL A   1      49.600  27.521  26.383  1.00  0.00     0.023 A 
ATOM     69  C   UNL A   1      50.078  27.750  25.079  1.00  0.00     0.031 A 
ATOM     70  C   UNL A   1      50.475  26.924  27.307  1.00  0.00     0.131 A 
ATOM     71  C   UNL A   1      51.359  27.310  24.714  1.00  0.00     0.055 A 
ATOM     72  C   UNL A   1      51.781  26.570  26.961  1.00  0.00     0.041 A 
ATOM     73  F   UNL A   1      50.072  26.660  28.559  1.00  0.00    -0.206 F 
ATOM     74  C   UNL A   1      52.225  26.746  25.654  1.00  0.00     0.022 A 
BRANCH  71  75
ATOM     75  S   UNL A   1      51.818  27.344  22.960  1.00  0.00     0.124 S 
ATOM     76  O   UNL A   1      50.548  27.016  22.317  1.00  0.00    -0.237 OA
ATOM     77  O   UNL A   1      52.290  28.713  22.783  1.00  0.00    -0.237 OA
ATOM     78  O   UNL A   1      52.846  26.311  22.855  1.00  0.00    -0.744 OA
ENDBRANCH  71  75
ENDBRANCH  54  68
BRANCH  55  79
ATOM     79  C   UNL A   1      40.127  29.182  29.263  1.00  0.00     0.023 A 
ATOM     80  C   UNL A   1      39.798  29.052  30.621  1.00  0.00     0.031 A 
ATOM     81  C   UNL A   1      39.095  29.506  28.363  1.00  0.00     0.131 A 
ATOM     82  C   UNL A   1      38.464  29.193  31.036  1.00  0.00     0.055 A 
ATOM     83  C   UNL A   1      37.779  29.701  28.789  1.00  0.00     0.041 A 
ATOM     84  F   UNL A   1      39.353  29.647  27.053  1.00  0.00    -0.206 F 
ATOM     85  C   UNL A   1      37.455  29.530  30.132  1.00  0.00     0.022 A 
BRANCH  82  86
ATOM     86  S   UNL A   1      38.050  28.840  32.767  1.00  0.00     0.124 S 
ATOM     87  O   UNL A   1      36.712  29.411  32.874  1.00  0.00    -0.237 OA
ATOM     88  O   UNL A   1      38.131  27.383  32.806  1.00  0.00    -0.237 OA
ATOM     89  O   UNL A   1      39.091  29.541  33.515  1.00  0.00    -0.744 OA
ENDBRANCH  82  86
ENDBRANCH  55  79
BRANCH  67  90
ATOM     90  C   UNL A   1      45.844  33.168  28.952  1.00  0.00     0.023 A 
ATOM     91  C   UNL A   1      45.714  34.178  27.983  1.00  0.00     0.031 A 
ATOM     92  C   UNL A   1      46.217  33.544  30.254  1.00  0.00     0.131 A 
ATOM     93  C   UNL A   1      46.009  35.508  28.317  1.00  0.00     0.055 A 
ATOM     94  C   UNL A   1      46.446  34.876  30.598  1.00  0.00     0.041 A 
ATOM     95  F   UNL A   1      46.358  32.620  31.219  1.00  0.00    -0.206 F 
ATOM     96  C   UNL A   1      46.357  35.866  29.622  1.00  0.00     0.022 A 
BRANCH  93  97
ATOM     97  S   UNL A   1      46.026  36.753  26.999  1.00  0.00     0.124 S 
ATOM     98  O   UNL A   1      47.053  37.678  27.469  1.00  0.00    -0.237 OA
ATOM     99  O   UNL A   1      46.373  35.959  25.824  1.00  0.00    -0.237 OA
ATOM    100  O   UNL A   1      44.664  37.281  27.009  1.00  0.00    -0.744 OA
ENDBRANCH  93  97
ENDBRANCH  67  90
ENDBRANCH  41  42
ENDBRANCH  33  36
ENDBRANCH  31  32
ENDBRANCH  30  31
ENDBRANCH   1  30
TORSDOF 17
ENDMDL
MODEL 3
REMARK VINA RESULT:     -12.2      0.999      7.533
REMARK SMILES C[C@H](C(=O)NCCCCNC(=O)c1ccc(-c2c3nc(c(-c4cc(S(=O)(=O)[O-])ccc4F)c4ccc([nH]4)c(-c4cc(S(=O)(=O)[O-])ccc4F)c4nc(c(-c5cc(S(=O)(=O)[O-])ccc5F)c5ccc2[nH]5)C=C4)C=C3)cc1)N1C(=O)C[C@@H](N2C(=O)/C(=C/c3ccccc3)SC2=S)C1=O
REMARK SMILES IDX 7 1 6 2 5 3 3 4 4 5 2 7 1 8 76 9 77 10 95 11 78 12 79 13
REMARK SMILES IDX 80 14 96 15 81 16 82 17 93 18 83 19 84 20 92 21 94 22 85 23
REMARK SMILES IDX 86 24 87 25 91 26 88 27 90 28 89 29 8 30 9 31 10 32 11 33
REMARK SMILES IDX 12 35 13 36 14 37 75 38 15 39 74 40 16 41 17 42 18 43 68 44
REMARK SMILES IDX 19 45 73 46 67 47 69 48 20 49 72 50 66 51 65 52 21 54 53 55
REMARK SMILES IDX 33 56 52 57 34 58 37 59 51 60 70 61 35 62 36 63 50 65 71 66
REMARK SMILES IDX 38 67 22 68 23 69 31 70 24 71 30 72 32 73 29 74 25 75 26 76
REMARK SMILES IDX 27 77 28 78 54 79 55 80 63 81 56 82 62 83 64 84 61 85 57 86
REMARK SMILES IDX 58 87 59 88 60 89 39 90 40 91 48 92 41 93 47 94 49 95 46 96
REMARK SMILES IDX 42 97 43 98 44 99 45 100
REMARK H PARENT 5 6 10 34 69 53 37 64
REMARK Flexibility Score: inf
ROOT
ATOM      1  C   UNL A   1      34.656  30.886  27.730  1.00  0.00     0.023 C 
ENDROOT
BRANCH   1   2
ATOM      2  C   UNL A   1      34.203  29.503  27.264  1.00  0.00     0.116 C 
BRANCH   2   3
ATOM      3  N   UNL A   1      34.146  29.442  25.816  1.00  0.00    -0.354 N 
ATOM      4  C   UNL A   1      33.079  29.287  24.975  1.00  0.00     0.243 C 
ATOM      5  O   UNL A   1      33.330  29.149  23.776  1.00  0.00    -0.273 OA
ATOM      6  H   UNL A   1      35.017  29.527  25.364  1.00  0.00     0.163 HD
BRANCH   4   7
ATOM      7  C   UNL A   1      31.631  29.242  25.524  1.00  0.00     0.179 C 
ATOM      8  C   UNL A   1      30.929  30.542  25.126  1.00  0.00     0.042 C 
BRANCH   7   9
ATOM      9  N   UNL A   1      30.959  28.015  25.067  1.00  0.00    -0.268 N 
ATOM     10  C   UNL A   1      30.312  27.829  23.876  1.00  0.00     0.232 C 
ATOM     11  C   UNL A   1      30.875  26.891  25.839  1.00  0.00     0.253 C 
ATOM     12  O   UNL A   1      30.019  28.668  23.037  1.00  0.00    -0.274 OA
ATOM     13  C   UNL A   1      29.810  26.410  23.802  1.00  0.00     0.136 C 
ATOM     14  C   UNL A   1      30.508  25.716  24.958  1.00  0.00     0.191 C 
ATOM     15  O   UNL A   1      31.079  26.814  27.042  1.00  0.00    -0.272 OA
BRANCH  14  16
ATOM     16  N   UNL A   1      31.671  24.871  24.590  1.00  0.00    -0.280 N 
ATOM     17  C   UNL A   1      32.161  23.931  25.481  1.00  0.00     0.266 C 
ATOM     18  C   UNL A   1      32.336  24.936  23.380  1.00  0.00     0.149 C 
ATOM     19  O   UNL A   1      31.646  23.629  26.545  1.00  0.00    -0.268 OA
ATOM     20  C   UNL A   1      33.441  23.353  25.004  1.00  0.00     0.081 C 
ATOM     21  S   UNL A   1      33.760  23.895  23.413  1.00  0.00    -0.054 SA
ATOM     22  S   UNL A   1      31.962  25.867  22.049  1.00  0.00    -0.052 S 
ATOM     23  C   UNL A   1      34.197  22.595  25.811  1.00  0.00     0.029 C 
BRANCH  23  24
ATOM     24  C   UNL A   1      35.559  22.115  25.552  1.00  0.00    -0.024 A 
ATOM     25  C   UNL A   1      35.774  20.801  25.122  1.00  0.00     0.008 A 
ATOM     26  C   UNL A   1      36.664  22.931  25.832  1.00  0.00     0.008 A 
ATOM     27  C   UNL A   1      37.075  20.320  24.951  1.00  0.00     0.001 A 
ATOM     28  C   UNL A   1      37.962  22.448  25.663  1.00  0.00     0.001 A 
ATOM     29  C   UNL A   1      38.168  21.143  25.221  1.00  0.00     0.000 A 
ENDBRANCH  23  24
ENDBRANCH  14  16
ENDBRANCH   7   9
ENDBRANCH   4   7
ENDBRANCH   2   3
ENDBRANCH   1   2
BRANCH   1  30
ATOM     30  C   UNL A   1      33.568  31.950  27.765  1.00  0.00     0.023 C 
BRANCH  30  31
ATOM     31  C   UNL A   1      34.084  33.376  27.705  1.00  0.00     0.116 C 
BRANCH  31  32
ATOM     32  N   UNL A   1      33.361  34.288  28.580  1.00  0.00    -0.352 N 
ATOM     33  C   UNL A   1      33.575  34.545  29.914  1.00  0.00     0.251 C 
ATOM     34  H   UNL A   1      32.621  34.785  28.161  1.00  0.00     0.163 HD
ATOM     35  O   UNL A   1      32.796  35.255  30.541  1.00  0.00    -0.269 OA
BRANCH  33  36
ATOM     36  C   UNL A   1      34.731  33.914  30.582  1.00  0.00     0.039 A 
ATOM     37  C   UNL A   1      34.520  32.801  31.397  1.00  0.00     0.014 A 
ATOM     38  C   UNL A   1      36.025  34.379  30.337  1.00  0.00     0.014 A 
ATOM     39  C   UNL A   1      35.619  32.106  31.905  1.00  0.00     0.010 A 
ATOM     40  C   UNL A   1      37.115  33.631  30.760  1.00  0.00     0.010 A 
ATOM     41  C   UNL A   1      36.924  32.490  31.553  1.00  0.00    -0.014 A 
BRANCH  41  42
ATOM     42  C   UNL A   1      38.109  31.724  32.019  1.00  0.00     0.031 A 
ATOM     43  C   UNL A   1      38.753  32.076  33.332  1.00  0.00     0.074 A 
ATOM     44  C   UNL A   1      38.641  30.766  31.232  1.00  0.00     0.049 A 
ATOM     45  N   UNL A   1      39.842  31.598  33.875  1.00  0.00    -0.248 NA
ATOM     46  C   UNL A   1      38.106  33.139  34.118  1.00  0.00     0.031 C 
ATOM     47  C   UNL A   1      38.131  30.371  29.917  1.00  0.00     0.029 A 
ATOM     48  N   UNL A   1      39.733  29.957  31.418  1.00  0.00    -0.354 N 
ATOM     49  C   UNL A   1      40.019  32.311  35.057  1.00  0.00     0.074 A 
ATOM     50  C   UNL A   1      38.967  33.303  35.110  1.00  0.00     0.031 C 
ATOM     51  C   UNL A   1      38.891  29.375  29.432  1.00  0.00     0.029 A 
ATOM     52  C   UNL A   1      39.969  29.093  30.374  1.00  0.00     0.049 A 
ATOM     53  H   UNL A   1      40.296  29.992  32.225  1.00  0.00     0.167 HD
ATOM     54  C   UNL A   1      40.954  32.135  36.023  1.00  0.00     0.034 A 
ATOM     55  C   UNL A   1      40.948  28.185  30.193  1.00  0.00     0.034 A 
ATOM     56  C   UNL A   1      41.981  31.126  35.960  1.00  0.00     0.049 A 
ATOM     57  C   UNL A   1      41.987  28.018  31.272  1.00  0.00     0.074 A 
ATOM     58  C   UNL A   1      42.945  30.817  36.905  1.00  0.00     0.029 A 
ATOM     59  N   UNL A   1      42.186  30.264  34.889  1.00  0.00    -0.354 N 
ATOM     60  N   UNL A   1      42.109  28.663  32.411  1.00  0.00    -0.248 NA
ATOM     61  C   UNL A   1      43.015  26.993  31.049  1.00  0.00     0.031 C 
ATOM     62  C   UNL A   1      43.770  29.818  36.377  1.00  0.00     0.029 A 
ATOM     63  C   UNL A   1      43.277  29.446  35.137  1.00  0.00     0.049 A 
ATOM     64  H   UNL A   1      41.635  30.238  34.074  1.00  0.00     0.167 HD
ATOM     65  C   UNL A   1      43.209  28.098  33.051  1.00  0.00     0.074 A 
ATOM     66  C   UNL A   1      43.702  27.051  32.179  1.00  0.00     0.031 C 
ATOM     67  C   UNL A   1      43.761  28.413  34.251  1.00  0.00     0.034 A 
BRANCH  54  68
ATOM     68  C   UNL A   1      40.911  33.068  37.209  1.00  0.00     0.023 A 
ATOM     69  C   UNL A   1      40.278  32.706  38.412  1.00  0.00     0.031 A 
ATOM     70  C   UNL A   1      41.478  34.352  37.128  1.00  0.00     0.131 A 
ATOM     71  C   UNL A   1      40.153  33.642  39.450  1.00  0.00     0.055 A 
ATOM     72  C   UNL A   1      41.428  35.248  38.198  1.00  0.00     0.041 A 
ATOM     73  F   UNL A   1      42.076  34.766  36.000  1.00  0.00    -0.206 F 
ATOM     74  C   UNL A   1      40.748  34.902  39.361  1.00  0.00     0.022 A 
BRANCH  71  75
ATOM     75  S   UNL A   1      39.071  33.243  40.849  1.00  0.00     0.124 S 
ATOM     76  O   UNL A   1      40.008  33.291  41.969  1.00  0.00    -0.237 OA
ATOM     77  O   UNL A   1      38.081  34.312  40.798  1.00  0.00    -0.237 OA
ATOM     78  O   UNL A   1      38.568  31.910  40.524  1.00  0.00    -0.744 OA
ENDBRANCH  71  75
ENDBRANCH  54  68
BRANCH  55  79
ATOM     79  C   UNL A   1      41.004  27.368  28.946  1.00  0.00     0.023 A 
ATOM     80  C   UNL A   1      41.991  27.598  27.974  1.00  0.00     0.031 A 
ATOM     81  C   UNL A   1      40.044  26.373  28.686  1.00  0.00     0.131 A 
ATOM     82  C   UNL A   1      41.967  26.881  26.767  1.00  0.00     0.055 A 
ATOM     83  C   UNL A   1      40.058  25.623  27.508  1.00  0.00     0.041 A 
ATOM     84  F   UNL A   1      39.080  26.108  29.583  1.00  0.00    -0.206 F 
ATOM     85  C   UNL A   1      41.016  25.886  26.534  1.00  0.00     0.022 A 
BRANCH  82  86
ATOM     86  S   UNL A   1      43.146  27.332  25.465  1.00  0.00     0.124 S 
ATOM     87  O   UNL A   1      43.525  26.024  24.942  1.00  0.00    -0.237 OA
ATOM     88  O   UNL A   1      42.325  28.161  24.587  1.00  0.00    -0.237 OA
ATOM     89  O   UNL A   1      44.196  28.045  26.188  1.00  0.00    -0.744 OA
ENDBRANCH  82  86
ENDBRANCH  55  79
BRANCH  67  90
ATOM     90  C   UNL A   1      44.935  27.580  34.705  1.00  0.00     0.023 A 
ATOM     91  C   UNL A   1      44.761  26.387  35.429  1.00  0.00     0.031 A 
ATOM     92  C   UNL A   1      46.248  27.993  34.415  1.00  0.00     0.131 A 
ATOM     93  C   UNL A   1      45.882  25.679  35.888  1.00  0.00     0.055 A 
ATOM     94  C   UNL A   1      47.358  27.250  34.819  1.00  0.00     0.041 A 
ATOM     95  F   UNL A   1      46.473  29.125  33.729  1.00  0.00    -0.206 F 
ATOM     96  C   UNL A   1      47.178  26.093  35.572  1.00  0.00     0.022 A 
BRANCH  93  97
ATOM     97  S   UNL A   1      45.624  24.260  36.986  1.00  0.00     0.124 S 
ATOM     98  O   UNL A   1      45.001  23.291  36.088  1.00  0.00    -0.237 OA
ATOM     99  O   UNL A   1      46.983  23.946  37.415  1.00  0.00    -0.237 OA
ATOM    100  O   UNL A   1      44.751  24.788  38.032  1.00  0.00    -0.744 OA
ENDBRANCH  93  97
ENDBRANCH  67  90
ENDBRANCH  41  42
ENDBRANCH  33  36
ENDBRANCH  31  32
ENDBRANCH  30  31
ENDBRANCH   1  30
TORSDOF 17
ENDMDL
