MODEL 1
REMARK VINA RESULT:     -11.7      0.000      0.000
REMARK SMILES C[NH2+][C@]1(C(=O)NCCCCNC(=O)c2ccc(-c3c4nc(c(-c5cc(S(=O)(=O)[O-])ccc5F)c5ccc([nH]5)c(-c5cc(S(=O)(=O)[O-])ccc5F)c5nc(c(-c6cc(S(=O)(=O)[O-])ccc6F)c6ccc3[nH]6)C=C5)C=C4)cc2)CCC[C@@H](Sc2nccn2C)C1
REMARK SMILES IDX 9 1 8 2 7 3 6 4 4 5 5 6 3 8 77 9 88 10 78 11 80 12 79 13
REMARK SMILES IDX 2 14 1 15 81 18 82 19 83 20 86 21 84 22 85 23 87 24 10 25
REMARK SMILES IDX 11 26 12 27 13 29 14 30 15 31 76 32 16 33 75 34 17 35 18 36
REMARK SMILES IDX 19 37 69 38 20 39 74 40 68 41 70 42 21 43 73 44 67 45 66 46
REMARK SMILES IDX 22 48 54 49 34 50 53 51 35 52 38 53 52 54 71 55 36 56 37 57
REMARK SMILES IDX 51 59 72 60 39 61 23 62 24 63 32 64 25 65 31 66 33 67 30 68
REMARK SMILES IDX 26 69 27 70 28 71 29 72 55 73 56 74 64 75 57 76 63 77 65 78
REMARK SMILES IDX 62 79 58 80 59 81 60 82 61 83 40 84 41 85 49 86 42 87 48 88
REMARK SMILES IDX 50 89 47 90 43 91 44 92 45 93 46 94
REMARK H PARENT 6 7 2 16 2 17 11 28 70 47 38 58
REMARK Flexibility Score: inf
ROOT
ATOM      1  C   UNL A   1      36.013  21.779  24.318  1.00  0.00     0.023 C 
ENDROOT
BRANCH   1   2
ATOM      2  C   UNL A   1      35.191  23.021  23.975  1.00  0.00     0.023 C 
BRANCH   2   3
ATOM      3  C   UNL A   1      33.864  22.742  23.272  1.00  0.00     0.116 C 
BRANCH   3   4
ATOM      4  N   UNL A   1      33.172  21.602  23.843  1.00  0.00    -0.351 N 
ATOM      5  C   UNL A   1      32.133  21.520  24.723  1.00  0.00     0.281 C 
ATOM      6  O   UNL A   1      31.816  20.373  25.069  1.00  0.00    -0.268 OA
ATOM      7  H   UNL A   1      33.514  20.729  23.541  1.00  0.00     0.163 HD
BRANCH   5   8
ATOM      8  C   UNL A   1      31.423  22.798  25.342  1.00  0.00     0.176 C 
ATOM      9  C   UNL A   1      32.435  23.415  26.348  1.00  0.00     0.079 C 
ATOM     10  C   UNL A   1      30.961  23.749  24.202  1.00  0.00     0.094 C 
ATOM     11  C   UNL A   1      32.253  24.893  26.662  1.00  0.00     0.008 C 
ATOM     12  C   UNL A   1      30.879  25.231  24.592  1.00  0.00     0.061 C 
ATOM     13  C   UNL A   1      32.080  25.723  25.400  1.00  0.00     0.015 C 
BRANCH   8  14
ATOM     14  N   UNL A   1      30.243  22.265  26.079  1.00  0.00    -0.336 N 
ATOM     15  C   UNL A   1      29.689  22.969  27.206  1.00  0.00     0.331 C 
ATOM     16  H   UNL A   1      29.491  22.178  25.395  1.00  0.00     0.346 HD
ATOM     17  H   UNL A   1      30.611  21.416  26.505  1.00  0.00     0.346 HD
ENDBRANCH   8  14
BRANCH  12  18
ATOM     18  S   UNL A   1      30.532  26.322  23.160  1.00  0.00    -0.084 SA
BRANCH  18  19
ATOM     19  C   UNL A   1      31.966  27.284  23.038  1.00  0.00     0.167 A 
ATOM     20  N   UNL A   1      33.050  26.941  22.379  1.00  0.00    -0.231 NA
ATOM     21  N   UNL A   1      32.089  28.529  23.593  1.00  0.00    -0.329 N 
ATOM     22  C   UNL A   1      33.886  28.024  22.464  1.00  0.00     0.132 A 
ATOM     23  C   UNL A   1      33.320  29.015  23.231  1.00  0.00     0.108 A 
ATOM     24  C   UNL A   1      31.157  29.254  24.420  1.00  0.00     0.152 C 
ENDBRANCH  18  19
ENDBRANCH  12  18
ENDBRANCH   5   8
ENDBRANCH   3   4
ENDBRANCH   2   3
ENDBRANCH   1   2
BRANCH   1  25
ATOM     25  C   UNL A   1      36.744  21.826  25.657  1.00  0.00     0.116 C 
BRANCH  25  26
ATOM     26  N   UNL A   1      37.818  20.849  25.753  1.00  0.00    -0.352 N 
ATOM     27  C   UNL A   1      39.131  21.032  26.115  1.00  0.00     0.251 C 
ATOM     28  H   UNL A   1      37.567  19.924  25.528  1.00  0.00     0.163 HD
ATOM     29  O   UNL A   1      39.921  20.094  26.027  1.00  0.00    -0.269 OA
BRANCH  27  30
ATOM     30  C   UNL A   1      39.592  22.364  26.564  1.00  0.00     0.039 A 
ATOM     31  C   UNL A   1      40.648  22.443  27.476  1.00  0.00     0.014 A 
ATOM     32  C   UNL A   1      39.009  23.531  26.063  1.00  0.00     0.014 A 
ATOM     33  C   UNL A   1      41.171  23.691  27.824  1.00  0.00     0.010 A 
ATOM     34  C   UNL A   1      39.576  24.769  26.356  1.00  0.00     0.010 A 
ATOM     35  C   UNL A   1      40.668  24.862  27.234  1.00  0.00    -0.014 A 
BRANCH  35  36
ATOM     36  C   UNL A   1      41.271  26.192  27.516  1.00  0.00     0.031 A 
ATOM     37  C   UNL A   1      42.658  26.509  27.026  1.00  0.00     0.074 A 
ATOM     38  C   UNL A   1      40.602  27.084  28.274  1.00  0.00     0.049 A 
ATOM     39  N   UNL A   1      43.393  27.569  27.248  1.00  0.00    -0.248 NA
ATOM     40  C   UNL A   1      43.315  25.483  26.203  1.00  0.00     0.031 C 
ATOM     41  C   UNL A   1      39.268  26.877  28.841  1.00  0.00     0.029 A 
ATOM     42  N   UNL A   1      40.954  28.337  28.707  1.00  0.00    -0.354 N 
ATOM     43  C   UNL A   1      44.604  27.332  26.605  1.00  0.00     0.074 A 
ATOM     44  C   UNL A   1      44.521  26.002  26.037  1.00  0.00     0.031 C 
ATOM     45  C   UNL A   1      38.907  27.973  29.528  1.00  0.00     0.029 A 
ATOM     46  C   UNL A   1      39.998  28.943  29.489  1.00  0.00     0.049 A 
ATOM     47  H   UNL A   1      41.812  28.764  28.479  1.00  0.00     0.167 HD
ATOM     48  C   UNL A   1      45.676  28.155  26.481  1.00  0.00     0.034 A 
ATOM     49  C   UNL A   1      40.004  30.136  30.117  1.00  0.00     0.034 A 
ATOM     50  C   UNL A   1      45.738  29.483  27.042  1.00  0.00     0.049 A 
ATOM     51  C   UNL A   1      41.213  31.025  29.982  1.00  0.00     0.074 A 
ATOM     52  C   UNL A   1      46.753  30.418  26.934  1.00  0.00     0.029 A 
ATOM     53  N   UNL A   1      44.747  30.063  27.823  1.00  0.00    -0.354 N 
ATOM     54  N   UNL A   1      42.334  30.803  29.333  1.00  0.00    -0.248 NA
ATOM     55  C   UNL A   1      41.154  32.329  30.654  1.00  0.00     0.031 C 
ATOM     56  C   UNL A   1      46.403  31.538  27.697  1.00  0.00     0.029 A 
ATOM     57  C   UNL A   1      45.138  31.332  28.224  1.00  0.00     0.049 A 
ATOM     58  H   UNL A   1      43.892  29.636  28.058  1.00  0.00     0.167 HD
ATOM     59  C   UNL A   1      43.100  31.954  29.497  1.00  0.00     0.074 A 
ATOM     60  C   UNL A   1      42.308  32.870  30.291  1.00  0.00     0.031 C 
ATOM     61  C   UNL A   1      44.342  32.231  29.026  1.00  0.00     0.034 A 
BRANCH  48  62
ATOM     62  C   UNL A   1      46.871  27.623  25.727  1.00  0.00     0.023 A 
ATOM     63  C   UNL A   1      47.137  28.006  24.401  1.00  0.00     0.031 A 
ATOM     64  C   UNL A   1      47.740  26.696  26.329  1.00  0.00     0.131 A 
ATOM     65  C   UNL A   1      48.191  27.407  23.694  1.00  0.00     0.055 A 
ATOM     66  C   UNL A   1      48.838  26.165  25.648  1.00  0.00     0.041 A 
ATOM     67  F   UNL A   1      47.529  26.277  27.587  1.00  0.00    -0.206 F 
ATOM     68  C   UNL A   1      49.058  26.507  24.317  1.00  0.00     0.022 A 
BRANCH  65  69
ATOM     69  S   UNL A   1      48.321  27.712  21.911  1.00  0.00     0.124 S 
ATOM     70  O   UNL A   1      49.454  28.631  21.850  1.00  0.00    -0.237 OA
ATOM     71  O   UNL A   1      48.553  26.374  21.379  1.00  0.00    -0.237 OA
ATOM     72  O   UNL A   1      47.029  28.303  21.570  1.00  0.00    -0.744 OA
ENDBRANCH  65  69
ENDBRANCH  48  62
BRANCH  49  73
ATOM     73  C   UNL A   1      38.835  30.565  30.937  1.00  0.00     0.023 A 
ATOM     74  C   UNL A   1      37.723  31.180  30.339  1.00  0.00     0.031 A 
ATOM     75  C   UNL A   1      38.831  30.407  32.333  1.00  0.00     0.131 A 
ATOM     76  C   UNL A   1      36.673  31.656  31.141  1.00  0.00     0.055 A 
ATOM     77  C   UNL A   1      37.762  30.838  33.120  1.00  0.00     0.041 A 
ATOM     78  F   UNL A   1      39.867  29.819  32.953  1.00  0.00    -0.206 F 
ATOM     79  C   UNL A   1      36.680  31.479  32.526  1.00  0.00     0.022 A 
BRANCH  76  80
ATOM     80  S   UNL A   1      35.331  32.586  30.350  1.00  0.00     0.124 S 
ATOM     81  O   UNL A   1      35.040  31.757  29.185  1.00  0.00    -0.237 OA
ATOM     82  O   UNL A   1      34.315  32.600  31.397  1.00  0.00    -0.237 OA
ATOM     83  O   UNL A   1      35.941  33.881  30.058  1.00  0.00    -0.744 OA
ENDBRANCH  76  80
ENDBRANCH  49  73
BRANCH  61  84
ATOM     84  C   UNL A   1      44.895  33.604  29.323  1.00  0.00     0.023 A 
ATOM     85  C   UNL A   1      44.662  34.697  28.471  1.00  0.00     0.031 A 
ATOM     86  C   UNL A   1      45.679  33.814  30.471  1.00  0.00     0.131 A 
ATOM     87  C   UNL A   1      45.252  35.940  28.751  1.00  0.00     0.055 A 
ATOM     88  C   UNL A   1      46.216  35.066  30.775  1.00  0.00     0.041 A 
ATOM     89  F   UNL A   1      45.936  32.804  31.318  1.00  0.00    -0.206 F 
ATOM     90  C   UNL A   1      46.014  36.134  29.905  1.00  0.00     0.022 A 
BRANCH  87  91
ATOM     91  S   UNL A   1      45.080  37.280  27.540  1.00  0.00     0.124 S 
ATOM     92  O   UNL A   1      46.248  37.071  26.689  1.00  0.00    -0.237 OA
ATOM     93  O   UNL A   1      43.787  36.987  26.930  1.00  0.00    -0.237 OA
ATOM     94  O   UNL A   1      45.119  38.489  28.360  1.00  0.00    -0.744 OA
ENDBRANCH  87  91
ENDBRANCH  61  84
ENDBRANCH  35  36
ENDBRANCH  27  30
ENDBRANCH  25  26
ENDBRANCH   1  25
TORSDOF 17
ENDMDL
MODEL 2
REMARK VINA RESULT:     -11.6      5.616      8.835
REMARK SMILES C[NH2+][C@]1(C(=O)NCCCCNC(=O)c2ccc(-c3c4nc(c(-c5cc(S(=O)(=O)[O-])ccc5F)c5ccc([nH]5)c(-c5cc(S(=O)(=O)[O-])ccc5F)c5nc(c(-c6cc(S(=O)(=O)[O-])ccc6F)c6ccc3[nH]6)C=C5)C=C4)cc2)CCC[C@@H](Sc2nccn2C)C1
REMARK SMILES IDX 9 1 8 2 7 3 6 4 4 5 5 6 3 8 77 9 88 10 78 11 80 12 79 13
REMARK SMILES IDX 2 14 1 15 81 18 82 19 83 20 86 21 84 22 85 23 87 24 10 25
REMARK SMILES IDX 11 26 12 27 13 29 14 30 15 31 76 32 16 33 75 34 17 35 18 36
REMARK SMILES IDX 19 37 69 38 20 39 74 40 68 41 70 42 21 43 73 44 67 45 66 46
REMARK SMILES IDX 22 48 54 49 34 50 53 51 35 52 38 53 52 54 71 55 36 56 37 57
REMARK SMILES IDX 51 59 72 60 39 61 23 62 24 63 32 64 25 65 31 66 33 67 30 68
REMARK SMILES IDX 26 69 27 70 28 71 29 72 55 73 56 74 64 75 57 76 63 77 65 78
REMARK SMILES IDX 62 79 58 80 59 81 60 82 61 83 40 84 41 85 49 86 42 87 48 88
REMARK SMILES IDX 50 89 47 90 43 91 44 92 45 93 46 94
REMARK H PARENT 6 7 2 16 2 17 11 28 70 47 38 58
REMARK Flexibility Score: inf
ROOT
ATOM      1  C   UNL A   1      32.023  31.272  26.834  1.00  0.00     0.023 C 
ENDROOT
BRANCH   1   2
ATOM      2  C   UNL A   1      32.193  29.766  27.040  1.00  0.00     0.023 C 
BRANCH   2   3
ATOM      3  C   UNL A   1      33.425  29.159  26.373  1.00  0.00     0.116 C 
BRANCH   3   4
ATOM      4  N   UNL A   1      33.493  29.476  24.959  1.00  0.00    -0.351 N 
ATOM      5  C   UNL A   1      33.263  28.719  23.847  1.00  0.00     0.281 C 
ATOM      6  O   UNL A   1      33.478  29.282  22.765  1.00  0.00    -0.268 OA
ATOM      7  H   UNL A   1      33.752  30.407  24.766  1.00  0.00     0.163 HD
BRANCH   5   8
ATOM      8  C   UNL A   1      32.833  27.192  23.918  1.00  0.00     0.176 C 
ATOM      9  C   UNL A   1      32.622  26.730  22.449  1.00  0.00     0.079 C 
ATOM     10  C   UNL A   1      33.891  26.383  24.720  1.00  0.00     0.094 C 
ATOM     11  C   UNL A   1      32.741  25.235  22.192  1.00  0.00     0.008 C 
ATOM     12  C   UNL A   1      33.992  24.900  24.340  1.00  0.00     0.061 C 
ATOM     13  C   UNL A   1      33.990  24.649  22.831  1.00  0.00     0.015 C 
BRANCH   8  14
ATOM     14  N   UNL A   1      31.529  27.192  24.639  1.00  0.00    -0.336 N 
ATOM     15  C   UNL A   1      30.334  27.697  24.015  1.00  0.00     0.331 C 
ATOM     16  H   UNL A   1      31.337  26.222  24.888  1.00  0.00     0.346 HD
ATOM     17  H   UNL A   1      31.689  27.862  25.390  1.00  0.00     0.346 HD
ENDBRANCH   8  14
BRANCH  12  18
ATOM     18  S   UNL A   1      35.390  24.050  25.167  1.00  0.00    -0.084 SA
BRANCH  18  19
ATOM     19  C   UNL A   1      34.606  22.840  26.126  1.00  0.00     0.167 A 
ATOM     20  N   UNL A   1      34.390  22.925  27.419  1.00  0.00    -0.231 NA
ATOM     21  N   UNL A   1      34.094  21.681  25.607  1.00  0.00    -0.329 N 
ATOM     22  C   UNL A   1      33.665  21.808  27.742  1.00  0.00     0.132 A 
ATOM     23  C   UNL A   1      33.486  21.009  26.638  1.00  0.00     0.108 A 
ATOM     24  C   UNL A   1      34.150  21.186  24.255  1.00  0.00     0.152 C 
ENDBRANCH  18  19
ENDBRANCH  12  18
ENDBRANCH   5   8
ENDBRANCH   3   4
ENDBRANCH   2   3
ENDBRANCH   1   2
BRANCH   1  25
ATOM     25  C   UNL A   1      33.187  32.134  27.313  1.00  0.00     0.116 C 
BRANCH  25  26
ATOM     26  N   UNL A   1      32.798  33.507  27.599  1.00  0.00    -0.352 N 
ATOM     27  C   UNL A   1      33.293  34.373  28.544  1.00  0.00     0.251 C 
ATOM     28  H   UNL A   1      32.078  33.867  27.032  1.00  0.00     0.163 HD
ATOM     29  O   UNL A   1      32.754  35.465  28.708  1.00  0.00    -0.269 OA
BRANCH  27  30
ATOM     30  C   UNL A   1      34.441  33.966  29.385  1.00  0.00     0.039 A 
ATOM     31  C   UNL A   1      34.212  33.147  30.493  1.00  0.00     0.014 A 
ATOM     32  C   UNL A   1      35.741  34.364  29.063  1.00  0.00     0.014 A 
ATOM     33  C   UNL A   1      35.294  32.661  31.231  1.00  0.00     0.010 A 
ATOM     34  C   UNL A   1      36.822  33.823  29.757  1.00  0.00     0.010 A 
ATOM     35  C   UNL A   1      36.610  32.960  30.843  1.00  0.00    -0.014 A 
BRANCH  35  36
ATOM     36  C   UNL A   1      37.779  32.377  31.556  1.00  0.00     0.031 A 
ATOM     37  C   UNL A   1      38.572  31.268  30.920  1.00  0.00     0.074 A 
ATOM     38  C   UNL A   1      38.079  32.795  32.802  1.00  0.00     0.049 A 
ATOM     39  N   UNL A   1      39.560  30.566  31.415  1.00  0.00    -0.248 NA
ATOM     40  C   UNL A   1      38.180  30.877  29.558  1.00  0.00     0.031 C 
ATOM     41  C   UNL A   1      37.360  33.835  33.541  1.00  0.00     0.029 A 
ATOM     42  N   UNL A   1      39.060  32.390  33.671  1.00  0.00    -0.354 N 
ATOM     43  C   UNL A   1      39.898  29.642  30.432  1.00  0.00     0.074 A 
ATOM     44  C   UNL A   1      38.968  29.836  29.339  1.00  0.00     0.031 C 
ATOM     45  C   UNL A   1      37.938  34.000  34.742  1.00  0.00     0.029 A 
ATOM     46  C   UNL A   1      39.038  33.050  34.879  1.00  0.00     0.049 A 
ATOM     47  H   UNL A   1      39.719  31.692  33.453  1.00  0.00     0.167 HD
ATOM     48  C   UNL A   1      40.904  28.731  30.432  1.00  0.00     0.034 A 
ATOM     49  C   UNL A   1      39.806  32.899  35.976  1.00  0.00     0.034 A 
ATOM     50  C   UNL A   1      41.830  28.558  31.525  1.00  0.00     0.049 A 
ATOM     51  C   UNL A   1      40.904  31.867  35.962  1.00  0.00     0.074 A 
ATOM     52  C   UNL A   1      42.915  27.702  31.608  1.00  0.00     0.029 A 
ATOM     53  N   UNL A   1      41.779  29.249  32.728  1.00  0.00    -0.354 N 
ATOM     54  N   UNL A   1      41.239  31.029  35.006  1.00  0.00    -0.248 NA
ATOM     55  C   UNL A   1      41.735  31.768  37.168  1.00  0.00     0.031 C 
ATOM     56  C   UNL A   1      43.482  27.832  32.881  1.00  0.00     0.029 A 
ATOM     57  C   UNL A   1      42.797  28.821  33.568  1.00  0.00     0.049 A 
ATOM     58  H   UNL A   1      41.118  29.943  32.953  1.00  0.00     0.167 HD
ATOM     59  C   UNL A   1      42.339  30.325  35.488  1.00  0.00     0.074 A 
ATOM     60  C   UNL A   1      42.618  30.846  36.811  1.00  0.00     0.031 C 
ATOM     61  C   UNL A   1      43.057  29.342  34.889  1.00  0.00     0.034 A 
BRANCH  48  62
ATOM     62  C   UNL A   1      41.030  27.841  29.219  1.00  0.00     0.023 A 
ATOM     63  C   UNL A   1      42.038  28.040  28.260  1.00  0.00     0.031 A 
ATOM     64  C   UNL A   1      40.112  26.800  28.999  1.00  0.00     0.131 A 
ATOM     65  C   UNL A   1      42.058  27.267  27.090  1.00  0.00     0.055 A 
ATOM     66  C   UNL A   1      40.186  25.977  27.871  1.00  0.00     0.041 A 
ATOM     67  F   UNL A   1      39.115  26.571  29.869  1.00  0.00    -0.206 F 
ATOM     68  C   UNL A   1      41.153  26.221  26.900  1.00  0.00     0.022 A 
BRANCH  65  69
ATOM     69  S   UNL A   1      43.189  27.744  25.755  1.00  0.00     0.124 S 
ATOM     70  O   UNL A   1      43.845  28.917  26.329  1.00  0.00    -0.237 OA
ATOM     71  O   UNL A   1      44.021  26.556  25.606  1.00  0.00    -0.237 OA
ATOM     72  O   UNL A   1      42.297  28.026  24.633  1.00  0.00    -0.744 OA
ENDBRANCH  65  69
ENDBRANCH  48  62
BRANCH  49  73
ATOM     73  C   UNL A   1      39.567  33.735  37.188  1.00  0.00     0.023 A 
ATOM     74  C   UNL A   1      38.844  33.230  38.280  1.00  0.00     0.031 A 
ATOM     75  C   UNL A   1      40.020  35.064  37.253  1.00  0.00     0.131 A 
ATOM     76  C   UNL A   1      38.555  34.064  39.372  1.00  0.00     0.055 A 
ATOM     77  C   UNL A   1      39.773  35.873  38.363  1.00  0.00     0.041 A 
ATOM     78  F   UNL A   1      40.722  35.593  36.238  1.00  0.00    -0.206 F 
ATOM     79  C   UNL A   1      39.024  35.378  39.426  1.00  0.00     0.022 A 
BRANCH  76  80
ATOM     80  S   UNL A   1      37.484  33.426  40.690  1.00  0.00     0.124 S 
ATOM     81  O   UNL A   1      38.355  32.450  41.336  1.00  0.00    -0.237 OA
ATOM     82  O   UNL A   1      37.196  34.634  41.457  1.00  0.00    -0.237 OA
ATOM     83  O   UNL A   1      36.347  32.866  39.963  1.00  0.00    -0.744 OA
ENDBRANCH  76  80
ENDBRANCH  49  73
BRANCH  61  84
ATOM     84  C   UNL A   1      44.245  28.804  35.648  1.00  0.00     0.023 A 
ATOM     85  C   UNL A   1      44.125  27.733  36.550  1.00  0.00     0.031 A 
ATOM     86  C   UNL A   1      45.514  29.384  35.473  1.00  0.00     0.131 A 
ATOM     87  C   UNL A   1      45.245  27.310  37.284  1.00  0.00     0.055 A 
ATOM     88  C   UNL A   1      46.635  28.922  36.163  1.00  0.00     0.041 A 
ATOM     89  F   UNL A   1      45.685  30.412  34.626  1.00  0.00    -0.206 F 
ATOM     90  C   UNL A   1      46.501  27.887  37.084  1.00  0.00     0.022 A 
BRANCH  87  91
ATOM     91  S   UNL A   1      45.019  26.048  38.568  1.00  0.00     0.124 S 
ATOM     92  O   UNL A   1      44.386  24.965  37.822  1.00  0.00    -0.237 OA
ATOM     93  O   UNL A   1      46.389  25.802  39.009  1.00  0.00    -0.237 OA
ATOM     94  O   UNL A   1      44.162  26.707  39.551  1.00  0.00    -0.744 OA
ENDBRANCH  87  91
ENDBRANCH  61  84
ENDBRANCH  35  36
ENDBRANCH  27  30
ENDBRANCH  25  26
ENDBRANCH   1  25
TORSDOF 17
ENDMDL
MODEL 3
REMARK VINA RESULT:     -11.6      5.037     10.678
REMARK SMILES C[NH2+][C@]1(C(=O)NCCCCNC(=O)c2ccc(-c3c4nc(c(-c5cc(S(=O)(=O)[O-])ccc5F)c5ccc([nH]5)c(-c5cc(S(=O)(=O)[O-])ccc5F)c5nc(c(-c6cc(S(=O)(=O)[O-])ccc6F)c6ccc3[nH]6)C=C5)C=C4)cc2)CCC[C@@H](Sc2nccn2C)C1
REMARK SMILES IDX 9 1 8 2 7 3 6 4 4 5 5 6 3 8 77 9 88 10 78 11 80 12 79 13
REMARK SMILES IDX 2 14 1 15 81 18 82 19 83 20 86 21 84 22 85 23 87 24 10 25
REMARK SMILES IDX 11 26 12 27 13 29 14 30 15 31 76 32 16 33 75 34 17 35 18 36
REMARK SMILES IDX 19 37 69 38 20 39 74 40 68 41 70 42 21 43 73 44 67 45 66 46
REMARK SMILES IDX 22 48 54 49 34 50 53 51 35 52 38 53 52 54 71 55 36 56 37 57
REMARK SMILES IDX 51 59 72 60 39 61 23 62 24 63 32 64 25 65 31 66 33 67 30 68
REMARK SMILES IDX 26 69 27 70 28 71 29 72 55 73 56 74 64 75 57 76 63 77 65 78
REMARK SMILES IDX 62 79 58 80 59 81 60 82 61 83 40 84 41 85 49 86 42 87 48 88
REMARK SMILES IDX 50 89 47 90 43 91 44 92 45 93 46 94
REMARK H PARENT 6 7 2 16 2 17 11 28 70 47 38 58
REMARK Flexibility Score: inf
ROOT
ATOM      1  C   UNL A   1      31.065  31.890  26.193  1.00  0.00     0.023 C 
ENDROOT
BRANCH   1   2
ATOM      2  C   UNL A   1      31.071  30.637  25.318  1.00  0.00     0.023 C 
BRANCH   2   3
ATOM      3  C   UNL A   1      32.223  29.670  25.583  1.00  0.00     0.116 C 
BRANCH   3   4
ATOM      4  N   UNL A   1      33.164  29.624  24.479  1.00  0.00    -0.351 N 
ATOM      5  C   UNL A   1      33.450  28.647  23.571  1.00  0.00     0.281 C 
ATOM      6  O   UNL A   1      34.371  28.904  22.784  1.00  0.00    -0.268 OA
ATOM      7  H   UNL A   1      33.691  30.449  24.363  1.00  0.00     0.163 HD
BRANCH   5   8
ATOM      8  C   UNL A   1      32.724  27.235  23.566  1.00  0.00     0.176 C 
ATOM      9  C   UNL A   1      33.113  26.548  22.228  1.00  0.00     0.079 C 
ATOM     10  C   UNL A   1      33.100  26.443  24.850  1.00  0.00     0.094 C 
ATOM     11  C   UNL A   1      33.017  25.029  22.199  1.00  0.00     0.008 C 
ATOM     12  C   UNL A   1      33.047  24.916  24.705  1.00  0.00     0.061 C 
ATOM     13  C   UNL A   1      33.681  24.398  23.413  1.00  0.00     0.015 C 
BRANCH   8  14
ATOM     14  N   UNL A   1      31.267  27.552  23.564  1.00  0.00    -0.336 N 
ATOM     15  C   UNL A   1      30.650  28.207  22.441  1.00  0.00     0.331 C 
ATOM     16  H   UNL A   1      30.779  26.664  23.686  1.00  0.00     0.346 HD
ATOM     17  H   UNL A   1      31.190  28.251  24.302  1.00  0.00     0.346 HD
ENDBRANCH   8  14
BRANCH  12  18
ATOM     18  S   UNL A   1      33.697  24.041  26.178  1.00  0.00    -0.084 SA
BRANCH  18  19
ATOM     19  C   UNL A   1      34.254  22.535  25.530  1.00  0.00     0.167 A 
ATOM     20  N   UNL A   1      35.511  22.234  25.298  1.00  0.00    -0.231 NA
ATOM     21  N   UNL A   1      33.424  21.488  25.233  1.00  0.00    -0.329 N 
ATOM     22  C   UNL A   1      35.503  20.926  24.887  1.00  0.00     0.132 A 
ATOM     23  C   UNL A   1      34.217  20.447  24.819  1.00  0.00     0.108 A 
ATOM     24  C   UNL A   1      31.986  21.417  25.306  1.00  0.00     0.152 C 
ENDBRANCH  18  19
ENDBRANCH  12  18
ENDBRANCH   5   8
ENDBRANCH   3   4
ENDBRANCH   2   3
ENDBRANCH   1   2
BRANCH   1  25
ATOM     25  C   UNL A   1      32.323  32.112  27.028  1.00  0.00     0.116 C 
BRANCH  25  26
ATOM     26  N   UNL A   1      32.541  33.510  27.367  1.00  0.00    -0.352 N 
ATOM     27  C   UNL A   1      33.556  34.081  28.097  1.00  0.00     0.251 C 
ATOM     28  H   UNL A   1      31.865  34.138  27.023  1.00  0.00     0.163 HD
ATOM     29  O   UNL A   1      33.507  35.277  28.373  1.00  0.00    -0.269 OA
BRANCH  27  30
ATOM     30  C   UNL A   1      34.675  33.242  28.581  1.00  0.00     0.039 A 
ATOM     31  C   UNL A   1      35.983  33.598  28.240  1.00  0.00     0.014 A 
ATOM     32  C   UNL A   1      34.439  32.131  29.393  1.00  0.00     0.014 A 
ATOM     33  C   UNL A   1      37.057  32.885  28.781  1.00  0.00     0.010 A 
ATOM     34  C   UNL A   1      35.511  31.466  29.986  1.00  0.00     0.010 A 
ATOM     35  C   UNL A   1      36.831  31.841  29.693  1.00  0.00    -0.014 A 
BRANCH  35  36
ATOM     36  C   UNL A   1      37.960  31.132  30.353  1.00  0.00     0.031 A 
ATOM     37  C   UNL A   1      38.347  31.482  31.764  1.00  0.00     0.074 A 
ATOM     38  C   UNL A   1      38.681  30.229  29.659  1.00  0.00     0.049 A 
ATOM     39  N   UNL A   1      39.354  31.050  32.479  1.00  0.00    -0.248 NA
ATOM     40  C   UNL A   1      37.504  32.474  32.449  1.00  0.00     0.031 C 
ATOM     41  C   UNL A   1      38.430  29.834  28.271  1.00  0.00     0.029 A 
ATOM     42  N   UNL A   1      39.776  29.487  30.020  1.00  0.00    -0.354 N 
ATOM     43  C   UNL A   1      39.276  31.726  33.692  1.00  0.00     0.074 A 
ATOM     44  C   UNL A   1      38.157  32.640  33.589  1.00  0.00     0.031 C 
ATOM     45  C   UNL A   1      39.331  28.907  27.908  1.00  0.00     0.029 A 
ATOM     46  C   UNL A   1      40.251  28.673  29.017  1.00  0.00     0.049 A 
ATOM     47  H   UNL A   1      40.186  29.531  30.915  1.00  0.00     0.167 HD
ATOM     48  C   UNL A   1      40.051  31.582  34.797  1.00  0.00     0.034 A 
ATOM     49  C   UNL A   1      41.314  27.845  28.987  1.00  0.00     0.034 A 
ATOM     50  C   UNL A   1      41.155  30.658  34.889  1.00  0.00     0.049 A 
ATOM     51  C   UNL A   1      42.173  27.716  30.219  1.00  0.00     0.074 A 
ATOM     52  C   UNL A   1      41.972  30.396  35.974  1.00  0.00     0.029 A 
ATOM     53  N   UNL A   1      41.601  29.847  33.853  1.00  0.00    -0.354 N 
ATOM     54  N   UNL A   1      42.060  28.332  31.374  1.00  0.00    -0.248 NA
ATOM     55  C   UNL A   1      43.297  26.774  30.147  1.00  0.00     0.031 C 
ATOM     56  C   UNL A   1      42.948  29.473  35.579  1.00  0.00     0.029 A 
ATOM     57  C   UNL A   1      42.697  29.104  34.267  1.00  0.00     0.049 A 
ATOM     58  H   UNL A   1      41.198  29.805  32.956  1.00  0.00     0.167 HD
ATOM     59  C   UNL A   1      43.081  27.827  32.174  1.00  0.00     0.074 A 
ATOM     60  C   UNL A   1      43.789  26.848  31.375  1.00  0.00     0.031 C 
ATOM     61  C   UNL A   1      43.400  28.139  33.456  1.00  0.00     0.034 A 
BRANCH  48  62
ATOM     62  C   UNL A   1      39.738  32.467  35.980  1.00  0.00     0.023 A 
ATOM     63  C   UNL A   1      38.874  32.047  37.007  1.00  0.00     0.031 A 
ATOM     64  C   UNL A   1      40.283  33.760  36.069  1.00  0.00     0.131 A 
ATOM     65  C   UNL A   1      38.518  32.936  38.032  1.00  0.00     0.055 A 
ATOM     66  C   UNL A   1      39.990  34.612  37.137  1.00  0.00     0.041 A 
ATOM     67  F   UNL A   1      41.100  34.225  35.111  1.00  0.00    -0.206 F 
ATOM     68  C   UNL A   1      39.089  34.207  38.117  1.00  0.00     0.022 A 
BRANCH  65  69
ATOM     69  S   UNL A   1      37.186  32.457  39.167  1.00  0.00     0.124 S 
ATOM     70  O   UNL A   1      37.435  31.027  39.328  1.00  0.00    -0.237 OA
ATOM     71  O   UNL A   1      37.454  33.288  40.336  1.00  0.00    -0.237 OA
ATOM     72  O   UNL A   1      35.970  32.792  38.430  1.00  0.00    -0.744 OA
ENDBRANCH  65  69
ENDBRANCH  48  62
BRANCH  49  73
ATOM     73  C   UNL A   1      41.638  27.074  27.753  1.00  0.00     0.023 A 
ATOM     74  C   UNL A   1      41.398  25.692  27.683  1.00  0.00     0.031 A 
ATOM     75  C   UNL A   1      42.232  27.698  26.643  1.00  0.00     0.131 A 
ATOM     76  C   UNL A   1      41.793  24.971  26.545  1.00  0.00     0.055 A 
ATOM     77  C   UNL A   1      42.577  26.985  25.493  1.00  0.00     0.041 A 
ATOM     78  F   UNL A   1      42.476  29.018  26.656  1.00  0.00    -0.206 F 
ATOM     79  C   UNL A   1      42.370  25.610  25.445  1.00  0.00     0.022 A 
BRANCH  76  80
ATOM     80  S   UNL A   1      41.613  23.166  26.556  1.00  0.00     0.124 S 
ATOM     81  O   UNL A   1      42.353  22.785  25.358  1.00  0.00    -0.237 OA
ATOM     82  O   UNL A   1      42.227  22.808  27.830  1.00  0.00    -0.237 OA
ATOM     83  O   UNL A   1      40.167  22.969  26.486  1.00  0.00    -0.744 OA
ENDBRANCH  76  80
ENDBRANCH  49  73
BRANCH  61  84
ATOM     84  C   UNL A   1      44.538  27.372  34.083  1.00  0.00     0.023 A 
ATOM     85  C   UNL A   1      44.331  26.153  34.752  1.00  0.00     0.031 A 
ATOM     86  C   UNL A   1      45.848  27.878  34.020  1.00  0.00     0.131 A 
ATOM     87  C   UNL A   1      45.409  25.508  35.379  1.00  0.00     0.055 A 
ATOM     88  C   UNL A   1      46.926  27.204  34.595  1.00  0.00     0.041 A 
ATOM     89  F   UNL A   1      46.102  29.040  33.395  1.00  0.00    -0.206 F 
ATOM     90  C   UNL A   1      46.707  26.018  35.290  1.00  0.00     0.022 A 
BRANCH  87  91
ATOM     91  S   UNL A   1      45.080  24.035  36.384  1.00  0.00     0.124 S 
ATOM     92  O   UNL A   1      44.031  23.371  35.615  1.00  0.00    -0.237 OA
ATOM     93  O   UNL A   1      46.378  23.369  36.399  1.00  0.00    -0.237 OA
ATOM     94  O   UNL A   1      44.652  24.585  37.669  1.00  0.00    -0.744 OA
ENDBRANCH  87  91
ENDBRANCH  61  84
ENDBRANCH  35  36
ENDBRANCH  27  30
ENDBRANCH  25  26
ENDBRANCH   1  25
TORSDOF 17
ENDMDL
