MODEL 1
REMARK VINA RESULT:     -12.5      0.000      0.000
REMARK SMILES C[C@H]1Cc2cc(C(=O)[C@H](Br)CC(=O)NCCCCNC(=O)c3ccc(-c4c5nc(c(-c6cc(S(=O)(=O)[O-])ccc6F)c6ccc([nH]6)c(-c6cc(S(=O)(=O)[O-])ccc6F)c6nc(c(-c7cc(S(=O)(=O)[O-])ccc7F)c7ccc4[nH]7)C=C6)C=C5)cc3)ccc2O1
REMARK SMILES IDX 16 1 15 2 14 3 12 4 13 5 11 7 9 8 10 9 7 10 8 11 6 12 1 13
REMARK SMILES IDX 2 14 3 15 88 16 4 17 87 18 5 19 86 20 85 21 17 22 18 23
REMARK SMILES IDX 19 24 20 25 21 27 22 28 23 29 84 30 24 31 83 32 25 33 26 34
REMARK SMILES IDX 27 35 77 36 28 37 82 38 76 39 78 40 29 41 81 42 75 43 74 44
REMARK SMILES IDX 30 46 62 47 42 48 61 49 43 50 46 51 60 52 79 53 44 54 45 55
REMARK SMILES IDX 59 57 80 58 47 59 31 60 32 61 40 62 33 63 39 64 41 65 38 66
REMARK SMILES IDX 34 67 35 68 36 69 37 70 63 71 64 72 72 73 65 74 71 75 73 76
REMARK SMILES IDX 70 77 66 78 67 79 68 80 69 81 48 82 49 83 57 84 50 85 56 86
REMARK SMILES IDX 58 87 55 88 51 89 52 90 53 91 54 92
REMARK H PARENT 14 6 19 26 78 45 46 56
REMARK Flexibility Score: inf
ROOT
ATOM      1  C   UNL A   1      34.448  21.333  26.036  1.00  0.00     0.023 C 
ENDROOT
BRANCH   1   2
ATOM      2  C   UNL A   1      32.976  21.174  25.656  1.00  0.00     0.116 C 
BRANCH   2   3
ATOM      3  N   UNL A   1      32.105  21.897  26.567  1.00  0.00    -0.356 N 
ATOM      4  C   UNL A   1      31.394  23.046  26.375  1.00  0.00     0.221 C 
ATOM      5  O   UNL A   1      30.793  23.546  27.324  1.00  0.00    -0.275 OA
ATOM      6  H   UNL A   1      32.013  21.496  27.461  1.00  0.00     0.163 HD
BRANCH   4   7
ATOM      7  C   UNL A   1      31.329  23.676  25.004  1.00  0.00     0.123 C 
BRANCH   7   8
ATOM      8  C   UNL A   1      31.958  25.054  24.945  1.00  0.00     0.138 C 
ATOM      9  Br  UNL A   1      33.888  25.126  25.172  1.00  0.00    -0.080 Br
BRANCH   8  10
ATOM     10  C   UNL A   1      31.622  25.818  23.673  1.00  0.00     0.176 C 
ATOM     11  O   UNL A   1      32.408  25.794  22.719  1.00  0.00    -0.293 OA
BRANCH  10  12
ATOM     12  C   UNL A   1      30.366  26.636  23.515  1.00  0.00     0.019 A 
ATOM     13  C   UNL A   1      27.612  31.510  23.396  1.00  0.00     0.053 C 
ATOM     14  C   UNL A   1      27.770  30.337  22.437  1.00  0.00     0.174 C 
ATOM     15  C   UNL A   1      29.246  30.023  22.130  1.00  0.00     0.084 C 
ATOM     16  O   UNL A   1      27.130  29.174  23.022  1.00  0.00    -0.490 OA
ATOM     17  C   UNL A   1      29.374  28.698  22.771  1.00  0.00    -0.001 A 
ATOM     18  C   UNL A   1      28.141  28.276  23.222  1.00  0.00     0.123 A 
ATOM     19  C   UNL A   1      30.497  27.898  22.912  1.00  0.00     0.019 A 
ATOM     20  C   UNL A   1      27.969  27.042  23.807  1.00  0.00     0.047 A 
ATOM     21  C   UNL A   1      29.090  26.216  23.943  1.00  0.00     0.015 A 
ENDBRANCH  10  12
ENDBRANCH   8  10
ENDBRANCH   7   8
ENDBRANCH   4   7
ENDBRANCH   2   3
ENDBRANCH   1   2
BRANCH   1  22
ATOM     22  C   UNL A   1      35.417  21.261  24.863  1.00  0.00     0.023 C 
BRANCH  22  23
ATOM     23  C   UNL A   1      36.807  21.808  25.149  1.00  0.00     0.116 C 
BRANCH  23  24
ATOM     24  N   UNL A   1      37.843  20.784  25.237  1.00  0.00    -0.352 N 
ATOM     25  C   UNL A   1      39.073  20.877  25.854  1.00  0.00     0.251 C 
ATOM     26  H   UNL A   1      37.641  19.924  24.801  1.00  0.00     0.163 HD
ATOM     27  O   UNL A   1      39.878  19.956  25.798  1.00  0.00    -0.269 OA
BRANCH  25  28
ATOM     28  C   UNL A   1      39.407  22.145  26.533  1.00  0.00     0.039 A 
ATOM     29  C   UNL A   1      38.804  23.327  26.106  1.00  0.00     0.014 A 
ATOM     30  C   UNL A   1      40.458  22.166  27.452  1.00  0.00     0.014 A 
ATOM     31  C   UNL A   1      39.402  24.538  26.421  1.00  0.00     0.010 A 
ATOM     32  C   UNL A   1      40.992  23.394  27.849  1.00  0.00     0.010 A 
ATOM     33  C   UNL A   1      40.517  24.586  27.277  1.00  0.00    -0.014 A 
BRANCH  33  34
ATOM     34  C   UNL A   1      41.190  25.889  27.519  1.00  0.00     0.031 A 
ATOM     35  C   UNL A   1      40.537  26.954  28.361  1.00  0.00     0.074 A 
ATOM     36  C   UNL A   1      42.438  26.072  27.050  1.00  0.00     0.049 A 
ATOM     37  N   UNL A   1      40.994  28.134  28.692  1.00  0.00    -0.248 NA
ATOM     38  C   UNL A   1      39.200  26.660  28.902  1.00  0.00     0.031 C 
ATOM     39  C   UNL A   1      43.175  25.095  26.250  1.00  0.00     0.029 A 
ATOM     40  N   UNL A   1      43.320  27.111  27.208  1.00  0.00    -0.354 N 
ATOM     41  C   UNL A   1      39.999  28.733  29.458  1.00  0.00     0.074 A 
ATOM     42  C   UNL A   1      38.897  27.796  29.518  1.00  0.00     0.031 C 
ATOM     43  C   UNL A   1      44.421  25.542  26.055  1.00  0.00     0.029 A 
ATOM     44  C   UNL A   1      44.548  26.877  26.635  1.00  0.00     0.049 A 
ATOM     45  H   UNL A   1      43.096  27.942  27.684  1.00  0.00     0.167 HD
ATOM     46  C   UNL A   1      40.007  29.943  30.064  1.00  0.00     0.034 A 
ATOM     47  C   UNL A   1      45.652  27.647  26.570  1.00  0.00     0.034 A 
ATOM     48  C   UNL A   1      41.118  30.860  30.009  1.00  0.00     0.049 A 
ATOM     49  C   UNL A   1      45.631  28.999  27.229  1.00  0.00     0.074 A 
ATOM     50  C   UNL A   1      41.216  32.123  30.567  1.00  0.00     0.029 A 
ATOM     51  N   UNL A   1      42.328  30.609  29.375  1.00  0.00    -0.354 N 
ATOM     52  N   UNL A   1      44.669  29.558  27.925  1.00  0.00    -0.248 NA
ATOM     53  C   UNL A   1      46.832  29.832  27.086  1.00  0.00     0.031 C 
ATOM     54  C   UNL A   1      42.469  32.649  30.242  1.00  0.00     0.029 A 
ATOM     55  C   UNL A   1      43.174  31.696  29.522  1.00  0.00     0.049 A 
ATOM     56  H   UNL A   1      42.551  29.781  28.893  1.00  0.00     0.167 HD
ATOM     57  C   UNL A   1      45.147  30.807  28.305  1.00  0.00     0.074 A 
ATOM     58  C   UNL A   1      46.497  30.908  27.788  1.00  0.00     0.031 C 
ATOM     59  C   UNL A   1      44.518  31.785  29.003  1.00  0.00     0.034 A 
BRANCH  46  60
ATOM     60  C   UNL A   1      38.787  30.359  30.849  1.00  0.00     0.023 A 
ATOM     61  C   UNL A   1      37.743  31.061  30.219  1.00  0.00     0.031 A 
ATOM     62  C   UNL A   1      38.700  30.140  32.236  1.00  0.00     0.131 A 
ATOM     63  C   UNL A   1      36.662  31.531  30.977  1.00  0.00     0.055 A 
ATOM     64  C   UNL A   1      37.609  30.586  32.982  1.00  0.00     0.041 A 
ATOM     65  F   UNL A   1      39.669  29.470  32.881  1.00  0.00    -0.206 F 
ATOM     66  C   UNL A   1      36.588  31.294  32.354  1.00  0.00     0.022 A 
BRANCH  63  67
ATOM     67  S   UNL A   1      35.338  32.513  30.220  1.00  0.00     0.124 S 
ATOM     68  O   UNL A   1      36.022  33.777  29.955  1.00  0.00    -0.237 OA
ATOM     69  O   UNL A   1      35.006  31.724  29.038  1.00  0.00    -0.237 OA
ATOM     70  O   UNL A   1      34.308  32.565  31.251  1.00  0.00    -0.744 OA
ENDBRANCH  63  67
ENDBRANCH  46  60
BRANCH  47  71
ATOM     71  C   UNL A   1      46.860  27.106  25.885  1.00  0.00     0.023 A 
ATOM     72  C   UNL A   1      47.833  26.389  26.606  1.00  0.00     0.031 A 
ATOM     73  C   UNL A   1      47.139  27.444  24.551  1.00  0.00     0.131 A 
ATOM     74  C   UNL A   1      49.078  26.126  26.023  1.00  0.00     0.055 A 
ATOM     75  C   UNL A   1      48.353  27.108  23.947  1.00  0.00     0.041 A 
ATOM     76  F   UNL A   1      46.247  28.138  23.828  1.00  0.00    -0.206 F 
ATOM     77  C   UNL A   1      49.339  26.468  24.693  1.00  0.00     0.022 A 
BRANCH  74  78
ATOM     78  S   UNL A   1      50.453  25.494  27.023  1.00  0.00     0.124 S 
ATOM     79  O   UNL A   1      50.715  26.611  27.926  1.00  0.00    -0.237 OA
ATOM     80  O   UNL A   1      49.854  24.311  27.638  1.00  0.00    -0.237 OA
ATOM     81  O   UNL A   1      51.496  25.220  26.040  1.00  0.00    -0.744 OA
ENDBRANCH  74  78
ENDBRANCH  47  71
BRANCH  59  82
ATOM     82  C   UNL A   1      45.259  33.074  29.249  1.00  0.00     0.023 A 
ATOM     83  C   UNL A   1      45.215  34.109  28.296  1.00  0.00     0.031 A 
ATOM     84  C   UNL A   1      46.118  33.216  30.352  1.00  0.00     0.131 A 
ATOM     85  C   UNL A   1      46.043  35.228  28.449  1.00  0.00     0.055 A 
ATOM     86  C   UNL A   1      46.914  34.350  30.517  1.00  0.00     0.041 A 
ATOM     87  F   UNL A   1      46.198  32.250  31.281  1.00  0.00    -0.206 F 
ATOM     88  C   UNL A   1      46.887  35.356  29.557  1.00  0.00     0.022 A 
BRANCH  85  89
ATOM     89  S   UNL A   1      46.107  36.526  27.183  1.00  0.00     0.124 S 
ATOM     90  O   UNL A   1      44.744  37.049  27.217  1.00  0.00    -0.237 OA
ATOM     91  O   UNL A   1      47.133  37.421  27.713  1.00  0.00    -0.237 OA
ATOM     92  O   UNL A   1      46.468  35.811  25.963  1.00  0.00    -0.744 OA
ENDBRANCH  85  89
ENDBRANCH  59  82
ENDBRANCH  33  34
ENDBRANCH  25  28
ENDBRANCH  23  24
ENDBRANCH  22  23
ENDBRANCH   1  22
TORSDOF 17
ENDMDL
MODEL 2
REMARK VINA RESULT:     -12.3      4.831      8.002
REMARK SMILES C[C@H]1Cc2cc(C(=O)[C@H](Br)CC(=O)NCCCCNC(=O)c3ccc(-c4c5nc(c(-c6cc(S(=O)(=O)[O-])ccc6F)c6ccc([nH]6)c(-c6cc(S(=O)(=O)[O-])ccc6F)c6nc(c(-c7cc(S(=O)(=O)[O-])ccc7F)c7ccc4[nH]7)C=C6)C=C5)cc3)ccc2O1
REMARK SMILES IDX 16 1 15 2 14 3 12 4 13 5 11 7 9 8 10 9 7 10 8 11 6 12 1 13
REMARK SMILES IDX 2 14 3 15 88 16 4 17 87 18 5 19 86 20 85 21 17 22 18 23
REMARK SMILES IDX 19 24 20 25 21 27 22 28 23 29 84 30 24 31 83 32 25 33 26 34
REMARK SMILES IDX 27 35 77 36 28 37 82 38 76 39 78 40 29 41 81 42 75 43 74 44
REMARK SMILES IDX 30 46 62 47 42 48 61 49 43 50 46 51 60 52 79 53 44 54 45 55
REMARK SMILES IDX 59 57 80 58 47 59 31 60 32 61 40 62 33 63 39 64 41 65 38 66
REMARK SMILES IDX 34 67 35 68 36 69 37 70 63 71 64 72 72 73 65 74 71 75 73 76
REMARK SMILES IDX 70 77 66 78 67 79 68 80 69 81 48 82 49 83 57 84 50 85 56 86
REMARK SMILES IDX 58 87 55 88 51 89 52 90 53 91 54 92
REMARK H PARENT 14 6 19 26 78 45 46 56
REMARK Flexibility Score: inf
ROOT
ATOM      1  C   UNL A   1      32.172  27.602  26.668  1.00  0.00     0.023 C 
ENDROOT
BRANCH   1   2
ATOM      2  C   UNL A   1      31.089  26.794  25.954  1.00  0.00     0.116 C 
BRANCH   2   3
ATOM      3  N   UNL A   1      30.365  27.601  24.987  1.00  0.00    -0.356 N 
ATOM      4  C   UNL A   1      30.279  27.479  23.631  1.00  0.00     0.221 C 
ATOM      5  O   UNL A   1      29.686  28.342  22.986  1.00  0.00    -0.275 OA
ATOM      6  H   UNL A   1      29.857  28.353  25.369  1.00  0.00     0.163 HD
BRANCH   4   7
ATOM      7  C   UNL A   1      30.886  26.282  22.939  1.00  0.00     0.123 C 
BRANCH   7   8
ATOM      8  C   UNL A   1      32.014  26.641  21.993  1.00  0.00     0.138 C 
ATOM      9  Br  UNL A   1      33.254  28.003  22.615  1.00  0.00    -0.080 Br
BRANCH   8  10
ATOM     10  C   UNL A   1      32.840  25.441  21.553  1.00  0.00     0.176 C 
ATOM     11  O   UNL A   1      33.133  25.304  20.361  1.00  0.00    -0.293 OA
BRANCH  10  12
ATOM     12  C   UNL A   1      33.314  24.378  22.511  1.00  0.00     0.019 A 
ATOM     13  C   UNL A   1      37.275  21.905  25.601  1.00  0.00     0.053 C 
ATOM     14  C   UNL A   1      35.897  22.490  25.882  1.00  0.00     0.174 C 
ATOM     15  C   UNL A   1      35.773  23.952  25.413  1.00  0.00     0.084 C 
ATOM     16  O   UNL A   1      34.904  21.672  25.214  1.00  0.00    -0.490 OA
ATOM     17  C   UNL A   1      34.788  23.798  24.322  1.00  0.00    -0.001 A 
ATOM     18  C   UNL A   1      34.325  22.498  24.292  1.00  0.00     0.123 A 
ATOM     19  C   UNL A   1      34.302  24.749  23.439  1.00  0.00     0.019 A 
ATOM     20  C   UNL A   1      33.351  22.099  23.405  1.00  0.00     0.047 A 
ATOM     21  C   UNL A   1      32.837  23.051  22.518  1.00  0.00     0.015 A 
ENDBRANCH  10  12
ENDBRANCH   8  10
ENDBRANCH   7   8
ENDBRANCH   4   7
ENDBRANCH   2   3
ENDBRANCH   1   2
BRANCH   1  22
ATOM     22  C   UNL A   1      31.790  29.045  26.973  1.00  0.00     0.023 C 
BRANCH  22  23
ATOM     23  C   UNL A   1      32.711  30.090  26.364  1.00  0.00     0.116 C 
BRANCH  23  24
ATOM     24  N   UNL A   1      32.461  31.449  26.836  1.00  0.00    -0.352 N 
ATOM     25  C   UNL A   1      33.334  32.288  27.496  1.00  0.00     0.251 C 
ATOM     26  H   UNL A   1      31.561  31.809  26.663  1.00  0.00     0.163 HD
ATOM     27  O   UNL A   1      32.972  33.389  27.894  1.00  0.00    -0.269 OA
BRANCH  25  28
ATOM     28  C   UNL A   1      34.699  31.791  27.759  1.00  0.00     0.039 A 
ATOM     29  C   UNL A   1      34.893  30.433  28.012  1.00  0.00     0.014 A 
ATOM     30  C   UNL A   1      35.733  32.711  27.943  1.00  0.00     0.014 A 
ATOM     31  C   UNL A   1      36.049  30.031  28.666  1.00  0.00     0.010 A 
ATOM     32  C   UNL A   1      36.936  32.281  28.506  1.00  0.00     0.010 A 
ATOM     33  C   UNL A   1      37.074  30.953  28.942  1.00  0.00    -0.014 A 
BRANCH  33  34
ATOM     34  C   UNL A   1      38.257  30.509  29.726  1.00  0.00     0.031 A 
ATOM     35  C   UNL A   1      38.457  30.960  31.149  1.00  0.00     0.074 A 
ATOM     36  C   UNL A   1      39.104  29.620  29.175  1.00  0.00     0.049 A 
ATOM     37  N   UNL A   1      39.418  30.649  31.982  1.00  0.00    -0.248 NA
ATOM     38  C   UNL A   1      37.455  31.878  31.713  1.00  0.00     0.031 C 
ATOM     39  C   UNL A   1      38.986  29.095  27.815  1.00  0.00     0.029 A 
ATOM     40  N   UNL A   1      40.197  28.972  29.692  1.00  0.00    -0.354 N 
ATOM     41  C   UNL A   1      39.151  31.345  33.156  1.00  0.00     0.074 A 
ATOM     42  C   UNL A   1      37.952  32.121  32.919  1.00  0.00     0.031 C 
ATOM     43  C   UNL A   1      39.915  28.148  27.631  1.00  0.00     0.029 A 
ATOM     44  C   UNL A   1      40.754  28.061  28.825  1.00  0.00     0.049 A 
ATOM     45  H   UNL A   1      40.548  29.142  30.595  1.00  0.00     0.167 HD
ATOM     46  C   UNL A   1      39.833  31.329  34.326  1.00  0.00     0.034 A 
ATOM     47  C   UNL A   1      41.823  27.252  28.962  1.00  0.00     0.034 A 
ATOM     48  C   UNL A   1      41.017  30.538  34.553  1.00  0.00     0.049 A 
ATOM     49  C   UNL A   1      42.581  27.269  30.261  1.00  0.00     0.074 A 
ATOM     50  C   UNL A   1      41.797  30.472  35.694  1.00  0.00     0.029 A 
ATOM     51  N   UNL A   1      41.581  29.665  33.633  1.00  0.00    -0.354 N 
ATOM     52  N   UNL A   1      42.328  27.955  31.350  1.00  0.00    -0.248 NA
ATOM     53  C   UNL A   1      43.773  26.417  30.351  1.00  0.00     0.031 C 
ATOM     54  C   UNL A   1      42.851  29.587  35.452  1.00  0.00     0.029 A 
ATOM     55  C   UNL A   1      42.703  29.063  34.177  1.00  0.00     0.049 A 
ATOM     56  H   UNL A   1      41.234  29.499  32.727  1.00  0.00     0.167 HD
ATOM     57  C   UNL A   1      43.328  27.619  32.256  1.00  0.00     0.074 A 
ATOM     58  C   UNL A   1      44.171  26.642  31.596  1.00  0.00     0.031 C 
ATOM     59  C   UNL A   1      43.535  28.090  33.511  1.00  0.00     0.034 A 
BRANCH  46  60
ATOM     60  C   UNL A   1      39.325  32.182  35.462  1.00  0.00     0.023 A 
ATOM     61  C   UNL A   1      39.805  33.494  35.635  1.00  0.00     0.031 A 
ATOM     62  C   UNL A   1      38.436  31.667  36.423  1.00  0.00     0.131 A 
ATOM     63  C   UNL A   1      39.404  34.241  36.751  1.00  0.00     0.055 A 
ATOM     64  C   UNL A   1      38.018  32.424  37.517  1.00  0.00     0.041 A 
ATOM     65  F   UNL A   1      37.945  30.423  36.297  1.00  0.00    -0.206 F 
ATOM     66  C   UNL A   1      38.510  33.715  37.690  1.00  0.00     0.022 A 
BRANCH  63  67
ATOM     67  S   UNL A   1      40.066  35.902  37.057  1.00  0.00     0.124 S 
ATOM     68  O   UNL A   1      39.342  36.291  38.265  1.00  0.00    -0.237 OA
ATOM     69  O   UNL A   1      41.490  35.637  37.241  1.00  0.00    -0.237 OA
ATOM     70  O   UNL A   1      39.716  36.646  35.853  1.00  0.00    -0.744 OA
ENDBRANCH  63  67
ENDBRANCH  46  60
BRANCH  47  71
ATOM     71  C   UNL A   1      42.179  26.345  27.835  1.00  0.00     0.023 A 
ATOM     72  C   UNL A   1      41.648  25.043  27.766  1.00  0.00     0.031 A 
ATOM     73  C   UNL A   1      43.179  26.702  26.916  1.00  0.00     0.131 A 
ATOM     74  C   UNL A   1      42.193  24.116  26.870  1.00  0.00     0.055 A 
ATOM     75  C   UNL A   1      43.663  25.797  25.969  1.00  0.00     0.041 A 
ATOM     76  F   UNL A   1      43.724  27.928  26.952  1.00  0.00    -0.206 F 
ATOM     77  C   UNL A   1      43.187  24.489  25.961  1.00  0.00     0.022 A 
BRANCH  74  78
ATOM     78  S   UNL A   1      41.754  22.359  26.976  1.00  0.00     0.124 S 
ATOM     79  O   UNL A   1      42.763  21.847  27.899  1.00  0.00    -0.237 OA
ATOM     80  O   UNL A   1      40.392  22.424  27.501  1.00  0.00    -0.237 OA
ATOM     81  O   UNL A   1      41.865  21.892  25.598  1.00  0.00    -0.744 OA
ENDBRANCH  74  78
ENDBRANCH  47  71
BRANCH  59  82
ATOM     82  C   UNL A   1      44.731  27.581  34.273  1.00  0.00     0.023 A 
ATOM     83  C   UNL A   1      44.602  26.482  35.143  1.00  0.00     0.031 A 
ATOM     84  C   UNL A   1      45.955  28.272  34.245  1.00  0.00     0.131 A 
ATOM     85  C   UNL A   1      45.670  26.126  35.975  1.00  0.00     0.055 A 
ATOM     86  C   UNL A   1      47.028  27.890  35.051  1.00  0.00     0.041 A 
ATOM     87  F   UNL A   1      46.120  29.331  33.438  1.00  0.00    -0.206 F 
ATOM     88  C   UNL A   1      46.884  26.821  35.930  1.00  0.00     0.022 A 
BRANCH  85  89
ATOM     89  S   UNL A   1      45.504  24.795  37.196  1.00  0.00     0.124 S 
ATOM     90  O   UNL A   1      44.867  23.742  36.410  1.00  0.00    -0.237 OA
ATOM     91  O   UNL A   1      46.894  24.543  37.567  1.00  0.00    -0.237 OA
ATOM     92  O   UNL A   1      44.672  25.378  38.243  1.00  0.00    -0.744 OA
ENDBRANCH  85  89
ENDBRANCH  59  82
ENDBRANCH  33  34
ENDBRANCH  25  28
ENDBRANCH  23  24
ENDBRANCH  22  23
ENDBRANCH   1  22
TORSDOF 17
ENDMDL
MODEL 3
REMARK VINA RESULT:     -12.2      5.630      8.713
REMARK SMILES C[C@H]1Cc2cc(C(=O)[C@H](Br)CC(=O)NCCCCNC(=O)c3ccc(-c4c5nc(c(-c6cc(S(=O)(=O)[O-])ccc6F)c6ccc([nH]6)c(-c6cc(S(=O)(=O)[O-])ccc6F)c6nc(c(-c7cc(S(=O)(=O)[O-])ccc7F)c7ccc4[nH]7)C=C6)C=C5)cc3)ccc2O1
REMARK SMILES IDX 16 1 15 2 14 3 12 4 13 5 11 7 9 8 10 9 7 10 8 11 6 12 1 13
REMARK SMILES IDX 2 14 3 15 88 16 4 17 87 18 5 19 86 20 85 21 17 22 18 23
REMARK SMILES IDX 19 24 20 25 21 27 22 28 23 29 84 30 24 31 83 32 25 33 26 34
REMARK SMILES IDX 27 35 77 36 28 37 82 38 76 39 78 40 29 41 81 42 75 43 74 44
REMARK SMILES IDX 30 46 62 47 42 48 61 49 43 50 46 51 60 52 79 53 44 54 45 55
REMARK SMILES IDX 59 57 80 58 47 59 31 60 32 61 40 62 33 63 39 64 41 65 38 66
REMARK SMILES IDX 34 67 35 68 36 69 37 70 63 71 64 72 72 73 65 74 71 75 73 76
REMARK SMILES IDX 70 77 66 78 67 79 68 80 69 81 48 82 49 83 57 84 50 85 56 86
REMARK SMILES IDX 58 87 55 88 51 89 52 90 53 91 54 92
REMARK H PARENT 14 6 19 26 78 45 46 56
REMARK Flexibility Score: inf
ROOT
ATOM      1  C   UNL A   1      34.809  30.020  27.810  1.00  0.00     0.023 C 
ENDROOT
BRANCH   1   2
ATOM      2  C   UNL A   1      34.470  28.809  26.941  1.00  0.00     0.116 C 
BRANCH   2   3
ATOM      3  N   UNL A   1      34.197  29.194  25.566  1.00  0.00    -0.356 N 
ATOM      4  C   UNL A   1      33.643  28.475  24.548  1.00  0.00     0.221 C 
ATOM      5  O   UNL A   1      33.596  28.966  23.421  1.00  0.00    -0.275 OA
ATOM      6  H   UNL A   1      34.451  30.116  25.333  1.00  0.00     0.163 HD
BRANCH   4   7
ATOM      7  C   UNL A   1      33.072  27.102  24.814  1.00  0.00     0.123 C 
BRANCH   7   8
ATOM      8  C   UNL A   1      32.742  26.332  23.550  1.00  0.00     0.138 C 
ATOM      9  Br  UNL A   1      33.894  24.821  23.140  1.00  0.00    -0.080 Br
BRANCH   8  10
ATOM     10  C   UNL A   1      31.305  25.833  23.504  1.00  0.00     0.176 C 
ATOM     11  O   UNL A   1      31.077  24.620  23.562  1.00  0.00    -0.293 OA
BRANCH  10  12
ATOM     12  C   UNL A   1      30.121  26.756  23.370  1.00  0.00     0.019 A 
ATOM     13  C   UNL A   1      27.811  31.853  23.169  1.00  0.00     0.053 C 
ATOM     14  C   UNL A   1      27.816  30.634  22.255  1.00  0.00     0.174 C 
ATOM     15  C   UNL A   1      29.241  30.176  21.894  1.00  0.00     0.084 C 
ATOM     16  O   UNL A   1      27.105  29.558  22.918  1.00  0.00    -0.490 OA
ATOM     17  C   UNL A   1      29.282  28.870  22.584  1.00  0.00    -0.001 A 
ATOM     18  C   UNL A   1      28.039  28.580  23.109  1.00  0.00     0.123 A 
ATOM     19  C   UNL A   1      30.335  27.977  22.708  1.00  0.00     0.019 A 
ATOM     20  C   UNL A   1      27.787  27.390  23.754  1.00  0.00     0.047 A 
ATOM     21  C   UNL A   1      28.835  26.471  23.873  1.00  0.00     0.015 A 
ENDBRANCH  10  12
ENDBRANCH   8  10
ENDBRANCH   7   8
ENDBRANCH   4   7
ENDBRANCH   2   3
ENDBRANCH   1   2
BRANCH   1  22
ATOM     22  C   UNL A   1      33.740  31.105  27.832  1.00  0.00     0.023 C 
BRANCH  22  23
ATOM     23  C   UNL A   1      34.191  32.457  27.304  1.00  0.00     0.116 C 
BRANCH  23  24
ATOM     24  N   UNL A   1      33.297  33.558  27.647  1.00  0.00    -0.352 N 
ATOM     25  C   UNL A   1      33.366  34.391  28.744  1.00  0.00     0.251 C 
ATOM     26  H   UNL A   1      32.555  33.726  27.022  1.00  0.00     0.163 HD
ATOM     27  O   UNL A   1      32.507  35.241  28.945  1.00  0.00    -0.269 OA
BRANCH  25  28
ATOM     28  C   UNL A   1      34.474  34.184  29.697  1.00  0.00     0.039 A 
ATOM     29  C   UNL A   1      35.758  34.608  29.352  1.00  0.00     0.014 A 
ATOM     30  C   UNL A   1      34.258  33.397  30.830  1.00  0.00     0.014 A 
ATOM     31  C   UNL A   1      36.846  34.056  30.012  1.00  0.00     0.010 A 
ATOM     32  C   UNL A   1      35.356  32.927  31.554  1.00  0.00     0.010 A 
ATOM     33  C   UNL A   1      36.660  33.191  31.105  1.00  0.00    -0.014 A 
BRANCH  33  34
ATOM     34  C   UNL A   1      37.844  32.544  31.728  1.00  0.00     0.031 A 
ATOM     35  C   UNL A   1      38.292  32.920  33.116  1.00  0.00     0.074 A 
ATOM     36  C   UNL A   1      38.462  31.546  31.069  1.00  0.00     0.049 A 
ATOM     37  N   UNL A   1      39.286  32.439  33.817  1.00  0.00    -0.248 NA
ATOM     38  C   UNL A   1      37.529  33.971  33.809  1.00  0.00     0.031 C 
ATOM     39  C   UNL A   1      38.090  31.082  29.732  1.00  0.00     0.029 A 
ATOM     40  N   UNL A   1      39.492  30.719  31.438  1.00  0.00    -0.354 N 
ATOM     41  C   UNL A   1      39.284  33.138  35.020  1.00  0.00     0.074 A 
ATOM     42  C   UNL A   1      38.206  34.100  34.943  1.00  0.00     0.031 C 
ATOM     43  C   UNL A   1      38.824  30.005  29.426  1.00  0.00     0.029 A 
ATOM     44  C   UNL A   1      39.781  29.754  30.501  1.00  0.00     0.049 A 
ATOM     45  H   UNL A   1      39.977  30.808  32.289  1.00  0.00     0.167 HD
ATOM     46  C   UNL A   1      40.096  32.983  36.093  1.00  0.00     0.034 A 
ATOM     47  C   UNL A   1      40.715  28.783  30.496  1.00  0.00     0.034 A 
ATOM     48  C   UNL A   1      41.157  32.009  36.162  1.00  0.00     0.049 A 
ATOM     49  C   UNL A   1      41.623  28.645  31.687  1.00  0.00     0.074 A 
ATOM     50  C   UNL A   1      42.053  31.790  37.193  1.00  0.00     0.029 A 
ATOM     51  N   UNL A   1      41.453  31.081  35.172  1.00  0.00    -0.354 N 
ATOM     52  N   UNL A   1      41.622  29.334  32.804  1.00  0.00    -0.248 NA
ATOM     53  C   UNL A   1      42.664  27.612  31.619  1.00  0.00     0.031 C 
ATOM     54  C   UNL A   1      42.912  30.755  36.813  1.00  0.00     0.029 A 
ATOM     55  C   UNL A   1      42.523  30.295  35.565  1.00  0.00     0.049 A 
ATOM     56  H   UNL A   1      40.973  30.996  34.318  1.00  0.00     0.167 HD
ATOM     57  C   UNL A   1      42.661  28.820  33.572  1.00  0.00     0.074 A 
ATOM     58  C   UNL A   1      43.246  27.739  32.805  1.00  0.00     0.031 C 
ATOM     59  C   UNL A   1      43.098  29.219  34.793  1.00  0.00     0.034 A 
BRANCH  46  60
ATOM     60  C   UNL A   1      39.879  33.877  37.289  1.00  0.00     0.023 A 
ATOM     61  C   UNL A   1      39.138  33.417  38.394  1.00  0.00     0.031 A 
ATOM     62  C   UNL A   1      40.328  35.210  37.297  1.00  0.00     0.131 A 
ATOM     63  C   UNL A   1      38.856  34.288  39.454  1.00  0.00     0.055 A 
ATOM     64  C   UNL A   1      40.069  36.065  38.368  1.00  0.00     0.041 A 
ATOM     65  F   UNL A   1      41.045  35.693  36.269  1.00  0.00    -0.206 F 
ATOM     66  C   UNL A   1      39.321  35.608  39.450  1.00  0.00     0.022 A 
BRANCH  63  67
ATOM     67  S   UNL A   1      37.832  33.762  40.856  1.00  0.00     0.124 S 
ATOM     68  O   UNL A   1      36.763  33.028  40.183  1.00  0.00    -0.237 OA
ATOM     69  O   UNL A   1      38.762  32.943  41.627  1.00  0.00    -0.237 OA
ATOM     70  O   UNL A   1      37.428  35.015  41.485  1.00  0.00    -0.744 OA
ENDBRANCH  63  67
ENDBRANCH  46  60
BRANCH  47  71
ATOM     71  C   UNL A   1      40.776  27.860  29.327  1.00  0.00     0.023 A 
ATOM     72  C   UNL A   1      41.716  28.065  28.300  1.00  0.00     0.031 A 
ATOM     73  C   UNL A   1      39.793  26.876  29.140  1.00  0.00     0.131 A 
ATOM     74  C   UNL A   1      41.588  27.370  27.092  1.00  0.00     0.055 A 
ATOM     75  C   UNL A   1      39.719  26.127  27.963  1.00  0.00     0.041 A 
ATOM     76  F   UNL A   1      38.869  26.654  30.087  1.00  0.00    -0.206 F 
ATOM     77  C   UNL A   1      40.605  26.391  26.922  1.00  0.00     0.022 A 
BRANCH  74  78
ATOM     78  S   UNL A   1      42.579  27.838  25.645  1.00  0.00     0.124 S 
ATOM     79  O   UNL A   1      43.888  28.090  26.240  1.00  0.00    -0.237 OA
ATOM     80  O   UNL A   1      42.481  26.637  24.818  1.00  0.00    -0.237 OA
ATOM     81  O   UNL A   1      41.889  29.011  25.119  1.00  0.00    -0.744 OA
ENDBRANCH  74  78
ENDBRANCH  47  71
BRANCH  59  82
ATOM     82  C   UNL A   1      44.282  28.507  35.392  1.00  0.00     0.023 A 
ATOM     83  C   UNL A   1      44.091  27.518  36.376  1.00  0.00     0.031 A 
ATOM     84  C   UNL A   1      45.595  28.909  35.094  1.00  0.00     0.131 A 
ATOM     85  C   UNL A   1      45.197  26.987  37.050  1.00  0.00     0.055 A 
ATOM     86  C   UNL A   1      46.696  28.351  35.745  1.00  0.00     0.041 A 
ATOM     87  F   UNL A   1      45.824  29.855  34.170  1.00  0.00    -0.206 F 
ATOM     88  C   UNL A   1      46.498  27.394  36.736  1.00  0.00     0.022 A 
BRANCH  85  89
ATOM     89  S   UNL A   1      44.987  25.802  38.407  1.00  0.00     0.124 S 
ATOM     90  O   UNL A   1      43.980  26.463  39.233  1.00  0.00    -0.237 OA
ATOM     91  O   UNL A   1      44.531  24.606  37.703  1.00  0.00    -0.237 OA
ATOM     92  O   UNL A   1      46.316  25.710  39.003  1.00  0.00    -0.744 OA
ENDBRANCH  85  89
ENDBRANCH  59  82
ENDBRANCH  33  34
ENDBRANCH  25  28
ENDBRANCH  23  24
ENDBRANCH  22  23
ENDBRANCH   1  22
TORSDOF 17
ENDMDL
