MODEL 1
REMARK VINA RESULT:     -11.4      0.000      0.000
REMARK SMILES C/C=C(\C)[C@@H]1C(C)=C[C@@H]2[C@H]([C@@H]1/C=C/C=C/C(=O)NCCCCNC(=O)c1ccc(-c3c4nc(c(-c5cc(S(=O)(=O)[O-])ccc5F)c5ccc([nH]5)c(-c5cc(S(=O)(=O)[O-])ccc5F)c5nc(c(-c6cc(S(=O)(=O)[O-])ccc6F)c6ccc3[nH]6)C=C5)C=C4)cc1)[C@@H](C)CC[C@@H]2O
REMARK SMILES IDX 20 1 19 2 18 3 16 4 17 5 15 7 14 8 13 9 12 10 11 11 5 12
REMARK SMILES IDX 6 13 7 14 8 15 10 16 9 17 89 18 93 19 90 20 91 21 92 22 3 23
REMARK SMILES IDX 1 24 2 25 4 26 94 27 21 29 22 30 23 31 24 32 25 34 26 35
REMARK SMILES IDX 27 36 88 37 28 38 87 39 29 40 30 41 31 42 81 43 32 44 86 45
REMARK SMILES IDX 80 46 82 47 33 48 85 49 79 50 78 51 34 53 66 54 46 55 65 56
REMARK SMILES IDX 47 57 50 58 64 59 83 60 48 61 49 62 63 64 84 65 51 66 35 67
REMARK SMILES IDX 36 68 44 69 37 70 43 71 45 72 42 73 38 74 39 75 40 76 41 77
REMARK SMILES IDX 67 78 68 79 76 80 69 81 75 82 77 83 74 84 70 85 71 86 72 87
REMARK SMILES IDX 73 88 52 89 53 90 61 91 54 92 60 93 62 94 59 95 55 96 56 97
REMARK SMILES IDX 57 98 58 99
REMARK H PARENT 18 6 94 28 23 33 82 52 50 63
REMARK Flexibility Score: inf
ROOT
ATOM      1  C   UNL A   1      40.357  22.132  27.277  1.00  0.00     0.023 C 
ENDROOT
BRANCH   1   2
ATOM      2  C   UNL A   1      39.341  23.014  26.550  1.00  0.00     0.116 C 
BRANCH   2   3
ATOM      3  N   UNL A   1      38.797  22.341  25.379  1.00  0.00    -0.353 N 
ATOM      4  C   UNL A   1      37.511  22.243  24.934  1.00  0.00     0.243 C 
ATOM      5  O   UNL A   1      37.266  21.719  23.852  1.00  0.00    -0.270 OA
ATOM      6  H   UNL A   1      39.465  21.884  24.817  1.00  0.00     0.163 HD
BRANCH   4   7
ATOM      7  C   UNL A   1      36.414  22.861  25.710  1.00  0.00     0.071 C 
ATOM      8  C   UNL A   1      35.870  24.036  25.370  1.00  0.00     0.005 C 
BRANCH   8   9
ATOM      9  C   UNL A   1      34.707  24.595  26.014  1.00  0.00    -0.004 C 
ATOM     10  C   UNL A   1      33.916  25.454  25.353  1.00  0.00    -0.022 C 
BRANCH  10  11
ATOM     11  C   UNL A   1      32.648  26.070  25.905  1.00  0.00     0.027 C 
ATOM     12  C   UNL A   1      31.402  25.090  25.985  1.00  0.00     0.047 C 
ATOM     13  C   UNL A   1      30.097  25.720  25.513  1.00  0.00    -0.069 C 
ATOM     14  C   UNL A   1      28.823  25.199  26.120  1.00  0.00     0.040 C 
ATOM     15  C   UNL A   1      30.089  26.687  24.580  1.00  0.00    -0.021 C 
ATOM     16  C   UNL A   1      32.397  27.423  25.149  1.00  0.00     0.009 C 
ATOM     17  C   UNL A   1      31.381  27.219  23.997  1.00  0.00     0.044 C 
ATOM     18  C   UNL A   1      31.964  28.612  26.071  1.00  0.00    -0.010 C 
ATOM     19  C   UNL A   1      31.225  28.526  23.197  1.00  0.00     0.121 C 
ATOM     20  C   UNL A   1      33.018  28.952  27.134  1.00  0.00     0.008 C 
ATOM     21  C   UNL A   1      31.699  29.890  25.242  1.00  0.00     0.006 C 
ATOM     22  C   UNL A   1      30.747  29.676  24.072  1.00  0.00     0.033 C 
BRANCH  12  23
ATOM     23  C   UNL A   1      31.525  23.668  25.390  1.00  0.00    -0.070 C 
ATOM     24  C   UNL A   1      31.826  22.220  23.303  1.00  0.00     0.035 C 
ATOM     25  C   UNL A   1      31.634  23.503  24.053  1.00  0.00    -0.031 C 
ATOM     26  C   UNL A   1      31.643  22.505  26.350  1.00  0.00     0.040 C 
ENDBRANCH  12  23
BRANCH  19  27
ATOM     27  O   UNL A   1      30.366  28.372  22.070  1.00  0.00    -0.393 OA
ATOM     28  H   UNL A   1      29.488  28.728  22.280  1.00  0.00     0.210 HD
ENDBRANCH  19  27
ENDBRANCH  10  11
ENDBRANCH   8   9
ENDBRANCH   4   7
ENDBRANCH   2   3
ENDBRANCH   1   2
BRANCH   1  29
ATOM     29  C   UNL A   1      40.455  20.703  26.732  1.00  0.00     0.023 C 
BRANCH  29  30
ATOM     30  C   UNL A   1      41.673  19.913  27.201  1.00  0.00     0.116 C 
BRANCH  30  31
ATOM     31  N   UNL A   1      42.432  19.328  26.107  1.00  0.00    -0.352 N 
ATOM     32  C   UNL A   1      43.378  19.925  25.302  1.00  0.00     0.251 C 
ATOM     33  H   UNL A   1      42.245  18.382  25.915  1.00  0.00     0.163 HD
ATOM     34  O   UNL A   1      43.839  19.313  24.348  1.00  0.00    -0.269 OA
BRANCH  32  35
ATOM     35  C   UNL A   1      43.792  21.319  25.576  1.00  0.00     0.039 A 
ATOM     36  C   UNL A   1      43.374  22.327  24.702  1.00  0.00     0.014 A 
ATOM     37  C   UNL A   1      44.563  21.634  26.697  1.00  0.00     0.014 A 
ATOM     38  C   UNL A   1      43.670  23.661  24.996  1.00  0.00     0.010 A 
ATOM     39  C   UNL A   1      44.801  22.968  27.020  1.00  0.00     0.010 A 
ATOM     40  C   UNL A   1      44.352  23.995  26.176  1.00  0.00    -0.014 A 
BRANCH  40  41
ATOM     41  C   UNL A   1      44.597  25.412  26.552  1.00  0.00     0.031 A 
ATOM     42  C   UNL A   1      45.968  26.010  26.385  1.00  0.00     0.074 A 
ATOM     43  C   UNL A   1      43.605  26.135  27.111  1.00  0.00     0.049 A 
ATOM     44  N   UNL A   1      46.404  27.191  26.737  1.00  0.00    -0.248 NA
ATOM     45  C   UNL A   1      46.988  25.150  25.767  1.00  0.00     0.031 C 
ATOM     46  C   UNL A   1      42.246  25.650  27.364  1.00  0.00     0.029 A 
ATOM     47  N   UNL A   1      43.589  27.424  27.580  1.00  0.00    -0.354 N 
ATOM     48  C   UNL A   1      47.753  27.213  26.400  1.00  0.00     0.074 A 
ATOM     49  C   UNL A   1      48.071  25.905  25.867  1.00  0.00     0.031 C 
ATOM     50  C   UNL A   1      41.526  26.634  27.927  1.00  0.00     0.029 A 
ATOM     51  C   UNL A   1      42.379  27.802  28.115  1.00  0.00     0.049 A 
ATOM     52  H   UNL A   1      44.370  28.022  27.539  1.00  0.00     0.167 HD
ATOM     53  C   UNL A   1      48.638  28.237  26.507  1.00  0.00     0.034 A 
ATOM     54  C   UNL A   1      42.003  28.957  28.703  1.00  0.00     0.034 A 
ATOM     55  C   UNL A   1      48.300  29.540  27.026  1.00  0.00     0.049 A 
ATOM     56  C   UNL A   1      43.006  30.076  28.817  1.00  0.00     0.074 A 
ATOM     57  C   UNL A   1      49.101  30.664  27.123  1.00  0.00     0.029 A 
ATOM     58  N   UNL A   1      47.059  29.892  27.543  1.00  0.00    -0.354 N 
ATOM     59  N   UNL A   1      44.265  30.098  28.446  1.00  0.00    -0.248 NA
ATOM     60  C   UNL A   1      42.534  31.329  29.421  1.00  0.00     0.031 C 
ATOM     61  C   UNL A   1      48.366  31.675  27.752  1.00  0.00     0.029 A 
ATOM     62  C   UNL A   1      47.083  31.207  27.984  1.00  0.00     0.049 A 
ATOM     63  H   UNL A   1      46.277  29.296  27.589  1.00  0.00     0.167 HD
ATOM     64  C   UNL A   1      44.725  31.378  28.744  1.00  0.00     0.074 A 
ATOM     65  C   UNL A   1      43.606  32.100  29.312  1.00  0.00     0.031 C 
ATOM     66  C   UNL A   1      45.960  31.911  28.559  1.00  0.00     0.034 A 
BRANCH  53  67
ATOM     67  C   UNL A   1      50.060  27.971  26.074  1.00  0.00     0.023 A 
ATOM     68  C   UNL A   1      50.469  28.137  24.739  1.00  0.00     0.031 A 
ATOM     69  C   UNL A   1      51.015  27.520  27.002  1.00  0.00     0.131 A 
ATOM     70  C   UNL A   1      51.770  27.781  24.355  1.00  0.00     0.055 A 
ATOM     71  C   UNL A   1      52.333  27.245  26.629  1.00  0.00     0.041 A 
ATOM     72  F   UNL A   1      50.680  27.324  28.287  1.00  0.00    -0.206 F 
ATOM     73  C   UNL A   1      52.713  27.361  25.296  1.00  0.00     0.022 A 
BRANCH  70  74
ATOM     74  S   UNL A   1      52.171  27.741  22.586  1.00  0.00     0.124 S 
ATOM     75  O   UNL A   1      50.851  27.909  21.982  1.00  0.00    -0.237 OA
ATOM     76  O   UNL A   1      53.086  28.868  22.444  1.00  0.00    -0.237 OA
ATOM     77  O   UNL A   1      52.770  26.422  22.400  1.00  0.00    -0.744 OA
ENDBRANCH  70  74
ENDBRANCH  53  67
BRANCH  54  78
ATOM     78  C   UNL A   1      40.622  29.117  29.239  1.00  0.00     0.023 A 
ATOM     79  C   UNL A   1      40.369  29.042  30.619  1.00  0.00     0.031 A 
ATOM     80  C   UNL A   1      39.527  29.304  28.377  1.00  0.00     0.131 A 
ATOM     81  C   UNL A   1      39.050  29.104  31.092  1.00  0.00     0.055 A 
ATOM     82  C   UNL A   1      38.221  29.416  28.858  1.00  0.00     0.041 A 
ATOM     83  F   UNL A   1      39.714  29.390  27.050  1.00  0.00    -0.206 F 
ATOM     84  C   UNL A   1      37.975  29.302  30.223  1.00  0.00     0.022 A 
BRANCH  81  85
ATOM     85  S   UNL A   1      38.749  28.836  32.860  1.00  0.00     0.124 S 
ATOM     86  O   UNL A   1      38.894  30.185  33.395  1.00  0.00    -0.237 OA
ATOM     87  O   UNL A   1      37.396  28.288  32.857  1.00  0.00    -0.237 OA
ATOM     88  O   UNL A   1      39.799  27.895  33.246  1.00  0.00    -0.744 OA
ENDBRANCH  81  85
ENDBRANCH  54  78
BRANCH  66  89
ATOM     89  C   UNL A   1      46.143  33.360  28.934  1.00  0.00     0.023 A 
ATOM     90  C   UNL A   1      45.870  34.400  28.028  1.00  0.00     0.031 A 
ATOM     91  C   UNL A   1      46.612  33.703  30.214  1.00  0.00     0.131 A 
ATOM     92  C   UNL A   1      46.117  35.730  28.397  1.00  0.00     0.055 A 
ATOM     93  C   UNL A   1      46.802  35.032  30.596  1.00  0.00     0.041 A 
ATOM     94  F   UNL A   1      46.890  32.750  31.117  1.00  0.00    -0.206 F 
ATOM     95  C   UNL A   1      46.567  36.054  29.680  1.00  0.00     0.022 A 
BRANCH  92  96
ATOM     96  S   UNL A   1      45.924  37.032  27.149  1.00  0.00     0.124 S 
ATOM     97  O   UNL A   1      46.557  38.174  27.801  1.00  0.00    -0.237 OA
ATOM     98  O   UNL A   1      46.640  36.476  26.004  1.00  0.00    -0.237 OA
ATOM     99  O   UNL A   1      44.476  37.137  26.982  1.00  0.00    -0.744 OA
ENDBRANCH  92  96
ENDBRANCH  66  89
ENDBRANCH  40  41
ENDBRANCH  32  35
ENDBRANCH  30  31
ENDBRANCH  29  30
ENDBRANCH   1  29
TORSDOF 18
ENDMDL
MODEL 2
REMARK VINA RESULT:     -11.1      6.003     11.840
REMARK SMILES C/C=C(\C)[C@@H]1C(C)=C[C@@H]2[C@H]([C@@H]1/C=C/C=C/C(=O)NCCCCNC(=O)c1ccc(-c3c4nc(c(-c5cc(S(=O)(=O)[O-])ccc5F)c5ccc([nH]5)c(-c5cc(S(=O)(=O)[O-])ccc5F)c5nc(c(-c6cc(S(=O)(=O)[O-])ccc6F)c6ccc3[nH]6)C=C5)C=C4)cc1)[C@@H](C)CC[C@@H]2O
REMARK SMILES IDX 20 1 19 2 18 3 16 4 17 5 15 7 14 8 13 9 12 10 11 11 5 12
REMARK SMILES IDX 6 13 7 14 8 15 10 16 9 17 89 18 93 19 90 20 91 21 92 22 3 23
REMARK SMILES IDX 1 24 2 25 4 26 94 27 21 29 22 30 23 31 24 32 25 34 26 35
REMARK SMILES IDX 27 36 88 37 28 38 87 39 29 40 30 41 31 42 81 43 32 44 86 45
REMARK SMILES IDX 80 46 82 47 33 48 85 49 79 50 78 51 34 53 66 54 46 55 65 56
REMARK SMILES IDX 47 57 50 58 64 59 83 60 48 61 49 62 63 64 84 65 51 66 35 67
REMARK SMILES IDX 36 68 44 69 37 70 43 71 45 72 42 73 38 74 39 75 40 76 41 77
REMARK SMILES IDX 67 78 68 79 76 80 69 81 75 82 77 83 74 84 70 85 71 86 72 87
REMARK SMILES IDX 73 88 52 89 53 90 61 91 54 92 60 93 62 94 59 95 55 96 56 97
REMARK SMILES IDX 57 98 58 99
REMARK H PARENT 18 6 94 28 23 33 82 52 50 63
REMARK Flexibility Score: inf
ROOT
ATOM      1  C   UNL A   1      35.406  32.860  28.111  1.00  0.00     0.023 C 
ENDROOT
BRANCH   1   2
ATOM      2  C   UNL A   1      34.757  31.496  27.872  1.00  0.00     0.116 C 
BRANCH   2   3
ATOM      3  N   UNL A   1      33.341  31.631  27.560  1.00  0.00    -0.353 N 
ATOM      4  C   UNL A   1      32.480  30.757  26.963  1.00  0.00     0.243 C 
ATOM      5  O   UNL A   1      31.283  31.016  26.887  1.00  0.00    -0.270 OA
ATOM      6  H   UNL A   1      32.940  32.492  27.821  1.00  0.00     0.163 HD
BRANCH   4   7
ATOM      7  C   UNL A   1      32.972  29.442  26.496  1.00  0.00     0.071 C 
ATOM      8  C   UNL A   1      32.563  28.290  27.041  1.00  0.00     0.005 C 
BRANCH   8   9
ATOM      9  C   UNL A   1      32.907  26.991  26.517  1.00  0.00    -0.004 C 
ATOM     10  C   UNL A   1      33.694  26.885  25.436  1.00  0.00    -0.022 C 
BRANCH  10  11
ATOM     11  C   UNL A   1      34.158  25.581  24.822  1.00  0.00     0.027 C 
ATOM     12  C   UNL A   1      33.640  25.308  23.347  1.00  0.00     0.047 C 
ATOM     13  C   UNL A   1      33.163  23.879  23.120  1.00  0.00    -0.069 C 
ATOM     14  C   UNL A   1      33.280  23.327  21.726  1.00  0.00     0.040 C 
ATOM     15  C   UNL A   1      32.643  23.152  24.124  1.00  0.00    -0.021 C 
ATOM     16  C   UNL A   1      33.885  24.434  25.858  1.00  0.00     0.009 C 
ATOM     17  C   UNL A   1      32.554  23.712  25.527  1.00  0.00     0.044 C 
ATOM     18  C   UNL A   1      35.055  23.404  26.011  1.00  0.00    -0.010 C 
ATOM     19  C   UNL A   1      32.244  22.660  26.611  1.00  0.00     0.121 C 
ATOM     20  C   UNL A   1      36.359  24.056  26.490  1.00  0.00     0.008 C 
ATOM     21  C   UNL A   1      34.686  22.290  27.017  1.00  0.00     0.006 C 
ATOM     22  C   UNL A   1      33.348  21.620  26.728  1.00  0.00     0.033 C 
BRANCH  12  23
ATOM     23  C   UNL A   1      32.626  26.289  22.713  1.00  0.00    -0.070 C 
ATOM     24  C   UNL A   1      30.260  27.262  22.738  1.00  0.00     0.035 C 
ATOM     25  C   UNL A   1      31.357  26.341  23.176  1.00  0.00    -0.031 C 
ATOM     26  C   UNL A   1      33.133  27.256  21.666  1.00  0.00     0.040 C 
ENDBRANCH  12  23
BRANCH  19  27
ATOM     27  O   UNL A   1      30.985  22.026  26.404  1.00  0.00    -0.393 OA
ATOM     28  H   UNL A   1      30.467  22.536  25.761  1.00  0.00     0.210 HD
ENDBRANCH  19  27
ENDBRANCH  10  11
ENDBRANCH   8   9
ENDBRANCH   4   7
ENDBRANCH   2   3
ENDBRANCH   1   2
BRANCH   1  29
ATOM     29  C   UNL A   1      34.540  34.052  27.694  1.00  0.00     0.023 C 
BRANCH  29  30
ATOM     30  C   UNL A   1      34.730  35.315  28.530  1.00  0.00     0.116 C 
BRANCH  30  31
ATOM     31  N   UNL A   1      33.656  35.538  29.484  1.00  0.00    -0.352 N 
ATOM     32  C   UNL A   1      33.555  35.092  30.783  1.00  0.00     0.251 C 
ATOM     33  H   UNL A   1      32.901  36.078  29.158  1.00  0.00     0.163 HD
ATOM     34  O   UNL A   1      32.521  35.278  31.412  1.00  0.00    -0.269 OA
BRANCH  32  35
ATOM     35  C   UNL A   1      34.684  34.352  31.389  1.00  0.00     0.039 A 
ATOM     36  C   UNL A   1      34.494  33.014  31.747  1.00  0.00     0.014 A 
ATOM     37  C   UNL A   1      35.926  34.963  31.579  1.00  0.00     0.014 A 
ATOM     38  C   UNL A   1      35.574  32.269  32.228  1.00  0.00     0.010 A 
ATOM     39  C   UNL A   1      37.013  34.201  31.999  1.00  0.00     0.010 A 
ATOM     40  C   UNL A   1      36.851  32.845  32.321  1.00  0.00    -0.014 A 
BRANCH  40  41
ATOM     41  C   UNL A   1      38.030  32.045  32.744  1.00  0.00     0.031 A 
ATOM     42  C   UNL A   1      38.692  32.321  34.067  1.00  0.00     0.074 A 
ATOM     43  C   UNL A   1      38.547  31.124  31.906  1.00  0.00     0.049 A 
ATOM     44  N   UNL A   1      39.779  31.799  34.573  1.00  0.00    -0.248 NA
ATOM     45  C   UNL A   1      38.062  33.342  34.917  1.00  0.00     0.031 C 
ATOM     46  C   UNL A   1      38.018  30.800  30.579  1.00  0.00     0.029 A 
ATOM     47  N   UNL A   1      39.638  30.303  32.037  1.00  0.00    -0.354 N 
ATOM     48  C   UNL A   1      39.975  32.438  35.793  1.00  0.00     0.074 A 
ATOM     49  C   UNL A   1      38.922  33.424  35.920  1.00  0.00     0.031 C 
ATOM     50  C   UNL A   1      38.776  29.838  30.026  1.00  0.00     0.029 A 
ATOM     51  C   UNL A   1      39.867  29.508  30.937  1.00  0.00     0.049 A 
ATOM     52  H   UNL A   1      40.204  30.284  32.842  1.00  0.00     0.167 HD
ATOM     53  C   UNL A   1      40.931  32.208  36.727  1.00  0.00     0.034 A 
ATOM     54  C   UNL A   1      40.853  28.623  30.686  1.00  0.00     0.034 A 
ATOM     55  C   UNL A   1      41.964  31.210  36.591  1.00  0.00     0.049 A 
ATOM     56  C   UNL A   1      41.909  28.392  31.736  1.00  0.00     0.074 A 
ATOM     57  C   UNL A   1      42.944  30.854  37.500  1.00  0.00     0.029 A 
ATOM     58  N   UNL A   1      42.155  30.411  35.470  1.00  0.00    -0.354 N 
ATOM     59  N   UNL A   1      42.050  28.968  32.907  1.00  0.00    -0.248 NA
ATOM     60  C   UNL A   1      42.934  27.383  31.434  1.00  0.00     0.031 C 
ATOM     61  C   UNL A   1      43.764  29.886  36.908  1.00  0.00     0.029 A 
ATOM     62  C   UNL A   1      43.253  29.585  35.656  1.00  0.00     0.049 A 
ATOM     63  H   UNL A   1      41.593  30.430  34.662  1.00  0.00     0.167 HD
ATOM     64  C   UNL A   1      43.161  28.367  33.494  1.00  0.00     0.074 A 
ATOM     65  C   UNL A   1      43.643  27.377  32.553  1.00  0.00     0.031 C 
ATOM     66  C   UNL A   1      43.728  28.609  34.703  1.00  0.00     0.034 A 
BRANCH  53  67
ATOM     67  C   UNL A   1      40.911  33.073  37.965  1.00  0.00     0.023 A 
ATOM     68  C   UNL A   1      40.186  32.705  39.112  1.00  0.00     0.031 A 
ATOM     69  C   UNL A   1      41.606  34.295  37.991  1.00  0.00     0.131 A 
ATOM     70  C   UNL A   1      40.108  33.582  40.204  1.00  0.00     0.055 A 
ATOM     71  C   UNL A   1      41.591  35.128  39.113  1.00  0.00     0.041 A 
ATOM     72  F   UNL A   1      42.301  34.711  36.920  1.00  0.00    -0.206 F 
ATOM     73  C   UNL A   1      40.826  34.780  40.222  1.00  0.00     0.022 A 
BRANCH  70  74
ATOM     74  S   UNL A   1      38.941  33.201  41.539  1.00  0.00     0.124 S 
ATOM     75  O   UNL A   1      37.816  34.071  41.205  1.00  0.00    -0.237 OA
ATOM     76  O   UNL A   1      38.717  31.771  41.364  1.00  0.00    -0.237 OA
ATOM     77  O   UNL A   1      39.670  33.575  42.749  1.00  0.00    -0.744 OA
ENDBRANCH  70  74
ENDBRANCH  53  67
BRANCH  54  78
ATOM     78  C   UNL A   1      40.903  27.896  29.386  1.00  0.00     0.023 A 
ATOM     79  C   UNL A   1      41.853  28.229  28.407  1.00  0.00     0.031 A 
ATOM     80  C   UNL A   1      39.972  26.886  29.086  1.00  0.00     0.131 A 
ATOM     81  C   UNL A   1      41.821  27.593  27.157  1.00  0.00     0.055 A 
ATOM     82  C   UNL A   1      39.977  26.220  27.858  1.00  0.00     0.041 A 
ATOM     83  F   UNL A   1      39.048  26.523  29.989  1.00  0.00    -0.206 F 
ATOM     84  C   UNL A   1      40.897  26.583  26.879  1.00  0.00     0.022 A 
BRANCH  81  85
ATOM     85  S   UNL A   1      42.954  28.167  25.862  1.00  0.00     0.124 S 
ATOM     86  O   UNL A   1      43.007  29.600  26.127  1.00  0.00    -0.237 OA
ATOM     87  O   UNL A   1      44.166  27.413  26.166  1.00  0.00    -0.237 OA
ATOM     88  O   UNL A   1      42.279  27.785  24.624  1.00  0.00    -0.744 OA
ENDBRANCH  81  85
ENDBRANCH  54  78
BRANCH  66  89
ATOM     89  C   UNL A   1      44.906  27.749  35.090  1.00  0.00     0.023 A 
ATOM     90  C   UNL A   1      44.738  26.502  35.717  1.00  0.00     0.031 A 
ATOM     91  C   UNL A   1      46.216  28.194  34.839  1.00  0.00     0.131 A 
ATOM     92  C   UNL A   1      45.862  25.765  36.118  1.00  0.00     0.055 A 
ATOM     93  C   UNL A   1      47.331  27.431  35.190  1.00  0.00     0.041 A 
ATOM     94  F   UNL A   1      46.433  29.378  34.246  1.00  0.00    -0.206 F 
ATOM     95  C   UNL A   1      47.157  26.216  35.845  1.00  0.00     0.022 A 
BRANCH  92  96
ATOM     96  S   UNL A   1      45.613  24.249  37.081  1.00  0.00     0.124 S 
ATOM     97  O   UNL A   1      46.985  23.829  37.347  1.00  0.00    -0.237 OA
ATOM     98  O   UNL A   1      44.861  24.730  38.235  1.00  0.00    -0.237 OA
ATOM     99  O   UNL A   1      44.865  23.383  36.172  1.00  0.00    -0.744 OA
ENDBRANCH  92  96
ENDBRANCH  66  89
ENDBRANCH  40  41
ENDBRANCH  32  35
ENDBRANCH  30  31
ENDBRANCH  29  30
ENDBRANCH   1  29
TORSDOF 18
ENDMDL
MODEL 3
REMARK VINA RESULT:     -11.1      4.267      8.227
REMARK SMILES C/C=C(\C)[C@@H]1C(C)=C[C@@H]2[C@H]([C@@H]1/C=C/C=C/C(=O)NCCCCNC(=O)c1ccc(-c3c4nc(c(-c5cc(S(=O)(=O)[O-])ccc5F)c5ccc([nH]5)c(-c5cc(S(=O)(=O)[O-])ccc5F)c5nc(c(-c6cc(S(=O)(=O)[O-])ccc6F)c6ccc3[nH]6)C=C5)C=C4)cc1)[C@@H](C)CC[C@@H]2O
REMARK SMILES IDX 20 1 19 2 18 3 16 4 17 5 15 7 14 8 13 9 12 10 11 11 5 12
REMARK SMILES IDX 6 13 7 14 8 15 10 16 9 17 89 18 93 19 90 20 91 21 92 22 3 23
REMARK SMILES IDX 1 24 2 25 4 26 94 27 21 29 22 30 23 31 24 32 25 34 26 35
REMARK SMILES IDX 27 36 88 37 28 38 87 39 29 40 30 41 31 42 81 43 32 44 86 45
REMARK SMILES IDX 80 46 82 47 33 48 85 49 79 50 78 51 34 53 66 54 46 55 65 56
REMARK SMILES IDX 47 57 50 58 64 59 83 60 48 61 49 62 63 64 84 65 51 66 35 67
REMARK SMILES IDX 36 68 44 69 37 70 43 71 45 72 42 73 38 74 39 75 40 76 41 77
REMARK SMILES IDX 67 78 68 79 76 80 69 81 75 82 77 83 74 84 70 85 71 86 72 87
REMARK SMILES IDX 73 88 52 89 53 90 61 91 54 92 60 93 62 94 59 95 55 96 56 97
REMARK SMILES IDX 57 98 58 99
REMARK H PARENT 18 6 94 28 23 33 82 52 50 63
REMARK Flexibility Score: inf
ROOT
ATOM      1  C   UNL A   1      43.611  22.627  27.373  1.00  0.00     0.023 C 
ENDROOT
BRANCH   1   2
ATOM      2  C   UNL A   1      44.172  23.724  26.467  1.00  0.00     0.116 C 
BRANCH   2   3
ATOM      3  N   UNL A   1      45.610  23.872  26.642  1.00  0.00    -0.353 N 
ATOM      4  C   UNL A   1      46.328  24.327  27.708  1.00  0.00     0.243 C 
ATOM      5  O   UNL A   1      47.554  24.271  27.703  1.00  0.00    -0.270 OA
ATOM      6  H   UNL A   1      46.151  23.598  25.865  1.00  0.00     0.163 HD
BRANCH   4   7
ATOM      7  C   UNL A   1      45.626  24.797  28.923  1.00  0.00     0.071 C 
ATOM      8  C   UNL A   1      46.085  25.808  29.669  1.00  0.00     0.005 C 
BRANCH   8   9
ATOM      9  C   UNL A   1      45.355  26.386  30.771  1.00  0.00    -0.004 C 
ATOM     10  C   UNL A   1      46.011  26.999  31.768  1.00  0.00    -0.022 C 
BRANCH  10  11
ATOM     11  C   UNL A   1      45.355  27.679  32.951  1.00  0.00     0.027 C 
ATOM     12  C   UNL A   1      44.921  26.709  34.130  1.00  0.00     0.047 C 
ATOM     13  C   UNL A   1      43.539  27.012  34.696  1.00  0.00    -0.069 C 
ATOM     14  C   UNL A   1      43.293  26.662  36.138  1.00  0.00     0.040 C 
ATOM     15  C   UNL A   1      42.577  27.552  33.928  1.00  0.00    -0.021 C 
ATOM     16  C   UNL A   1      44.226  28.623  32.403  1.00  0.00     0.009 C 
ATOM     17  C   UNL A   1      42.846  27.922  32.486  1.00  0.00     0.044 C 
ATOM     18  C   UNL A   1      44.176  30.035  33.078  1.00  0.00    -0.010 C 
ATOM     19  C   UNL A   1      41.765  28.815  31.847  1.00  0.00     0.121 C 
ATOM     20  C   UNL A   1      45.474  30.831  32.885  1.00  0.00     0.008 C 
ATOM     21  C   UNL A   1      43.013  30.881  32.509  1.00  0.00     0.006 C 
ATOM     22  C   UNL A   1      41.666  30.170  32.533  1.00  0.00     0.033 C 
BRANCH  12  23
ATOM     23  C   UNL A   1      45.070  25.181  33.940  1.00  0.00    -0.070 C 
ATOM     24  C   UNL A   1      43.989  22.984  33.199  1.00  0.00     0.035 C 
ATOM     25  C   UNL A   1      44.020  24.451  33.503  1.00  0.00    -0.031 C 
ATOM     26  C   UNL A   1      46.439  24.572  34.136  1.00  0.00     0.040 C 
ENDBRANCH  12  23
BRANCH  19  27
ATOM     27  O   UNL A   1      40.489  28.181  31.817  1.00  0.00    -0.393 OA
ATOM     28  H   UNL A   1      39.897  28.672  31.224  1.00  0.00     0.210 HD
ENDBRANCH  19  27
ENDBRANCH  10  11
ENDBRANCH   8   9
ENDBRANCH   4   7
ENDBRANCH   2   3
ENDBRANCH   1   2
BRANCH   1  29
ATOM     29  C   UNL A   1      42.494  21.794  26.736  1.00  0.00     0.023 C 
BRANCH  29  30
ATOM     30  C   UNL A   1      41.245  21.620  27.595  1.00  0.00     0.116 C 
BRANCH  30  31
ATOM     31  N   UNL A   1      40.025  21.496  26.813  1.00  0.00    -0.352 N 
ATOM     32  C   UNL A   1      39.125  22.479  26.465  1.00  0.00     0.251 C 
ATOM     33  H   UNL A   1      39.814  20.592  26.492  1.00  0.00     0.163 HD
ATOM     34  O   UNL A   1      38.084  22.178  25.896  1.00  0.00    -0.269 OA
BRANCH  32  35
ATOM     35  C   UNL A   1      39.408  23.887  26.824  1.00  0.00     0.039 A 
ATOM     36  C   UNL A   1      39.094  24.327  28.113  1.00  0.00     0.014 A 
ATOM     37  C   UNL A   1      40.001  24.759  25.908  1.00  0.00     0.014 A 
ATOM     38  C   UNL A   1      39.443  25.621  28.505  1.00  0.00     0.010 A 
ATOM     39  C   UNL A   1      40.405  26.026  26.321  1.00  0.00     0.010 A 
ATOM     40  C   UNL A   1      40.136  26.468  27.625  1.00  0.00    -0.014 A 
BRANCH  40  41
ATOM     41  C   UNL A   1      40.596  27.816  28.052  1.00  0.00     0.031 A 
ATOM     42  C   UNL A   1      42.060  28.160  28.010  1.00  0.00     0.074 A 
ATOM     43  C   UNL A   1      39.705  28.699  28.544  1.00  0.00     0.049 A 
ATOM     44  N   UNL A   1      42.668  29.242  28.422  1.00  0.00    -0.248 NA
ATOM     45  C   UNL A   1      42.960  27.137  27.458  1.00  0.00     0.031 C 
ATOM     46  C   UNL A   1      38.265  28.463  28.675  1.00  0.00     0.029 A 
ATOM     47  N   UNL A   1      39.877  29.967  29.039  1.00  0.00    -0.354 N 
ATOM     48  C   UNL A   1      44.023  29.026  28.196  1.00  0.00     0.074 A 
ATOM     49  C   UNL A   1      44.147  27.686  27.662  1.00  0.00     0.031 C 
ATOM     50  C   UNL A   1      37.686  29.555  29.200  1.00  0.00     0.029 A 
ATOM     51  C   UNL A   1      38.713  30.552  29.483  1.00  0.00     0.049 A 
ATOM     52  H   UNL A   1      40.753  30.417  29.075  1.00  0.00     0.167 HD
ATOM     53  C   UNL A   1      45.063  29.874  28.398  1.00  0.00     0.034 A 
ATOM     54  C   UNL A   1      38.500  31.750  30.063  1.00  0.00     0.034 A 
ATOM     55  C   UNL A   1      44.918  31.213  28.917  1.00  0.00     0.049 A 
ATOM     56  C   UNL A   1      39.672  32.671  30.284  1.00  0.00     0.074 A 
ATOM     57  C   UNL A   1      45.895  32.175  29.103  1.00  0.00     0.029 A 
ATOM     58  N   UNL A   1      43.721  31.777  29.339  1.00  0.00    -0.354 N 
ATOM     59  N   UNL A   1      40.942  32.471  30.017  1.00  0.00    -0.248 NA
ATOM     60  C   UNL A   1      39.381  33.984  30.876  1.00  0.00     0.031 C 
ATOM     61  C   UNL A   1      45.301  33.297  29.694  1.00  0.00     0.029 A 
ATOM     62  C   UNL A   1      43.940  33.063  29.810  1.00  0.00     0.049 A 
ATOM     63  H   UNL A   1      42.845  31.330  29.308  1.00  0.00     0.167 HD
ATOM     64  C   UNL A   1      41.595  33.646  30.379  1.00  0.00     0.074 A 
ATOM     65  C   UNL A   1      40.577  34.552  30.871  1.00  0.00     0.031 C 
ATOM     66  C   UNL A   1      42.916  33.951  30.307  1.00  0.00     0.034 A 
BRANCH  53  67
ATOM     67  C   UNL A   1      46.447  29.362  28.076  1.00  0.00     0.023 A 
ATOM     68  C   UNL A   1      46.818  29.011  26.766  1.00  0.00     0.031 A 
ATOM     69  C   UNL A   1      47.400  29.197  29.096  1.00  0.00     0.131 A 
ATOM     70  C   UNL A   1      48.077  28.442  26.522  1.00  0.00     0.055 A 
ATOM     71  C   UNL A   1      48.682  28.706  28.833  1.00  0.00     0.041 A 
ATOM     72  F   UNL A   1      47.099  29.497  30.369  1.00  0.00    -0.206 F 
ATOM     73  C   UNL A   1      49.021  28.311  27.543  1.00  0.00     0.022 A 
BRANCH  70  74
ATOM     74  S   UNL A   1      48.410  27.746  24.881  1.00  0.00     0.124 S 
ATOM     75  O   UNL A   1      47.383  28.398  24.071  1.00  0.00    -0.237 OA
ATOM     76  O   UNL A   1      49.783  28.168  24.632  1.00  0.00    -0.237 OA
ATOM     77  O   UNL A   1      48.223  26.310  25.073  1.00  0.00    -0.744 OA
ENDBRANCH  70  74
ENDBRANCH  53  67
BRANCH  54  78
ATOM     78  C   UNL A   1      37.129  32.150  30.489  1.00  0.00     0.023 A 
ATOM     79  C   UNL A   1      36.235  32.745  29.584  1.00  0.00     0.031 A 
ATOM     80  C   UNL A   1      36.707  31.983  31.820  1.00  0.00     0.131 A 
ATOM     81  C   UNL A   1      34.984  33.196  30.031  1.00  0.00     0.055 A 
ATOM     82  C   UNL A   1      35.441  32.388  32.248  1.00  0.00     0.041 A 
ATOM     83  F   UNL A   1      37.519  31.414  32.724  1.00  0.00    -0.206 F 
ATOM     84  C   UNL A   1      34.576  33.011  31.354  1.00  0.00     0.022 A 
BRANCH  81  85
ATOM     85  S   UNL A   1      33.927  34.108  28.873  1.00  0.00     0.124 S 
ATOM     86  O   UNL A   1      33.521  33.056  27.949  1.00  0.00    -0.237 OA
ATOM     87  O   UNL A   1      32.885  34.622  29.757  1.00  0.00    -0.237 OA
ATOM     88  O   UNL A   1      34.823  35.118  28.316  1.00  0.00    -0.744 OA
ENDBRANCH  81  85
ENDBRANCH  54  78
BRANCH  66  89
ATOM     89  C   UNL A   1      43.321  35.342  30.729  1.00  0.00     0.023 A 
ATOM     90  C   UNL A   1      43.396  36.402  29.808  1.00  0.00     0.031 A 
ATOM     91  C   UNL A   1      43.649  35.605  32.070  1.00  0.00     0.131 A 
ATOM     92  C   UNL A   1      43.840  37.664  30.231  1.00  0.00     0.055 A 
ATOM     93  C   UNL A   1      44.037  36.876  32.496  1.00  0.00     0.041 A 
ATOM     94  F   UNL A   1      43.596  34.628  32.990  1.00  0.00    -0.206 F 
ATOM     95  C   UNL A   1      44.147  37.910  31.572  1.00  0.00     0.022 A 
BRANCH  92  96
ATOM     96  S   UNL A   1      44.097  38.960  28.989  1.00  0.00     0.124 S 
ATOM     97  O   UNL A   1      43.982  40.174  29.789  1.00  0.00    -0.237 OA
ATOM     98  O   UNL A   1      45.432  38.652  28.486  1.00  0.00    -0.237 OA
ATOM     99  O   UNL A   1      43.012  38.742  28.035  1.00  0.00    -0.744 OA
ENDBRANCH  92  96
ENDBRANCH  66  89
ENDBRANCH  40  41
ENDBRANCH  32  35
ENDBRANCH  30  31
ENDBRANCH  29  30
ENDBRANCH   1  29
TORSDOF 18
ENDMDL
