MODEL 1
REMARK VINA RESULT:     -10.6      0.000      0.000
REMARK SMILES C[C@@](O)(CNC(=O)c1ccc(Br)cc1N)CC(=O)NCCCCNC(=O)c1ccc(-c2c3nc(c(-c4cc(S(=O)(=O)[O-])ccc4F)c4ccc([nH]4)c(-c4cc(S(=O)(=O)[O-])ccc4F)c4nc(c(-c5cc(S(=O)(=O)[O-])ccc5F)c5ccc2[nH]5)C=C4)C=C3)cc1
REMARK SMILES IDX 20 1 19 2 17 3 18 4 16 6 2 7 1 8 3 9 4 11 5 12 6 13 7 15
REMARK SMILES IDX 8 16 9 17 14 18 10 19 13 20 11 21 12 22 15 23 21 26 22 27
REMARK SMILES IDX 23 28 24 29 25 30 26 32 27 33 28 34 89 35 29 36 88 37 30 38
REMARK SMILES IDX 31 39 32 40 82 41 33 42 87 43 81 44 83 45 34 46 86 47 80 48
REMARK SMILES IDX 79 49 35 51 67 52 47 53 66 54 48 55 51 56 65 57 84 58 49 59
REMARK SMILES IDX 50 60 64 62 85 63 52 64 36 65 37 66 45 67 38 68 44 69 46 70
REMARK SMILES IDX 43 71 39 72 40 73 41 74 42 75 68 76 69 77 77 78 70 79 76 80
REMARK SMILES IDX 78 81 75 82 71 83 72 84 73 85 74 86 53 87 54 88 62 89 55 90
REMARK SMILES IDX 61 91 63 92 60 93 56 94 57 95 58 96 59 97
REMARK H PARENT 19 5 3 10 5 14 15 24 15 25 24 31 83 50 51 61
REMARK Flexibility Score: inf
ROOT
ATOM      1  C   UNL A   1      32.636  24.766  26.070  1.00  0.00     0.116 C 
ENDROOT
BRANCH   1   2
ATOM      2  N   UNL A   1      32.905  23.696  27.050  1.00  0.00    -0.356 N 
ATOM      3  C   UNL A   1      33.324  22.401  27.041  1.00  0.00     0.222 C 
ATOM      4  O   UNL A   1      33.493  21.819  28.116  1.00  0.00    -0.275 OA
ATOM      5  H   UNL A   1      32.733  24.006  27.968  1.00  0.00     0.163 HD
BRANCH   3   6
ATOM      6  C   UNL A   1      33.657  21.688  25.781  1.00  0.00     0.136 C 
BRANCH   6   7
ATOM      7  C   UNL A   1      35.063  21.947  25.303  1.00  0.00     0.088 C 
ATOM      8  C   UNL A   1      35.817  20.612  25.112  1.00  0.00     0.044 C 
BRANCH   7   9
ATOM      9  O   UNL A   1      35.784  22.528  26.433  1.00  0.00    -0.388 OA
ATOM     10  H   UNL A   1      36.241  21.824  26.921  1.00  0.00     0.211 HD
ENDBRANCH   7   9
BRANCH   7  11
ATOM     11  C   UNL A   1      35.244  22.916  24.066  1.00  0.00     0.151 C 
BRANCH  11  12
ATOM     12  N   UNL A   1      34.301  23.192  22.876  1.00  0.00    -0.349 N 
ATOM     13  C   UNL A   1      33.560  24.097  22.076  1.00  0.00     0.253 C 
ATOM     14  H   UNL A   1      34.132  22.307  22.478  1.00  0.00     0.163 HD
ATOM     15  O   UNL A   1      33.430  23.669  20.914  1.00  0.00    -0.269 OA
BRANCH  13  16
ATOM     16  C   UNL A   1      32.784  25.420  22.303  1.00  0.00     0.062 A 
ATOM     17  C   UNL A   1      33.204  26.739  22.040  1.00  0.00     0.017 A 
ATOM     18  C   UNL A   1      31.429  25.348  22.692  1.00  0.00     0.045 A 
ATOM     19  C   UNL A   1      32.526  27.901  22.451  1.00  0.00     0.016 A 
ATOM     20  C   UNL A   1      30.748  26.503  23.163  1.00  0.00     0.042 A 
ATOM     21  C   UNL A   1      31.318  27.767  23.086  1.00  0.00     0.020 A 
ATOM     22  Br  UNL A   1      30.460  29.284  23.809  1.00  0.00    -0.051 Br
BRANCH  18  23
ATOM     23  N   UNL A   1      30.739  24.133  22.737  1.00  0.00    -0.398 N 
ATOM     24  H   UNL A   1      31.179  23.330  23.099  1.00  0.00     0.156 HD
ATOM     25  H   UNL A   1      29.813  24.081  22.407  1.00  0.00     0.156 HD
ENDBRANCH  18  23
ENDBRANCH  13  16
ENDBRANCH  11  12
ENDBRANCH   7  11
ENDBRANCH   6   7
ENDBRANCH   3   6
ENDBRANCH   1   2
BRANCH   1  26
ATOM     26  C   UNL A   1      33.351  26.238  25.848  1.00  0.00     0.023 C 
BRANCH  26  27
ATOM     27  C   UNL A   1      33.166  27.798  26.278  1.00  0.00     0.023 C 
BRANCH  27  28
ATOM     28  C   UNL A   1      33.816  29.117  25.717  1.00  0.00     0.116 C 
BRANCH  28  29
ATOM     29  N   UNL A   1      33.344  30.370  26.281  1.00  0.00    -0.352 N 
ATOM     30  C   UNL A   1      33.915  31.165  27.257  1.00  0.00     0.251 C 
ATOM     31  H   UNL A   1      32.493  30.701  25.914  1.00  0.00     0.163 HD
ATOM     32  O   UNL A   1      33.289  32.165  27.629  1.00  0.00    -0.269 OA
BRANCH  30  33
ATOM     33  C   UNL A   1      35.204  30.833  27.930  1.00  0.00     0.039 A 
ATOM     34  C   UNL A   1      36.357  31.607  27.795  1.00  0.00     0.014 A 
ATOM     35  C   UNL A   1      35.230  29.738  28.809  1.00  0.00     0.014 A 
ATOM     36  C   UNL A   1      37.552  31.214  28.428  1.00  0.00     0.010 A 
ATOM     37  C   UNL A   1      36.415  29.368  29.470  1.00  0.00     0.010 A 
ATOM     38  C   UNL A   1      37.609  30.070  29.247  1.00  0.00    -0.014 A 
BRANCH  38  39
ATOM     39  C   UNL A   1      38.911  29.598  29.825  1.00  0.00     0.031 A 
ATOM     40  C   UNL A   1      39.367  30.081  31.185  1.00  0.00     0.074 A 
ATOM     41  C   UNL A   1      39.682  28.714  29.158  1.00  0.00     0.049 A 
ATOM     42  N   UNL A   1      40.425  29.736  31.877  1.00  0.00    -0.248 NA
ATOM     43  C   UNL A   1      38.529  31.089  31.854  1.00  0.00     0.031 C 
ATOM     44  C   UNL A   1      39.381  28.182  27.831  1.00  0.00     0.029 A 
ATOM     45  N   UNL A   1      40.864  28.095  29.501  1.00  0.00    -0.354 N 
ATOM     46  C   UNL A   1      40.385  30.486  33.050  1.00  0.00     0.074 A 
ATOM     47  C   UNL A   1      39.223  31.340  32.957  1.00  0.00     0.031 C 
ATOM     48  C   UNL A   1      40.317  27.282  27.495  1.00  0.00     0.029 A 
ATOM     49  C   UNL A   1      41.321  27.202  28.555  1.00  0.00     0.049 A 
ATOM     50  H   UNL A   1      41.339  28.273  30.345  1.00  0.00     0.167 HD
ATOM     51  C   UNL A   1      41.224  30.450  34.115  1.00  0.00     0.034 A 
ATOM     52  C   UNL A   1      42.415  26.406  28.536  1.00  0.00     0.034 A 
ATOM     53  C   UNL A   1      42.364  29.573  34.215  1.00  0.00     0.049 A 
ATOM     54  C   UNL A   1      43.340  26.391  29.731  1.00  0.00     0.074 A 
ATOM     55  C   UNL A   1      43.235  29.427  35.282  1.00  0.00     0.029 A 
ATOM     56  N   UNL A   1      42.795  28.697  33.230  1.00  0.00    -0.354 N 
ATOM     57  N   UNL A   1      43.235  27.045  30.864  1.00  0.00    -0.248 NA
ATOM     58  C   UNL A   1      44.526  25.523  29.656  1.00  0.00     0.031 C 
ATOM     59  C   UNL A   1      44.237  28.533  34.911  1.00  0.00     0.029 A 
ATOM     60  C   UNL A   1      43.938  28.037  33.653  1.00  0.00     0.049 A 
ATOM     61  H   UNL A   1      42.354  28.565  32.359  1.00  0.00     0.167 HD
ATOM     62  C   UNL A   1      44.314  26.639  31.647  1.00  0.00     0.074 A 
ATOM     63  C   UNL A   1      45.050  25.668  30.867  1.00  0.00     0.031 C 
ATOM     64  C   UNL A   1      44.658  27.040  32.896  1.00  0.00     0.034 A 
BRANCH  51  65
ATOM     65  C   UNL A   1      40.958  31.360  35.296  1.00  0.00     0.023 A 
ATOM     66  C   UNL A   1      39.792  31.183  36.068  1.00  0.00     0.031 A 
ATOM     67  C   UNL A   1      41.751  32.492  35.547  1.00  0.00     0.131 A 
ATOM     68  C   UNL A   1      39.425  32.150  37.013  1.00  0.00     0.055 A 
ATOM     69  C   UNL A   1      41.409  33.426  36.528  1.00  0.00     0.041 A 
ATOM     70  F   UNL A   1      42.869  32.715  34.836  1.00  0.00    -0.206 F 
ATOM     71  C   UNL A   1      40.232  33.266  37.253  1.00  0.00     0.022 A 
BRANCH  68  72
ATOM     72  S   UNL A   1      37.847  32.047  37.900  1.00  0.00     0.124 S 
ATOM     73  O   UNL A   1      37.491  30.641  37.718  1.00  0.00    -0.237 OA
ATOM     74  O   UNL A   1      38.234  32.420  39.257  1.00  0.00    -0.237 OA
ATOM     75  O   UNL A   1      36.988  32.999  37.203  1.00  0.00    -0.744 OA
ENDBRANCH  68  72
ENDBRANCH  51  65
BRANCH  52  76
ATOM     76  C   UNL A   1      42.645  25.505  27.364  1.00  0.00     0.023 A 
ATOM     77  C   UNL A   1      42.111  24.204  27.332  1.00  0.00     0.031 A 
ATOM     78  C   UNL A   1      43.481  25.897  26.303  1.00  0.00     0.131 A 
ATOM     79  C   UNL A   1      42.479  23.321  26.308  1.00  0.00     0.055 A 
ATOM     80  C   UNL A   1      43.779  25.040  25.240  1.00  0.00     0.041 A 
ATOM     81  F   UNL A   1      44.023  27.124  26.285  1.00  0.00    -0.206 F 
ATOM     82  C   UNL A   1      43.294  23.737  25.252  1.00  0.00     0.022 A 
BRANCH  79  83
ATOM     83  S   UNL A   1      42.029  21.565  26.391  1.00  0.00     0.124 S 
ATOM     84  O   UNL A   1      40.599  21.602  26.093  1.00  0.00    -0.237 OA
ATOM     85  O   UNL A   1      42.874  20.992  25.344  1.00  0.00    -0.237 OA
ATOM     86  O   UNL A   1      42.380  21.182  27.751  1.00  0.00    -0.744 OA
ENDBRANCH  79  83
ENDBRANCH  52  76
BRANCH  64  87
ATOM     87  C   UNL A   1      45.869  26.426  33.564  1.00  0.00     0.023 A 
ATOM     88  C   UNL A   1      45.712  25.291  34.384  1.00  0.00     0.031 A 
ATOM     89  C   UNL A   1      47.126  27.055  33.542  1.00  0.00     0.131 A 
ATOM     90  C   UNL A   1      46.771  24.853  35.190  1.00  0.00     0.055 A 
ATOM     91  C   UNL A   1      48.198  26.578  34.301  1.00  0.00     0.041 A 
ATOM     92  F   UNL A   1      47.328  28.150  32.793  1.00  0.00    -0.206 F 
ATOM     93  C   UNL A   1      48.017  25.485  35.144  1.00  0.00     0.022 A 
BRANCH  90  94
ATOM     94  S   UNL A   1      46.539  23.527  36.407  1.00  0.00     0.124 S 
ATOM     95  O   UNL A   1      45.190  23.062  36.094  1.00  0.00    -0.237 OA
ATOM     96  O   UNL A   1      47.614  22.602  36.061  1.00  0.00    -0.237 OA
ATOM     97  O   UNL A   1      46.681  24.202  37.695  1.00  0.00    -0.744 OA
ENDBRANCH  90  94
ENDBRANCH  64  87
ENDBRANCH  38  39
ENDBRANCH  30  33
ENDBRANCH  28  29
ENDBRANCH  27  28
ENDBRANCH  26  27
ENDBRANCH   1  26
TORSDOF 20
ENDMDL
MODEL 2
REMARK VINA RESULT:     -10.5      2.381      3.841
REMARK SMILES C[C@@](O)(CNC(=O)c1ccc(Br)cc1N)CC(=O)NCCCCNC(=O)c1ccc(-c2c3nc(c(-c4cc(S(=O)(=O)[O-])ccc4F)c4ccc([nH]4)c(-c4cc(S(=O)(=O)[O-])ccc4F)c4nc(c(-c5cc(S(=O)(=O)[O-])ccc5F)c5ccc2[nH]5)C=C4)C=C3)cc1
REMARK SMILES IDX 20 1 19 2 17 3 18 4 16 6 2 7 1 8 3 9 4 11 5 12 6 13 7 15
REMARK SMILES IDX 8 16 9 17 14 18 10 19 13 20 11 21 12 22 15 23 21 26 22 27
REMARK SMILES IDX 23 28 24 29 25 30 26 32 27 33 28 34 89 35 29 36 88 37 30 38
REMARK SMILES IDX 31 39 32 40 82 41 33 42 87 43 81 44 83 45 34 46 86 47 80 48
REMARK SMILES IDX 79 49 35 51 67 52 47 53 66 54 48 55 51 56 65 57 84 58 49 59
REMARK SMILES IDX 50 60 64 62 85 63 52 64 36 65 37 66 45 67 38 68 44 69 46 70
REMARK SMILES IDX 43 71 39 72 40 73 41 74 42 75 68 76 69 77 77 78 70 79 76 80
REMARK SMILES IDX 78 81 75 82 71 83 72 84 73 85 74 86 53 87 54 88 62 89 55 90
REMARK SMILES IDX 61 91 63 92 60 93 56 94 57 95 58 96 59 97
REMARK H PARENT 19 5 3 10 5 14 15 24 15 25 24 31 83 50 51 61
REMARK Flexibility Score: inf
ROOT
ATOM      1  C   UNL A   1      31.489  29.439  25.269  1.00  0.00     0.116 C 
ENDROOT
BRANCH   1   2
ATOM      2  N   UNL A   1      32.238  29.348  24.001  1.00  0.00    -0.356 N 
ATOM      3  C   UNL A   1      33.297  28.654  23.501  1.00  0.00     0.222 C 
ATOM      4  O   UNL A   1      33.614  28.813  22.319  1.00  0.00    -0.275 OA
ATOM      5  H   UNL A   1      31.869  29.964  23.328  1.00  0.00     0.163 HD
BRANCH   3   6
ATOM      6  C   UNL A   1      34.037  27.652  24.312  1.00  0.00     0.136 C 
BRANCH   6   7
ATOM      7  C   UNL A   1      33.291  26.354  24.482  1.00  0.00     0.088 C 
ATOM      8  C   UNL A   1      34.109  25.185  23.889  1.00  0.00     0.044 C 
BRANCH   7   9
ATOM      9  O   UNL A   1      32.155  26.406  23.566  1.00  0.00    -0.388 OA
ATOM     10  H   UNL A   1      32.456  26.208  22.665  1.00  0.00     0.211 HD
ENDBRANCH   7   9
BRANCH   7  11
ATOM     11  C   UNL A   1      32.733  26.019  25.924  1.00  0.00     0.151 C 
BRANCH  11  12
ATOM     12  N   UNL A   1      32.110  24.717  26.468  1.00  0.00    -0.349 N 
ATOM     13  C   UNL A   1      32.069  23.302  26.525  1.00  0.00     0.253 C 
ATOM     14  H   UNL A   1      31.388  25.014  27.069  1.00  0.00     0.163 HD
ATOM     15  O   UNL A   1      31.619  22.907  27.618  1.00  0.00    -0.269 OA
BRANCH  13  16
ATOM     16  C   UNL A   1      32.336  22.129  25.545  1.00  0.00     0.062 A 
ATOM     17  C   UNL A   1      32.065  22.063  24.164  1.00  0.00     0.017 A 
ATOM     18  C   UNL A   1      33.065  21.015  26.012  1.00  0.00     0.045 A 
ATOM     19  C   UNL A   1      32.153  20.900  23.378  1.00  0.00     0.016 A 
ATOM     20  C   UNL A   1      33.115  19.814  25.254  1.00  0.00     0.042 A 
ATOM     21  C   UNL A   1      32.615  19.746  23.959  1.00  0.00     0.020 A 
ATOM     22  Br  UNL A   1      32.583  18.126  22.994  1.00  0.00    -0.051 Br
BRANCH  18  23
ATOM     23  N   UNL A   1      33.667  21.003  27.272  1.00  0.00    -0.398 N 
ATOM     24  H   UNL A   1      34.449  21.574  27.450  1.00  0.00     0.156 HD
ATOM     25  H   UNL A   1      33.308  20.424  27.984  1.00  0.00     0.156 HD
ENDBRANCH  18  23
ENDBRANCH  13  16
ENDBRANCH  11  12
ENDBRANCH   7  11
ENDBRANCH   6   7
ENDBRANCH   3   6
ENDBRANCH   1   2
BRANCH   1  26
ATOM     26  C   UNL A   1      31.625  30.488  26.537  1.00  0.00     0.023 C 
BRANCH  26  27
ATOM     27  C   UNL A   1      31.569  32.085  26.853  1.00  0.00     0.023 C 
BRANCH  27  28
ATOM     28  C   UNL A   1      32.699  33.179  26.890  1.00  0.00     0.116 C 
BRANCH  28  29
ATOM     29  N   UNL A   1      32.532  34.260  27.846  1.00  0.00    -0.352 N 
ATOM     30  C   UNL A   1      33.276  34.562  28.970  1.00  0.00     0.251 C 
ATOM     31  H   UNL A   1      31.777  34.866  27.665  1.00  0.00     0.163 HD
ATOM     32  O   UNL A   1      32.900  35.504  29.678  1.00  0.00    -0.269 OA
BRANCH  30  33
ATOM     33  C   UNL A   1      34.459  33.764  29.405  1.00  0.00     0.039 A 
ATOM     34  C   UNL A   1      34.353  32.586  30.148  1.00  0.00     0.014 A 
ATOM     35  C   UNL A   1      35.730  34.172  28.973  1.00  0.00     0.014 A 
ATOM     36  C   UNL A   1      35.514  31.903  30.560  1.00  0.00     0.010 A 
ATOM     37  C   UNL A   1      36.886  33.467  29.353  1.00  0.00     0.010 A 
ATOM     38  C   UNL A   1      36.799  32.351  30.199  1.00  0.00    -0.014 A 
BRANCH  38  39
ATOM     39  C   UNL A   1      38.029  31.681  30.735  1.00  0.00     0.031 A 
ATOM     40  C   UNL A   1      38.526  31.991  32.131  1.00  0.00     0.074 A 
ATOM     41  C   UNL A   1      38.697  30.770  29.996  1.00  0.00     0.049 A 
ATOM     42  N   UNL A   1      39.529  31.465  32.792  1.00  0.00    -0.248 NA
ATOM     43  C   UNL A   1      37.807  33.032  32.882  1.00  0.00     0.031 C 
ATOM     44  C   UNL A   1      38.348  30.390  28.629  1.00  0.00     0.029 A 
ATOM     45  N   UNL A   1      39.794  29.988  30.286  1.00  0.00    -0.354 N 
ATOM     46  C   UNL A   1      39.565  32.114  34.024  1.00  0.00     0.074 A 
ATOM     47  C   UNL A   1      38.514  33.106  34.002  1.00  0.00     0.031 C 
ATOM     48  C   UNL A   1      39.174  29.416  28.219  1.00  0.00     0.029 A 
ATOM     49  C   UNL A   1      40.151  29.129  29.269  1.00  0.00     0.049 A 
ATOM     50  H   UNL A   1      40.277  30.037  31.142  1.00  0.00     0.167 HD
ATOM     51  C   UNL A   1      40.383  31.891  35.082  1.00  0.00     0.034 A 
ATOM     52  C   UNL A   1      41.142  28.212  29.183  1.00  0.00     0.034 A 
ATOM     53  C   UNL A   1      41.410  30.878  35.108  1.00  0.00     0.049 A 
ATOM     54  C   UNL A   1      42.047  27.987  30.373  1.00  0.00     0.074 A 
ATOM     55  C   UNL A   1      42.246  30.542  36.160  1.00  0.00     0.029 A 
ATOM     56  N   UNL A   1      41.744  30.043  34.053  1.00  0.00    -0.354 N 
ATOM     57  N   UNL A   1      42.009  28.553  31.557  1.00  0.00    -0.248 NA
ATOM     58  C   UNL A   1      43.122  26.994  30.226  1.00  0.00     0.031 C 
ATOM     59  C   UNL A   1      43.139  29.568  35.715  1.00  0.00     0.029 A 
ATOM     60  C   UNL A   1      42.796  29.218  34.420  1.00  0.00     0.049 A 
ATOM     61  H   UNL A   1      41.300  30.037  33.174  1.00  0.00     0.167 HD
ATOM     62  C   UNL A   1      43.024  27.957  32.303  1.00  0.00     0.074 A 
ATOM     63  C   UNL A   1      43.647  26.974  31.445  1.00  0.00     0.031 C 
ATOM     64  C   UNL A   1      43.400  28.209  33.582  1.00  0.00     0.034 A 
BRANCH  51  65
ATOM     65  C   UNL A   1      40.216  32.724  36.335  1.00  0.00     0.023 A 
ATOM     66  C   UNL A   1      39.280  32.335  37.315  1.00  0.00     0.031 A 
ATOM     67  C   UNL A   1      40.840  33.975  36.478  1.00  0.00     0.131 A 
ATOM     68  C   UNL A   1      38.956  33.210  38.360  1.00  0.00     0.055 A 
ATOM     69  C   UNL A   1      40.553  34.821  37.551  1.00  0.00     0.041 A 
ATOM     70  F   UNL A   1      41.734  34.400  35.569  1.00  0.00    -0.206 F 
ATOM     71  C   UNL A   1      39.594  34.447  38.488  1.00  0.00     0.022 A 
BRANCH  68  72
ATOM     72  S   UNL A   1      37.633  32.820  39.538  1.00  0.00     0.124 S 
ATOM     73  O   UNL A   1      37.645  33.996  40.404  1.00  0.00    -0.237 OA
ATOM     74  O   UNL A   1      36.470  32.701  38.663  1.00  0.00    -0.237 OA
ATOM     75  O   UNL A   1      38.079  31.581  40.169  1.00  0.00    -0.744 OA
ENDBRANCH  68  72
ENDBRANCH  51  65
BRANCH  52  76
ATOM     76  C   UNL A   1      41.276  27.391  27.940  1.00  0.00     0.023 A 
ATOM     77  C   UNL A   1      40.882  26.041  27.916  1.00  0.00     0.031 A 
ATOM     78  C   UNL A   1      41.886  27.917  26.787  1.00  0.00     0.131 A 
ATOM     79  C   UNL A   1      41.172  25.247  26.798  1.00  0.00     0.055 A 
ATOM     80  C   UNL A   1      42.099  27.142  25.644  1.00  0.00     0.041 A 
ATOM     81  F   UNL A   1      42.288  29.197  26.758  1.00  0.00    -0.206 F 
ATOM     82  C   UNL A   1      41.761  25.794  25.654  1.00  0.00     0.022 A 
BRANCH  79  83
ATOM     83  S   UNL A   1      40.926  23.449  26.847  1.00  0.00     0.124 S 
ATOM     84  O   UNL A   1      39.508  23.327  26.518  1.00  0.00    -0.237 OA
ATOM     85  O   UNL A   1      41.854  22.995  25.813  1.00  0.00    -0.237 OA
ATOM     86  O   UNL A   1      41.290  23.088  28.210  1.00  0.00    -0.744 OA
ENDBRANCH  79  83
ENDBRANCH  52  76
BRANCH  64  87
ATOM     87  C   UNL A   1      44.523  27.401  34.196  1.00  0.00     0.023 A 
ATOM     88  C   UNL A   1      44.240  26.155  34.791  1.00  0.00     0.031 A 
ATOM     89  C   UNL A   1      45.815  27.931  34.356  1.00  0.00     0.131 A 
ATOM     90  C   UNL A   1      45.213  25.508  35.564  1.00  0.00     0.055 A 
ATOM     91  C   UNL A   1      46.802  27.252  35.076  1.00  0.00     0.041 A 
ATOM     92  F   UNL A   1      46.135  29.122  33.826  1.00  0.00    -0.206 F 
ATOM     93  C   UNL A   1      46.497  26.045  35.700  1.00  0.00     0.022 A 
BRANCH  90  94
ATOM     94  S   UNL A   1      44.818  24.011  36.511  1.00  0.00     0.124 S 
ATOM     95  O   UNL A   1      43.611  23.538  35.838  1.00  0.00    -0.237 OA
ATOM     96  O   UNL A   1      46.009  23.194  36.304  1.00  0.00    -0.237 OA
ATOM     97  O   UNL A   1      44.619  24.499  37.873  1.00  0.00    -0.744 OA
ENDBRANCH  90  94
ENDBRANCH  64  87
ENDBRANCH  38  39
ENDBRANCH  30  33
ENDBRANCH  28  29
ENDBRANCH  27  28
ENDBRANCH  26  27
ENDBRANCH   1  26
TORSDOF 20
ENDMDL
MODEL 3
REMARK VINA RESULT:     -10.4      4.653      8.221
REMARK SMILES C[C@@](O)(CNC(=O)c1ccc(Br)cc1N)CC(=O)NCCCCNC(=O)c1ccc(-c2c3nc(c(-c4cc(S(=O)(=O)[O-])ccc4F)c4ccc([nH]4)c(-c4cc(S(=O)(=O)[O-])ccc4F)c4nc(c(-c5cc(S(=O)(=O)[O-])ccc5F)c5ccc2[nH]5)C=C4)C=C3)cc1
REMARK SMILES IDX 20 1 19 2 17 3 18 4 16 6 2 7 1 8 3 9 4 11 5 12 6 13 7 15
REMARK SMILES IDX 8 16 9 17 14 18 10 19 13 20 11 21 12 22 15 23 21 26 22 27
REMARK SMILES IDX 23 28 24 29 25 30 26 32 27 33 28 34 89 35 29 36 88 37 30 38
REMARK SMILES IDX 31 39 32 40 82 41 33 42 87 43 81 44 83 45 34 46 86 47 80 48
REMARK SMILES IDX 79 49 35 51 67 52 47 53 66 54 48 55 51 56 65 57 84 58 49 59
REMARK SMILES IDX 50 60 64 62 85 63 52 64 36 65 37 66 45 67 38 68 44 69 46 70
REMARK SMILES IDX 43 71 39 72 40 73 41 74 42 75 68 76 69 77 77 78 70 79 76 80
REMARK SMILES IDX 78 81 75 82 71 83 72 84 73 85 74 86 53 87 54 88 62 89 55 90
REMARK SMILES IDX 61 91 63 92 60 93 56 94 57 95 58 96 59 97
REMARK H PARENT 19 5 3 10 5 14 15 24 15 25 24 31 83 50 51 61
REMARK Flexibility Score: inf
ROOT
ATOM      1  C   UNL A   1      33.277  37.208  30.143  1.00  0.00     0.116 C 
ENDROOT
BRANCH   1   2
ATOM      2  N   UNL A   1      33.529  37.316  31.593  1.00  0.00    -0.356 N 
ATOM      3  C   UNL A   1      33.675  36.481  32.658  1.00  0.00     0.222 C 
ATOM      4  O   UNL A   1      33.946  36.959  33.763  1.00  0.00    -0.275 OA
ATOM      5  H   UNL A   1      33.614  38.257  31.868  1.00  0.00     0.163 HD
BRANCH   3   6
ATOM      6  C   UNL A   1      33.595  35.003  32.519  1.00  0.00     0.136 C 
BRANCH   6   7
ATOM      7  C   UNL A   1      34.858  34.295  32.936  1.00  0.00     0.088 C 
ATOM      8  C   UNL A   1      34.778  32.797  32.569  1.00  0.00     0.044 C 
BRANCH   7   9
ATOM      9  O   UNL A   1      34.837  34.237  34.395  1.00  0.00    -0.388 OA
ATOM     10  H   UNL A   1      34.711  33.318  34.681  1.00  0.00     0.211 HD
ENDBRANCH   7   9
BRANCH   7  11
ATOM     11  C   UNL A   1      36.233  34.944  32.499  1.00  0.00     0.151 C 
BRANCH  11  12
ATOM     12  N   UNL A   1      37.657  34.717  33.051  1.00  0.00    -0.349 N 
ATOM     13  C   UNL A   1      38.539  34.071  33.951  1.00  0.00     0.253 C 
ATOM     14  H   UNL A   1      38.232  35.312  32.517  1.00  0.00     0.163 HD
ATOM     15  O   UNL A   1      39.687  33.984  33.473  1.00  0.00    -0.269 OA
BRANCH  13  16
ATOM     16  C   UNL A   1      38.471  33.545  35.408  1.00  0.00     0.062 A 
ATOM     17  C   UNL A   1      38.091  32.266  35.862  1.00  0.00     0.017 A 
ATOM     18  C   UNL A   1      38.973  34.362  36.443  1.00  0.00     0.045 A 
ATOM     19  C   UNL A   1      37.864  31.919  37.206  1.00  0.00     0.016 A 
ATOM     20  C   UNL A   1      38.704  34.054  37.804  1.00  0.00     0.042 A 
ATOM     21  C   UNL A   1      38.107  32.857  38.177  1.00  0.00     0.020 A 
ATOM     22  Br  UNL A   1      37.652  32.494  39.972  1.00  0.00    -0.051 Br
BRANCH  18  23
ATOM     23  N   UNL A   1      39.651  35.554  36.177  1.00  0.00    -0.398 N 
ATOM     24  H   UNL A   1      40.186  35.644  35.356  1.00  0.00     0.156 HD
ATOM     25  H   UNL A   1      39.592  36.306  36.811  1.00  0.00     0.156 HD
ENDBRANCH  18  23
ENDBRANCH  13  16
ENDBRANCH  11  12
ENDBRANCH   7  11
ENDBRANCH   6   7
ENDBRANCH   3   6
ENDBRANCH   1   2
BRANCH   1  26
ATOM     26  C   UNL A   1      33.346  35.911  29.124  1.00  0.00     0.023 C 
BRANCH  26  27
ATOM     27  C   UNL A   1      34.419  34.834  28.539  1.00  0.00     0.023 C 
BRANCH  27  28
ATOM     28  C   UNL A   1      34.643  33.310  28.858  1.00  0.00     0.116 C 
BRANCH  28  29
ATOM     29  N   UNL A   1      33.969  32.355  27.996  1.00  0.00    -0.352 N 
ATOM     30  C   UNL A   1      34.339  31.068  27.651  1.00  0.00     0.251 C 
ATOM     31  H   UNL A   1      33.125  32.670  27.599  1.00  0.00     0.163 HD
ATOM     32  O   UNL A   1      33.632  30.461  26.837  1.00  0.00    -0.269 OA
BRANCH  30  33
ATOM     33  C   UNL A   1      35.581  30.413  28.153  1.00  0.00     0.039 A 
ATOM     34  C   UNL A   1      35.645  29.729  29.368  1.00  0.00     0.014 A 
ATOM     35  C   UNL A   1      36.712  30.412  27.323  1.00  0.00     0.014 A 
ATOM     36  C   UNL A   1      36.862  29.166  29.800  1.00  0.00     0.010 A 
ATOM     37  C   UNL A   1      37.917  29.816  27.739  1.00  0.00     0.010 A 
ATOM     38  C   UNL A   1      38.025  29.231  29.010  1.00  0.00    -0.014 A 
BRANCH  38  39
ATOM     39  C   UNL A   1      39.340  28.728  29.527  1.00  0.00     0.031 A 
ATOM     40  C   UNL A   1      39.940  29.308  30.791  1.00  0.00     0.074 A 
ATOM     41  C   UNL A   1      39.996  27.733  28.894  1.00  0.00     0.049 A 
ATOM     42  N   UNL A   1      41.031  28.958  31.428  1.00  0.00    -0.248 NA
ATOM     43  C   UNL A   1      39.225  30.431  31.418  1.00  0.00     0.031 C 
ATOM     44  C   UNL A   1      39.549  27.097  27.657  1.00  0.00     0.029 A 
ATOM     45  N   UNL A   1      41.163  27.069  29.204  1.00  0.00    -0.354 N 
ATOM     46  C   UNL A   1      41.136  29.819  32.518  1.00  0.00     0.074 A 
ATOM     47  C   UNL A   1      40.026  30.739  32.431  1.00  0.00     0.031 C 
ATOM     48  C   UNL A   1      40.397  26.106  27.341  1.00  0.00     0.029 A 
ATOM     49  C   UNL A   1      41.482  26.060  28.321  1.00  0.00     0.049 A 
ATOM     50  H   UNL A   1      41.718  27.294  29.985  1.00  0.00     0.167 HD
ATOM     51  C   UNL A   1      42.060  29.828  33.511  1.00  0.00     0.034 A 
ATOM     52  C   UNL A   1      42.519  25.192  28.296  1.00  0.00     0.034 A 
ATOM     53  C   UNL A   1      43.149  28.888  33.609  1.00  0.00     0.049 A 
ATOM     54  C   UNL A   1      43.541  25.228  29.409  1.00  0.00     0.074 A 
ATOM     55  C   UNL A   1      44.098  28.786  34.613  1.00  0.00     0.029 A 
ATOM     56  N   UNL A   1      43.440  27.893  32.687  1.00  0.00    -0.354 N 
ATOM     57  N   UNL A   1      43.573  25.994  30.474  1.00  0.00    -0.248 NA
ATOM     58  C   UNL A   1      44.661  24.277  29.329  1.00  0.00     0.031 C 
ATOM     59  C   UNL A   1      45.008  27.793  34.257  1.00  0.00     0.029 A 
ATOM     60  C   UNL A   1      44.573  27.200  33.083  1.00  0.00     0.049 A 
ATOM     61  H   UNL A   1      42.919  27.708  31.872  1.00  0.00     0.167 HD
ATOM     62  C   UNL A   1      44.689  25.592  31.207  1.00  0.00     0.074 A 
ATOM     63  C   UNL A   1      45.294  24.502  30.474  1.00  0.00     0.031 C 
ATOM     64  C   UNL A   1      45.162  26.087  32.377  1.00  0.00     0.034 A 
BRANCH  51  65
ATOM     65  C   UNL A   1      41.953  30.864  34.610  1.00  0.00     0.023 A 
ATOM     66  C   UNL A   1      42.530  32.138  34.432  1.00  0.00     0.031 A 
ATOM     67  C   UNL A   1      41.446  30.540  35.881  1.00  0.00     0.131 A 
ATOM     68  C   UNL A   1      42.634  33.016  35.518  1.00  0.00     0.055 A 
ATOM     69  C   UNL A   1      41.504  31.441  36.947  1.00  0.00     0.041 A 
ATOM     70  F   UNL A   1      40.893  29.337  36.110  1.00  0.00    -0.206 F 
ATOM     71  C   UNL A   1      42.117  32.678  36.772  1.00  0.00     0.022 A 
BRANCH  68  72
ATOM     72  S   UNL A   1      43.524  34.591  35.371  1.00  0.00     0.124 S 
ATOM     73  O   UNL A   1      44.369  34.350  34.204  1.00  0.00    -0.237 OA
ATOM     74  O   UNL A   1      42.433  35.539  35.165  1.00  0.00    -0.237 OA
ATOM     75  O   UNL A   1      44.236  34.712  36.639  1.00  0.00    -0.744 OA
ENDBRANCH  68  72
ENDBRANCH  51  65
BRANCH  52  76
ATOM     76  C   UNL A   1      42.592  24.168  27.208  1.00  0.00     0.023 A 
ATOM     77  C   UNL A   1      41.901  22.947  27.311  1.00  0.00     0.031 A 
ATOM     78  C   UNL A   1      43.429  24.355  26.093  1.00  0.00     0.131 A 
ATOM     79  C   UNL A   1      42.119  21.937  26.364  1.00  0.00     0.055 A 
ATOM     80  C   UNL A   1      43.580  23.376  25.108  1.00  0.00     0.041 A 
ATOM     81  F   UNL A   1      44.118  25.498  25.948  1.00  0.00    -0.206 F 
ATOM     82  C   UNL A   1      42.939  22.151  25.253  1.00  0.00     0.022 A 
BRANCH  79  83
ATOM     83  S   UNL A   1      41.459  20.266  26.622  1.00  0.00     0.124 S 
ATOM     84  O   UNL A   1      42.209  19.819  27.793  1.00  0.00    -0.237 OA
ATOM     85  O   UNL A   1      40.041  20.540  26.851  1.00  0.00    -0.237 OA
ATOM     86  O   UNL A   1      41.764  19.578  25.376  1.00  0.00    -0.744 OA
ENDBRANCH  79  83
ENDBRANCH  52  76
BRANCH  64  87
ATOM     87  C   UNL A   1      46.387  25.458  33.006  1.00  0.00     0.023 A 
ATOM     88  C   UNL A   1      47.657  25.689  32.440  1.00  0.00     0.031 A 
ATOM     89  C   UNL A   1      46.286  24.502  34.032  1.00  0.00     0.131 A 
ATOM     90  C   UNL A   1      48.761  24.937  32.860  1.00  0.00     0.055 A 
ATOM     91  C   UNL A   1      47.403  23.798  34.490  1.00  0.00     0.041 A 
ATOM     92  F   UNL A   1      45.099  24.228  34.595  1.00  0.00    -0.206 F 
ATOM     93  C   UNL A   1      48.643  24.000  33.890  1.00  0.00     0.022 A 
BRANCH  90  94
ATOM     94  S   UNL A   1      50.361  25.063  32.011  1.00  0.00     0.124 S 
ATOM     95  O   UNL A   1      51.052  26.067  32.816  1.00  0.00    -0.237 OA
ATOM     96  O   UNL A   1      50.878  23.703  32.129  1.00  0.00    -0.237 OA
ATOM     97  O   UNL A   1      50.009  25.487  30.658  1.00  0.00    -0.744 OA
ENDBRANCH  90  94
ENDBRANCH  64  87
ENDBRANCH  38  39
ENDBRANCH  30  33
ENDBRANCH  28  29
ENDBRANCH  27  28
ENDBRANCH  26  27
ENDBRANCH   1  26
TORSDOF 20
ENDMDL
