MODEL 1
REMARK VINA RESULT:     -11.6      0.000      0.000
REMARK SMILES C[C@@H]1[C@H](C)CCC[C@H]1NC(=O)C[N@@H+]1CCC[C@@H]1C(=O)NCCCCNC(=O)c1ccc(-c2c3nc(c(-c4cc(S(=O)(=O)[O-])ccc4F)c4ccc([nH]4)c(-c4cc(S(=O)(=O)[O-])ccc4F)c4nc(c(-c5cc(S(=O)(=O)[O-])ccc5F)c5ccc2[nH]5)C=C4)C=C3)cc1
REMARK SMILES IDX 22 1 21 2 20 3 18 4 19 5 17 7 13 8 14 9 15 11 16 12 12 13
REMARK SMILES IDX 10 14 9 15 11 17 8 18 1 19 2 20 3 21 4 22 5 23 7 24 6 25
REMARK SMILES IDX 23 26 24 27 25 28 26 29 27 31 28 32 29 33 90 34 30 35 89 36
REMARK SMILES IDX 31 37 32 38 33 39 83 40 34 41 88 42 82 43 84 44 35 45 87 46
REMARK SMILES IDX 81 47 80 48 36 50 68 51 48 52 67 53 49 54 52 55 66 56 85 57
REMARK SMILES IDX 50 58 51 59 65 61 86 62 53 63 37 64 38 65 46 66 39 67 45 68
REMARK SMILES IDX 47 69 44 70 40 71 41 72 42 73 43 74 69 75 70 76 78 77 71 78
REMARK SMILES IDX 77 79 79 80 76 81 72 82 73 83 74 84 75 85 54 86 55 87 63 88
REMARK SMILES IDX 56 89 62 90 64 91 61 92 57 93 58 94 59 95 60 96
REMARK H PARENT 20 6 13 10 9 16 25 30 84 49 52 60
REMARK Flexibility Score: inf
ROOT
ATOM      1  C   UNL A   1      34.416  28.557  26.475  1.00  0.00     0.023 C 
ENDROOT
BRANCH   1   2
ATOM      2  C   UNL A   1      33.819  27.213  26.056  1.00  0.00     0.116 C 
BRANCH   2   3
ATOM      3  N   UNL A   1      33.613  27.216  24.635  1.00  0.00    -0.351 N 
ATOM      4  C   UNL A   1      32.464  27.001  23.956  1.00  0.00     0.278 C 
ATOM      5  O   UNL A   1      32.589  26.492  22.837  1.00  0.00    -0.268 OA
ATOM      6  H   UNL A   1      34.409  27.397  24.084  1.00  0.00     0.163 HD
BRANCH   4   7
ATOM      7  C   UNL A   1      31.084  27.433  24.488  1.00  0.00     0.274 C 
ATOM      8  N   UNL A   1      30.141  26.333  24.853  1.00  0.00    -0.317 N 
ATOM      9  C   UNL A   1      29.013  26.441  23.904  1.00  0.00     0.263 C 
ATOM     10  H   UNL A   1      29.918  26.480  25.837  1.00  0.00     0.349 HD
ATOM     11  C   UNL A   1      29.006  27.836  23.301  1.00  0.00     0.068 C 
ATOM     12  C   UNL A   1      30.314  28.481  23.700  1.00  0.00     0.081 C 
BRANCH   8  13
ATOM     13  C   UNL A   1      30.638  24.926  24.844  1.00  0.00     0.364 C 
BRANCH  13  14
ATOM     14  C   UNL A   1      31.405  24.300  26.027  1.00  0.00     0.275 C 
ATOM     15  N   UNL A   1      32.460  23.454  25.988  1.00  0.00    -0.348 N 
ATOM     16  H   UNL A   1      32.716  23.080  26.862  1.00  0.00     0.163 HD
ATOM     17  O   UNL A   1      30.962  24.510  27.171  1.00  0.00    -0.268 OA
BRANCH  15  18
ATOM     18  C   UNL A   1      33.275  23.006  24.884  1.00  0.00     0.085 C 
ATOM     19  C   UNL A   1      35.115  23.826  23.371  1.00  0.00     0.010 C 
ATOM     20  C   UNL A   1      34.626  23.749  24.829  1.00  0.00     0.011 C 
ATOM     21  C   UNL A   1      35.633  23.109  25.809  1.00  0.00    -0.009 C 
ATOM     22  C   UNL A   1      36.985  23.821  25.823  1.00  0.00     0.008 C 
ATOM     23  C   UNL A   1      35.797  21.609  25.544  1.00  0.00     0.004 C 
ATOM     24  C   UNL A   1      33.386  21.476  24.813  1.00  0.00     0.025 C 
ATOM     25  C   UNL A   1      34.465  20.887  25.710  1.00  0.00     0.002 C 
ENDBRANCH  15  18
ENDBRANCH  13  14
ENDBRANCH   8  13
ENDBRANCH   4   7
ENDBRANCH   2   3
ENDBRANCH   1   2
BRANCH   1  26
ATOM     26  C   UNL A   1      33.531  29.757  26.119  1.00  0.00     0.023 C 
BRANCH  26  27
ATOM     27  C   UNL A   1      32.877  30.424  27.321  1.00  0.00     0.116 C 
BRANCH  27  28
ATOM     28  N   UNL A   1      32.836  31.871  27.173  1.00  0.00    -0.352 N 
ATOM     29  C   UNL A   1      33.666  32.808  27.719  1.00  0.00     0.251 C 
ATOM     30  H   UNL A   1      32.112  32.221  26.603  1.00  0.00     0.163 HD
ATOM     31  O   UNL A   1      33.378  34.000  27.653  1.00  0.00    -0.269 OA
BRANCH  29  32
ATOM     32  C   UNL A   1      34.878  32.347  28.406  1.00  0.00     0.039 A 
ATOM     33  C   UNL A   1      34.797  31.216  29.215  1.00  0.00     0.014 A 
ATOM     34  C   UNL A   1      36.097  32.999  28.190  1.00  0.00     0.014 A 
ATOM     35  C   UNL A   1      35.959  30.716  29.789  1.00  0.00     0.010 A 
ATOM     36  C   UNL A   1      37.266  32.445  28.694  1.00  0.00     0.010 A 
ATOM     37  C   UNL A   1      37.204  31.309  29.513  1.00  0.00    -0.014 A 
BRANCH  37  38
ATOM     38  C   UNL A   1      38.440  30.745  30.102  1.00  0.00     0.031 A 
ATOM     39  C   UNL A   1      38.862  31.147  31.487  1.00  0.00     0.074 A 
ATOM     40  C   UNL A   1      39.163  29.864  29.385  1.00  0.00     0.049 A 
ATOM     41  N   UNL A   1      39.875  30.721  32.195  1.00  0.00    -0.248 NA
ATOM     42  C   UNL A   1      38.056  32.179  32.158  1.00  0.00     0.031 C 
ATOM     43  C   UNL A   1      38.866  29.447  28.011  1.00  0.00     0.029 A 
ATOM     44  N   UNL A   1      40.283  29.145  29.711  1.00  0.00    -0.354 N 
ATOM     45  C   UNL A   1      39.822  31.425  33.393  1.00  0.00     0.074 A 
ATOM     46  C   UNL A   1      38.728  32.363  33.284  1.00  0.00     0.031 C 
ATOM     47  C   UNL A   1      39.746  28.506  27.635  1.00  0.00     0.029 A 
ATOM     48  C   UNL A   1      40.695  28.283  28.720  1.00  0.00     0.049 A 
ATOM     49  H   UNL A   1      40.749  29.236  30.574  1.00  0.00     0.167 HD
ATOM     50  C   UNL A   1      40.593  31.273  34.498  1.00  0.00     0.034 A 
ATOM     51  C   UNL A   1      41.720  27.410  28.698  1.00  0.00     0.034 A 
ATOM     52  C   UNL A   1      41.680  30.330  34.585  1.00  0.00     0.049 A 
ATOM     53  C   UNL A   1      42.577  27.283  29.934  1.00  0.00     0.074 A 
ATOM     54  C   UNL A   1      42.516  30.074  35.657  1.00  0.00     0.029 A 
ATOM     55  N   UNL A   1      42.083  29.486  33.558  1.00  0.00    -0.354 N 
ATOM     56  N   UNL A   1      42.477  27.917  31.081  1.00  0.00    -0.248 NA
ATOM     57  C   UNL A   1      43.668  26.305  29.878  1.00  0.00     0.031 C 
ATOM     58  C   UNL A   1      43.466  29.129  35.256  1.00  0.00     0.029 A 
ATOM     59  C   UNL A   1      43.170  28.727  33.963  1.00  0.00     0.049 A 
ATOM     60  H   UNL A   1      41.658  29.434  32.670  1.00  0.00     0.167 HD
ATOM     61  C   UNL A   1      43.473  27.383  31.895  1.00  0.00     0.074 A 
ATOM     62  C   UNL A   1      44.132  26.354  31.117  1.00  0.00     0.031 C 
ATOM     63  C   UNL A   1      43.820  27.713  33.167  1.00  0.00     0.034 A 
BRANCH  50  64
ATOM     64  C   UNL A   1      40.290  32.156  35.684  1.00  0.00     0.023 A 
ATOM     65  C   UNL A   1      39.263  31.842  36.592  1.00  0.00     0.031 A 
ATOM     66  C   UNL A   1      41.030  33.330  35.909  1.00  0.00     0.131 A 
ATOM     67  C   UNL A   1      38.964  32.719  37.645  1.00  0.00     0.055 A 
ATOM     68  C   UNL A   1      40.780  34.159  37.005  1.00  0.00     0.041 A 
ATOM     69  F   UNL A   1      42.005  33.696  35.062  1.00  0.00    -0.206 F 
ATOM     70  C   UNL A   1      39.734  33.861  37.875  1.00  0.00     0.022 A 
BRANCH  67  71
ATOM     71  S   UNL A   1      37.476  32.413  38.635  1.00  0.00     0.124 S 
ATOM     72  O   UNL A   1      37.425  30.952  38.646  1.00  0.00    -0.237 OA
ATOM     73  O   UNL A   1      37.804  33.049  39.905  1.00  0.00    -0.237 OA
ATOM     74  O   UNL A   1      36.414  33.060  37.868  1.00  0.00    -0.744 OA
ENDBRANCH  67  71
ENDBRANCH  50  64
BRANCH  51  75
ATOM     75  C   UNL A   1      42.000  26.584  27.487  1.00  0.00     0.023 A 
ATOM     76  C   UNL A   1      41.621  25.233  27.428  1.00  0.00     0.031 A 
ATOM     77  C   UNL A   1      42.726  27.109  26.402  1.00  0.00     0.131 A 
ATOM     78  C   UNL A   1      42.036  24.434  26.352  1.00  0.00     0.055 A 
ATOM     79  C   UNL A   1      43.073  26.328  25.299  1.00  0.00     0.041 A 
ATOM     80  F   UNL A   1      43.110  28.395  26.401  1.00  0.00    -0.206 F 
ATOM     81  C   UNL A   1      42.748  24.976  25.279  1.00  0.00     0.022 A 
BRANCH  78  82
ATOM     82  S   UNL A   1      41.749  22.645  26.440  1.00  0.00     0.124 S 
ATOM     83  O   UNL A   1      42.396  22.304  27.702  1.00  0.00    -0.237 OA
ATOM     84  O   UNL A   1      40.292  22.572  26.424  1.00  0.00    -0.237 OA
ATOM     85  O   UNL A   1      42.410  22.137  25.240  1.00  0.00    -0.744 OA
ENDBRANCH  78  82
ENDBRANCH  51  75
BRANCH  63  86
ATOM     86  C   UNL A   1      44.935  26.908  33.794  1.00  0.00     0.023 A 
ATOM     87  C   UNL A   1      44.677  25.735  34.524  1.00  0.00     0.031 A 
ATOM     88  C   UNL A   1      46.265  27.356  33.713  1.00  0.00     0.131 A 
ATOM     89  C   UNL A   1      45.716  25.107  35.227  1.00  0.00     0.055 A 
ATOM     90  C   UNL A   1      47.308  26.676  34.343  1.00  0.00     0.041 A 
ATOM     91  F   UNL A   1      46.573  28.470  33.030  1.00  0.00    -0.206 F 
ATOM     92  C   UNL A   1      47.032  25.559  35.126  1.00  0.00     0.022 A 
BRANCH  89  93
ATOM     93  S   UNL A   1      45.291  23.790  36.401  1.00  0.00     0.124 S 
ATOM     94  O   UNL A   1      46.606  23.365  36.867  1.00  0.00    -0.237 OA
ATOM     95  O   UNL A   1      44.467  24.497  37.376  1.00  0.00    -0.237 OA
ATOM     96  O   UNL A   1      44.578  22.816  35.577  1.00  0.00    -0.744 OA
ENDBRANCH  89  93
ENDBRANCH  63  86
ENDBRANCH  37  38
ENDBRANCH  29  32
ENDBRANCH  27  28
ENDBRANCH  26  27
ENDBRANCH   1  26
TORSDOF 17
ENDMDL
MODEL 2
REMARK VINA RESULT:     -11.5      2.079      7.890
REMARK SMILES C[C@@H]1[C@H](C)CCC[C@H]1NC(=O)C[N@@H+]1CCC[C@@H]1C(=O)NCCCCNC(=O)c1ccc(-c2c3nc(c(-c4cc(S(=O)(=O)[O-])ccc4F)c4ccc([nH]4)c(-c4cc(S(=O)(=O)[O-])ccc4F)c4nc(c(-c5cc(S(=O)(=O)[O-])ccc5F)c5ccc2[nH]5)C=C4)C=C3)cc1
REMARK SMILES IDX 22 1 21 2 20 3 18 4 19 5 17 7 13 8 14 9 15 11 16 12 12 13
REMARK SMILES IDX 10 14 9 15 11 17 8 18 1 19 2 20 3 21 4 22 5 23 7 24 6 25
REMARK SMILES IDX 23 26 24 27 25 28 26 29 27 31 28 32 29 33 90 34 30 35 89 36
REMARK SMILES IDX 31 37 32 38 33 39 83 40 34 41 88 42 82 43 84 44 35 45 87 46
REMARK SMILES IDX 81 47 80 48 36 50 68 51 48 52 67 53 49 54 52 55 66 56 85 57
REMARK SMILES IDX 50 58 51 59 65 61 86 62 53 63 37 64 38 65 46 66 39 67 45 68
REMARK SMILES IDX 47 69 44 70 40 71 41 72 42 73 43 74 69 75 70 76 78 77 71 78
REMARK SMILES IDX 77 79 79 80 76 81 72 82 73 83 74 84 75 85 54 86 55 87 63 88
REMARK SMILES IDX 56 89 62 90 64 91 61 92 57 93 58 94 59 95 60 96
REMARK H PARENT 20 6 13 10 9 16 25 30 84 49 52 60
REMARK Flexibility Score: inf
ROOT
ATOM      1  C   UNL A   1      32.005  30.154  26.860  1.00  0.00     0.023 C 
ENDROOT
BRANCH   1   2
ATOM      2  C   UNL A   1      33.329  29.647  26.288  1.00  0.00     0.116 C 
BRANCH   2   3
ATOM      3  N   UNL A   1      33.285  29.737  24.855  1.00  0.00    -0.351 N 
ATOM      4  C   UNL A   1      32.443  29.111  24.003  1.00  0.00     0.278 C 
ATOM      5  O   UNL A   1      32.901  28.864  22.882  1.00  0.00    -0.268 OA
ATOM      6  H   UNL A   1      33.953  30.330  24.440  1.00  0.00     0.163 HD
BRANCH   4   7
ATOM      7  C   UNL A   1      30.977  28.795  24.356  1.00  0.00     0.274 C 
ATOM      8  N   UNL A   1      30.670  27.374  24.701  1.00  0.00    -0.317 N 
ATOM      9  C   UNL A   1      29.770  26.888  23.634  1.00  0.00     0.263 C 
ATOM     10  H   UNL A   1      30.282  27.398  25.643  1.00  0.00     0.349 HD
ATOM     11  C   UNL A   1      29.144  28.083  22.933  1.00  0.00     0.068 C 
ATOM     12  C   UNL A   1      29.893  29.304  23.418  1.00  0.00     0.081 C 
BRANCH   8  13
ATOM     13  C   UNL A   1      31.800  26.408  24.845  1.00  0.00     0.364 C 
BRANCH  13  14
ATOM     14  C   UNL A   1      31.964  25.487  26.072  1.00  0.00     0.275 C 
ATOM     15  N   UNL A   1      32.489  24.241  26.119  1.00  0.00    -0.348 N 
ATOM     16  H   UNL A   1      32.383  23.786  26.986  1.00  0.00     0.163 HD
ATOM     17  O   UNL A   1      31.477  25.876  27.149  1.00  0.00    -0.268 OA
BRANCH  15  18
ATOM     18  C   UNL A   1      33.181  23.465  25.117  1.00  0.00     0.085 C 
ATOM     19  C   UNL A   1      35.071  23.670  23.464  1.00  0.00     0.010 C 
ATOM     20  C   UNL A   1      34.630  23.952  24.912  1.00  0.00     0.011 C 
ATOM     21  C   UNL A   1      35.558  23.352  25.992  1.00  0.00    -0.009 C 
ATOM     22  C   UNL A   1      37.006  23.821  25.860  1.00  0.00     0.008 C 
ATOM     23  C   UNL A   1      35.468  21.823  26.019  1.00  0.00     0.004 C 
ATOM     24  C   UNL A   1      33.043  21.952  25.342  1.00  0.00     0.025 C 
ATOM     25  C   UNL A   1      34.045  21.374  26.329  1.00  0.00     0.002 C 
ENDBRANCH  15  18
ENDBRANCH  13  14
ENDBRANCH   8  13
ENDBRANCH   4   7
ENDBRANCH   2   3
ENDBRANCH   1   2
BRANCH   1  26
ATOM     26  C   UNL A   1      31.859  31.679  26.805  1.00  0.00     0.023 C 
BRANCH  26  27
ATOM     27  C   UNL A   1      33.094  32.437  27.271  1.00  0.00     0.116 C 
BRANCH  27  28
ATOM     28  N   UNL A   1      32.774  33.811  27.630  1.00  0.00    -0.352 N 
ATOM     29  C   UNL A   1      33.253  34.554  28.670  1.00  0.00     0.251 C 
ATOM     30  H   UNL A   1      32.125  34.265  27.044  1.00  0.00     0.163 HD
ATOM     31  O   UNL A   1      32.736  35.632  28.948  1.00  0.00    -0.269 OA
BRANCH  29  32
ATOM     32  C   UNL A   1      34.369  34.012  29.456  1.00  0.00     0.039 A 
ATOM     33  C   UNL A   1      34.084  33.148  30.510  1.00  0.00     0.014 A 
ATOM     34  C   UNL A   1      35.688  34.314  29.100  1.00  0.00     0.014 A 
ATOM     35  C   UNL A   1      35.137  32.554  31.195  1.00  0.00     0.010 A 
ATOM     36  C   UNL A   1      36.733  33.651  29.729  1.00  0.00     0.010 A 
ATOM     37  C   UNL A   1      36.467  32.779  30.794  1.00  0.00    -0.014 A 
BRANCH  37  38
ATOM     38  C   UNL A   1      37.579  32.112  31.509  1.00  0.00     0.031 A 
ATOM     39  C   UNL A   1      38.317  30.978  30.855  1.00  0.00     0.074 A 
ATOM     40  C   UNL A   1      37.920  32.546  32.738  1.00  0.00     0.049 A 
ATOM     41  N   UNL A   1      39.351  30.309  31.294  1.00  0.00    -0.248 NA
ATOM     42  C   UNL A   1      37.817  30.519  29.550  1.00  0.00     0.031 C 
ATOM     43  C   UNL A   1      37.232  33.606  33.481  1.00  0.00     0.029 A 
ATOM     44  N   UNL A   1      38.938  32.167  33.572  1.00  0.00    -0.354 N 
ATOM     45  C   UNL A   1      39.629  29.359  30.316  1.00  0.00     0.074 A 
ATOM     46  C   UNL A   1      38.605  29.485  29.303  1.00  0.00     0.031 C 
ATOM     47  C   UNL A   1      37.882  33.831  34.633  1.00  0.00     0.029 A 
ATOM     48  C   UNL A   1      39.004  32.903  34.733  1.00  0.00     0.049 A 
ATOM     49  H   UNL A   1      39.565  31.437  33.361  1.00  0.00     0.167 HD
ATOM     50  C   UNL A   1      40.666  28.489  30.253  1.00  0.00     0.034 A 
ATOM     51  C   UNL A   1      39.877  32.838  35.757  1.00  0.00     0.034 A 
ATOM     52  C   UNL A   1      41.676  28.381  31.276  1.00  0.00     0.049 A 
ATOM     53  C   UNL A   1      41.006  31.840  35.670  1.00  0.00     0.074 A 
ATOM     54  C   UNL A   1      42.782  27.551  31.311  1.00  0.00     0.029 A 
ATOM     55  N   UNL A   1      41.703  29.127  32.447  1.00  0.00    -0.354 N 
ATOM     56  N   UNL A   1      41.286  30.986  34.709  1.00  0.00    -0.248 NA
ATOM     57  C   UNL A   1      41.948  31.815  36.793  1.00  0.00     0.031 C 
ATOM     58  C   UNL A   1      43.437  27.746  32.532  1.00  0.00     0.029 A 
ATOM     59  C   UNL A   1      42.793  28.760  33.222  1.00  0.00     0.049 A 
ATOM     60  H   UNL A   1      41.044  29.817  32.692  1.00  0.00     0.167 HD
ATOM     61  C   UNL A   1      42.461  30.351  35.102  1.00  0.00     0.074 A 
ATOM     62  C   UNL A   1      42.850  30.947  36.363  1.00  0.00     0.031 C 
ATOM     63  C   UNL A   1      43.157  29.361  34.483  1.00  0.00     0.034 A 
BRANCH  50  64
ATOM     64  C   UNL A   1      40.742  27.585  29.047  1.00  0.00     0.023 A 
ATOM     65  C   UNL A   1      41.676  27.806  28.019  1.00  0.00     0.031 A 
ATOM     66  C   UNL A   1      39.869  26.491  28.916  1.00  0.00     0.131 A 
ATOM     67  C   UNL A   1      41.675  26.987  26.880  1.00  0.00     0.055 A 
ATOM     68  C   UNL A   1      39.926  25.631  27.817  1.00  0.00     0.041 A 
ATOM     69  F   UNL A   1      38.938  26.244  29.851  1.00  0.00    -0.206 F 
ATOM     70  C   UNL A   1      40.825  25.883  26.785  1.00  0.00     0.022 A 
BRANCH  67  71
ATOM     71  S   UNL A   1      42.714  27.458  25.470  1.00  0.00     0.124 S 
ATOM     72  O   UNL A   1      42.687  26.240  24.664  1.00  0.00    -0.237 OA
ATOM     73  O   UNL A   1      41.998  28.603  24.919  1.00  0.00    -0.237 OA
ATOM     74  O   UNL A   1      44.005  27.764  26.082  1.00  0.00    -0.744 OA
ENDBRANCH  67  71
ENDBRANCH  50  64
BRANCH  51  75
ATOM     75  C   UNL A   1      39.737  33.730  36.945  1.00  0.00     0.023 A 
ATOM     76  C   UNL A   1      39.160  33.262  38.137  1.00  0.00     0.031 A 
ATOM     77  C   UNL A   1      40.102  35.087  36.882  1.00  0.00     0.131 A 
ATOM     78  C   UNL A   1      38.890  34.157  39.184  1.00  0.00     0.055 A 
ATOM     79  C   UNL A   1      39.898  35.957  37.953  1.00  0.00     0.041 A 
ATOM     80  F   UNL A   1      40.663  35.588  35.770  1.00  0.00    -0.206 F 
ATOM     81  C   UNL A   1      39.268  35.499  39.106  1.00  0.00     0.022 A 
BRANCH  78  82
ATOM     82  S   UNL A   1      37.914  33.570  40.596  1.00  0.00     0.124 S 
ATOM     83  O   UNL A   1      38.870  32.702  41.275  1.00  0.00    -0.237 OA
ATOM     84  O   UNL A   1      37.583  34.818  41.275  1.00  0.00    -0.237 OA
ATOM     85  O   UNL A   1      36.786  32.886  39.967  1.00  0.00    -0.744 OA
ENDBRANCH  78  82
ENDBRANCH  51  75
BRANCH  63  86
ATOM     86  C   UNL A   1      44.432  28.907  35.156  1.00  0.00     0.023 A 
ATOM     87  C   UNL A   1      44.424  27.940  36.175  1.00  0.00     0.031 A 
ATOM     88  C   UNL A   1      45.663  29.496  34.814  1.00  0.00     0.131 A 
ATOM     89  C   UNL A   1      45.601  27.665  36.886  1.00  0.00     0.055 A 
ATOM     90  C   UNL A   1      46.847  29.153  35.467  1.00  0.00     0.041 A 
ATOM     91  F   UNL A   1      45.732  30.426  33.848  1.00  0.00    -0.206 F 
ATOM     92  C   UNL A   1      46.816  28.251  36.527  1.00  0.00     0.022 A 
BRANCH  89  93
ATOM     93  S   UNL A   1      45.486  26.653  38.388  1.00  0.00     0.124 S 
ATOM     94  O   UNL A   1      44.081  26.807  38.749  1.00  0.00    -0.237 OA
ATOM     95  O   UNL A   1      45.879  25.334  37.905  1.00  0.00    -0.237 OA
ATOM     96  O   UNL A   1      46.436  27.288  39.300  1.00  0.00    -0.744 OA
ENDBRANCH  89  93
ENDBRANCH  63  86
ENDBRANCH  37  38
ENDBRANCH  29  32
ENDBRANCH  27  28
ENDBRANCH  26  27
ENDBRANCH   1  26
TORSDOF 17
ENDMDL
MODEL 3
REMARK VINA RESULT:     -11.4      4.830      9.913
REMARK SMILES C[C@@H]1[C@H](C)CCC[C@H]1NC(=O)C[N@@H+]1CCC[C@@H]1C(=O)NCCCCNC(=O)c1ccc(-c2c3nc(c(-c4cc(S(=O)(=O)[O-])ccc4F)c4ccc([nH]4)c(-c4cc(S(=O)(=O)[O-])ccc4F)c4nc(c(-c5cc(S(=O)(=O)[O-])ccc5F)c5ccc2[nH]5)C=C4)C=C3)cc1
REMARK SMILES IDX 22 1 21 2 20 3 18 4 19 5 17 7 13 8 14 9 15 11 16 12 12 13
REMARK SMILES IDX 10 14 9 15 11 17 8 18 1 19 2 20 3 21 4 22 5 23 7 24 6 25
REMARK SMILES IDX 23 26 24 27 25 28 26 29 27 31 28 32 29 33 90 34 30 35 89 36
REMARK SMILES IDX 31 37 32 38 33 39 83 40 34 41 88 42 82 43 84 44 35 45 87 46
REMARK SMILES IDX 81 47 80 48 36 50 68 51 48 52 67 53 49 54 52 55 66 56 85 57
REMARK SMILES IDX 50 58 51 59 65 61 86 62 53 63 37 64 38 65 46 66 39 67 45 68
REMARK SMILES IDX 47 69 44 70 40 71 41 72 42 73 43 74 69 75 70 76 78 77 71 78
REMARK SMILES IDX 77 79 79 80 76 81 72 82 73 83 74 84 75 85 54 86 55 87 63 88
REMARK SMILES IDX 56 89 62 90 64 91 61 92 57 93 58 94 59 95 60 96
REMARK H PARENT 20 6 13 10 9 16 25 30 84 49 52 60
REMARK Flexibility Score: inf
ROOT
ATOM      1  C   UNL A   1      36.766  23.236  23.921  1.00  0.00     0.023 C 
ENDROOT
BRANCH   1   2
ATOM      2  C   UNL A   1      35.361  23.452  24.482  1.00  0.00     0.116 C 
BRANCH   2   3
ATOM      3  N   UNL A   1      34.688  24.445  23.692  1.00  0.00    -0.351 N 
ATOM      4  C   UNL A   1      33.574  25.145  23.998  1.00  0.00     0.278 C 
ATOM      5  O   UNL A   1      32.869  25.479  23.040  1.00  0.00    -0.268 OA
ATOM      6  H   UNL A   1      35.090  24.641  22.814  1.00  0.00     0.163 HD
BRANCH   4   7
ATOM      7  C   UNL A   1      33.230  25.583  25.435  1.00  0.00     0.274 C 
ATOM      8  N   UNL A   1      31.966  25.032  26.011  1.00  0.00    -0.317 N 
ATOM      9  C   UNL A   1      31.075  26.194  26.207  1.00  0.00     0.263 C 
ATOM     10  H   UNL A   1      32.245  24.530  26.853  1.00  0.00     0.349 HD
ATOM     11  C   UNL A   1      31.913  27.462  26.224  1.00  0.00     0.068 C 
ATOM     12  C   UNL A   1      33.297  27.066  25.763  1.00  0.00     0.081 C 
BRANCH   8  13
ATOM     13  C   UNL A   1      31.223  23.986  25.247  1.00  0.00     0.364 C 
BRANCH  13  14
ATOM     14  C   UNL A   1      30.902  22.593  25.828  1.00  0.00     0.275 C 
ATOM     15  N   UNL A   1      31.505  21.413  25.555  1.00  0.00    -0.348 N 
ATOM     16  H   UNL A   1      31.059  20.627  25.946  1.00  0.00     0.163 HD
ATOM     17  O   UNL A   1      29.910  22.498  26.573  1.00  0.00    -0.268 OA
BRANCH  15  18
ATOM     18  C   UNL A   1      32.691  21.109  24.790  1.00  0.00     0.085 C 
ATOM     19  C   UNL A   1      34.751  19.662  24.895  1.00  0.00     0.010 C 
ATOM     20  C   UNL A   1      33.225  19.694  25.097  1.00  0.00     0.011 C 
ATOM     21  C   UNL A   1      32.449  18.637  24.280  1.00  0.00    -0.009 C 
ATOM     22  C   UNL A   1      32.912  17.209  24.563  1.00  0.00     0.008 C 
ATOM     23  C   UNL A   1      32.487  18.948  22.781  1.00  0.00     0.004 C 
ATOM     24  C   UNL A   1      32.526  21.417  23.295  1.00  0.00     0.025 C 
ATOM     25  C   UNL A   1      31.857  20.307  22.499  1.00  0.00     0.002 C 
ENDBRANCH  15  18
ENDBRANCH  13  14
ENDBRANCH   8  13
ENDBRANCH   4   7
ENDBRANCH   2   3
ENDBRANCH   1   2
BRANCH   1  26
ATOM     26  C   UNL A   1      37.361  21.867  24.272  1.00  0.00     0.023 C 
BRANCH  26  27
ATOM     27  C   UNL A   1      37.707  21.701  25.746  1.00  0.00     0.116 C 
BRANCH  27  28
ATOM     28  N   UNL A   1      38.788  20.745  25.936  1.00  0.00    -0.352 N 
ATOM     29  C   UNL A   1      40.072  20.980  26.337  1.00  0.00     0.251 C 
ATOM     30  H   UNL A   1      38.564  19.805  25.751  1.00  0.00     0.163 HD
ATOM     31  O   UNL A   1      40.915  20.091  26.261  1.00  0.00    -0.269 OA
BRANCH  29  32
ATOM     32  C   UNL A   1      40.414  22.322  26.824  1.00  0.00     0.039 A 
ATOM     33  C   UNL A   1      41.202  22.436  27.967  1.00  0.00     0.014 A 
ATOM     34  C   UNL A   1      40.008  23.453  26.107  1.00  0.00     0.014 A 
ATOM     35  C   UNL A   1      41.612  23.699  28.377  1.00  0.00     0.010 A 
ATOM     36  C   UNL A   1      40.492  24.702  26.470  1.00  0.00     0.010 A 
ATOM     37  C   UNL A   1      41.284  24.837  27.620  1.00  0.00    -0.014 A 
BRANCH  37  38
ATOM     38  C   UNL A   1      41.757  26.173  28.047  1.00  0.00     0.031 A 
ATOM     39  C   UNL A   1      43.170  26.596  27.759  1.00  0.00     0.074 A 
ATOM     40  C   UNL A   1      40.902  26.998  28.681  1.00  0.00     0.049 A 
ATOM     41  N   UNL A   1      43.751  27.743  28.000  1.00  0.00    -0.248 NA
ATOM     42  C   UNL A   1      44.054  25.596  27.140  1.00  0.00     0.031 C 
ATOM     43  C   UNL A   1      39.524  26.663  29.054  1.00  0.00     0.029 A 
ATOM     44  N   UNL A   1      41.052  28.292  29.108  1.00  0.00    -0.354 N 
ATOM     45  C   UNL A   1      45.062  27.603  27.555  1.00  0.00     0.074 A 
ATOM     46  C   UNL A   1      45.211  26.236  27.106  1.00  0.00     0.031 C 
ATOM     47  C   UNL A   1      38.940  27.740  29.601  1.00  0.00     0.029 A 
ATOM     48  C   UNL A   1      39.910  28.828  29.659  1.00  0.00     0.049 A 
ATOM     49  H   UNL A   1      41.897  28.791  29.027  1.00  0.00     0.167 HD
ATOM     50  C   UNL A   1      46.038  28.541  27.491  1.00  0.00     0.034 A 
ATOM     51  C   UNL A   1      39.677  30.061  30.149  1.00  0.00     0.034 A 
ATOM     52  C   UNL A   1      45.865  29.899  27.945  1.00  0.00     0.049 A 
ATOM     53  C   UNL A   1      40.792  31.076  30.088  1.00  0.00     0.074 A 
ATOM     54  C   UNL A   1      46.775  30.941  27.913  1.00  0.00     0.029 A 
ATOM     55  N   UNL A   1      44.704  30.404  28.515  1.00  0.00    -0.354 N 
ATOM     56  N   UNL A   1      42.010  30.943  29.611  1.00  0.00    -0.248 NA
ATOM     57  C   UNL A   1      40.491  32.413  30.610  1.00  0.00     0.031 C 
ATOM     58  C   UNL A   1      46.188  32.053  28.525  1.00  0.00     0.029 A 
ATOM     59  C   UNL A   1      44.882  31.735  28.860  1.00  0.00     0.049 A 
ATOM     60  H   UNL A   1      43.874  29.892  28.654  1.00  0.00     0.167 HD
ATOM     61  C   UNL A   1      42.605  32.194  29.744  1.00  0.00     0.074 A 
ATOM     62  C   UNL A   1      41.600  33.070  30.309  1.00  0.00     0.031 C 
ATOM     63  C   UNL A   1      43.868  32.588  29.434  1.00  0.00     0.034 A 
BRANCH  50  64
ATOM     64  C   UNL A   1      47.372  28.120  26.925  1.00  0.00     0.023 A 
ATOM     65  C   UNL A   1      47.578  28.000  25.539  1.00  0.00     0.031 A 
ATOM     66  C   UNL A   1      48.450  27.826  27.778  1.00  0.00     0.131 A 
ATOM     67  C   UNL A   1      48.810  27.541  25.050  1.00  0.00     0.055 A 
ATOM     68  C   UNL A   1      49.699  27.446  27.281  1.00  0.00     0.041 A 
ATOM     69  F   UNL A   1      48.306  27.896  29.111  1.00  0.00    -0.206 F 
ATOM     70  C   UNL A   1      49.881  27.290  25.910  1.00  0.00     0.022 A 
BRANCH  67  71
ATOM     71  S   UNL A   1      48.954  27.156  23.284  1.00  0.00     0.124 S 
ATOM     72  O   UNL A   1      48.315  25.843  23.216  1.00  0.00    -0.237 OA
ATOM     73  O   UNL A   1      48.225  28.254  22.660  1.00  0.00    -0.237 OA
ATOM     74  O   UNL A   1      50.397  27.151  23.050  1.00  0.00    -0.744 OA
ENDBRANCH  67  71
ENDBRANCH  50  64
BRANCH  51  75
ATOM     75  C   UNL A   1      38.350  30.418  30.731  1.00  0.00     0.023 A 
ATOM     76  C   UNL A   1      37.375  31.075  29.962  1.00  0.00     0.031 A 
ATOM     77  C   UNL A   1      38.067  30.184  32.089  1.00  0.00     0.131 A 
ATOM     78  C   UNL A   1      36.202  31.545  30.571  1.00  0.00     0.055 A 
ATOM     79  C   UNL A   1      36.866  30.590  32.673  1.00  0.00     0.041 A 
ATOM     80  F   UNL A   1      38.958  29.556  32.871  1.00  0.00    -0.206 F 
ATOM     81  C   UNL A   1      35.933  31.295  31.919  1.00  0.00     0.022 A 
BRANCH  78  82
ATOM     82  S   UNL A   1      35.092  32.609  29.607  1.00  0.00     0.124 S 
ATOM     83  O   UNL A   1      34.230  33.157  30.649  1.00  0.00    -0.237 OA
ATOM     84  O   UNL A   1      36.029  33.542  28.990  1.00  0.00    -0.237 OA
ATOM     85  O   UNL A   1      34.445  31.677  28.686  1.00  0.00    -0.744 OA
ENDBRANCH  78  82
ENDBRANCH  51  75
BRANCH  63  86
ATOM     86  C   UNL A   1      44.198  34.045  29.664  1.00  0.00     0.023 A 
ATOM     87  C   UNL A   1      43.976  35.017  28.673  1.00  0.00     0.031 A 
ATOM     88  C   UNL A   1      44.800  34.455  30.867  1.00  0.00     0.131 A 
ATOM     89  C   UNL A   1      44.445  36.325  28.861  1.00  0.00     0.055 A 
ATOM     90  C   UNL A   1      45.184  35.779  31.082  1.00  0.00     0.041 A 
ATOM     91  F   UNL A   1      45.037  33.572  31.850  1.00  0.00    -0.206 F 
ATOM     92  C   UNL A   1      45.030  36.718  30.066  1.00  0.00     0.022 A 
BRANCH  89  93
ATOM     93  S   UNL A   1      44.422  37.462  27.446  1.00  0.00     0.124 S 
ATOM     94  O   UNL A   1      43.159  37.117  26.802  1.00  0.00    -0.237 OA
ATOM     95  O   UNL A   1      44.470  38.767  28.095  1.00  0.00    -0.237 OA
ATOM     96  O   UNL A   1      45.623  37.097  26.697  1.00  0.00    -0.744 OA
ENDBRANCH  89  93
ENDBRANCH  63  86
ENDBRANCH  37  38
ENDBRANCH  29  32
ENDBRANCH  27  28
ENDBRANCH  26  27
ENDBRANCH   1  26
TORSDOF 17
ENDMDL
