MODEL 1
REMARK VINA RESULT:     -10.6      0.000      0.000
REMARK SMILES CS(=O)(=O)c1ccc(/C=C(/C(=O)NCCCCNC(=O)c2ccc(-c3c4nc(c(-c5cc(S(=O)(=O)[O-])ccc5F)c5ccc([nH]5)c(-c5cc(S(=O)(=O)[O-])ccc5F)c5nc(c(-c6cc(S(=O)(=O)[O-])ccc6F)c6ccc3[nH]6)C=C5)C=C4)cc2)c2ccc(-c3ccc(S(C)(=O)=O)cc3)cc2)cc1
REMARK SMILES IDX 15 1 14 2 13 3 11 4 12 5 10 7 9 8 8 9 5 10 6 11 101 12 7 13
REMARK SMILES IDX 100 14 2 15 1 16 3 17 4 18 84 19 85 20 99 21 86 22 98 23
REMARK SMILES IDX 87 24 88 25 89 26 97 27 90 28 96 29 91 30 92 31 93 32 94 33
REMARK SMILES IDX 95 34 16 35 17 36 18 37 19 38 20 40 21 41 22 42 83 43 23 44
REMARK SMILES IDX 82 45 24 46 25 47 26 48 76 49 27 50 81 51 75 52 77 53 28 54
REMARK SMILES IDX 80 55 74 56 73 57 29 59 61 60 41 61 60 62 42 63 45 64 59 65
REMARK SMILES IDX 78 66 43 67 44 68 58 70 79 71 46 72 30 73 31 74 39 75 32 76
REMARK SMILES IDX 38 77 40 78 37 79 33 80 34 81 35 82 36 83 62 84 63 85 71 86
REMARK SMILES IDX 64 87 70 88 72 89 69 90 65 91 66 92 67 93 68 94 47 95 48 96
REMARK SMILES IDX 56 97 49 98 55 99 57 100 54 101 50 102 51 103 52 104 53 105
REMARK H PARENT 13 6 18 39 77 58 45 69
REMARK Flexibility Score: inf
ROOT
ATOM      1  C   UNL A   1      37.311  33.150  29.899  1.00  0.00     0.023 C 
ENDROOT
BRANCH   1   2
ATOM      2  C   UNL A   1      38.618  33.846  29.507  1.00  0.00     0.116 C 
BRANCH   2   3
ATOM      3  N   UNL A   1      39.325  34.280  30.695  1.00  0.00    -0.352 N 
ATOM      4  C   UNL A   1      40.635  34.336  31.044  1.00  0.00     0.251 C 
ATOM      5  O   UNL A   1      40.865  34.708  32.199  1.00  0.00    -0.269 OA
ATOM      6  H   UNL A   1      38.723  34.604  31.404  1.00  0.00     0.163 HD
BRANCH   4   7
ATOM      7  C   UNL A   1      41.782  34.055  30.092  1.00  0.00     0.047 C 
ATOM      8  C   UNL A   1      42.438  32.872  30.072  1.00  0.00     0.022 C 
BRANCH   8   9
ATOM      9  C   UNL A   1      43.488  32.372  29.157  1.00  0.00    -0.025 A 
ATOM     10  C   UNL A   1      45.520  31.250  27.567  1.00  0.00     0.067 A 
ATOM     11  C   UNL A   1      44.417  31.853  26.963  1.00  0.00     0.021 A 
ATOM     12  C   UNL A   1      45.639  31.240  28.958  1.00  0.00     0.021 A 
ATOM     13  C   UNL A   1      43.421  32.433  27.760  1.00  0.00     0.009 A 
ATOM     14  C   UNL A   1      44.629  31.799  29.744  1.00  0.00     0.009 A 
BRANCH  10  15
ATOM     15  S   UNL A   1      46.799  30.451  26.631  1.00  0.00     0.175 S 
ATOM     16  C   UNL A   1      47.110  28.883  27.391  1.00  0.00     0.163 C 
ATOM     17  O   UNL A   1      47.999  31.249  26.805  1.00  0.00    -0.224 OA
ATOM     18  O   UNL A   1      46.250  30.199  25.313  1.00  0.00    -0.224 OA
ENDBRANCH  10  15
ENDBRANCH   8   9
BRANCH   7  19
ATOM     19  C   UNL A   1      42.289  35.211  29.311  1.00  0.00    -0.013 A 
ATOM     20  C   UNL A   1      41.606  35.556  28.138  1.00  0.00     0.009 A 
ATOM     21  C   UNL A   1      43.358  36.014  29.723  1.00  0.00     0.009 A 
ATOM     22  C   UNL A   1      41.955  36.691  27.412  1.00  0.00     0.009 A 
ATOM     23  C   UNL A   1      43.687  37.176  29.005  1.00  0.00     0.009 A 
ATOM     24  C   UNL A   1      42.978  37.547  27.848  1.00  0.00    -0.018 A 
BRANCH  24  25
ATOM     25  C   UNL A   1      43.260  38.790  27.103  1.00  0.00    -0.018 A 
ATOM     26  C   UNL A   1      42.202  39.622  26.681  1.00  0.00     0.010 A 
ATOM     27  C   UNL A   1      44.569  39.175  26.764  1.00  0.00     0.010 A 
ATOM     28  C   UNL A   1      42.430  40.766  25.916  1.00  0.00     0.021 A 
ATOM     29  C   UNL A   1      44.811  40.322  26.001  1.00  0.00     0.021 A 
ATOM     30  C   UNL A   1      43.736  41.096  25.562  1.00  0.00     0.067 A 
BRANCH  30  31
ATOM     31  S   UNL A   1      44.006  42.517  24.534  1.00  0.00     0.175 S 
ATOM     32  C   UNL A   1      42.477  42.677  23.646  1.00  0.00     0.163 C 
ATOM     33  O   UNL A   1      44.148  43.660  25.412  1.00  0.00    -0.224 OA
ATOM     34  O   UNL A   1      45.042  42.181  23.571  1.00  0.00    -0.224 OA
ENDBRANCH  30  31
ENDBRANCH  24  25
ENDBRANCH   7  19
ENDBRANCH   4   7
ENDBRANCH   2   3
ENDBRANCH   1   2
BRANCH   1  35
ATOM     35  C   UNL A   1      36.119  33.496  28.996  1.00  0.00     0.023 C 
BRANCH  35  36
ATOM     36  C   UNL A   1      34.780  32.919  29.446  1.00  0.00     0.116 C 
BRANCH  36  37
ATOM     37  N   UNL A   1      34.123  32.142  28.408  1.00  0.00    -0.352 N 
ATOM     38  C   UNL A   1      34.564  31.004  27.781  1.00  0.00     0.251 C 
ATOM     39  H   UNL A   1      33.244  32.478  28.116  1.00  0.00     0.163 HD
ATOM     40  O   UNL A   1      33.938  30.551  26.829  1.00  0.00    -0.269 OA
BRANCH  38  41
ATOM     41  C   UNL A   1      35.815  30.362  28.235  1.00  0.00     0.039 A 
ATOM     42  C   UNL A   1      36.950  30.450  27.425  1.00  0.00     0.014 A 
ATOM     43  C   UNL A   1      35.872  29.688  29.458  1.00  0.00     0.014 A 
ATOM     44  C   UNL A   1      38.157  29.909  27.867  1.00  0.00     0.010 A 
ATOM     45  C   UNL A   1      37.091  29.207  29.926  1.00  0.00     0.010 A 
ATOM     46  C   UNL A   1      38.245  29.307  29.132  1.00  0.00    -0.014 A 
BRANCH  46  47
ATOM     47  C   UNL A   1      39.527  28.751  29.634  1.00  0.00     0.031 A 
ATOM     48  C   UNL A   1      40.236  29.420  30.779  1.00  0.00     0.074 A 
ATOM     49  C   UNL A   1      40.080  27.686  29.020  1.00  0.00     0.049 A 
ATOM     50  N   UNL A   1      41.400  29.146  31.308  1.00  0.00    -0.248 NA
ATOM     51  C   UNL A   1      39.556  30.576  31.385  1.00  0.00     0.031 C 
ATOM     52  C   UNL A   1      39.503  26.977  27.875  1.00  0.00     0.029 A 
ATOM     53  N   UNL A   1      41.252  27.017  29.267  1.00  0.00    -0.354 N 
ATOM     54  C   UNL A   1      41.600  30.103  32.299  1.00  0.00     0.074 A 
ATOM     55  C   UNL A   1      40.465  31.000  32.248  1.00  0.00     0.031 C 
ATOM     56  C   UNL A   1      40.315  25.963  27.532  1.00  0.00     0.029 A 
ATOM     57  C   UNL A   1      41.486  25.972  28.403  1.00  0.00     0.049 A 
ATOM     58  H   UNL A   1      41.869  27.264  29.994  1.00  0.00     0.167 HD
ATOM     59  C   UNL A   1      42.624  30.208  33.182  1.00  0.00     0.034 A 
ATOM     60  C   UNL A   1      42.531  25.125  28.318  1.00  0.00     0.034 A 
ATOM     61  C   UNL A   1      43.738  29.292  33.228  1.00  0.00     0.049 A 
ATOM     62  C   UNL A   1      43.661  25.266  29.306  1.00  0.00     0.074 A 
ATOM     63  C   UNL A   1      44.802  29.271  34.111  1.00  0.00     0.029 A 
ATOM     64  N   UNL A   1      43.933  28.235  32.347  1.00  0.00    -0.354 N 
ATOM     65  N   UNL A   1      43.814  26.148  30.267  1.00  0.00    -0.248 NA
ATOM     66  C   UNL A   1      44.753  24.289  29.205  1.00  0.00     0.031 C 
ATOM     67  C   UNL A   1      45.670  28.242  33.729  1.00  0.00     0.029 A 
ATOM     68  C   UNL A   1      45.112  27.572  32.651  1.00  0.00     0.049 A 
ATOM     69  H   UNL A   1      43.323  27.992  31.614  1.00  0.00     0.167 HD
ATOM     70  C   UNL A   1      45.004  25.809  30.906  1.00  0.00     0.074 A 
ATOM     71  C   UNL A   1      45.519  24.636  30.228  1.00  0.00     0.031 C 
ATOM     72  C   UNL A   1      45.614  26.408  31.960  1.00  0.00     0.034 A 
BRANCH  59  73
ATOM     73  C   UNL A   1      42.588  31.368  34.149  1.00  0.00     0.023 A 
ATOM     74  C   UNL A   1      41.742  31.365  35.273  1.00  0.00     0.031 A 
ATOM     75  C   UNL A   1      43.379  32.508  33.927  1.00  0.00     0.131 A 
ATOM     76  C   UNL A   1      41.643  32.509  36.079  1.00  0.00     0.055 A 
ATOM     77  C   UNL A   1      43.341  33.610  34.783  1.00  0.00     0.041 A 
ATOM     78  F   UNL A   1      44.192  32.579  32.860  1.00  0.00    -0.206 F 
ATOM     79  C   UNL A   1      42.456  33.623  35.858  1.00  0.00     0.022 A 
BRANCH  76  80
ATOM     80  S   UNL A   1      40.327  32.577  37.326  1.00  0.00     0.124 S 
ATOM     81  O   UNL A   1      39.820  33.935  37.145  1.00  0.00    -0.237 OA
ATOM     82  O   UNL A   1      39.437  31.501  36.904  1.00  0.00    -0.237 OA
ATOM     83  O   UNL A   1      41.035  32.346  38.584  1.00  0.00    -0.744 OA
ENDBRANCH  76  80
ENDBRANCH  59  73
BRANCH  60  84
ATOM     84  C   UNL A   1      42.567  24.072  27.264  1.00  0.00     0.023 A 
ATOM     85  C   UNL A   1      41.733  22.945  27.340  1.00  0.00     0.031 A 
ATOM     86  C   UNL A   1      43.466  24.155  26.186  1.00  0.00     0.131 A 
ATOM     87  C   UNL A   1      41.849  21.923  26.385  1.00  0.00     0.055 A 
ATOM     88  C   UNL A   1      43.542  23.160  25.210  1.00  0.00     0.041 A 
ATOM     89  F   UNL A   1      44.281  25.215  26.062  1.00  0.00    -0.206 F 
ATOM     90  C   UNL A   1      42.739  22.029  25.314  1.00  0.00     0.022 A 
BRANCH  87  91
ATOM     91  S   UNL A   1      40.873  20.410  26.611  1.00  0.00     0.124 S 
ATOM     92  O   UNL A   1      39.563  20.828  26.126  1.00  0.00    -0.237 OA
ATOM     93  O   UNL A   1      41.595  19.457  25.774  1.00  0.00    -0.237 OA
ATOM     94  O   UNL A   1      40.958  20.163  28.048  1.00  0.00    -0.744 OA
ENDBRANCH  87  91
ENDBRANCH  60  84
BRANCH  72  95
ATOM     95  C   UNL A   1      46.881  25.769  32.471  1.00  0.00     0.023 A 
ATOM     96  C   UNL A   1      46.871  24.837  33.524  1.00  0.00     0.031 A 
ATOM     97  C   UNL A   1      48.121  26.109  31.900  1.00  0.00     0.131 A 
ATOM     98  C   UNL A   1      48.080  24.318  34.008  1.00  0.00     0.055 A 
ATOM     99  C   UNL A   1      49.316  25.544  32.348  1.00  0.00     0.041 A 
ATOM    100  F   UNL A   1      48.189  26.995  30.894  1.00  0.00    -0.206 F 
ATOM    101  C   UNL A   1      49.301  24.654  33.417  1.00  0.00     0.022 A 
BRANCH  98 102
ATOM    102  S   UNL A   1      48.047  23.263  35.484  1.00  0.00     0.124 S 
ATOM    103  O   UNL A   1      47.766  21.950  34.913  1.00  0.00    -0.237 OA
ATOM    104  O   UNL A   1      49.387  23.447  36.029  1.00  0.00    -0.237 OA
ATOM    105  O   UNL A   1      46.968  23.834  36.289  1.00  0.00    -0.744 OA
ENDBRANCH  98 102
ENDBRANCH  72  95
ENDBRANCH  46  47
ENDBRANCH  38  41
ENDBRANCH  36  37
ENDBRANCH  35  36
ENDBRANCH   1  35
TORSDOF 19
ENDMDL
MODEL 2
REMARK VINA RESULT:     -10.1      3.999      8.198
REMARK SMILES CS(=O)(=O)c1ccc(/C=C(/C(=O)NCCCCNC(=O)c2ccc(-c3c4nc(c(-c5cc(S(=O)(=O)[O-])ccc5F)c5ccc([nH]5)c(-c5cc(S(=O)(=O)[O-])ccc5F)c5nc(c(-c6cc(S(=O)(=O)[O-])ccc6F)c6ccc3[nH]6)C=C5)C=C4)cc2)c2ccc(-c3ccc(S(C)(=O)=O)cc3)cc2)cc1
REMARK SMILES IDX 15 1 14 2 13 3 11 4 12 5 10 7 9 8 8 9 5 10 6 11 101 12 7 13
REMARK SMILES IDX 100 14 2 15 1 16 3 17 4 18 84 19 85 20 99 21 86 22 98 23
REMARK SMILES IDX 87 24 88 25 89 26 97 27 90 28 96 29 91 30 92 31 93 32 94 33
REMARK SMILES IDX 95 34 16 35 17 36 18 37 19 38 20 40 21 41 22 42 83 43 23 44
REMARK SMILES IDX 82 45 24 46 25 47 26 48 76 49 27 50 81 51 75 52 77 53 28 54
REMARK SMILES IDX 80 55 74 56 73 57 29 59 61 60 41 61 60 62 42 63 45 64 59 65
REMARK SMILES IDX 78 66 43 67 44 68 58 70 79 71 46 72 30 73 31 74 39 75 32 76
REMARK SMILES IDX 38 77 40 78 37 79 33 80 34 81 35 82 36 83 62 84 63 85 71 86
REMARK SMILES IDX 64 87 70 88 72 89 69 90 65 91 66 92 67 93 68 94 47 95 48 96
REMARK SMILES IDX 56 97 49 98 55 99 57 100 54 101 50 102 51 103 52 104 53 105
REMARK H PARENT 13 6 18 39 77 58 45 69
REMARK Flexibility Score: inf
ROOT
ATOM      1  C   UNL A   1      43.733  42.114  31.955  1.00  0.00     0.023 C 
ENDROOT
BRANCH   1   2
ATOM      2  C   UNL A   1      43.377  42.169  30.466  1.00  0.00     0.116 C 
BRANCH   2   3
ATOM      3  N   UNL A   1      41.972  41.874  30.280  1.00  0.00    -0.352 N 
ATOM      4  C   UNL A   1      41.281  41.077  29.425  1.00  0.00     0.251 C 
ATOM      5  O   UNL A   1      40.051  41.133  29.518  1.00  0.00    -0.269 OA
ATOM      6  H   UNL A   1      41.390  42.356  30.912  1.00  0.00     0.163 HD
BRANCH   4   7
ATOM      7  C   UNL A   1      41.928  40.102  28.460  1.00  0.00     0.047 C 
ATOM      8  C   UNL A   1      42.364  38.880  28.842  1.00  0.00     0.022 C 
BRANCH   8   9
ATOM      9  C   UNL A   1      42.909  37.761  28.042  1.00  0.00    -0.025 A 
ATOM     10  C   UNL A   1      44.097  35.601  26.687  1.00  0.00     0.067 A 
ATOM     11  C   UNL A   1      42.720  35.804  26.600  1.00  0.00     0.021 A 
ATOM     12  C   UNL A   1      44.893  36.492  27.409  1.00  0.00     0.021 A 
ATOM     13  C   UNL A   1      42.138  36.897  27.255  1.00  0.00     0.009 A 
ATOM     14  C   UNL A   1      44.300  37.564  28.079  1.00  0.00     0.009 A 
BRANCH  10  15
ATOM     15  S   UNL A   1      44.905  34.214  25.927  1.00  0.00     0.175 S 
ATOM     16  C   UNL A   1      43.811  33.576  24.691  1.00  0.00     0.163 C 
ATOM     17  O   UNL A   1      45.024  33.193  26.952  1.00  0.00    -0.224 OA
ATOM     18  O   UNL A   1      46.074  34.738  25.250  1.00  0.00    -0.224 OA
ENDBRANCH  10  15
ENDBRANCH   8   9
BRANCH   7  19
ATOM     19  C   UNL A   1      42.246  40.627  27.108  1.00  0.00    -0.013 A 
ATOM     20  C   UNL A   1      41.203  40.697  26.174  1.00  0.00     0.009 A 
ATOM     21  C   UNL A   1      43.502  41.122  26.745  1.00  0.00     0.009 A 
ATOM     22  C   UNL A   1      41.398  41.277  24.924  1.00  0.00     0.009 A 
ATOM     23  C   UNL A   1      43.686  41.735  25.494  1.00  0.00     0.009 A 
ATOM     24  C   UNL A   1      42.632  41.842  24.569  1.00  0.00    -0.018 A 
BRANCH  24  25
ATOM     25  C   UNL A   1      42.776  42.530  23.271  1.00  0.00    -0.018 A 
ATOM     26  C   UNL A   1      41.678  42.627  22.391  1.00  0.00     0.010 A 
ATOM     27  C   UNL A   1      44.000  43.082  22.852  1.00  0.00     0.010 A 
ATOM     28  C   UNL A   1      41.800  43.209  21.129  1.00  0.00     0.021 A 
ATOM     29  C   UNL A   1      44.133  43.672  21.591  1.00  0.00     0.021 A 
ATOM     30  C   UNL A   1      43.036  43.709  20.729  1.00  0.00     0.067 A 
BRANCH  30  31
ATOM     31  S   UNL A   1      43.192  44.387  19.096  1.00  0.00     0.175 S 
ATOM     32  C   UNL A   1      44.323  45.737  19.320  1.00  0.00     0.163 C 
ATOM     33  O   UNL A   1      43.833  43.384  18.274  1.00  0.00    -0.224 OA
ATOM     34  O   UNL A   1      41.904  44.949  18.722  1.00  0.00    -0.224 OA
ENDBRANCH  30  31
ENDBRANCH  24  25
ENDBRANCH   7  19
ENDBRANCH   4   7
ENDBRANCH   2   3
ENDBRANCH   1   2
BRANCH   1  35
ATOM     35  C   UNL A   1      42.686  41.410  32.828  1.00  0.00     0.023 C 
BRANCH  35  36
ATOM     36  C   UNL A   1      43.130  40.077  33.422  1.00  0.00     0.116 C 
BRANCH  36  37
ATOM     37  N   UNL A   1      44.477  40.124  33.967  1.00  0.00    -0.352 N 
ATOM     38  C   UNL A   1      45.425  39.132  33.995  1.00  0.00     0.251 C 
ATOM     39  H   UNL A   1      44.744  40.982  34.369  1.00  0.00     0.163 HD
ATOM     40  O   UNL A   1      46.468  39.305  34.616  1.00  0.00    -0.269 OA
BRANCH  38  41
ATOM     41  C   UNL A   1      45.158  37.850  33.310  1.00  0.00     0.039 A 
ATOM     42  C   UNL A   1      45.151  36.674  34.063  1.00  0.00     0.014 A 
ATOM     43  C   UNL A   1      44.902  37.810  31.937  1.00  0.00     0.014 A 
ATOM     44  C   UNL A   1      44.835  35.462  33.448  1.00  0.00     0.010 A 
ATOM     45  C   UNL A   1      44.522  36.613  31.339  1.00  0.00     0.010 A 
ATOM     46  C   UNL A   1      44.490  35.426  32.087  1.00  0.00    -0.014 A 
BRANCH  46  47
ATOM     47  C   UNL A   1      44.121  34.151  31.420  1.00  0.00     0.031 A 
ATOM     48  C   UNL A   1      42.705  33.651  31.493  1.00  0.00     0.074 A 
ATOM     49  C   UNL A   1      45.071  33.419  30.805  1.00  0.00     0.049 A 
ATOM     50  N   UNL A   1      42.198  32.529  31.054  1.00  0.00    -0.248 NA
ATOM     51  C   UNL A   1      41.738  34.519  32.184  1.00  0.00     0.031 C 
ATOM     52  C   UNL A   1      46.487  33.783  30.705  1.00  0.00     0.029 A 
ATOM     53  N   UNL A   1      44.993  32.213  30.156  1.00  0.00    -0.354 N 
ATOM     54  C   UNL A   1      40.858  32.547  31.429  1.00  0.00     0.074 A 
ATOM     55  C   UNL A   1      40.653  33.763  32.186  1.00  0.00     0.031 C 
ATOM     56  C   UNL A   1      47.138  32.830  30.018  1.00  0.00     0.029 A 
ATOM     57  C   UNL A   1      46.200  31.770  29.664  1.00  0.00     0.049 A 
ATOM     58  H   UNL A   1      44.152  31.710  30.054  1.00  0.00     0.167 HD
ATOM     59  C   UNL A   1      39.886  31.644  31.147  1.00  0.00     0.034 A 
ATOM     60  C   UNL A   1      46.513  30.633  29.011  1.00  0.00     0.034 A 
ATOM     61  C   UNL A   1      40.107  30.446  30.374  1.00  0.00     0.049 A 
ATOM     62  C   UNL A   1      45.417  29.640  28.715  1.00  0.00     0.074 A 
ATOM     63  C   UNL A   1      39.188  29.488  29.983  1.00  0.00     0.029 A 
ATOM     64  N   UNL A   1      41.339  30.037  29.878  1.00  0.00    -0.354 N 
ATOM     65  N   UNL A   1      44.145  29.693  29.036  1.00  0.00    -0.248 NA
ATOM     66  C   UNL A   1      45.798  28.441  27.959  1.00  0.00     0.031 C 
ATOM     67  C   UNL A   1      39.873  28.474  29.305  1.00  0.00     0.029 A 
ATOM     68  C   UNL A   1      41.208  28.832  29.206  1.00  0.00     0.049 A 
ATOM     69  H   UNL A   1      42.183  30.533  29.987  1.00  0.00     0.167 HD
ATOM     70  C   UNL A   1      43.568  28.550  28.490  1.00  0.00     0.074 A 
ATOM     71  C   UNL A   1      44.630  27.834  27.810  1.00  0.00     0.031 C 
ATOM     72  C   UNL A   1      42.278  28.130  28.540  1.00  0.00     0.034 A 
BRANCH  59  73
ATOM     73  C   UNL A   1      38.507  31.916  31.700  1.00  0.00     0.023 A 
ATOM     74  C   UNL A   1      37.489  32.472  30.903  1.00  0.00     0.031 A 
ATOM     75  C   UNL A   1      38.213  31.652  33.048  1.00  0.00     0.131 A 
ATOM     76  C   UNL A   1      36.261  32.825  31.482  1.00  0.00     0.055 A 
ATOM     77  C   UNL A   1      36.959  31.926  33.597  1.00  0.00     0.041 A 
ATOM     78  F   UNL A   1      39.149  31.140  33.865  1.00  0.00    -0.206 F 
ATOM     79  C   UNL A   1      35.979  32.532  32.818  1.00  0.00     0.022 A 
BRANCH  76  80
ATOM     80  S   UNL A   1      35.097  33.813  30.502  1.00  0.00     0.124 S 
ATOM     81  O   UNL A   1      34.129  32.800  30.085  1.00  0.00    -0.237 OA
ATOM     82  O   UNL A   1      34.619  34.793  31.471  1.00  0.00    -0.237 OA
ATOM     83  O   UNL A   1      35.926  34.352  29.425  1.00  0.00    -0.744 OA
ENDBRANCH  76  80
ENDBRANCH  59  73
BRANCH  60  84
ATOM     84  C   UNL A   1      47.919  30.364  28.593  1.00  0.00     0.023 A 
ATOM     85  C   UNL A   1      48.785  29.619  29.409  1.00  0.00     0.031 A 
ATOM     86  C   UNL A   1      48.429  30.884  27.391  1.00  0.00     0.131 A 
ATOM     87  C   UNL A   1      50.128  29.457  29.037  1.00  0.00     0.055 A 
ATOM     88  C   UNL A   1      49.753  30.676  27.001  1.00  0.00     0.041 A 
ATOM     89  F   UNL A   1      47.641  31.598  26.570  1.00  0.00    -0.206 F 
ATOM     90  C   UNL A   1      50.615  29.970  27.833  1.00  0.00     0.022 A 
BRANCH  87  91
ATOM     91  S   UNL A   1      51.255  28.632  30.196  1.00  0.00     0.124 S 
ATOM     92  O   UNL A   1      51.492  27.360  29.523  1.00  0.00    -0.237 OA
ATOM     93  O   UNL A   1      52.381  29.559  30.235  1.00  0.00    -0.237 OA
ATOM     94  O   UNL A   1      50.474  28.551  31.428  1.00  0.00    -0.744 OA
ENDBRANCH  87  91
ENDBRANCH  60  84
BRANCH  72  95
ATOM     95  C   UNL A   1      41.942  26.862  27.794  1.00  0.00     0.023 A 
ATOM     96  C   UNL A   1      42.175  25.591  28.349  1.00  0.00     0.031 A 
ATOM     97  C   UNL A   1      41.391  26.930  26.503  1.00  0.00     0.131 A 
ATOM     98  C   UNL A   1      41.907  24.441  27.593  1.00  0.00     0.055 A 
ATOM     99  C   UNL A   1      41.072  25.781  25.778  1.00  0.00     0.041 A 
ATOM    100  F   UNL A   1      41.151  28.118  25.924  1.00  0.00    -0.206 F 
ATOM    101  C   UNL A   1      41.342  24.527  26.318  1.00  0.00     0.022 A 
BRANCH  98 102
ATOM    102  S   UNL A   1      42.389  22.825  28.264  1.00  0.00     0.124 S 
ATOM    103  O   UNL A   1      42.877  23.181  29.592  1.00  0.00    -0.237 OA
ATOM    104  O   UNL A   1      41.134  22.083  28.224  1.00  0.00    -0.237 OA
ATOM    105  O   UNL A   1      43.414  22.359  27.331  1.00  0.00    -0.744 OA
ENDBRANCH  98 102
ENDBRANCH  72  95
ENDBRANCH  46  47
ENDBRANCH  38  41
ENDBRANCH  36  37
ENDBRANCH  35  36
ENDBRANCH   1  35
TORSDOF 19
ENDMDL
MODEL 3
REMARK VINA RESULT:     -10.1      1.721      2.130
REMARK SMILES CS(=O)(=O)c1ccc(/C=C(/C(=O)NCCCCNC(=O)c2ccc(-c3c4nc(c(-c5cc(S(=O)(=O)[O-])ccc5F)c5ccc([nH]5)c(-c5cc(S(=O)(=O)[O-])ccc5F)c5nc(c(-c6cc(S(=O)(=O)[O-])ccc6F)c6ccc3[nH]6)C=C5)C=C4)cc2)c2ccc(-c3ccc(S(C)(=O)=O)cc3)cc2)cc1
REMARK SMILES IDX 15 1 14 2 13 3 11 4 12 5 10 7 9 8 8 9 5 10 6 11 101 12 7 13
REMARK SMILES IDX 100 14 2 15 1 16 3 17 4 18 84 19 85 20 99 21 86 22 98 23
REMARK SMILES IDX 87 24 88 25 89 26 97 27 90 28 96 29 91 30 92 31 93 32 94 33
REMARK SMILES IDX 95 34 16 35 17 36 18 37 19 38 20 40 21 41 22 42 83 43 23 44
REMARK SMILES IDX 82 45 24 46 25 47 26 48 76 49 27 50 81 51 75 52 77 53 28 54
REMARK SMILES IDX 80 55 74 56 73 57 29 59 61 60 41 61 60 62 42 63 45 64 59 65
REMARK SMILES IDX 78 66 43 67 44 68 58 70 79 71 46 72 30 73 31 74 39 75 32 76
REMARK SMILES IDX 38 77 40 78 37 79 33 80 34 81 35 82 36 83 62 84 63 85 71 86
REMARK SMILES IDX 64 87 70 88 72 89 69 90 65 91 66 92 67 93 68 94 47 95 48 96
REMARK SMILES IDX 56 97 49 98 55 99 57 100 54 101 50 102 51 103 52 104 53 105
REMARK H PARENT 13 6 18 39 77 58 45 69
REMARK Flexibility Score: inf
ROOT
ATOM      1  C   UNL A   1      37.158  33.445  30.129  1.00  0.00     0.023 C 
ENDROOT
BRANCH   1   2
ATOM      2  C   UNL A   1      38.398  34.269  29.769  1.00  0.00     0.116 C 
BRANCH   2   3
ATOM      3  N   UNL A   1      39.175  34.544  30.960  1.00  0.00    -0.352 N 
ATOM      4  C   UNL A   1      40.484  34.394  31.287  1.00  0.00     0.251 C 
ATOM      5  O   UNL A   1      40.780  34.677  32.452  1.00  0.00    -0.269 OA
ATOM      6  H   UNL A   1      38.636  34.921  31.693  1.00  0.00     0.163 HD
BRANCH   4   7
ATOM      7  C   UNL A   1      41.565  33.989  30.304  1.00  0.00     0.047 C 
ATOM      8  C   UNL A   1      42.092  32.743  30.272  1.00  0.00     0.022 C 
BRANCH   8   9
ATOM      9  C   UNL A   1      43.055  32.132  29.330  1.00  0.00    -0.025 A 
ATOM     10  C   UNL A   1      45.054  31.037  27.680  1.00  0.00     0.067 A 
ATOM     11  C   UNL A   1      43.824  30.392  27.804  1.00  0.00     0.021 A 
ATOM     12  C   UNL A   1      45.281  32.247  28.339  1.00  0.00     0.021 A 
ATOM     13  C   UNL A   1      42.823  30.956  28.606  1.00  0.00     0.009 A 
ATOM     14  C   UNL A   1      44.285  32.788  29.156  1.00  0.00     0.009 A 
BRANCH  10  15
ATOM     15  S   UNL A   1      46.390  30.364  26.724  1.00  0.00     0.175 S 
ATOM     16  C   UNL A   1      47.475  29.528  27.845  1.00  0.00     0.163 C 
ATOM     17  O   UNL A   1      47.126  31.495  26.189  1.00  0.00    -0.224 OA
ATOM     18  O   UNL A   1      45.809  29.366  25.848  1.00  0.00    -0.224 OA
ENDBRANCH  10  15
ENDBRANCH   8   9
BRANCH   7  19
ATOM     19  C   UNL A   1      42.168  35.083  29.501  1.00  0.00    -0.013 A 
ATOM     20  C   UNL A   1      41.603  35.360  28.249  1.00  0.00     0.009 A 
ATOM     21  C   UNL A   1      43.212  35.893  29.958  1.00  0.00     0.009 A 
ATOM     22  C   UNL A   1      42.044  36.439  27.488  1.00  0.00     0.009 A 
ATOM     23  C   UNL A   1      43.631  37.000  29.200  1.00  0.00     0.009 A 
ATOM     24  C   UNL A   1      43.041  37.305  27.961  1.00  0.00    -0.018 A 
BRANCH  24  25
ATOM     25  C   UNL A   1      43.418  38.491  27.167  1.00  0.00    -0.018 A 
ATOM     26  C   UNL A   1      44.770  38.733  26.847  1.00  0.00     0.010 A 
ATOM     27  C   UNL A   1      42.465  39.428  26.730  1.00  0.00     0.010 A 
ATOM     28  C   UNL A   1      45.165  39.881  26.159  1.00  0.00     0.021 A 
ATOM     29  C   UNL A   1      42.849  40.580  26.036  1.00  0.00     0.021 A 
ATOM     30  C   UNL A   1      44.200  40.809  25.778  1.00  0.00     0.067 A 
BRANCH  30  31
ATOM     31  S   UNL A   1      44.725  42.295  24.961  1.00  0.00     0.175 S 
ATOM     32  C   UNL A   1      46.078  42.858  25.963  1.00  0.00     0.163 C 
ATOM     33  O   UNL A   1      45.243  41.912  23.665  1.00  0.00    -0.224 OA
ATOM     34  O   UNL A   1      43.653  43.271  25.079  1.00  0.00    -0.224 OA
ENDBRANCH  30  31
ENDBRANCH  24  25
ENDBRANCH   7  19
ENDBRANCH   4   7
ENDBRANCH   2   3
ENDBRANCH   1   2
BRANCH   1  35
ATOM     35  C   UNL A   1      35.934  33.733  29.249  1.00  0.00     0.023 C 
BRANCH  35  36
ATOM     36  C   UNL A   1      34.656  33.010  29.665  1.00  0.00     0.116 C 
BRANCH  36  37
ATOM     37  N   UNL A   1      34.037  32.285  28.568  1.00  0.00    -0.352 N 
ATOM     38  C   UNL A   1      34.499  31.176  27.904  1.00  0.00     0.251 C 
ATOM     39  H   UNL A   1      33.169  32.636  28.261  1.00  0.00     0.163 HD
ATOM     40  O   UNL A   1      33.907  30.770  26.911  1.00  0.00    -0.269 OA
BRANCH  38  41
ATOM     41  C   UNL A   1      35.731  30.509  28.373  1.00  0.00     0.039 A 
ATOM     42  C   UNL A   1      36.904  30.661  27.629  1.00  0.00     0.014 A 
ATOM     43  C   UNL A   1      35.735  29.749  29.546  1.00  0.00     0.014 A 
ATOM     44  C   UNL A   1      38.093  30.096  28.089  1.00  0.00     0.010 A 
ATOM     45  C   UNL A   1      36.933  29.242  30.038  1.00  0.00     0.010 A 
ATOM     46  C   UNL A   1      38.123  29.405  29.312  1.00  0.00    -0.014 A 
BRANCH  46  47
ATOM     47  C   UNL A   1      39.384  28.821  29.835  1.00  0.00     0.031 A 
ATOM     48  C   UNL A   1      40.061  29.445  31.024  1.00  0.00     0.074 A 
ATOM     49  C   UNL A   1      39.948  27.772  29.204  1.00  0.00     0.049 A 
ATOM     50  N   UNL A   1      41.204  29.142  31.581  1.00  0.00    -0.248 NA
ATOM     51  C   UNL A   1      39.371  30.585  31.647  1.00  0.00     0.031 C 
ATOM     52  C   UNL A   1      39.404  27.108  28.017  1.00  0.00     0.029 A 
ATOM     53  N   UNL A   1      41.106  27.085  29.465  1.00  0.00    -0.354 N 
ATOM     54  C   UNL A   1      41.380  30.063  32.609  1.00  0.00     0.074 A 
ATOM     55  C   UNL A   1      40.255  30.972  32.553  1.00  0.00     0.031 C 
ATOM     56  C   UNL A   1      40.218  26.099  27.666  1.00  0.00     0.029 A 
ATOM     57  C   UNL A   1      41.360  26.068  28.574  1.00  0.00     0.049 A 
ATOM     58  H   UNL A   1      41.702  27.301  30.219  1.00  0.00     0.167 HD
ATOM     59  C   UNL A   1      42.375  30.129  33.529  1.00  0.00     0.034 A 
ATOM     60  C   UNL A   1      42.401  25.215  28.494  1.00  0.00     0.034 A 
ATOM     61  C   UNL A   1      43.480  29.202  33.579  1.00  0.00     0.049 A 
ATOM     62  C   UNL A   1      43.500  25.312  29.522  1.00  0.00     0.074 A 
ATOM     63  C   UNL A   1      44.515  29.142  34.495  1.00  0.00     0.029 A 
ATOM     64  N   UNL A   1      43.696  28.174  32.670  1.00  0.00    -0.354 N 
ATOM     65  N   UNL A   1      43.628  26.159  30.517  1.00  0.00    -0.248 NA
ATOM     66  C   UNL A   1      44.587  24.330  29.423  1.00  0.00     0.031 C 
ATOM     67  C   UNL A   1      45.387  28.119  34.105  1.00  0.00     0.029 A 
ATOM     68  C   UNL A   1      44.859  27.491  32.989  1.00  0.00     0.049 A 
ATOM     69  H   UNL A   1      43.108  27.962  31.909  1.00  0.00     0.167 HD
ATOM     70  C   UNL A   1      44.794  25.789  31.182  1.00  0.00     0.074 A 
ATOM     71  C   UNL A   1      45.322  24.635  30.481  1.00  0.00     0.031 C 
ATOM     72  C   UNL A   1      45.374  26.346  32.275  1.00  0.00     0.034 A 
BRANCH  59  73
ATOM     73  C   UNL A   1      42.317  31.256  34.533  1.00  0.00     0.023 A 
ATOM     74  C   UNL A   1      42.813  32.538  34.232  1.00  0.00     0.031 A 
ATOM     75  C   UNL A   1      41.796  31.041  35.819  1.00  0.00     0.131 A 
ATOM     76  C   UNL A   1      42.856  33.524  35.228  1.00  0.00     0.055 A 
ATOM     77  C   UNL A   1      41.762  32.053  36.780  1.00  0.00     0.041 A 
ATOM     78  F   UNL A   1      41.326  29.833  36.174  1.00  0.00    -0.206 F 
ATOM     79  C   UNL A   1      42.310  33.300  36.493  1.00  0.00     0.022 A 
BRANCH  76  80
ATOM     80  S   UNL A   1      43.775  35.052  34.892  1.00  0.00     0.124 S 
ATOM     81  O   UNL A   1      44.729  35.071  35.999  1.00  0.00    -0.237 OA
ATOM     82  O   UNL A   1      44.336  34.799  33.569  1.00  0.00    -0.237 OA
ATOM     83  O   UNL A   1      42.747  36.090  34.946  1.00  0.00    -0.744 OA
ENDBRANCH  76  80
ENDBRANCH  59  73
BRANCH  60  84
ATOM     84  C   UNL A   1      42.462  24.197  27.406  1.00  0.00     0.023 A 
ATOM     85  C   UNL A   1      41.875  22.932  27.566  1.00  0.00     0.031 A 
ATOM     86  C   UNL A   1      43.147  24.460  26.206  1.00  0.00     0.131 A 
ATOM     87  C   UNL A   1      42.025  21.960  26.565  1.00  0.00     0.055 A 
ATOM     88  C   UNL A   1      43.249  23.506  25.191  1.00  0.00     0.041 A 
ATOM     89  F   UNL A   1      43.720  25.657  25.999  1.00  0.00    -0.206 F 
ATOM     90  C   UNL A   1      42.698  22.243  25.373  1.00  0.00     0.022 A 
BRANCH  87  91
ATOM     91  S   UNL A   1      41.396  20.288  26.879  1.00  0.00     0.124 S 
ATOM     92  O   UNL A   1      42.622  19.499  26.843  1.00  0.00    -0.237 OA
ATOM     93  O   UNL A   1      40.768  20.442  28.187  1.00  0.00    -0.237 OA
ATOM     94  O   UNL A   1      40.473  20.059  25.770  1.00  0.00    -0.744 OA
ENDBRANCH  87  91
ENDBRANCH  60  84
BRANCH  72  95
ATOM     95  C   UNL A   1      46.619  25.679  32.804  1.00  0.00     0.023 A 
ATOM     96  C   UNL A   1      47.889  25.938  32.260  1.00  0.00     0.031 A 
ATOM     97  C   UNL A   1      46.528  24.759  33.864  1.00  0.00     0.131 A 
ATOM     98  C   UNL A   1      49.009  25.245  32.742  1.00  0.00     0.055 A 
ATOM     99  C   UNL A   1      47.654  24.116  34.378  1.00  0.00     0.041 A 
ATOM    100  F   UNL A   1      45.339  24.472  34.420  1.00  0.00    -0.206 F 
ATOM    101  C   UNL A   1      48.902  24.348  33.808  1.00  0.00     0.022 A 
BRANCH  98 102
ATOM    102  S   UNL A   1      50.599  25.465  31.897  1.00  0.00     0.124 S 
ATOM    103  O   UNL A   1      50.390  26.716  31.175  1.00  0.00    -0.237 OA
ATOM    104  O   UNL A   1      51.540  25.523  33.011  1.00  0.00    -0.237 OA
ATOM    105  O   UNL A   1      50.709  24.274  31.056  1.00  0.00    -0.744 OA
ENDBRANCH  98 102
ENDBRANCH  72  95
ENDBRANCH  46  47
ENDBRANCH  38  41
ENDBRANCH  36  37
ENDBRANCH  35  36
ENDBRANCH   1  35
TORSDOF 19
ENDMDL
