MODEL 1
REMARK VINA RESULT:     -13.2      0.000      0.000
REMARK SMILES O=C(NCCCCNC(=O)[C@@H](Cc1ccccc1)N1C(=O)/C(=C/c2ccc3ncccc3c2)SC1=S)c1ccc(-c2c3nc(c(-c4cc(S(=O)(=O)[O-])ccc4F)c4ccc([nH]4)c(-c4cc(S(=O)(=O)[O-])ccc4F)c4nc(c(-c5cc(S(=O)(=O)[O-])ccc5F)c5ccc2[nH]5)C=C4)C=C3)cc1
REMARK SMILES IDX 5 1 4 2 3 3 1 4 2 5 37 7 38 8 99 9 39 10 98 11 40 12 41 13
REMARK SMILES IDX 42 14 92 15 43 16 97 17 91 18 93 19 44 20 96 21 90 22 89 23
REMARK SMILES IDX 45 25 77 26 57 27 76 28 58 29 61 30 75 31 94 32 59 33 60 34
REMARK SMILES IDX 74 36 95 37 62 38 46 39 47 40 55 41 48 42 54 43 56 44 53 45
REMARK SMILES IDX 49 46 50 47 51 48 52 49 78 50 79 51 87 52 80 53 86 54 88 55
REMARK SMILES IDX 85 56 81 57 82 58 83 59 84 60 63 61 64 62 72 63 65 64 71 65
REMARK SMILES IDX 73 66 70 67 66 68 67 69 68 70 69 71 6 72 7 73 8 74 9 75
REMARK SMILES IDX 10 77 11 78 12 79 13 80 14 81 18 82 15 83 17 84 16 85 19 86
REMARK SMILES IDX 20 87 35 88 21 89 22 90 34 91 36 92 23 93 24 94 25 95 33 96
REMARK SMILES IDX 26 97 32 98 27 99 31 100 28 101 30 102 29 103
REMARK H PARENT 3 6 93 24 61 35 8 76
REMARK Flexibility Score: inf
ROOT
ATOM      1  C   UNL A   1      39.260  21.495  25.911  1.00  0.00     0.023 C 
ENDROOT
BRANCH   1   2
ATOM      2  C   UNL A   1      40.010  20.580  26.868  1.00  0.00     0.116 C 
BRANCH   2   3
ATOM      3  N   UNL A   1      40.880  19.600  26.230  1.00  0.00    -0.352 N 
ATOM      4  O   UNL A   1      42.833  18.871  25.314  1.00  0.00    -0.269 OA
ATOM      5  C   UNL A   1      42.203  19.771  25.859  1.00  0.00     0.251 C 
ATOM      6  H   UNL A   1      40.483  18.720  26.039  1.00  0.00     0.163 HD
BRANCH   5   7
ATOM      7  C   UNL A   1      42.823  21.097  26.094  1.00  0.00     0.039 A 
ATOM      8  C   UNL A   1      43.186  21.457  27.391  1.00  0.00     0.014 A 
ATOM      9  C   UNL A   1      42.868  22.034  25.058  1.00  0.00     0.014 A 
ATOM     10  C   UNL A   1      43.369  22.800  27.691  1.00  0.00     0.010 A 
ATOM     11  C   UNL A   1      43.193  23.365  25.345  1.00  0.00     0.010 A 
ATOM     12  C   UNL A   1      43.405  23.769  26.673  1.00  0.00    -0.014 A 
BRANCH  12  13
ATOM     13  C   UNL A   1      43.768  25.169  27.030  1.00  0.00     0.031 A 
ATOM     14  C   UNL A   1      42.782  26.118  27.662  1.00  0.00     0.074 A 
ATOM     15  C   UNL A   1      45.039  25.560  26.802  1.00  0.00     0.049 A 
ATOM     16  N   UNL A   1      42.954  27.372  28.001  1.00  0.00    -0.248 NA
ATOM     17  C   UNL A   1      41.431  25.608  27.942  1.00  0.00     0.031 C 
ATOM     18  C   UNL A   1      46.076  24.717  26.195  1.00  0.00     0.029 A 
ATOM     19  N   UNL A   1      45.690  26.736  27.064  1.00  0.00    -0.354 N 
ATOM     20  C   UNL A   1      41.734  27.811  28.505  1.00  0.00     0.074 A 
ATOM     21  C   UNL A   1      40.823  26.688  28.420  1.00  0.00     0.031 C 
ATOM     22  C   UNL A   1      47.241  25.374  26.195  1.00  0.00     0.029 A 
ATOM     23  C   UNL A   1      47.012  26.726  26.681  1.00  0.00     0.049 A 
ATOM     24  H   UNL A   1      45.255  27.512  27.486  1.00  0.00     0.167 HD
ATOM     25  C   UNL A   1      41.412  29.039  28.985  1.00  0.00     0.034 A 
ATOM     26  C   UNL A   1      47.932  27.708  26.666  1.00  0.00     0.034 A 
ATOM     27  C   UNL A   1      42.348  30.138  29.072  1.00  0.00     0.049 A 
ATOM     28  C   UNL A   1      47.527  29.068  27.158  1.00  0.00     0.074 A 
ATOM     29  C   UNL A   1      42.140  31.407  29.586  1.00  0.00     0.029 A 
ATOM     30  N   UNL A   1      43.664  30.107  28.623  1.00  0.00    -0.354 N 
ATOM     31  N   UNL A   1      46.372  29.455  27.648  1.00  0.00    -0.248 NA
ATOM     32  C   UNL A   1      48.542  30.122  27.092  1.00  0.00     0.031 C 
ATOM     33  C   UNL A   1      43.295  32.165  29.372  1.00  0.00     0.029 A 
ATOM     34  C   UNL A   1      44.259  31.347  28.806  1.00  0.00     0.049 A 
ATOM     35  H   UNL A   1      44.107  29.321  28.232  1.00  0.00     0.167 HD
ATOM     36  C   UNL A   1      46.530  30.799  27.963  1.00  0.00     0.074 A 
ATOM     37  C   UNL A   1      47.900  31.142  27.642  1.00  0.00     0.031 C 
ATOM     38  C   UNL A   1      45.623  31.675  28.464  1.00  0.00     0.034 A 
BRANCH  25  39
ATOM     39  C   UNL A   1      39.983  29.296  29.407  1.00  0.00     0.023 A 
ATOM     40  C   UNL A   1      39.601  29.401  30.754  1.00  0.00     0.031 A 
ATOM     41  C   UNL A   1      38.989  29.494  28.427  1.00  0.00     0.131 A 
ATOM     42  C   UNL A   1      38.260  29.662  31.086  1.00  0.00     0.055 A 
ATOM     43  C   UNL A   1      37.673  29.818  28.761  1.00  0.00     0.041 A 
ATOM     44  F   UNL A   1      39.288  29.389  27.122  1.00  0.00    -0.206 F 
ATOM     45  C   UNL A   1      37.300  29.897  30.098  1.00  0.00     0.022 A 
BRANCH  42  46
ATOM     46  S   UNL A   1      37.762  29.599  32.829  1.00  0.00     0.124 S 
ATOM     47  O   UNL A   1      36.653  30.550  32.855  1.00  0.00    -0.237 OA
ATOM     48  O   UNL A   1      37.404  28.196  33.006  1.00  0.00    -0.237 OA
ATOM     49  O   UNL A   1      38.960  30.032  33.546  1.00  0.00    -0.744 OA
ENDBRANCH  42  46
ENDBRANCH  25  39
BRANCH  26  50
ATOM     50  C   UNL A   1      49.289  27.461  26.098  1.00  0.00     0.023 A 
ATOM     51  C   UNL A   1      49.568  27.728  24.751  1.00  0.00     0.031 A 
ATOM     52  C   UNL A   1      50.315  26.905  26.887  1.00  0.00     0.131 A 
ATOM     53  C   UNL A   1      50.818  27.380  24.218  1.00  0.00     0.055 A 
ATOM     54  C   UNL A   1      51.582  26.638  26.370  1.00  0.00     0.041 A 
ATOM     55  F   UNL A   1      50.105  26.628  28.183  1.00  0.00    -0.206 F 
ATOM     56  C   UNL A   1      51.834  26.856  25.020  1.00  0.00     0.022 A 
BRANCH  53  57
ATOM     57  S   UNL A   1      51.050  27.499  22.423  1.00  0.00     0.124 S 
ATOM     58  O   UNL A   1      49.728  27.133  21.930  1.00  0.00    -0.237 OA
ATOM     59  O   UNL A   1      51.431  28.898  22.261  1.00  0.00    -0.237 OA
ATOM     60  O   UNL A   1      52.109  26.528  22.154  1.00  0.00    -0.744 OA
ENDBRANCH  53  57
ENDBRANCH  26  50
BRANCH  38  61
ATOM     61  C   UNL A   1      46.115  33.078  28.722  1.00  0.00     0.023 A 
ATOM     62  C   UNL A   1      46.014  34.083  27.745  1.00  0.00     0.031 A 
ATOM     63  C   UNL A   1      46.728  33.401  29.945  1.00  0.00     0.131 A 
ATOM     64  C   UNL A   1      46.583  35.343  27.980  1.00  0.00     0.055 A 
ATOM     65  C   UNL A   1      47.227  34.678  30.201  1.00  0.00     0.041 A 
ATOM     66  F   UNL A   1      46.856  32.476  30.911  1.00  0.00    -0.206 F 
ATOM     67  C   UNL A   1      47.171  35.653  29.208  1.00  0.00     0.022 A 
BRANCH  64  68
ATOM     68  S   UNL A   1      46.643  36.535  26.614  1.00  0.00     0.124 S 
ATOM     69  O   UNL A   1      46.555  35.663  25.448  1.00  0.00    -0.237 OA
ATOM     70  O   UNL A   1      45.475  37.370  26.876  1.00  0.00    -0.237 OA
ATOM     71  O   UNL A   1      47.932  37.200  26.797  1.00  0.00    -0.744 OA
ENDBRANCH  64  68
ENDBRANCH  38  61
ENDBRANCH  12  13
ENDBRANCH   5   7
ENDBRANCH   2   3
ENDBRANCH   1   2
BRANCH   1  72
ATOM     72  C   UNL A   1      38.812  22.835  26.487  1.00  0.00     0.023 C 
BRANCH  72  73
ATOM     73  C   UNL A   1      37.541  23.385  25.842  1.00  0.00     0.116 C 
BRANCH  73  74
ATOM     74  N   UNL A   1      37.446  23.107  24.419  1.00  0.00    -0.354 N 
ATOM     75  C   UNL A   1      36.419  22.810  23.582  1.00  0.00     0.243 C 
ATOM     76  H   UNL A   1      38.316  23.142  23.961  1.00  0.00     0.163 HD
ATOM     77  O   UNL A   1      36.648  22.943  22.371  1.00  0.00    -0.273 OA
BRANCH  75  78
ATOM     78  C   UNL A   1      35.022  22.311  24.032  1.00  0.00     0.185 C 
BRANCH  78  79
ATOM     79  C   UNL A   1      35.087  21.067  24.958  1.00  0.00     0.071 C 
BRANCH  79  80
ATOM     80  C   UNL A   1      34.441  19.739  24.627  1.00  0.00    -0.045 A 
ATOM     81  C   UNL A   1      33.102  19.763  24.195  1.00  0.00     0.004 A 
ATOM     82  C   UNL A   1      35.098  18.507  24.626  1.00  0.00     0.004 A 
ATOM     83  C   UNL A   1      32.472  18.609  23.727  1.00  0.00     0.000 A 
ATOM     84  C   UNL A   1      34.478  17.353  24.141  1.00  0.00     0.000 A 
ATOM     85  C   UNL A   1      33.170  17.407  23.677  1.00  0.00     0.000 A 
ENDBRANCH  79  80
ENDBRANCH  78  79
BRANCH  78  86
ATOM     86  N   UNL A   1      33.911  23.261  24.246  1.00  0.00    -0.280 N 
ATOM     87  C   UNL A   1      33.324  23.913  23.176  1.00  0.00     0.266 C 
ATOM     88  C   UNL A   1      33.435  23.623  25.496  1.00  0.00     0.149 C 
ATOM     89  O   UNL A   1      33.419  23.635  21.998  1.00  0.00    -0.268 OA
ATOM     90  C   UNL A   1      32.530  25.074  23.653  1.00  0.00     0.081 C 
ATOM     91  S   UNL A   1      32.347  24.999  25.353  1.00  0.00    -0.054 SA
ATOM     92  S   UNL A   1      33.770  22.955  26.990  1.00  0.00    -0.052 S 
ATOM     93  C   UNL A   1      32.120  26.027  22.805  1.00  0.00     0.029 C 
BRANCH  93  94
ATOM     94  C   UNL A   1      31.413  27.250  23.187  1.00  0.00    -0.024 A 
ATOM     95  C   UNL A   1      32.053  28.189  23.993  1.00  0.00     0.010 A 
ATOM     96  C   UNL A   1      30.106  27.501  22.755  1.00  0.00     0.018 A 
ATOM     97  C   UNL A   1      31.415  29.395  24.302  1.00  0.00     0.029 A 
ATOM     98  C   UNL A   1      29.480  28.723  23.049  1.00  0.00     0.001 A 
ATOM     99  C   UNL A   1      30.147  29.695  23.824  1.00  0.00     0.070 A 
ATOM    100  C   UNL A   1      28.200  29.024  22.569  1.00  0.00     0.012 A 
ATOM    101  N   UNL A   1      29.600  30.893  24.096  1.00  0.00    -0.256 NA
ATOM    102  C   UNL A   1      27.638  30.265  22.840  1.00  0.00     0.021 A 
ATOM    103  C   UNL A   1      28.373  31.156  23.598  1.00  0.00     0.112 A 
ENDBRANCH  93  94
ENDBRANCH  78  86
ENDBRANCH  75  78
ENDBRANCH  73  74
ENDBRANCH  72  73
ENDBRANCH   1  72
TORSDOF 18
ENDMDL
MODEL 2
REMARK VINA RESULT:     -13.1      0.631      7.388
REMARK SMILES O=C(NCCCCNC(=O)[C@@H](Cc1ccccc1)N1C(=O)/C(=C/c2ccc3ncccc3c2)SC1=S)c1ccc(-c2c3nc(c(-c4cc(S(=O)(=O)[O-])ccc4F)c4ccc([nH]4)c(-c4cc(S(=O)(=O)[O-])ccc4F)c4nc(c(-c5cc(S(=O)(=O)[O-])ccc5F)c5ccc2[nH]5)C=C4)C=C3)cc1
REMARK SMILES IDX 5 1 4 2 3 3 1 4 2 5 37 7 38 8 99 9 39 10 98 11 40 12 41 13
REMARK SMILES IDX 42 14 92 15 43 16 97 17 91 18 93 19 44 20 96 21 90 22 89 23
REMARK SMILES IDX 45 25 77 26 57 27 76 28 58 29 61 30 75 31 94 32 59 33 60 34
REMARK SMILES IDX 74 36 95 37 62 38 46 39 47 40 55 41 48 42 54 43 56 44 53 45
REMARK SMILES IDX 49 46 50 47 51 48 52 49 78 50 79 51 87 52 80 53 86 54 88 55
REMARK SMILES IDX 85 56 81 57 82 58 83 59 84 60 63 61 64 62 72 63 65 64 71 65
REMARK SMILES IDX 73 66 70 67 66 68 67 69 68 70 69 71 6 72 7 73 8 74 9 75
REMARK SMILES IDX 10 77 11 78 12 79 13 80 14 81 18 82 15 83 17 84 16 85 19 86
REMARK SMILES IDX 20 87 35 88 21 89 22 90 34 91 36 92 23 93 24 94 25 95 33 96
REMARK SMILES IDX 26 97 32 98 27 99 31 100 28 101 30 102 29 103
REMARK H PARENT 3 6 93 24 61 35 8 76
REMARK Flexibility Score: inf
ROOT
ATOM      1  C   UNL A   1      39.435  21.252  25.807  1.00  0.00     0.023 C 
ENDROOT
BRANCH   1   2
ATOM      2  C   UNL A   1      40.120  20.343  26.817  1.00  0.00     0.116 C 
BRANCH   2   3
ATOM      3  N   UNL A   1      40.959  19.301  26.239  1.00  0.00    -0.352 N 
ATOM      4  O   UNL A   1      42.900  18.443  25.414  1.00  0.00    -0.269 OA
ATOM      5  C   UNL A   1      42.301  19.392  25.910  1.00  0.00     0.251 C 
ATOM      6  H   UNL A   1      40.523  18.437  26.061  1.00  0.00     0.163 HD
BRANCH   5   7
ATOM      7  C   UNL A   1      42.981  20.690  26.127  1.00  0.00     0.039 A 
ATOM      8  C   UNL A   1      43.205  21.131  27.430  1.00  0.00     0.014 A 
ATOM      9  C   UNL A   1      43.223  21.536  25.040  1.00  0.00     0.014 A 
ATOM     10  C   UNL A   1      43.446  22.479  27.654  1.00  0.00     0.010 A 
ATOM     11  C   UNL A   1      43.607  22.863  25.270  1.00  0.00     0.010 A 
ATOM     12  C   UNL A   1      43.680  23.359  26.581  1.00  0.00    -0.014 A 
BRANCH  12  13
ATOM     13  C   UNL A   1      44.096  24.757  26.880  1.00  0.00     0.031 A 
ATOM     14  C   UNL A   1      45.504  25.243  26.651  1.00  0.00     0.074 A 
ATOM     15  C   UNL A   1      43.149  25.603  27.337  1.00  0.00     0.049 A 
ATOM     16  N   UNL A   1      46.011  26.427  26.892  1.00  0.00    -0.248 NA
ATOM     17  C   UNL A   1      46.471  24.286  26.091  1.00  0.00     0.031 C 
ATOM     18  C   UNL A   1      41.751  25.235  27.592  1.00  0.00     0.029 A 
ATOM     19  N   UNL A   1      43.194  26.937  27.645  1.00  0.00    -0.354 N 
ATOM     20  C   UNL A   1      47.357  26.353  26.544  1.00  0.00     0.074 A 
ATOM     21  C   UNL A   1      47.591  25.000  26.082  1.00  0.00     0.031 C 
ATOM     22  C   UNL A   1      41.062  26.324  27.949  1.00  0.00     0.029 A 
ATOM     23  C   UNL A   1      41.986  27.441  28.073  1.00  0.00     0.049 A 
ATOM     24  H   UNL A   1      44.010  27.483  27.568  1.00  0.00     0.167 HD
ATOM     25  C   UNL A   1      48.301  27.325  26.615  1.00  0.00     0.034 A 
ATOM     26  C   UNL A   1      41.660  28.649  28.566  1.00  0.00     0.034 A 
ATOM     27  C   UNL A   1      48.034  28.673  27.068  1.00  0.00     0.049 A 
ATOM     28  C   UNL A   1      42.742  29.686  28.677  1.00  0.00     0.074 A 
ATOM     29  C   UNL A   1      48.906  29.747  27.132  1.00  0.00     0.029 A 
ATOM     30  N   UNL A   1      46.812  29.130  27.546  1.00  0.00    -0.354 N 
ATOM     31  N   UNL A   1      44.004  29.598  28.325  1.00  0.00    -0.248 NA
ATOM     32  C   UNL A   1      42.360  30.977  29.254  1.00  0.00     0.031 C 
ATOM     33  C   UNL A   1      48.238  30.823  27.725  1.00  0.00     0.029 A 
ATOM     34  C   UNL A   1      46.921  30.453  27.949  1.00  0.00     0.049 A 
ATOM     35  H   UNL A   1      45.988  28.593  27.592  1.00  0.00     0.167 HD
ATOM     36  C   UNL A   1      44.563  30.834  28.625  1.00  0.00     0.074 A 
ATOM     37  C   UNL A   1      43.492  31.658  29.151  1.00  0.00     0.031 C 
ATOM     38  C   UNL A   1      45.846  31.252  28.488  1.00  0.00     0.034 A 
BRANCH  25  39
ATOM     39  C   UNL A   1      49.726  26.974  26.251  1.00  0.00     0.023 A 
ATOM     40  C   UNL A   1      50.266  27.234  24.980  1.00  0.00     0.031 A 
ATOM     41  C   UNL A   1      50.578  26.412  27.223  1.00  0.00     0.131 A 
ATOM     42  C   UNL A   1      51.604  26.904  24.705  1.00  0.00     0.055 A 
ATOM     43  C   UNL A   1      51.924  26.147  26.964  1.00  0.00     0.041 A 
ATOM     44  F   UNL A   1      50.116  26.123  28.450  1.00  0.00    -0.206 F 
ATOM     45  C   UNL A   1      52.444  26.387  25.696  1.00  0.00     0.022 A 
BRANCH  42  46
ATOM     46  S   UNL A   1      52.215  27.072  23.006  1.00  0.00     0.124 S 
ATOM     47  O   UNL A   1      52.817  28.402  23.037  1.00  0.00    -0.237 OA
ATOM     48  O   UNL A   1      53.145  25.954  22.891  1.00  0.00    -0.237 OA
ATOM     49  O   UNL A   1      51.006  26.962  22.192  1.00  0.00    -0.744 OA
ENDBRANCH  42  46
ENDBRANCH  25  39
BRANCH  26  50
ATOM     50  C   UNL A   1      40.279  28.914  29.063  1.00  0.00     0.023 A 
ATOM     51  C   UNL A   1      39.970  28.818  30.426  1.00  0.00     0.031 A 
ATOM     52  C   UNL A   1      39.233  29.218  28.169  1.00  0.00     0.131 A 
ATOM     53  C   UNL A   1      38.640  28.961  30.850  1.00  0.00     0.055 A 
ATOM     54  C   UNL A   1      37.928  29.440  28.606  1.00  0.00     0.041 A 
ATOM     55  F   UNL A   1      39.470  29.321  26.852  1.00  0.00    -0.206 F 
ATOM     56  C   UNL A   1      37.621  29.291  29.954  1.00  0.00     0.022 A 
BRANCH  53  57
ATOM     57  S   UNL A   1      38.242  28.575  32.576  1.00  0.00     0.124 S 
ATOM     58  O   UNL A   1      36.952  29.235  32.736  1.00  0.00    -0.237 OA
ATOM     59  O   UNL A   1      38.218  27.116  32.561  1.00  0.00    -0.237 OA
ATOM     60  O   UNL A   1      39.347  29.174  33.320  1.00  0.00    -0.744 OA
ENDBRANCH  53  57
ENDBRANCH  26  50
BRANCH  38  61
ATOM     61  C   UNL A   1      46.136  32.678  28.886  1.00  0.00     0.023 A 
ATOM     62  C   UNL A   1      45.912  33.748  28.002  1.00  0.00     0.031 A 
ATOM     63  C   UNL A   1      46.680  32.965  30.150  1.00  0.00     0.131 A 
ATOM     64  C   UNL A   1      46.297  35.046  28.367  1.00  0.00     0.055 A 
ATOM     65  C   UNL A   1      46.993  34.268  30.535  1.00  0.00     0.041 A 
ATOM     66  F   UNL A   1      46.920  31.980  31.031  1.00  0.00    -0.206 F 
ATOM     67  C   UNL A   1      46.818  35.315  29.634  1.00  0.00     0.022 A 
BRANCH  64  68
ATOM     68  S   UNL A   1      46.213  36.358  27.117  1.00  0.00     0.124 S 
ATOM     69  O   UNL A   1      46.748  37.503  27.845  1.00  0.00    -0.237 OA
ATOM     70  O   UNL A   1      47.057  35.829  26.051  1.00  0.00    -0.237 OA
ATOM     71  O   UNL A   1      44.788  36.435  26.798  1.00  0.00    -0.744 OA
ENDBRANCH  64  68
ENDBRANCH  38  61
ENDBRANCH  12  13
ENDBRANCH   5   7
ENDBRANCH   2   3
ENDBRANCH   1   2
BRANCH   1  72
ATOM     72  C   UNL A   1      38.957  22.599  26.342  1.00  0.00     0.023 C 
BRANCH  72  73
ATOM     73  C   UNL A   1      37.569  22.998  25.845  1.00  0.00     0.116 C 
BRANCH  73  74
ATOM     74  N   UNL A   1      37.410  22.873  24.406  1.00  0.00    -0.354 N 
ATOM     75  C   UNL A   1      36.341  22.714  23.585  1.00  0.00     0.243 C 
ATOM     76  H   UNL A   1      38.265  22.910  23.920  1.00  0.00     0.163 HD
ATOM     77  O   UNL A   1      36.535  22.959  22.385  1.00  0.00    -0.273 OA
BRANCH  75  78
ATOM     78  C   UNL A   1      34.936  22.242  24.037  1.00  0.00     0.185 C 
BRANCH  78  79
ATOM     79  C   UNL A   1      34.978  20.986  24.949  1.00  0.00     0.071 C 
BRANCH  79  80
ATOM     80  C   UNL A   1      34.356  19.657  24.579  1.00  0.00    -0.045 A 
ATOM     81  C   UNL A   1      33.015  19.670  24.149  1.00  0.00     0.004 A 
ATOM     82  C   UNL A   1      35.035  18.438  24.539  1.00  0.00     0.004 A 
ATOM     83  C   UNL A   1      32.406  18.520  23.645  1.00  0.00     0.000 A 
ATOM     84  C   UNL A   1      34.435  17.289  24.019  1.00  0.00     0.000 A 
ATOM     85  C   UNL A   1      33.126  17.333  23.558  1.00  0.00     0.000 A 
ENDBRANCH  79  80
ENDBRANCH  78  79
BRANCH  78  86
ATOM     86  N   UNL A   1      33.848  23.214  24.269  1.00  0.00    -0.280 N 
ATOM     87  C   UNL A   1      33.171  23.783  23.204  1.00  0.00     0.266 C 
ATOM     88  C   UNL A   1      33.480  23.678  25.522  1.00  0.00     0.149 C 
ATOM     89  O   UNL A   1      33.165  23.410  22.047  1.00  0.00    -0.268 OA
ATOM     90  C   UNL A   1      32.422  24.983  23.652  1.00  0.00     0.081 C 
ATOM     91  S   UNL A   1      32.385  25.047  25.361  1.00  0.00    -0.054 SA
ATOM     92  S   UNL A   1      33.941  23.129  27.031  1.00  0.00    -0.052 S 
ATOM     93  C   UNL A   1      31.941  25.869  22.768  1.00  0.00     0.029 C 
BRANCH  93  94
ATOM     94  C   UNL A   1      31.270  27.124  23.110  1.00  0.00    -0.024 A 
ATOM     95  C   UNL A   1      32.011  28.173  23.651  1.00  0.00     0.010 A 
ATOM     96  C   UNL A   1      29.898  27.296  22.899  1.00  0.00     0.018 A 
ATOM     97  C   UNL A   1      31.395  29.401  23.911  1.00  0.00     0.029 A 
ATOM     98  C   UNL A   1      29.291  28.539  23.140  1.00  0.00     0.001 A 
ATOM     99  C   UNL A   1      30.050  29.617  23.641  1.00  0.00     0.070 A 
ATOM    100  C   UNL A   1      27.933  28.756  22.870  1.00  0.00     0.012 A 
ATOM    101  N   UNL A   1      29.518  30.834  23.849  1.00  0.00    -0.256 NA
ATOM    102  C   UNL A   1      27.384  30.015  23.075  1.00  0.00     0.021 A 
ATOM    103  C   UNL A   1      28.211  31.011  23.558  1.00  0.00     0.112 A 
ENDBRANCH  93  94
ENDBRANCH  78  86
ENDBRANCH  75  78
ENDBRANCH  73  74
ENDBRANCH  72  73
ENDBRANCH   1  72
TORSDOF 18
ENDMDL
MODEL 3
REMARK VINA RESULT:     -12.7      2.660      7.828
REMARK SMILES O=C(NCCCCNC(=O)[C@@H](Cc1ccccc1)N1C(=O)/C(=C/c2ccc3ncccc3c2)SC1=S)c1ccc(-c2c3nc(c(-c4cc(S(=O)(=O)[O-])ccc4F)c4ccc([nH]4)c(-c4cc(S(=O)(=O)[O-])ccc4F)c4nc(c(-c5cc(S(=O)(=O)[O-])ccc5F)c5ccc2[nH]5)C=C4)C=C3)cc1
REMARK SMILES IDX 5 1 4 2 3 3 1 4 2 5 37 7 38 8 99 9 39 10 98 11 40 12 41 13
REMARK SMILES IDX 42 14 92 15 43 16 97 17 91 18 93 19 44 20 96 21 90 22 89 23
REMARK SMILES IDX 45 25 77 26 57 27 76 28 58 29 61 30 75 31 94 32 59 33 60 34
REMARK SMILES IDX 74 36 95 37 62 38 46 39 47 40 55 41 48 42 54 43 56 44 53 45
REMARK SMILES IDX 49 46 50 47 51 48 52 49 78 50 79 51 87 52 80 53 86 54 88 55
REMARK SMILES IDX 85 56 81 57 82 58 83 59 84 60 63 61 64 62 72 63 65 64 71 65
REMARK SMILES IDX 73 66 70 67 66 68 67 69 68 70 69 71 6 72 7 73 8 74 9 75
REMARK SMILES IDX 10 77 11 78 12 79 13 80 14 81 18 82 15 83 17 84 16 85 19 86
REMARK SMILES IDX 20 87 35 88 21 89 22 90 34 91 36 92 23 93 24 94 25 95 33 96
REMARK SMILES IDX 26 97 32 98 27 99 31 100 28 101 30 102 29 103
REMARK H PARENT 3 6 93 24 61 35 8 76
REMARK Flexibility Score: inf
ROOT
ATOM      1  C   UNL A   1      39.329  22.077  26.281  1.00  0.00     0.023 C 
ENDROOT
BRANCH   1   2
ATOM      2  C   UNL A   1      40.773  21.871  26.715  1.00  0.00     0.116 C 
BRANCH   2   3
ATOM      3  N   UNL A   1      41.749  21.876  25.632  1.00  0.00    -0.352 N 
ATOM      4  O   UNL A   1      43.380  22.794  24.337  1.00  0.00    -0.269 OA
ATOM      5  C   UNL A   1      42.607  22.904  25.283  1.00  0.00     0.251 C 
ATOM      6  H   UNL A   1      41.802  21.057  25.087  1.00  0.00     0.163 HD
BRANCH   5   7
ATOM      7  C   UNL A   1      42.527  24.166  26.055  1.00  0.00     0.039 A 
ATOM      8  C   UNL A   1      42.162  25.342  25.400  1.00  0.00     0.014 A 
ATOM      9  C   UNL A   1      42.990  24.203  27.373  1.00  0.00     0.014 A 
ATOM     10  C   UNL A   1      42.477  26.562  25.980  1.00  0.00     0.010 A 
ATOM     11  C   UNL A   1      43.173  25.438  28.006  1.00  0.00     0.010 A 
ATOM     12  C   UNL A   1      42.959  26.632  27.300  1.00  0.00    -0.014 A 
BRANCH  12  13
ATOM     13  C   UNL A   1      43.126  27.971  27.931  1.00  0.00     0.031 A 
ATOM     14  C   UNL A   1      44.465  28.657  28.019  1.00  0.00     0.074 A 
ATOM     15  C   UNL A   1      42.016  28.581  28.397  1.00  0.00     0.049 A 
ATOM     16  N   UNL A   1      44.759  29.811  28.565  1.00  0.00    -0.248 NA
ATOM     17  C   UNL A   1      45.623  27.964  27.433  1.00  0.00     0.031 C 
ATOM     18  C   UNL A   1      40.667  28.004  28.359  1.00  0.00     0.029 A 
ATOM     19  N   UNL A   1      41.826  29.811  28.967  1.00  0.00    -0.354 N 
ATOM     20  C   UNL A   1      46.134  29.972  28.417  1.00  0.00     0.074 A 
ATOM     21  C   UNL A   1      46.619  28.790  27.736  1.00  0.00     0.031 C 
ATOM     22  C   UNL A   1      39.786  28.901  28.816  1.00  0.00     0.029 A 
ATOM     23  C   UNL A   1      40.514  30.065  29.299  1.00  0.00     0.049 A 
ATOM     24  H   UNL A   1      42.557  30.453  29.125  1.00  0.00     0.167 HD
ATOM     25  C   UNL A   1      46.910  31.011  28.822  1.00  0.00     0.034 A 
ATOM     26  C   UNL A   1      39.956  31.090  29.967  1.00  0.00     0.034 A 
ATOM     27  C   UNL A   1      46.394  32.186  29.488  1.00  0.00     0.049 A 
ATOM     28  C   UNL A   1      40.853  32.197  30.445  1.00  0.00     0.074 A 
ATOM     29  C   UNL A   1      47.084  33.315  29.896  1.00  0.00     0.029 A 
ATOM     30  N   UNL A   1      45.068  32.382  29.856  1.00  0.00    -0.354 N 
ATOM     31  N   UNL A   1      42.147  32.337  30.277  1.00  0.00    -0.248 NA
ATOM     32  C   UNL A   1      40.217  33.279  31.201  1.00  0.00     0.031 C 
ATOM     33  C   UNL A   1      46.198  34.151  30.582  1.00  0.00     0.029 A 
ATOM     34  C   UNL A   1      44.932  33.589  30.526  1.00  0.00     0.049 A 
ATOM     35  H   UNL A   1      44.333  31.755  29.669  1.00  0.00     0.167 HD
ATOM     36  C   UNL A   1      42.477  33.535  30.898  1.00  0.00     0.074 A 
ATOM     37  C   UNL A   1      41.241  34.093  31.408  1.00  0.00     0.031 C 
ATOM     38  C   UNL A   1      43.693  34.121  31.043  1.00  0.00     0.034 A 
BRANCH  25  39
ATOM     39  C   UNL A   1      48.405  30.916  28.616  1.00  0.00     0.023 A 
ATOM     40  C   UNL A   1      49.059  31.546  27.544  1.00  0.00     0.031 A 
ATOM     41  C   UNL A   1      49.197  30.219  29.550  1.00  0.00     0.131 A 
ATOM     42  C   UNL A   1      50.455  31.440  27.415  1.00  0.00     0.055 A 
ATOM     43  C   UNL A   1      50.589  30.173  29.453  1.00  0.00     0.041 A 
ATOM     44  F   UNL A   1      48.628  29.581  30.586  1.00  0.00    -0.206 F 
ATOM     45  C   UNL A   1      51.226  30.781  28.376  1.00  0.00     0.022 A 
BRANCH  42  46
ATOM     46  S   UNL A   1      51.247  32.097  25.921  1.00  0.00     0.124 S 
ATOM     47  O   UNL A   1      52.466  32.690  26.468  1.00  0.00    -0.237 OA
ATOM     48  O   UNL A   1      51.430  30.901  25.107  1.00  0.00    -0.237 OA
ATOM     49  O   UNL A   1      50.272  33.058  25.408  1.00  0.00    -0.744 OA
ENDBRANCH  42  46
ENDBRANCH  25  39
BRANCH  26  50
ATOM     50  C   UNL A   1      38.500  31.077  30.290  1.00  0.00     0.023 A 
ATOM     51  C   UNL A   1      37.559  31.629  29.410  1.00  0.00     0.031 A 
ATOM     52  C   UNL A   1      38.034  30.558  31.514  1.00  0.00     0.131 A 
ATOM     53  C   UNL A   1      36.212  31.705  29.791  1.00  0.00     0.055 A 
ATOM     54  C   UNL A   1      36.681  30.563  31.851  1.00  0.00     0.041 A 
ATOM     55  F   UNL A   1      38.889  30.019  32.396  1.00  0.00    -0.206 F 
ATOM     56  C   UNL A   1      35.762  31.159  30.995  1.00  0.00     0.022 A 
BRANCH  53  57
ATOM     57  S   UNL A   1      35.075  32.654  28.744  1.00  0.00     0.124 S 
ATOM     58  O   UNL A   1      34.116  31.630  28.346  1.00  0.00    -0.237 OA
ATOM     59  O   UNL A   1      34.584  33.666  29.672  1.00  0.00    -0.237 OA
ATOM     60  O   UNL A   1      35.937  33.152  27.675  1.00  0.00    -0.744 OA
ENDBRANCH  53  57
ENDBRANCH  26  50
BRANCH  38  61
ATOM     61  C   UNL A   1      43.719  35.450  31.756  1.00  0.00     0.023 A 
ATOM     62  C   UNL A   1      43.686  36.664  31.049  1.00  0.00     0.031 A 
ATOM     63  C   UNL A   1      43.819  35.501  33.157  1.00  0.00     0.131 A 
ATOM     64  C   UNL A   1      43.824  37.876  31.738  1.00  0.00     0.055 A 
ATOM     65  C   UNL A   1      43.883  36.713  33.844  1.00  0.00     0.041 A 
ATOM     66  F   UNL A   1      43.861  34.371  33.882  1.00  0.00    -0.206 F 
ATOM     67  C   UNL A   1      43.903  37.910  33.133  1.00  0.00     0.022 A 
BRANCH  64  68
ATOM     68  S   UNL A   1      44.014  39.403  30.778  1.00  0.00     0.124 S 
ATOM     69  O   UNL A   1      45.424  39.716  30.983  1.00  0.00    -0.237 OA
ATOM     70  O   UNL A   1      43.645  38.974  29.432  1.00  0.00    -0.237 OA
ATOM     71  O   UNL A   1      43.074  40.326  31.412  1.00  0.00    -0.744 OA
ENDBRANCH  64  68
ENDBRANCH  38  61
ENDBRANCH  12  13
ENDBRANCH   5   7
ENDBRANCH   2   3
ENDBRANCH   1   2
BRANCH   1  72
ATOM     72  C   UNL A   1      38.752  23.468  26.532  1.00  0.00     0.023 C 
BRANCH  72  73
ATOM     73  C   UNL A   1      37.413  23.710  25.837  1.00  0.00     0.116 C 
BRANCH  73  74
ATOM     74  N   UNL A   1      37.400  23.296  24.444  1.00  0.00    -0.354 N 
ATOM     75  C   UNL A   1      36.427  22.881  23.592  1.00  0.00     0.243 C 
ATOM     76  H   UNL A   1      38.291  23.321  24.027  1.00  0.00     0.163 HD
ATOM     77  O   UNL A   1      36.712  22.908  22.387  1.00  0.00    -0.273 OA
BRANCH  75  78
ATOM     78  C   UNL A   1      35.027  22.374  24.022  1.00  0.00     0.185 C 
BRANCH  78  79
ATOM     79  C   UNL A   1      35.087  21.129  24.947  1.00  0.00     0.071 C 
BRANCH  79  80
ATOM     80  C   UNL A   1      34.393  19.819  24.641  1.00  0.00    -0.045 A 
ATOM     81  C   UNL A   1      35.194  18.664  24.579  1.00  0.00     0.004 A 
ATOM     82  C   UNL A   1      33.012  19.656  24.511  1.00  0.00     0.004 A 
ATOM     83  C   UNL A   1      34.625  17.395  24.452  1.00  0.00     0.000 A 
ATOM     84  C   UNL A   1      32.438  18.388  24.401  1.00  0.00     0.000 A 
ATOM     85  C   UNL A   1      33.243  17.257  24.387  1.00  0.00     0.000 A 
ENDBRANCH  79  80
ENDBRANCH  78  79
BRANCH  78  86
ATOM     86  N   UNL A   1      33.908  23.316  24.222  1.00  0.00    -0.280 N 
ATOM     87  C   UNL A   1      33.327  23.961  23.143  1.00  0.00     0.266 C 
ATOM     88  C   UNL A   1      33.416  23.679  25.466  1.00  0.00     0.149 C 
ATOM     89  O   UNL A   1      33.437  23.680  21.967  1.00  0.00    -0.268 OA
ATOM     90  C   UNL A   1      32.520  25.117  23.609  1.00  0.00     0.081 C 
ATOM     91  S   UNL A   1      32.320  25.047  25.306  1.00  0.00    -0.054 SA
ATOM     92  S   UNL A   1      33.739  23.017  26.965  1.00  0.00    -0.052 S 
ATOM     93  C   UNL A   1      32.113  26.065  22.753  1.00  0.00     0.029 C 
BRANCH  93  94
ATOM     94  C   UNL A   1      31.393  27.285  23.124  1.00  0.00    -0.024 A 
ATOM     95  C   UNL A   1      32.065  28.297  23.806  1.00  0.00     0.010 A 
ATOM     96  C   UNL A   1      30.043  27.459  22.804  1.00  0.00     0.018 A 
ATOM     97  C   UNL A   1      31.409  29.497  24.099  1.00  0.00     0.029 A 
ATOM     98  C   UNL A   1      29.396  28.675  23.080  1.00  0.00     0.001 A 
ATOM     99  C   UNL A   1      30.090  29.719  23.726  1.00  0.00     0.070 A 
ATOM    100  C   UNL A   1      28.065  28.897  22.705  1.00  0.00     0.012 A 
ATOM    101  N   UNL A   1      29.521  30.912  23.974  1.00  0.00    -0.256 NA
ATOM    102  C   UNL A   1      27.479  30.133  22.951  1.00  0.00     0.021 A 
ATOM    103  C   UNL A   1      28.243  31.097  23.579  1.00  0.00     0.112 A 
ENDBRANCH  93  94
ENDBRANCH  78  86
ENDBRANCH  75  78
ENDBRANCH  73  74
ENDBRANCH  72  73
ENDBRANCH   1  72
TORSDOF 18
ENDMDL
