MODEL 1
REMARK VINA RESULT:     -13.6      0.000      0.000
REMARK SMILES Cc1ccc(C(=O)N2CCCC[C@@H]2C(=O)NCCCCNC(=O)c2ccc(-c3c4nc(c(-c5cc(S(=O)(=O)[O-])ccc5F)c5ccc([nH]5)c(-c5cc(S(=O)(=O)[O-])ccc5F)c5nc(c(-c6cc(S(=O)(=O)[O-])ccc6F)c6ccc3[nH]6)C=C5)C=C4)cc2)cc1S(=O)(=O)N1CCCCC1
REMARK SMILES IDX 18 1 17 2 16 3 14 4 15 5 13 7 8 8 9 9 10 10 12 11 11 12 6 13
REMARK SMILES IDX 7 14 5 15 1 16 2 17 3 18 88 19 4 20 87 21 89 22 90 23 91 24
REMARK SMILES IDX 92 25 93 26 97 27 94 28 96 29 95 30 19 31 20 32 21 33 22 34
REMARK SMILES IDX 23 36 24 37 25 38 86 39 26 40 85 41 27 42 28 43 29 44 79 45
REMARK SMILES IDX 30 46 84 47 78 48 80 49 31 50 83 51 77 52 76 53 32 55 64 56
REMARK SMILES IDX 44 57 63 58 45 59 48 60 62 61 81 62 46 63 47 64 61 66 82 67
REMARK SMILES IDX 49 68 33 69 34 70 42 71 35 72 41 73 43 74 40 75 36 76 37 77
REMARK SMILES IDX 38 78 39 79 65 80 66 81 74 82 67 83 73 84 75 85 72 86 68 87
REMARK SMILES IDX 69 88 70 89 71 90 50 91 51 92 59 93 52 94 58 95 60 96 57 97
REMARK SMILES IDX 53 98 54 99 55 100 56 101
REMARK H PARENT 16 6 21 35 80 54 48 65
REMARK Flexibility Score: inf
ROOT
ATOM      1  C   UNL A   1      32.316  30.316  26.954  1.00  0.00     0.023 C 
ENDROOT
BRANCH   1   2
ATOM      2  C   UNL A   1      32.826  29.061  26.227  1.00  0.00     0.116 C 
BRANCH   2   3
ATOM      3  N   UNL A   1      33.081  29.348  24.820  1.00  0.00    -0.354 N 
ATOM      4  C   UNL A   1      32.244  29.268  23.750  1.00  0.00     0.242 C 
ATOM      5  O   UNL A   1      32.759  29.249  22.626  1.00  0.00    -0.273 OA
ATOM      6  H   UNL A   1      33.998  29.643  24.613  1.00  0.00     0.163 HD
BRANCH   4   7
ATOM      7  C   UNL A   1      30.713  29.097  23.912  1.00  0.00     0.174 C 
ATOM      8  N   UNL A   1      30.101  28.071  23.030  1.00  0.00    -0.327 N 
ATOM      9  C   UNL A   1      28.656  28.129  22.841  1.00  0.00     0.120 C 
ATOM     10  C   UNL A   1      28.140  29.516  22.524  1.00  0.00     0.022 C 
ATOM     11  C   UNL A   1      30.081  30.497  23.737  1.00  0.00     0.035 C 
ATOM     12  C   UNL A   1      28.567  30.490  23.608  1.00  0.00     0.004 C 
BRANCH   8  13
ATOM     13  C   UNL A   1      30.660  26.829  22.699  1.00  0.00     0.254 C 
ATOM     14  O   UNL A   1      31.038  26.548  21.562  1.00  0.00    -0.269 OA
BRANCH  13  15
ATOM     15  C   UNL A   1      30.725  25.729  23.681  1.00  0.00     0.041 A 
ATOM     16  C   UNL A   1      31.443  23.025  26.948  1.00  0.00     0.046 C 
ATOM     17  C   UNL A   1      31.234  23.827  25.706  1.00  0.00    -0.031 A 
ATOM     18  C   UNL A   1      30.450  24.986  25.942  1.00  0.00     0.005 A 
ATOM     19  C   UNL A   1      31.739  23.613  24.409  1.00  0.00     0.086 A 
ATOM     20  C   UNL A   1      30.197  25.927  24.949  1.00  0.00     0.014 A 
ATOM     21  C   UNL A   1      31.498  24.596  23.424  1.00  0.00     0.035 A 
BRANCH  19  22
ATOM     22  S   UNL A   1      32.708  22.259  23.726  1.00  0.00     0.243 S 
ATOM     23  O   UNL A   1      32.134  21.047  24.256  1.00  0.00    -0.207 OA
ATOM     24  O   UNL A   1      32.720  22.485  22.283  1.00  0.00    -0.207 OA
BRANCH  22  25
ATOM     25  N   UNL A   1      34.327  22.296  24.221  1.00  0.00    -0.198 NA
ATOM     26  C   UNL A   1      34.770  21.185  25.084  1.00  0.00     0.102 C 
ATOM     27  C   UNL A   1      35.254  23.037  23.340  1.00  0.00     0.102 C 
ATOM     28  C   UNL A   1      36.240  21.242  25.465  1.00  0.00     0.017 C 
ATOM     29  C   UNL A   1      36.712  22.983  23.773  1.00  0.00     0.017 C 
ATOM     30  C   UNL A   1      37.138  21.627  24.304  1.00  0.00     0.003 C 
ENDBRANCH  22  25
ENDBRANCH  19  22
ENDBRANCH  13  15
ENDBRANCH   8  13
ENDBRANCH   4   7
ENDBRANCH   2   3
ENDBRANCH   1   2
BRANCH   1  31
ATOM     31  C   UNL A   1      33.403  31.275  27.421  1.00  0.00     0.023 C 
BRANCH  31  32
ATOM     32  C   UNL A   1      34.735  30.613  27.731  1.00  0.00     0.116 C 
BRANCH  32  33
ATOM     33  N   UNL A   1      35.712  31.481  28.377  1.00  0.00    -0.352 N 
ATOM     34  C   UNL A   1      36.887  31.143  29.031  1.00  0.00     0.251 C 
ATOM     35  H   UNL A   1      35.509  32.444  28.345  1.00  0.00     0.163 HD
ATOM     36  O   UNL A   1      37.522  31.959  29.694  1.00  0.00    -0.269 OA
BRANCH  34  37
ATOM     37  C   UNL A   1      37.508  29.824  28.743  1.00  0.00     0.039 A 
ATOM     38  C   UNL A   1      37.575  28.936  29.827  1.00  0.00     0.014 A 
ATOM     39  C   UNL A   1      38.338  29.658  27.644  1.00  0.00     0.014 A 
ATOM     40  C   UNL A   1      38.688  28.123  29.962  1.00  0.00     0.010 A 
ATOM     41  C   UNL A   1      39.514  28.982  27.842  1.00  0.00     0.010 A 
ATOM     42  C   UNL A   1      39.708  28.283  29.035  1.00  0.00    -0.014 A 
BRANCH  42  43
ATOM     43  C   UNL A   1      41.032  27.724  29.179  1.00  0.00     0.031 A 
ATOM     44  C   UNL A   1      41.203  26.333  28.753  1.00  0.00     0.074 A 
ATOM     45  C   UNL A   1      42.036  28.557  29.521  1.00  0.00     0.049 A 
ATOM     46  N   UNL A   1      42.187  25.581  29.080  1.00  0.00    -0.248 NA
ATOM     47  C   UNL A   1      40.200  25.645  27.942  1.00  0.00     0.031 C 
ATOM     48  C   UNL A   1      43.476  28.340  29.449  1.00  0.00     0.029 A 
ATOM     49  N   UNL A   1      41.904  29.743  30.245  1.00  0.00    -0.354 N 
ATOM     50  C   UNL A   1      42.119  24.450  28.295  1.00  0.00     0.074 A 
ATOM     51  C   UNL A   1      40.811  24.486  27.699  1.00  0.00     0.031 C 
ATOM     52  C   UNL A   1      44.081  29.174  30.317  1.00  0.00     0.029 A 
ATOM     53  C   UNL A   1      43.031  29.829  31.083  1.00  0.00     0.049 A 
ATOM     54  H   UNL A   1      41.166  30.391  30.181  1.00  0.00     0.167 HD
ATOM     55  C   UNL A   1      43.257  23.721  28.136  1.00  0.00     0.034 A 
ATOM     56  C   UNL A   1      42.858  29.702  32.434  1.00  0.00     0.034 A 
ATOM     57  C   UNL A   1      44.291  24.229  29.042  1.00  0.00     0.049 A 
ATOM     58  C   UNL A   1      43.485  28.427  32.968  1.00  0.00     0.074 A 
ATOM     59  C   UNL A   1      45.339  25.118  28.865  1.00  0.00     0.029 A 
ATOM     60  N   UNL A   1      44.072  24.148  30.413  1.00  0.00    -0.354 N 
ATOM     61  N   UNL A   1      43.740  27.364  32.247  1.00  0.00    -0.248 NA
ATOM     62  C   UNL A   1      43.926  28.285  34.350  1.00  0.00     0.031 C 
ATOM     63  C   UNL A   1      45.659  25.663  30.142  1.00  0.00     0.029 A 
ATOM     64  C   UNL A   1      44.844  25.069  31.093  1.00  0.00     0.049 A 
ATOM     65  H   UNL A   1      43.448  23.517  30.842  1.00  0.00     0.167 HD
ATOM     66  C   UNL A   1      44.365  26.419  33.022  1.00  0.00     0.074 A 
ATOM     67  C   UNL A   1      44.477  27.059  34.324  1.00  0.00     0.031 C 
ATOM     68  C   UNL A   1      44.740  25.190  32.543  1.00  0.00     0.034 A 
BRANCH  55  69
ATOM     69  C   UNL A   1      43.544  22.778  26.986  1.00  0.00     0.023 A 
ATOM     70  C   UNL A   1      42.934  21.507  27.011  1.00  0.00     0.031 A 
ATOM     71  C   UNL A   1      44.428  22.991  25.908  1.00  0.00     0.131 A 
ATOM     72  C   UNL A   1      43.250  20.512  26.066  1.00  0.00     0.055 A 
ATOM     73  C   UNL A   1      44.760  21.996  24.977  1.00  0.00     0.041 A 
ATOM     74  F   UNL A   1      45.001  24.173  25.667  1.00  0.00    -0.206 F 
ATOM     75  C   UNL A   1      44.175  20.744  25.055  1.00  0.00     0.022 A 
BRANCH  72  76
ATOM     76  S   UNL A   1      42.444  18.896  26.197  1.00  0.00     0.124 S 
ATOM     77  O   UNL A   1      42.600  18.591  27.616  1.00  0.00    -0.237 OA
ATOM     78  O   UNL A   1      41.090  19.187  25.741  1.00  0.00    -0.237 OA
ATOM     79  O   UNL A   1      43.230  18.053  25.297  1.00  0.00    -0.744 OA
ENDBRANCH  72  76
ENDBRANCH  55  69
BRANCH  56  80
ATOM     80  C   UNL A   1      41.569  30.323  32.894  1.00  0.00     0.023 A 
ATOM     81  C   UNL A   1      41.515  31.739  32.915  1.00  0.00     0.031 A 
ATOM     82  C   UNL A   1      40.353  29.629  32.836  1.00  0.00     0.131 A 
ATOM     83  C   UNL A   1      40.308  32.408  32.655  1.00  0.00     0.055 A 
ATOM     84  C   UNL A   1      39.138  30.309  32.660  1.00  0.00     0.041 A 
ATOM     85  F   UNL A   1      40.330  28.289  32.798  1.00  0.00    -0.206 F 
ATOM     86  C   UNL A   1      39.118  31.695  32.504  1.00  0.00     0.022 A 
BRANCH  83  87
ATOM     87  S   UNL A   1      40.353  34.174  32.213  1.00  0.00     0.124 S 
ATOM     88  O   UNL A   1      39.716  34.799  33.366  1.00  0.00    -0.237 OA
ATOM     89  O   UNL A   1      41.781  34.439  32.055  1.00  0.00    -0.237 OA
ATOM     90  O   UNL A   1      39.601  34.242  30.960  1.00  0.00    -0.744 OA
ENDBRANCH  83  87
ENDBRANCH  56  80
BRANCH  68  91
ATOM     91  C   UNL A   1      45.121  23.999  33.406  1.00  0.00     0.023 A 
ATOM     92  C   UNL A   1      46.383  23.862  33.994  1.00  0.00     0.031 A 
ATOM     93  C   UNL A   1      44.192  22.979  33.735  1.00  0.00     0.131 A 
ATOM     94  C   UNL A   1      46.729  22.721  34.733  1.00  0.00     0.055 A 
ATOM     95  C   UNL A   1      44.500  21.905  34.576  1.00  0.00     0.041 A 
ATOM     96  F   UNL A   1      42.935  22.978  33.267  1.00  0.00    -0.206 F 
ATOM     97  C   UNL A   1      45.788  21.752  35.058  1.00  0.00     0.022 A 
BRANCH  94  98
ATOM     98  S   UNL A   1      48.476  22.490  35.145  1.00  0.00     0.124 S 
ATOM     99  O   UNL A   1      49.133  23.260  34.090  1.00  0.00    -0.237 OA
ATOM    100  O   UNL A   1      48.561  23.057  36.487  1.00  0.00    -0.237 OA
ATOM    101  O   UNL A   1      48.661  21.044  35.065  1.00  0.00    -0.744 OA
ENDBRANCH  94  98
ENDBRANCH  68  91
ENDBRANCH  42  43
ENDBRANCH  34  37
ENDBRANCH  32  33
ENDBRANCH  31  32
ENDBRANCH   1  31
TORSDOF 18
ENDMDL
MODEL 2
REMARK VINA RESULT:     -13.1      3.953     10.601
REMARK SMILES Cc1ccc(C(=O)N2CCCC[C@@H]2C(=O)NCCCCNC(=O)c2ccc(-c3c4nc(c(-c5cc(S(=O)(=O)[O-])ccc5F)c5ccc([nH]5)c(-c5cc(S(=O)(=O)[O-])ccc5F)c5nc(c(-c6cc(S(=O)(=O)[O-])ccc6F)c6ccc3[nH]6)C=C5)C=C4)cc2)cc1S(=O)(=O)N1CCCCC1
REMARK SMILES IDX 18 1 17 2 16 3 14 4 15 5 13 7 8 8 9 9 10 10 12 11 11 12 6 13
REMARK SMILES IDX 7 14 5 15 1 16 2 17 3 18 88 19 4 20 87 21 89 22 90 23 91 24
REMARK SMILES IDX 92 25 93 26 97 27 94 28 96 29 95 30 19 31 20 32 21 33 22 34
REMARK SMILES IDX 23 36 24 37 25 38 86 39 26 40 85 41 27 42 28 43 29 44 79 45
REMARK SMILES IDX 30 46 84 47 78 48 80 49 31 50 83 51 77 52 76 53 32 55 64 56
REMARK SMILES IDX 44 57 63 58 45 59 48 60 62 61 81 62 46 63 47 64 61 66 82 67
REMARK SMILES IDX 49 68 33 69 34 70 42 71 35 72 41 73 43 74 40 75 36 76 37 77
REMARK SMILES IDX 38 78 39 79 65 80 66 81 74 82 67 83 73 84 75 85 72 86 68 87
REMARK SMILES IDX 69 88 70 89 71 90 50 91 51 92 59 93 52 94 58 95 60 96 57 97
REMARK SMILES IDX 53 98 54 99 55 100 56 101
REMARK H PARENT 16 6 21 35 80 54 48 65
REMARK Flexibility Score: inf
ROOT
ATOM      1  C   UNL A   1      37.036  23.766  25.485  1.00  0.00     0.023 C 
ENDROOT
BRANCH   1   2
ATOM      2  C   UNL A   1      36.748  22.261  25.363  1.00  0.00     0.116 C 
BRANCH   2   3
ATOM      3  N   UNL A   1      35.804  21.832  26.389  1.00  0.00    -0.354 N 
ATOM      4  C   UNL A   1      34.609  21.194  26.259  1.00  0.00     0.242 C 
ATOM      5  O   UNL A   1      33.844  21.218  27.229  1.00  0.00    -0.273 OA
ATOM      6  H   UNL A   1      36.072  22.033  27.315  1.00  0.00     0.163 HD
BRANCH   4   7
ATOM      7  C   UNL A   1      34.158  20.552  24.923  1.00  0.00     0.174 C 
ATOM      8  N   UNL A   1      32.727  20.757  24.582  1.00  0.00    -0.327 N 
ATOM      9  C   UNL A   1      32.148  19.874  23.575  1.00  0.00     0.120 C 
ATOM     10  C   UNL A   1      32.464  18.410  23.796  1.00  0.00     0.022 C 
ATOM     11  C   UNL A   1      34.556  19.059  24.982  1.00  0.00     0.035 C 
ATOM     12  C   UNL A   1      33.968  18.209  23.868  1.00  0.00     0.004 C 
BRANCH   8  13
ATOM     13  C   UNL A   1      31.990  21.932  24.787  1.00  0.00     0.254 C 
ATOM     14  O   UNL A   1      31.011  21.984  25.532  1.00  0.00    -0.269 OA
BRANCH  13  15
ATOM     15  C   UNL A   1      32.278  23.163  24.027  1.00  0.00     0.041 A 
ATOM     16  C   UNL A   1      33.699  26.879  22.393  1.00  0.00     0.046 C 
ATOM     17  C   UNL A   1      33.043  25.660  22.952  1.00  0.00    -0.031 A 
ATOM     18  C   UNL A   1      33.862  24.508  22.835  1.00  0.00     0.005 A 
ATOM     19  C   UNL A   1      31.797  25.533  23.597  1.00  0.00     0.086 A 
ATOM     20  C   UNL A   1      33.491  23.276  23.363  1.00  0.00     0.014 A 
ATOM     21  C   UNL A   1      31.454  24.281  24.154  1.00  0.00     0.035 A 
BRANCH  19  22
ATOM     22  S   UNL A   1      30.486  26.732  23.883  1.00  0.00     0.243 S 
ATOM     23  O   UNL A   1      30.358  27.487  22.661  1.00  0.00    -0.207 OA
ATOM     24  O   UNL A   1      29.353  25.953  24.376  1.00  0.00    -0.207 OA
BRANCH  22  25
ATOM     25  N   UNL A   1      30.864  27.837  25.109  1.00  0.00    -0.198 NA
ATOM     26  C   UNL A   1      31.273  27.260  26.404  1.00  0.00     0.102 C 
ATOM     27  C   UNL A   1      31.307  29.174  24.659  1.00  0.00     0.102 C 
ATOM     28  C   UNL A   1      31.641  28.292  27.456  1.00  0.00     0.017 C 
ATOM     29  C   UNL A   1      31.712  30.114  25.785  1.00  0.00     0.017 C 
ATOM     30  C   UNL A   1      32.479  29.430  26.901  1.00  0.00     0.003 C 
ENDBRANCH  22  25
ENDBRANCH  19  22
ENDBRANCH  13  15
ENDBRANCH   8  13
ENDBRANCH   4   7
ENDBRANCH   2   3
ENDBRANCH   1   2
BRANCH   1  31
ATOM     31  C   UNL A   1      38.257  24.121  26.322  1.00  0.00     0.023 C 
BRANCH  31  32
ATOM     32  C   UNL A   1      39.087  22.928  26.763  1.00  0.00     0.116 C 
BRANCH  32  33
ATOM     33  N   UNL A   1      40.478  23.232  27.073  1.00  0.00    -0.352 N 
ATOM     34  C   UNL A   1      41.102  24.464  27.184  1.00  0.00     0.251 C 
ATOM     35  H   UNL A   1      41.057  22.450  27.226  1.00  0.00     0.163 HD
ATOM     36  O   UNL A   1      42.323  24.572  27.265  1.00  0.00    -0.269 OA
BRANCH  34  37
ATOM     37  C   UNL A   1      40.265  25.666  27.431  1.00  0.00     0.039 A 
ATOM     38  C   UNL A   1      40.515  26.762  26.590  1.00  0.00     0.014 A 
ATOM     39  C   UNL A   1      39.624  25.845  28.648  1.00  0.00     0.014 A 
ATOM     40  C   UNL A   1      40.447  28.042  27.115  1.00  0.00     0.010 A 
ATOM     41  C   UNL A   1      39.707  27.085  29.225  1.00  0.00     0.010 A 
ATOM     42  C   UNL A   1      40.191  28.158  28.474  1.00  0.00    -0.014 A 
BRANCH  42  43
ATOM     43  C   UNL A   1      40.354  29.378  29.231  1.00  0.00     0.031 A 
ATOM     44  C   UNL A   1      39.262  30.351  29.141  1.00  0.00     0.074 A 
ATOM     45  C   UNL A   1      41.392  29.457  30.087  1.00  0.00     0.049 A 
ATOM     46  N   UNL A   1      39.350  31.585  29.472  1.00  0.00    -0.248 NA
ATOM     47  C   UNL A   1      37.955  29.997  28.591  1.00  0.00     0.031 C 
ATOM     48  C   UNL A   1      41.626  30.413  31.163  1.00  0.00     0.029 A 
ATOM     49  N   UNL A   1      42.599  28.765  29.975  1.00  0.00    -0.354 N 
ATOM     50  C   UNL A   1      38.072  32.101  29.481  1.00  0.00     0.074 A 
ATOM     51  C   UNL A   1      37.265  31.114  28.815  1.00  0.00     0.031 C 
ATOM     52  C   UNL A   1      42.947  30.454  31.424  1.00  0.00     0.029 A 
ATOM     53  C   UNL A   1      43.607  29.645  30.410  1.00  0.00     0.049 A 
ATOM     54  H   UNL A   1      42.719  27.842  29.655  1.00  0.00     0.167 HD
ATOM     55  C   UNL A   1      37.851  33.231  30.206  1.00  0.00     0.034 A 
ATOM     56  C   UNL A   1      44.503  30.124  29.493  1.00  0.00     0.034 A 
ATOM     57  C   UNL A   1      39.133  33.771  30.669  1.00  0.00     0.049 A 
ATOM     58  C   UNL A   1      44.336  31.615  29.265  1.00  0.00     0.074 A 
ATOM     59  C   UNL A   1      39.826  33.649  31.862  1.00  0.00     0.029 A 
ATOM     60  N   UNL A   1      40.056  34.197  29.720  1.00  0.00    -0.354 N 
ATOM     61  N   UNL A   1      43.239  32.288  29.509  1.00  0.00    -0.248 NA
ATOM     62  C   UNL A   1      45.423  32.467  28.798  1.00  0.00     0.031 C 
ATOM     63  C   UNL A   1      41.203  33.885  31.585  1.00  0.00     0.029 A 
ATOM     64  C   UNL A   1      41.336  34.200  30.242  1.00  0.00     0.049 A 
ATOM     65  H   UNL A   1      39.829  34.461  28.799  1.00  0.00     0.167 HD
ATOM     66  C   UNL A   1      43.448  33.620  29.255  1.00  0.00     0.074 A 
ATOM     67  C   UNL A   1      44.840  33.678  28.835  1.00  0.00     0.031 C 
ATOM     68  C   UNL A   1      42.471  34.571  29.405  1.00  0.00     0.034 A 
BRANCH  55  69
ATOM     69  C   UNL A   1      36.511  33.680  30.750  1.00  0.00     0.023 A 
ATOM     70  C   UNL A   1      35.580  34.220  29.838  1.00  0.00     0.031 A 
ATOM     71  C   UNL A   1      36.100  33.696  32.098  1.00  0.00     0.131 A 
ATOM     72  C   UNL A   1      34.368  34.794  30.267  1.00  0.00     0.055 A 
ATOM     73  C   UNL A   1      34.902  34.285  32.531  1.00  0.00     0.041 A 
ATOM     74  F   UNL A   1      36.806  33.122  33.075  1.00  0.00    -0.206 F 
ATOM     75  C   UNL A   1      34.030  34.845  31.614  1.00  0.00     0.022 A 
BRANCH  72  76
ATOM     76  S   UNL A   1      33.249  35.497  29.030  1.00  0.00     0.124 S 
ATOM     77  O   UNL A   1      34.154  36.313  28.226  1.00  0.00    -0.237 OA
ATOM     78  O   UNL A   1      32.709  34.304  28.388  1.00  0.00    -0.237 OA
ATOM     79  O   UNL A   1      32.288  36.253  29.833  1.00  0.00    -0.744 OA
ENDBRANCH  72  76
ENDBRANCH  55  69
BRANCH  56  80
ATOM     80  C   UNL A   1      44.843  29.094  28.452  1.00  0.00     0.023 A 
ATOM     81  C   UNL A   1      45.634  27.997  28.875  1.00  0.00     0.031 A 
ATOM     82  C   UNL A   1      44.066  28.926  27.298  1.00  0.00     0.131 A 
ATOM     83  C   UNL A   1      45.463  26.731  28.292  1.00  0.00     0.055 A 
ATOM     84  C   UNL A   1      43.965  27.677  26.668  1.00  0.00     0.041 A 
ATOM     85  F   UNL A   1      43.282  29.917  26.849  1.00  0.00    -0.206 F 
ATOM     86  C   UNL A   1      44.611  26.560  27.201  1.00  0.00     0.022 A 
BRANCH  83  87
ATOM     87  S   UNL A   1      46.117  25.266  29.153  1.00  0.00     0.124 S 
ATOM     88  O   UNL A   1      45.392  25.299  30.417  1.00  0.00    -0.237 OA
ATOM     89  O   UNL A   1      45.772  24.170  28.249  1.00  0.00    -0.237 OA
ATOM     90  O   UNL A   1      47.555  25.523  29.240  1.00  0.00    -0.744 OA
ENDBRANCH  83  87
ENDBRANCH  56  80
BRANCH  68  91
ATOM     91  C   UNL A   1      42.531  35.978  28.833  1.00  0.00     0.023 A 
ATOM     92  C   UNL A   1      43.132  37.045  29.510  1.00  0.00     0.031 A 
ATOM     93  C   UNL A   1      42.044  36.287  27.538  1.00  0.00     0.131 A 
ATOM     94  C   UNL A   1      43.117  38.347  28.989  1.00  0.00     0.055 A 
ATOM     95  C   UNL A   1      42.143  37.560  26.966  1.00  0.00     0.041 A 
ATOM     96  F   UNL A   1      41.460  35.368  26.755  1.00  0.00    -0.206 F 
ATOM     97  C   UNL A   1      42.655  38.612  27.705  1.00  0.00     0.022 A 
BRANCH  94  98
ATOM     98  S   UNL A   1      43.604  39.696  30.092  1.00  0.00     0.124 S 
ATOM     99  O   UNL A   1      43.879  38.976  31.334  1.00  0.00    -0.237 OA
ATOM    100  O   UNL A   1      44.770  40.252  29.414  1.00  0.00    -0.237 OA
ATOM    101  O   UNL A   1      42.427  40.560  30.122  1.00  0.00    -0.744 OA
ENDBRANCH  94  98
ENDBRANCH  68  91
ENDBRANCH  42  43
ENDBRANCH  34  37
ENDBRANCH  32  33
ENDBRANCH  31  32
ENDBRANCH   1  31
TORSDOF 18
ENDMDL
MODEL 3
REMARK VINA RESULT:     -12.6      4.165     10.433
REMARK SMILES Cc1ccc(C(=O)N2CCCC[C@@H]2C(=O)NCCCCNC(=O)c2ccc(-c3c4nc(c(-c5cc(S(=O)(=O)[O-])ccc5F)c5ccc([nH]5)c(-c5cc(S(=O)(=O)[O-])ccc5F)c5nc(c(-c6cc(S(=O)(=O)[O-])ccc6F)c6ccc3[nH]6)C=C5)C=C4)cc2)cc1S(=O)(=O)N1CCCCC1
REMARK SMILES IDX 18 1 17 2 16 3 14 4 15 5 13 7 8 8 9 9 10 10 12 11 11 12 6 13
REMARK SMILES IDX 7 14 5 15 1 16 2 17 3 18 88 19 4 20 87 21 89 22 90 23 91 24
REMARK SMILES IDX 92 25 93 26 97 27 94 28 96 29 95 30 19 31 20 32 21 33 22 34
REMARK SMILES IDX 23 36 24 37 25 38 86 39 26 40 85 41 27 42 28 43 29 44 79 45
REMARK SMILES IDX 30 46 84 47 78 48 80 49 31 50 83 51 77 52 76 53 32 55 64 56
REMARK SMILES IDX 44 57 63 58 45 59 48 60 62 61 81 62 46 63 47 64 61 66 82 67
REMARK SMILES IDX 49 68 33 69 34 70 42 71 35 72 41 73 43 74 40 75 36 76 37 77
REMARK SMILES IDX 38 78 39 79 65 80 66 81 74 82 67 83 73 84 75 85 72 86 68 87
REMARK SMILES IDX 69 88 70 89 71 90 50 91 51 92 59 93 52 94 58 95 60 96 57 97
REMARK SMILES IDX 53 98 54 99 55 100 56 101
REMARK H PARENT 16 6 21 35 80 54 48 65
REMARK Flexibility Score: inf
ROOT
ATOM      1  C   UNL A   1      36.929  23.678  25.660  1.00  0.00     0.023 C 
ENDROOT
BRANCH   1   2
ATOM      2  C   UNL A   1      36.674  22.170  25.502  1.00  0.00     0.116 C 
BRANCH   2   3
ATOM      3  N   UNL A   1      35.690  21.709  26.475  1.00  0.00    -0.354 N 
ATOM      4  C   UNL A   1      34.507  21.067  26.278  1.00  0.00     0.242 C 
ATOM      5  O   UNL A   1      33.700  21.061  27.215  1.00  0.00    -0.273 OA
ATOM      6  H   UNL A   1      35.916  21.889  27.417  1.00  0.00     0.163 HD
BRANCH   4   7
ATOM      7  C   UNL A   1      34.119  20.454  24.909  1.00  0.00     0.174 C 
ATOM      8  N   UNL A   1      32.700  20.649  24.515  1.00  0.00    -0.327 N 
ATOM      9  C   UNL A   1      32.175  19.786  23.463  1.00  0.00     0.120 C 
ATOM     10  C   UNL A   1      32.504  18.321  23.659  1.00  0.00     0.022 C 
ATOM     11  C   UNL A   1      34.536  18.966  24.945  1.00  0.00     0.035 C 
ATOM     12  C   UNL A   1      34.006  18.138  23.786  1.00  0.00     0.004 C 
BRANCH   8  13
ATOM     13  C   UNL A   1      31.939  21.808  24.722  1.00  0.00     0.254 C 
ATOM     14  O   UNL A   1      30.944  21.832  25.447  1.00  0.00    -0.269 OA
BRANCH  13  15
ATOM     15  C   UNL A   1      32.220  23.054  23.985  1.00  0.00     0.041 A 
ATOM     16  C   UNL A   1      33.645  26.790  22.399  1.00  0.00     0.046 C 
ATOM     17  C   UNL A   1      32.988  25.567  22.949  1.00  0.00    -0.031 A 
ATOM     18  C   UNL A   1      33.783  24.406  22.773  1.00  0.00     0.005 A 
ATOM     19  C   UNL A   1      31.763  25.442  23.634  1.00  0.00     0.086 A 
ATOM     20  C   UNL A   1      33.411  23.166  23.280  1.00  0.00     0.014 A 
ATOM     21  C   UNL A   1      31.419  24.182  24.170  1.00  0.00     0.035 A 
BRANCH  19  22
ATOM     22  S   UNL A   1      30.483  26.653  23.998  1.00  0.00     0.243 S 
ATOM     23  O   UNL A   1      30.287  27.409  22.785  1.00  0.00    -0.207 OA
ATOM     24  O   UNL A   1      29.376  25.886  24.561  1.00  0.00    -0.207 OA
BRANCH  22  25
ATOM     25  N   UNL A   1      30.946  27.757  25.197  1.00  0.00    -0.198 NA
ATOM     26  C   UNL A   1      31.305  27.183  26.508  1.00  0.00     0.102 C 
ATOM     27  C   UNL A   1      31.495  29.042  24.715  1.00  0.00     0.102 C 
ATOM     28  C   UNL A   1      31.752  28.209  27.534  1.00  0.00     0.017 C 
ATOM     29  C   UNL A   1      31.972  29.975  25.817  1.00  0.00     0.017 C 
ATOM     30  C   UNL A   1      32.679  29.261  26.954  1.00  0.00     0.003 C 
ENDBRANCH  22  25
ENDBRANCH  19  22
ENDBRANCH  13  15
ENDBRANCH   8  13
ENDBRANCH   4   7
ENDBRANCH   2   3
ENDBRANCH   1   2
BRANCH   1  31
ATOM     31  C   UNL A   1      38.133  24.039  26.521  1.00  0.00     0.023 C 
BRANCH  31  32
ATOM     32  C   UNL A   1      39.316  23.098  26.376  1.00  0.00     0.116 C 
BRANCH  32  33
ATOM     33  N   UNL A   1      40.329  23.225  27.416  1.00  0.00    -0.352 N 
ATOM     34  C   UNL A   1      40.776  24.363  28.068  1.00  0.00     0.251 C 
ATOM     35  H   UNL A   1      40.756  22.383  27.695  1.00  0.00     0.163 HD
ATOM     36  O   UNL A   1      41.769  24.352  28.792  1.00  0.00    -0.269 OA
BRANCH  34  37
ATOM     37  C   UNL A   1      39.911  25.570  28.068  1.00  0.00     0.039 A 
ATOM     38  C   UNL A   1      40.301  26.595  27.193  1.00  0.00     0.014 A 
ATOM     39  C   UNL A   1      39.074  25.841  29.141  1.00  0.00     0.014 A 
ATOM     40  C   UNL A   1      40.147  27.914  27.589  1.00  0.00     0.010 A 
ATOM     41  C   UNL A   1      39.059  27.126  29.617  1.00  0.00     0.010 A 
ATOM     42  C   UNL A   1      39.665  28.139  28.871  1.00  0.00    -0.014 A 
BRANCH  42  43
ATOM     43  C   UNL A   1      39.698  29.419  29.539  1.00  0.00     0.031 A 
ATOM     44  C   UNL A   1      38.754  30.431  29.057  1.00  0.00     0.074 A 
ATOM     45  C   UNL A   1      40.455  29.534  30.649  1.00  0.00     0.049 A 
ATOM     46  N   UNL A   1      38.838  31.686  29.296  1.00  0.00    -0.248 NA
ATOM     47  C   UNL A   1      37.633  30.087  28.184  1.00  0.00     0.031 C 
ATOM     48  C   UNL A   1      40.447  30.581  31.663  1.00  0.00     0.029 A 
ATOM     49  N   UNL A   1      41.588  28.776  30.948  1.00  0.00    -0.354 N 
ATOM     50  C   UNL A   1      37.653  32.262  28.893  1.00  0.00     0.074 A 
ATOM     51  C   UNL A   1      36.995  31.254  28.107  1.00  0.00     0.031 C 
ATOM     52  C   UNL A   1      41.639  30.583  32.291  1.00  0.00     0.029 A 
ATOM     53  C   UNL A   1      42.496  29.645  31.581  1.00  0.00     0.049 A 
ATOM     54  H   UNL A   1      41.724  27.821  30.753  1.00  0.00     0.167 HD
ATOM     55  C   UNL A   1      37.322  33.469  29.427  1.00  0.00     0.034 A 
ATOM     56  C   UNL A   1      43.648  29.985  30.925  1.00  0.00     0.034 A 
ATOM     57  C   UNL A   1      38.457  33.990  30.195  1.00  0.00     0.049 A 
ATOM     58  C   UNL A   1      43.666  31.452  30.536  1.00  0.00     0.074 A 
ATOM     59  C   UNL A   1      38.773  33.955  31.543  1.00  0.00     0.029 A 
ATOM     60  N   UNL A   1      39.641  34.272  29.522  1.00  0.00    -0.354 N 
ATOM     61  N   UNL A   1      42.599  32.198  30.397  1.00  0.00    -0.248 NA
ATOM     62  C   UNL A   1      44.902  32.199  30.335  1.00  0.00     0.031 C 
ATOM     63  C   UNL A   1      40.186  34.094  31.657  1.00  0.00     0.029 A 
ATOM     64  C   UNL A   1      40.716  34.266  30.388  1.00  0.00     0.049 A 
ATOM     65  H   UNL A   1      39.704  34.453  28.555  1.00  0.00     0.167 HD
ATOM     66  C   UNL A   1      42.972  33.487  30.105  1.00  0.00     0.074 A 
ATOM     67  C   UNL A   1      44.426  33.434  30.101  1.00  0.00     0.031 C 
ATOM     68  C   UNL A   1      42.067  34.494  29.887  1.00  0.00     0.034 A 
BRANCH  55  69
ATOM     69  C   UNL A   1      35.920  34.036  29.522  1.00  0.00     0.023 A 
ATOM     70  C   UNL A   1      35.383  34.248  30.809  1.00  0.00     0.031 A 
ATOM     71  C   UNL A   1      35.038  34.312  28.457  1.00  0.00     0.131 A 
ATOM     72  C   UNL A   1      34.043  34.635  31.000  1.00  0.00     0.055 A 
ATOM     73  C   UNL A   1      33.697  34.679  28.644  1.00  0.00     0.041 A 
ATOM     74  F   UNL A   1      35.418  34.276  27.178  1.00  0.00    -0.206 F 
ATOM     75  C   UNL A   1      33.189  34.836  29.922  1.00  0.00     0.022 A 
BRANCH  72  76
ATOM     76  S   UNL A   1      33.428  34.848  32.689  1.00  0.00     0.124 S 
ATOM     77  O   UNL A   1      33.503  33.488  33.216  1.00  0.00    -0.237 OA
ATOM     78  O   UNL A   1      34.371  35.812  33.243  1.00  0.00    -0.237 OA
ATOM     79  O   UNL A   1      32.071  35.357  32.493  1.00  0.00    -0.744 OA
ENDBRANCH  72  76
ENDBRANCH  55  69
BRANCH  56  80
ATOM     80  C   UNL A   1      44.190  28.840  30.116  1.00  0.00     0.023 A 
ATOM     81  C   UNL A   1      43.870  28.826  28.736  1.00  0.00     0.031 A 
ATOM     82  C   UNL A   1      45.316  28.114  30.528  1.00  0.00     0.131 A 
ATOM     83  C   UNL A   1      44.776  28.297  27.802  1.00  0.00     0.055 A 
ATOM     84  C   UNL A   1      46.173  27.514  29.594  1.00  0.00     0.041 A 
ATOM     85  F   UNL A   1      45.686  28.095  31.817  1.00  0.00    -0.206 F 
ATOM     86  C   UNL A   1      45.942  27.659  28.225  1.00  0.00     0.022 A 
BRANCH  83  87
ATOM     87  S   UNL A   1      44.575  28.716  26.041  1.00  0.00     0.124 S 
ATOM     88  O   UNL A   1      43.238  29.296  26.011  1.00  0.00    -0.237 OA
ATOM     89  O   UNL A   1      45.677  29.643  25.794  1.00  0.00    -0.237 OA
ATOM     90  O   UNL A   1      44.724  27.431  25.356  1.00  0.00    -0.744 OA
ENDBRANCH  83  87
ENDBRANCH  56  80
BRANCH  68  91
ATOM     91  C   UNL A   1      42.393  35.832  29.243  1.00  0.00     0.023 A 
ATOM     92  C   UNL A   1      43.193  36.797  29.864  1.00  0.00     0.031 A 
ATOM     93  C   UNL A   1      41.964  36.161  27.932  1.00  0.00     0.131 A 
ATOM     94  C   UNL A   1      43.425  38.049  29.275  1.00  0.00     0.055 A 
ATOM     95  C   UNL A   1      42.302  37.360  27.294  1.00  0.00     0.041 A 
ATOM     96  F   UNL A   1      41.208  35.333  27.197  1.00  0.00    -0.206 F 
ATOM     97  C   UNL A   1      43.013  38.330  27.978  1.00  0.00     0.022 A 
BRANCH  94  98
ATOM     98  S   UNL A   1      44.172  39.333  30.308  1.00  0.00     0.124 S 
ATOM     99  O   UNL A   1      44.367  38.621  31.570  1.00  0.00    -0.237 OA
ATOM    100  O   UNL A   1      45.390  39.659  29.574  1.00  0.00    -0.237 OA
ATOM    101  O   UNL A   1      43.159  40.384  30.338  1.00  0.00    -0.744 OA
ENDBRANCH  94  98
ENDBRANCH  68  91
ENDBRANCH  42  43
ENDBRANCH  34  37
ENDBRANCH  32  33
ENDBRANCH  31  32
ENDBRANCH   1  31
TORSDOF 18
ENDMDL
