MODEL 1
REMARK VINA RESULT:     -13.0      0.000      0.000
REMARK SMILES C[C@@H]1C[C@H](C)C[C@H]([N@@H+]2[C@@H](C(=O)NCCCCNC(=O)c3ccc(-c4c5nc(c(-c6cc(S(=O)(=O)[O-])ccc6F)c6ccc([nH]6)c(-c6cc(S(=O)(=O)[O-])ccc6F)c6nc(c(-c7cc(S(=O)(=O)[O-])ccc7F)c7ccc4[nH]7)C=C6)C=C5)cc3)CC[C@@H]3CCCC[C@@H]32)C1
REMARK SMILES IDX 15 1 14 2 13 3 12 4 10 5 11 6 9 8 8 9 90 10 83 12 85 13
REMARK SMILES IDX 89 14 84 15 86 16 88 17 87 18 7 19 5 20 4 21 6 22 3 23 2 24
REMARK SMILES IDX 91 25 1 26 16 27 17 28 18 29 19 31 20 32 21 33 82 34 22 35
REMARK SMILES IDX 81 36 23 37 24 38 25 39 75 40 26 41 80 42 74 43 76 44 27 45
REMARK SMILES IDX 79 46 73 47 72 48 28 50 60 51 40 52 59 53 41 54 44 55 58 56
REMARK SMILES IDX 77 57 42 58 43 59 57 61 78 62 45 63 29 64 30 65 38 66 31 67
REMARK SMILES IDX 37 68 39 69 36 70 32 71 33 72 34 73 35 74 61 75 62 76 70 77
REMARK SMILES IDX 63 78 69 79 71 80 68 81 64 82 65 83 66 84 67 85 46 86 47 87
REMARK SMILES IDX 55 88 48 89 54 90 56 91 53 92 49 93 50 94 51 95 52 96
REMARK H PARENT 12 7 8 11 17 30 76 49 44 60
REMARK Flexibility Score: inf
ROOT
ATOM      1  C   UNL A   1      35.545  21.297  25.181  1.00  0.00     0.023 C 
ENDROOT
BRANCH   1   2
ATOM      2  C   UNL A   1      34.521  21.332  26.315  1.00  0.00     0.023 C 
BRANCH   2   3
ATOM      3  C   UNL A   1      34.407  22.706  26.974  1.00  0.00     0.116 C 
BRANCH   3   4
ATOM      4  N   UNL A   1      33.084  22.928  27.497  1.00  0.00    -0.351 N 
ATOM      5  C   UNL A   1      32.059  23.633  26.934  1.00  0.00     0.278 C 
ATOM      6  O   UNL A   1      31.005  23.681  27.575  1.00  0.00    -0.268 OA
ATOM      7  H   UNL A   1      32.893  22.519  28.372  1.00  0.00     0.163 HD
BRANCH   5   8
ATOM      8  C   UNL A   1      32.186  24.227  25.493  1.00  0.00     0.274 C 
ATOM      9  N   UNL A   1      33.215  25.334  25.362  1.00  0.00    -0.320 N 
ATOM     10  C   UNL A   1      32.738  26.524  26.132  1.00  0.00     0.188 C 
ATOM     11  H   UNL A   1      34.114  25.301  25.842  1.00  0.00     0.349 HD
ATOM     12  C   UNL A   1      30.827  24.708  24.958  1.00  0.00     0.076 C 
ATOM     13  C   UNL A   1      31.280  27.012  25.961  1.00  0.00     0.048 C 
ATOM     14  C   UNL A   1      33.672  27.707  26.441  1.00  0.00     0.065 C 
ATOM     15  C   UNL A   1      30.270  25.887  25.741  1.00  0.00     0.016 C 
ATOM     16  C   UNL A   1      31.147  28.128  24.940  1.00  0.00     0.010 C 
ATOM     17  C   UNL A   1      33.199  29.141  26.159  1.00  0.00     0.006 C 
ATOM     18  C   UNL A   1      31.913  29.370  25.370  1.00  0.00     0.001 C 
BRANCH   9  19
ATOM     19  C   UNL A   1      33.903  25.265  24.025  1.00  0.00     0.185 C 
ATOM     20  C   UNL A   1      32.448  22.648  22.405  1.00  0.00     0.008 C 
ATOM     21  C   UNL A   1      33.648  23.505  22.082  1.00  0.00    -0.008 C 
ATOM     22  C   UNL A   1      34.383  23.976  23.341  1.00  0.00     0.068 C 
ATOM     23  C   UNL A   1      33.276  24.629  21.110  1.00  0.00     0.007 C 
ATOM     24  C   UNL A   1      32.736  25.919  21.730  1.00  0.00    -0.008 C 
ATOM     25  C   UNL A   1      33.528  26.346  22.964  1.00  0.00     0.068 C 
ATOM     26  C   UNL A   1      31.231  25.963  21.975  1.00  0.00     0.008 C 
ENDBRANCH   9  19
ENDBRANCH   5   8
ENDBRANCH   3   4
ENDBRANCH   2   3
ENDBRANCH   1   2
BRANCH   1  27
ATOM     27  C   UNL A   1      36.944  21.739  25.593  1.00  0.00     0.116 C 
BRANCH  27  28
ATOM     28  N   UNL A   1      37.905  20.645  25.635  1.00  0.00    -0.352 N 
ATOM     29  C   UNL A   1      39.219  20.695  26.051  1.00  0.00     0.251 C 
ATOM     30  H   UNL A   1      37.578  19.768  25.329  1.00  0.00     0.163 HD
ATOM     31  O   UNL A   1      39.950  19.725  25.935  1.00  0.00    -0.269 OA
BRANCH  29  32
ATOM     32  C   UNL A   1      39.724  21.973  26.595  1.00  0.00     0.039 A 
ATOM     33  C   UNL A   1      40.763  21.952  27.527  1.00  0.00     0.014 A 
ATOM     34  C   UNL A   1      39.238  23.185  26.097  1.00  0.00     0.014 A 
ATOM     35  C   UNL A   1      41.371  23.151  27.905  1.00  0.00     0.010 A 
ATOM     36  C   UNL A   1      39.895  24.366  26.413  1.00  0.00     0.010 A 
ATOM     37  C   UNL A   1      40.970  24.362  27.318  1.00  0.00    -0.014 A 
BRANCH  37  38
ATOM     38  C   UNL A   1      41.639  25.650  27.638  1.00  0.00     0.031 A 
ATOM     39  C   UNL A   1      40.883  26.704  28.398  1.00  0.00     0.074 A 
ATOM     40  C   UNL A   1      42.874  25.910  27.162  1.00  0.00     0.049 A 
ATOM     41  N   UNL A   1      41.207  27.946  28.642  1.00  0.00    -0.248 NA
ATOM     42  C   UNL A   1      39.564  26.311  28.915  1.00  0.00     0.031 C 
ATOM     43  C   UNL A   1      43.692  24.982  26.379  1.00  0.00     0.029 A 
ATOM     44  N   UNL A   1      43.647  27.041  27.249  1.00  0.00    -0.354 N 
ATOM     45  C   UNL A   1      40.118  28.494  29.312  1.00  0.00     0.074 A 
ATOM     46  C   UNL A   1      39.104  27.463  29.375  1.00  0.00     0.031 C 
ATOM     47  C   UNL A   1      44.855  25.577  26.068  1.00  0.00     0.029 A 
ATOM     48  C   UNL A   1      44.847  26.942  26.583  1.00  0.00     0.049 A 
ATOM     49  H   UNL A   1      43.369  27.847  27.740  1.00  0.00     0.167 HD
ATOM     50  C   UNL A   1      39.985  29.735  29.844  1.00  0.00     0.034 A 
ATOM     51  C   UNL A   1      45.821  27.856  26.390  1.00  0.00     0.034 A 
ATOM     52  C   UNL A   1      41.019  30.739  29.786  1.00  0.00     0.049 A 
ATOM     53  C   UNL A   1      45.652  29.235  26.978  1.00  0.00     0.074 A 
ATOM     54  C   UNL A   1      41.023  32.007  30.344  1.00  0.00     0.029 A 
ATOM     55  N   UNL A   1      42.233  30.594  29.127  1.00  0.00    -0.354 N 
ATOM     56  N   UNL A   1      44.635  29.728  27.648  1.00  0.00    -0.248 NA
ATOM     57  C   UNL A   1      46.764  30.176  26.794  1.00  0.00     0.031 C 
ATOM     58  C   UNL A   1      42.206  32.649  29.964  1.00  0.00     0.029 A 
ATOM     59  C   UNL A   1      42.979  31.756  29.240  1.00  0.00     0.049 A 
ATOM     60  H   UNL A   1      42.522  29.783  28.649  1.00  0.00     0.167 HD
ATOM     61  C   UNL A   1      45.002  31.025  27.994  1.00  0.00     0.074 A 
ATOM     62  C   UNL A   1      46.332  31.237  27.460  1.00  0.00     0.031 C 
ATOM     63  C   UNL A   1      44.306  31.953  28.700  1.00  0.00     0.034 A 
BRANCH  50  64
ATOM     64  C   UNL A   1      38.665  30.071  30.498  1.00  0.00     0.023 A 
ATOM     65  C   UNL A   1      37.645  30.742  29.801  1.00  0.00     0.031 A 
ATOM     66  C   UNL A   1      38.443  29.766  31.853  1.00  0.00     0.131 A 
ATOM     67  C   UNL A   1      36.499  31.177  30.483  1.00  0.00     0.055 A 
ATOM     68  C   UNL A   1      37.257  30.117  32.502  1.00  0.00     0.041 A 
ATOM     69  F   UNL A   1      39.386  29.145  32.578  1.00  0.00    -0.206 F 
ATOM     70  C   UNL A   1      36.285  30.845  31.822  1.00  0.00     0.022 A 
BRANCH  67  71
ATOM     71  S   UNL A   1      35.383  32.333  29.642  1.00  0.00     0.124 S 
ATOM     72  O   UNL A   1      34.904  31.521  28.527  1.00  0.00    -0.237 OA
ATOM     73  O   UNL A   1      34.404  32.639  30.679  1.00  0.00    -0.237 OA
ATOM     74  O   UNL A   1      36.260  33.440  29.264  1.00  0.00    -0.744 OA
ENDBRANCH  67  71
ENDBRANCH  50  64
BRANCH  51  75
ATOM     75  C   UNL A   1      47.033  27.505  25.597  1.00  0.00     0.023 A 
ATOM     76  C   UNL A   1      47.130  27.833  24.237  1.00  0.00     0.031 A 
ATOM     77  C   UNL A   1      48.110  26.819  26.189  1.00  0.00     0.131 A 
ATOM     78  C   UNL A   1      48.261  27.444  23.502  1.00  0.00     0.055 A 
ATOM     79  C   UNL A   1      49.253  26.477  25.465  1.00  0.00     0.041 A 
ATOM     80  F   UNL A   1      48.071  26.488  27.489  1.00  0.00    -0.206 F 
ATOM     81  C   UNL A   1      49.330  26.781  24.109  1.00  0.00     0.022 A 
BRANCH  78  82
ATOM     82  S   UNL A   1      48.291  27.766  21.716  1.00  0.00     0.124 S 
ATOM     83  O   UNL A   1      49.313  28.803  21.619  1.00  0.00    -0.237 OA
ATOM     84  O   UNL A   1      48.652  26.458  21.179  1.00  0.00    -0.237 OA
ATOM     85  O   UNL A   1      46.928  28.203  21.426  1.00  0.00    -0.744 OA
ENDBRANCH  78  82
ENDBRANCH  51  75
BRANCH  63  86
ATOM     86  C   UNL A   1      44.996  33.261  28.995  1.00  0.00     0.023 A 
ATOM     87  C   UNL A   1      44.903  34.366  28.132  1.00  0.00     0.031 A 
ATOM     88  C   UNL A   1      45.740  33.406  30.181  1.00  0.00     0.131 A 
ATOM     89  C   UNL A   1      45.573  35.557  28.451  1.00  0.00     0.055 A 
ATOM     90  C   UNL A   1      46.359  34.609  30.518  1.00  0.00     0.041 A 
ATOM     91  F   UNL A   1      45.863  32.380  31.039  1.00  0.00    -0.206 F 
ATOM     92  C   UNL A   1      46.284  35.691  29.647  1.00  0.00     0.022 A 
BRANCH  89  93
ATOM     93  S   UNL A   1      45.554  36.919  27.252  1.00  0.00     0.124 S 
ATOM     94  O   UNL A   1      46.328  36.361  26.147  1.00  0.00    -0.237 OA
ATOM     95  O   UNL A   1      44.128  37.100  27.004  1.00  0.00    -0.237 OA
ATOM     96  O   UNL A   1      46.201  38.017  27.969  1.00  0.00    -0.744 OA
ENDBRANCH  89  93
ENDBRANCH  63  86
ENDBRANCH  37  38
ENDBRANCH  29  32
ENDBRANCH  27  28
ENDBRANCH   1  27
TORSDOF 15
ENDMDL
MODEL 2
REMARK VINA RESULT:     -12.9      5.745     10.802
REMARK SMILES C[C@@H]1C[C@H](C)C[C@H]([N@@H+]2[C@@H](C(=O)NCCCCNC(=O)c3ccc(-c4c5nc(c(-c6cc(S(=O)(=O)[O-])ccc6F)c6ccc([nH]6)c(-c6cc(S(=O)(=O)[O-])ccc6F)c6nc(c(-c7cc(S(=O)(=O)[O-])ccc7F)c7ccc4[nH]7)C=C6)C=C5)cc3)CC[C@@H]3CCCC[C@@H]32)C1
REMARK SMILES IDX 15 1 14 2 13 3 12 4 10 5 11 6 9 8 8 9 90 10 83 12 85 13
REMARK SMILES IDX 89 14 84 15 86 16 88 17 87 18 7 19 5 20 4 21 6 22 3 23 2 24
REMARK SMILES IDX 91 25 1 26 16 27 17 28 18 29 19 31 20 32 21 33 82 34 22 35
REMARK SMILES IDX 81 36 23 37 24 38 25 39 75 40 26 41 80 42 74 43 76 44 27 45
REMARK SMILES IDX 79 46 73 47 72 48 28 50 60 51 40 52 59 53 41 54 44 55 58 56
REMARK SMILES IDX 77 57 42 58 43 59 57 61 78 62 45 63 29 64 30 65 38 66 31 67
REMARK SMILES IDX 37 68 39 69 36 70 32 71 33 72 34 73 35 74 61 75 62 76 70 77
REMARK SMILES IDX 63 78 69 79 71 80 68 81 64 82 65 83 66 84 67 85 46 86 47 87
REMARK SMILES IDX 55 88 48 89 54 90 56 91 53 92 49 93 50 94 51 95 52 96
REMARK H PARENT 12 7 8 11 17 30 76 49 44 60
REMARK Flexibility Score: inf
ROOT
ATOM      1  C   UNL A   1      32.244  31.231  26.875  1.00  0.00     0.023 C 
ENDROOT
BRANCH   1   2
ATOM      2  C   UNL A   1      32.471  29.760  27.220  1.00  0.00     0.023 C 
BRANCH   2   3
ATOM      3  C   UNL A   1      33.808  29.226  26.709  1.00  0.00     0.116 C 
BRANCH   3   4
ATOM      4  N   UNL A   1      33.748  28.926  25.301  1.00  0.00    -0.351 N 
ATOM      5  C   UNL A   1      33.767  27.702  24.696  1.00  0.00     0.278 C 
ATOM      6  O   UNL A   1      33.701  27.696  23.464  1.00  0.00    -0.268 OA
ATOM      7  H   UNL A   1      33.686  29.702  24.698  1.00  0.00     0.163 HD
BRANCH   5   8
ATOM      8  C   UNL A   1      33.738  26.386  25.540  1.00  0.00     0.274 C 
ATOM      9  N   UNL A   1      34.239  25.159  24.802  1.00  0.00    -0.320 N 
ATOM     10  C   UNL A   1      33.275  24.830  23.709  1.00  0.00     0.188 C 
ATOM     11  H   UNL A   1      35.042  25.192  24.175  1.00  0.00     0.349 HD
ATOM     12  C   UNL A   1      32.338  26.115  26.117  1.00  0.00     0.076 C 
ATOM     13  C   UNL A   1      31.758  24.792  24.011  1.00  0.00     0.048 C 
ATOM     14  C   UNL A   1      33.631  23.825  22.600  1.00  0.00     0.065 C 
ATOM     15  C   UNL A   1      31.303  25.826  25.040  1.00  0.00     0.016 C 
ATOM     16  C   UNL A   1      31.253  23.394  24.323  1.00  0.00     0.010 C 
ATOM     17  C   UNL A   1      32.640  22.708  22.241  1.00  0.00     0.006 C 
ATOM     18  C   UNL A   1      31.425  22.463  23.132  1.00  0.00     0.001 C 
BRANCH   9  19
ATOM     19  C   UNL A   1      34.983  24.244  25.738  1.00  0.00     0.185 C 
ATOM     20  C   UNL A   1      34.025  21.097  24.859  1.00  0.00     0.008 C 
ATOM     21  C   UNL A   1      34.833  21.629  26.017  1.00  0.00    -0.008 C 
ATOM     22  C   UNL A   1      34.379  23.026  26.453  1.00  0.00     0.068 C 
ATOM     23  C   UNL A   1      36.335  21.511  25.740  1.00  0.00     0.007 C 
ATOM     24  C   UNL A   1      36.983  22.668  24.979  1.00  0.00    -0.008 C 
ATOM     25  C   UNL A   1      36.506  24.031  25.478  1.00  0.00     0.068 C 
ATOM     26  C   UNL A   1      36.942  22.573  23.457  1.00  0.00     0.008 C 
ENDBRANCH   9  19
ENDBRANCH   5   8
ENDBRANCH   3   4
ENDBRANCH   2   3
ENDBRANCH   1   2
BRANCH   1  27
ATOM     27  C   UNL A   1      33.274  32.177  27.480  1.00  0.00     0.116 C 
BRANCH  27  28
ATOM     28  N   UNL A   1      32.781  33.537  27.647  1.00  0.00    -0.352 N 
ATOM     29  C   UNL A   1      33.222  34.488  28.544  1.00  0.00     0.251 C 
ATOM     30  H   UNL A   1      32.045  33.809  27.051  1.00  0.00     0.163 HD
ATOM     31  O   UNL A   1      32.648  35.559  28.653  1.00  0.00    -0.269 OA
BRANCH  29  32
ATOM     32  C   UNL A   1      34.378  34.148  29.399  1.00  0.00     0.039 A 
ATOM     33  C   UNL A   1      34.163  33.447  30.587  1.00  0.00     0.014 A 
ATOM     34  C   UNL A   1      35.675  34.433  28.964  1.00  0.00     0.014 A 
ATOM     35  C   UNL A   1      35.258  32.960  31.304  1.00  0.00     0.010 A 
ATOM     36  C   UNL A   1      36.757  33.881  29.636  1.00  0.00     0.010 A 
ATOM     37  C   UNL A   1      36.561  33.136  30.811  1.00  0.00    -0.014 A 
BRANCH  37  38
ATOM     38  C   UNL A   1      37.747  32.572  31.506  1.00  0.00     0.031 A 
ATOM     39  C   UNL A   1      38.495  31.429  30.877  1.00  0.00     0.074 A 
ATOM     40  C   UNL A   1      38.086  33.011  32.735  1.00  0.00     0.049 A 
ATOM     41  N   UNL A   1      39.446  30.683  31.374  1.00  0.00    -0.248 NA
ATOM     42  C   UNL A   1      38.081  31.052  29.517  1.00  0.00     0.031 C 
ATOM     43  C   UNL A   1      37.413  34.087  33.466  1.00  0.00     0.029 A 
ATOM     44  N   UNL A   1      39.068  32.590  33.596  1.00  0.00    -0.354 N 
ATOM     45  C   UNL A   1      39.721  29.727  30.402  1.00  0.00     0.074 A 
ATOM     46  C   UNL A   1      38.791  29.954  29.317  1.00  0.00     0.031 C 
ATOM     47  C   UNL A   1      38.010  34.248  34.657  1.00  0.00     0.029 A 
ATOM     48  C   UNL A   1      39.072  33.257  34.800  1.00  0.00     0.049 A 
ATOM     49  H   UNL A   1      39.710  31.877  33.375  1.00  0.00     0.167 HD
ATOM     50  C   UNL A   1      40.677  28.764  30.406  1.00  0.00     0.034 A 
ATOM     51  C   UNL A   1      39.830  33.077  35.901  1.00  0.00     0.034 A 
ATOM     52  C   UNL A   1      41.607  28.571  31.491  1.00  0.00     0.049 A 
ATOM     53  C   UNL A   1      40.879  31.994  35.893  1.00  0.00     0.074 A 
ATOM     54  C   UNL A   1      42.656  27.672  31.579  1.00  0.00     0.029 A 
ATOM     55  N   UNL A   1      41.598  29.285  32.683  1.00  0.00    -0.354 N 
ATOM     56  N   UNL A   1      41.160  31.124  34.950  1.00  0.00    -0.248 NA
ATOM     57  C   UNL A   1      41.720  31.874  37.091  1.00  0.00     0.031 C 
ATOM     58  C   UNL A   1      43.235  27.797  32.846  1.00  0.00     0.029 A 
ATOM     59  C   UNL A   1      42.603  28.828  33.521  1.00  0.00     0.049 A 
ATOM     60  H   UNL A   1      40.969  30.011  32.901  1.00  0.00     0.167 HD
ATOM     61  C   UNL A   1      42.233  30.377  35.428  1.00  0.00     0.074 A 
ATOM     62  C   UNL A   1      42.549  30.900  36.743  1.00  0.00     0.031 C 
ATOM     63  C   UNL A   1      42.905  29.360  34.830  1.00  0.00     0.034 A 
BRANCH  50  64
ATOM     64  C   UNL A   1      40.729  27.837  29.214  1.00  0.00     0.023 A 
ATOM     65  C   UNL A   1      41.667  28.013  28.181  1.00  0.00     0.031 A 
ATOM     66  C   UNL A   1      39.793  26.796  29.079  1.00  0.00     0.131 A 
ATOM     67  C   UNL A   1      41.583  27.234  27.018  1.00  0.00     0.055 A 
ATOM     68  C   UNL A   1      39.778  25.960  27.960  1.00  0.00     0.041 A 
ATOM     69  F   UNL A   1      38.859  26.589  30.020  1.00  0.00    -0.206 F 
ATOM     70  C   UNL A   1      40.663  26.190  26.911  1.00  0.00     0.022 A 
BRANCH  67  71
ATOM     71  S   UNL A   1      42.575  27.725  25.581  1.00  0.00     0.124 S 
ATOM     72  O   UNL A   1      43.870  27.999  26.197  1.00  0.00    -0.237 OA
ATOM     73  O   UNL A   1      42.508  26.541  24.731  1.00  0.00    -0.237 OA
ATOM     74  O   UNL A   1      41.876  28.902  25.069  1.00  0.00    -0.744 OA
ENDBRANCH  67  71
ENDBRANCH  50  64
BRANCH  51  75
ATOM     75  C   UNL A   1      39.618  33.928  37.106  1.00  0.00     0.023 A 
ATOM     76  C   UNL A   1      38.938  33.438  38.230  1.00  0.00     0.031 A 
ATOM     77  C   UNL A   1      40.082  35.256  37.143  1.00  0.00     0.131 A 
ATOM     78  C   UNL A   1      38.707  34.278  39.331  1.00  0.00     0.055 A 
ATOM     79  C   UNL A   1      39.892  36.073  38.258  1.00  0.00     0.041 A 
ATOM     80  F   UNL A   1      40.746  35.772  36.096  1.00  0.00    -0.206 F 
ATOM     81  C   UNL A   1      39.192  35.588  39.359  1.00  0.00     0.022 A 
BRANCH  78  82
ATOM     82  S   UNL A   1      37.707  33.653  40.709  1.00  0.00     0.124 S 
ATOM     83  O   UNL A   1      37.402  34.880  41.436  1.00  0.00    -0.237 OA
ATOM     84  O   UNL A   1      36.589  33.025  40.013  1.00  0.00    -0.237 OA
ATOM     85  O   UNL A   1      38.609  32.730  41.393  1.00  0.00    -0.744 OA
ENDBRANCH  78  82
ENDBRANCH  51  75
BRANCH  63  86
ATOM     86  C   UNL A   1      44.091  28.787  35.563  1.00  0.00     0.023 A 
ATOM     87  C   UNL A   1      43.960  27.752  36.505  1.00  0.00     0.031 A 
ATOM     88  C   UNL A   1      45.383  29.275  35.289  1.00  0.00     0.131 A 
ATOM     89  C   UNL A   1      45.098  27.262  37.164  1.00  0.00     0.055 A 
ATOM     90  C   UNL A   1      46.515  28.746  35.908  1.00  0.00     0.041 A 
ATOM     91  F   UNL A   1      45.564  30.264  34.399  1.00  0.00    -0.206 F 
ATOM     92  C   UNL A   1      46.375  27.739  36.858  1.00  0.00     0.022 A 
BRANCH  89  93
ATOM     93  S   UNL A   1      44.883  26.027  38.477  1.00  0.00     0.124 S 
ATOM     94  O   UNL A   1      46.265  25.709  38.822  1.00  0.00    -0.237 OA
ATOM     95  O   UNL A   1      44.128  26.767  39.482  1.00  0.00    -0.237 OA
ATOM     96  O   UNL A   1      44.145  24.950  37.818  1.00  0.00    -0.744 OA
ENDBRANCH  89  93
ENDBRANCH  63  86
ENDBRANCH  37  38
ENDBRANCH  29  32
ENDBRANCH  27  28
ENDBRANCH   1  27
TORSDOF 15
ENDMDL
MODEL 3
REMARK VINA RESULT:     -12.8      0.571      7.431
REMARK SMILES C[C@@H]1C[C@H](C)C[C@H]([N@@H+]2[C@@H](C(=O)NCCCCNC(=O)c3ccc(-c4c5nc(c(-c6cc(S(=O)(=O)[O-])ccc6F)c6ccc([nH]6)c(-c6cc(S(=O)(=O)[O-])ccc6F)c6nc(c(-c7cc(S(=O)(=O)[O-])ccc7F)c7ccc4[nH]7)C=C6)C=C5)cc3)CC[C@@H]3CCCC[C@@H]32)C1
REMARK SMILES IDX 15 1 14 2 13 3 12 4 10 5 11 6 9 8 8 9 90 10 83 12 85 13
REMARK SMILES IDX 89 14 84 15 86 16 88 17 87 18 7 19 5 20 4 21 6 22 3 23 2 24
REMARK SMILES IDX 91 25 1 26 16 27 17 28 18 29 19 31 20 32 21 33 82 34 22 35
REMARK SMILES IDX 81 36 23 37 24 38 25 39 75 40 26 41 80 42 74 43 76 44 27 45
REMARK SMILES IDX 79 46 73 47 72 48 28 50 60 51 40 52 59 53 41 54 44 55 58 56
REMARK SMILES IDX 77 57 42 58 43 59 57 61 78 62 45 63 29 64 30 65 38 66 31 67
REMARK SMILES IDX 37 68 39 69 36 70 32 71 33 72 34 73 35 74 61 75 62 76 70 77
REMARK SMILES IDX 63 78 69 79 71 80 68 81 64 82 65 83 66 84 67 85 46 86 47 87
REMARK SMILES IDX 55 88 48 89 54 90 56 91 53 92 49 93 50 94 51 95 52 96
REMARK H PARENT 12 7 8 11 17 30 76 49 44 60
REMARK Flexibility Score: inf
ROOT
ATOM      1  C   UNL A   1      35.543  21.376  25.237  1.00  0.00     0.023 C 
ENDROOT
BRANCH   1   2
ATOM      2  C   UNL A   1      34.593  21.370  26.433  1.00  0.00     0.023 C 
BRANCH   2   3
ATOM      3  C   UNL A   1      34.365  22.762  27.021  1.00  0.00     0.116 C 
BRANCH   3   4
ATOM      4  N   UNL A   1      33.020  22.909  27.515  1.00  0.00    -0.351 N 
ATOM      5  C   UNL A   1      31.973  23.564  26.934  1.00  0.00     0.278 C 
ATOM      6  O   UNL A   1      30.904  23.551  27.551  1.00  0.00    -0.268 OA
ATOM      7  H   UNL A   1      32.831  22.481  28.381  1.00  0.00     0.163 HD
BRANCH   5   8
ATOM      8  C   UNL A   1      32.102  24.179  25.502  1.00  0.00     0.274 C 
ATOM      9  N   UNL A   1      33.136  25.283  25.387  1.00  0.00    -0.320 N 
ATOM     10  C   UNL A   1      32.666  26.464  26.173  1.00  0.00     0.188 C 
ATOM     11  H   UNL A   1      34.036  25.238  25.865  1.00  0.00     0.349 HD
ATOM     12  C   UNL A   1      30.745  24.675  24.975  1.00  0.00     0.076 C 
ATOM     13  C   UNL A   1      31.210  26.962  26.012  1.00  0.00     0.048 C 
ATOM     14  C   UNL A   1      33.606  27.637  26.499  1.00  0.00     0.065 C 
ATOM     15  C   UNL A   1      30.194  25.845  25.775  1.00  0.00     0.016 C 
ATOM     16  C   UNL A   1      31.082  28.093  25.007  1.00  0.00     0.010 C 
ATOM     17  C   UNL A   1      33.140  29.077  26.239  1.00  0.00     0.006 C 
ATOM     18  C   UNL A   1      31.854  29.324  25.454  1.00  0.00     0.001 C 
BRANCH   9  19
ATOM     19  C   UNL A   1      33.823  25.230  24.048  1.00  0.00     0.185 C 
ATOM     20  C   UNL A   1      32.326  22.670  22.376  1.00  0.00     0.008 C 
ATOM     21  C   UNL A   1      33.539  23.514  22.070  1.00  0.00    -0.008 C 
ATOM     22  C   UNL A   1      34.282  23.948  23.337  1.00  0.00     0.068 C 
ATOM     23  C   UNL A   1      33.185  24.662  21.121  1.00  0.00     0.007 C 
ATOM     24  C   UNL A   1      32.666  25.948  21.767  1.00  0.00    -0.008 C 
ATOM     25  C   UNL A   1      33.464  26.337  23.009  1.00  0.00     0.068 C 
ATOM     26  C   UNL A   1      31.161  26.011  22.014  1.00  0.00     0.008 C 
ENDBRANCH   9  19
ENDBRANCH   5   8
ENDBRANCH   3   4
ENDBRANCH   2   3
ENDBRANCH   1   2
BRANCH   1  27
ATOM     27  C   UNL A   1      36.923  21.946  25.542  1.00  0.00     0.116 C 
BRANCH  27  28
ATOM     28  N   UNL A   1      37.951  20.925  25.686  1.00  0.00    -0.352 N 
ATOM     29  C   UNL A   1      39.239  21.087  26.151  1.00  0.00     0.251 C 
ATOM     30  H   UNL A   1      37.696  20.011  25.419  1.00  0.00     0.163 HD
ATOM     31  O   UNL A   1      40.036  20.163  26.122  1.00  0.00    -0.269 OA
BRANCH  29  32
ATOM     32  C   UNL A   1      39.635  22.424  26.640  1.00  0.00     0.039 A 
ATOM     33  C   UNL A   1      40.662  22.528  27.579  1.00  0.00     0.014 A 
ATOM     34  C   UNL A   1      39.059  23.569  26.084  1.00  0.00     0.014 A 
ATOM     35  C   UNL A   1      41.168  23.788  27.906  1.00  0.00     0.010 A 
ATOM     36  C   UNL A   1      39.617  24.812  26.350  1.00  0.00     0.010 A 
ATOM     37  C   UNL A   1      40.678  24.936  27.261  1.00  0.00    -0.014 A 
BRANCH  37  38
ATOM     38  C   UNL A   1      41.239  26.286  27.527  1.00  0.00     0.031 A 
ATOM     39  C   UNL A   1      42.631  26.610  27.061  1.00  0.00     0.074 A 
ATOM     40  C   UNL A   1      40.547  27.175  28.267  1.00  0.00     0.049 A 
ATOM     41  N   UNL A   1      43.374  27.653  27.322  1.00  0.00    -0.248 NA
ATOM     42  C   UNL A   1      43.288  25.597  26.222  1.00  0.00     0.031 C 
ATOM     43  C   UNL A   1      39.203  26.962  28.809  1.00  0.00     0.029 A 
ATOM     44  N   UNL A   1      40.887  28.428  28.712  1.00  0.00    -0.354 N 
ATOM     45  C   UNL A   1      44.597  27.407  26.707  1.00  0.00     0.074 A 
ATOM     46  C   UNL A   1      44.511  26.089  26.118  1.00  0.00     0.031 C 
ATOM     47  C   UNL A   1      38.830  28.050  29.501  1.00  0.00     0.029 A 
ATOM     48  C   UNL A   1      39.923  29.017  29.498  1.00  0.00     0.049 A 
ATOM     49  H   UNL A   1      41.741  28.864  28.490  1.00  0.00     0.167 HD
ATOM     50  C   UNL A   1      45.683  28.217  26.624  1.00  0.00     0.034 A 
ATOM     51  C   UNL A   1      39.929  30.192  30.160  1.00  0.00     0.034 A 
ATOM     52  C   UNL A   1      45.737  29.537  27.202  1.00  0.00     0.049 A 
ATOM     53  C   UNL A   1      41.148  31.075  30.066  1.00  0.00     0.074 A 
ATOM     54  C   UNL A   1      46.756  30.470  27.128  1.00  0.00     0.029 A 
ATOM     55  N   UNL A   1      44.730  30.111  27.969  1.00  0.00    -0.354 N 
ATOM     56  N   UNL A   1      42.284  30.850  29.445  1.00  0.00    -0.248 NA
ATOM     57  C   UNL A   1      41.085  32.371  30.753  1.00  0.00     0.031 C 
ATOM     58  C   UNL A   1      46.394  31.577  27.904  1.00  0.00     0.029 A 
ATOM     59  C   UNL A   1      45.116  31.372  28.396  1.00  0.00     0.049 A 
ATOM     60  H   UNL A   1      43.867  29.685  28.178  1.00  0.00     0.167 HD
ATOM     61  C   UNL A   1      43.055  31.993  29.638  1.00  0.00     0.074 A 
ATOM     62  C   UNL A   1      42.255  32.904  30.432  1.00  0.00     0.031 C 
ATOM     63  C   UNL A   1      44.306  32.269  29.189  1.00  0.00     0.034 A 
BRANCH  50  64
ATOM     64  C   UNL A   1      46.899  27.673  25.910  1.00  0.00     0.023 A 
ATOM     65  C   UNL A   1      47.202  28.036  24.586  1.00  0.00     0.031 A 
ATOM     66  C   UNL A   1      47.735  26.734  26.541  1.00  0.00     0.131 A 
ATOM     67  C   UNL A   1      48.245  27.391  23.904  1.00  0.00     0.055 A 
ATOM     68  C   UNL A   1      48.831  26.168  25.887  1.00  0.00     0.041 A 
ATOM     69  F   UNL A   1      47.486  26.331  27.797  1.00  0.00    -0.206 F 
ATOM     70  C   UNL A   1      49.079  26.479  24.554  1.00  0.00     0.022 A 
BRANCH  67  71
ATOM     71  S   UNL A   1      48.377  27.630  22.111  1.00  0.00     0.124 S 
ATOM     72  O   UNL A   1      47.073  28.207  21.795  1.00  0.00    -0.237 OA
ATOM     73  O   UNL A   1      49.520  28.528  21.995  1.00  0.00    -0.237 OA
ATOM     74  O   UNL A   1      48.590  26.276  21.601  1.00  0.00    -0.744 OA
ENDBRANCH  67  71
ENDBRANCH  50  64
BRANCH  51  75
ATOM     75  C   UNL A   1      38.751  30.599  30.977  1.00  0.00     0.023 A 
ATOM     76  C   UNL A   1      37.657  31.257  30.396  1.00  0.00     0.031 A 
ATOM     77  C   UNL A   1      38.710  30.347  32.361  1.00  0.00     0.131 A 
ATOM     78  C   UNL A   1      36.583  31.674  31.199  1.00  0.00     0.055 A 
ATOM     79  C   UNL A   1      37.619  30.721  33.147  1.00  0.00     0.041 A 
ATOM     80  F   UNL A   1      39.727  29.713  32.966  1.00  0.00    -0.206 F 
ATOM     81  C   UNL A   1      36.550  31.399  32.568  1.00  0.00     0.022 A 
BRANCH  78  82
ATOM     82  S   UNL A   1      35.251  32.641  30.436  1.00  0.00     0.124 S 
ATOM     83  O   UNL A   1      34.908  31.815  29.284  1.00  0.00    -0.237 OA
ATOM     84  O   UNL A   1      34.261  32.690  31.507  1.00  0.00    -0.237 OA
ATOM     85  O   UNL A   1      35.891  33.916  30.123  1.00  0.00    -0.744 OA
ENDBRANCH  78  82
ENDBRANCH  51  75
BRANCH  63  86
ATOM     86  C   UNL A   1      44.864  33.637  29.489  1.00  0.00     0.023 A 
ATOM     87  C   UNL A   1      44.673  34.728  28.624  1.00  0.00     0.031 A 
ATOM     88  C   UNL A   1      45.578  33.854  30.682  1.00  0.00     0.131 A 
ATOM     89  C   UNL A   1      45.221  35.979  28.948  1.00  0.00     0.055 A 
ATOM     90  C   UNL A   1      46.074  35.112  31.024  1.00  0.00     0.041 A 
ATOM     91  F   UNL A   1      45.791  32.846  31.543  1.00  0.00    -0.206 F 
ATOM     92  C   UNL A   1      45.904  36.181  30.151  1.00  0.00     0.022 A 
BRANCH  89  93
ATOM     93  S   UNL A   1      45.082  37.332  27.747  1.00  0.00     0.124 S 
ATOM     94  O   UNL A   1      44.992  38.501  28.616  1.00  0.00    -0.237 OA
ATOM     95  O   UNL A   1      46.317  37.200  26.982  1.00  0.00    -0.237 OA
ATOM     96  O   UNL A   1      43.861  37.013  27.010  1.00  0.00    -0.744 OA
ENDBRANCH  89  93
ENDBRANCH  63  86
ENDBRANCH  37  38
ENDBRANCH  29  32
ENDBRANCH  27  28
ENDBRANCH   1  27
TORSDOF 15
ENDMDL
