MODEL 1
REMARK VINA RESULT:     -11.7      0.000      0.000
REMARK SMILES O=C(CCS(=O)(=O)c1ccc2[nH]c(=O)oc2c1)NCCCCNC(=O)c1ccc(-c2c3nc(c(-c4cc(S(=O)(=O)[O-])ccc4F)c4ccc([nH]4)c(-c4cc(S(=O)(=O)[O-])ccc4F)c4nc(c(-c5cc(S(=O)(=O)[O-])ccc5F)c5ccc2[nH]5)C=C4)C=C3)cc1
REMARK SMILES IDX 20 1 19 2 18 3 1 4 2 5 3 7 4 8 5 9 6 10 7 11 8 12 9 13 17 14
REMARK SMILES IDX 10 15 16 16 11 17 15 18 12 19 13 20 14 22 21 23 22 24 23 25
REMARK SMILES IDX 24 26 25 28 26 29 27 30 88 31 28 32 87 33 29 34 30 35 31 36
REMARK SMILES IDX 81 37 32 38 86 39 80 40 82 41 33 42 85 43 79 44 78 45 34 47
REMARK SMILES IDX 66 48 46 49 65 50 47 51 50 52 64 53 83 54 48 55 49 56 63 58
REMARK SMILES IDX 84 59 51 60 35 61 36 62 44 63 37 64 43 65 45 66 42 67 38 68
REMARK SMILES IDX 39 69 40 70 41 71 67 72 68 73 76 74 69 75 75 76 77 77 74 78
REMARK SMILES IDX 70 79 71 80 72 81 73 82 52 83 53 84 61 85 54 86 60 87 62 88
REMARK SMILES IDX 59 89 55 90 56 91 57 92 58 93
REMARK H PARENT 18 6 12 21 23 27 82 46 50 57
REMARK Flexibility Score: inf
ROOT
ATOM      1  C   UNL A   1      31.888  29.853  26.776  1.00  0.00     0.023 C 
ENDROOT
BRANCH   1   2
ATOM      2  C   UNL A   1      31.611  28.837  25.646  1.00  0.00     0.116 C 
BRANCH   2   3
ATOM      3  N   UNL A   1      32.318  27.566  25.646  1.00  0.00    -0.356 N 
ATOM      4  O   UNL A   1      30.610  26.460  26.724  1.00  0.00    -0.275 OA
ATOM      5  C   UNL A   1      31.721  26.447  26.199  1.00  0.00     0.221 C 
ATOM      6  H   UNL A   1      33.219  27.502  25.253  1.00  0.00     0.163 HD
BRANCH   5   7
ATOM      7  C   UNL A   1      32.489  25.152  26.076  1.00  0.00     0.116 C 
BRANCH   7   8
ATOM      8  C   UNL A   1      32.579  24.692  24.624  1.00  0.00     0.152 C 
BRANCH   8   9
ATOM      9  S   UNL A   1      34.220  24.235  24.098  1.00  0.00     0.179 S 
ATOM     10  O   UNL A   1      34.319  24.494  22.672  1.00  0.00    -0.224 OA
ATOM     11  O   UNL A   1      35.164  24.831  25.023  1.00  0.00    -0.224 OA
BRANCH   9  12
ATOM     12  C   UNL A   1      34.326  22.475  24.333  1.00  0.00     0.071 A 
ATOM     13  C   UNL A   1      35.546  21.834  24.622  1.00  0.00     0.023 A 
ATOM     14  C   UNL A   1      33.158  21.735  24.213  1.00  0.00     0.069 A 
ATOM     15  C   UNL A   1      35.575  20.450  24.875  1.00  0.00     0.031 A 
ATOM     16  C   UNL A   1      33.199  20.399  24.530  1.00  0.00     0.157 A 
ATOM     17  C   UNL A   1      34.375  19.776  24.854  1.00  0.00     0.087 A 
ATOM     18  O   UNL A   1      32.101  19.565  24.638  1.00  0.00    -0.408 OA
ATOM     19  N   UNL A   1      34.043  18.487  25.159  1.00  0.00    -0.287 N 
ATOM     20  C   UNL A   1      32.674  18.369  25.074  1.00  0.00     0.417 A 
ATOM     21  H   UNL A   1      34.671  17.768  25.400  1.00  0.00     0.173 HD
ATOM     22  O   UNL A   1      32.023  17.385  25.382  1.00  0.00    -0.224 OA
ENDBRANCH   9  12
ENDBRANCH   8   9
ENDBRANCH   7   8
ENDBRANCH   5   7
ENDBRANCH   2   3
ENDBRANCH   1   2
BRANCH   1  23
ATOM     23  C   UNL A   1      31.409  31.319  26.762  1.00  0.00     0.023 C 
BRANCH  23  24
ATOM     24  C   UNL A   1      32.317  32.532  26.468  1.00  0.00     0.116 C 
BRANCH  24  25
ATOM     25  N   UNL A   1      32.154  33.729  27.270  1.00  0.00    -0.352 N 
ATOM     26  C   UNL A   1      33.045  34.249  28.193  1.00  0.00     0.251 C 
ATOM     27  H   UNL A   1      31.316  34.229  27.142  1.00  0.00     0.163 HD
ATOM     28  O   UNL A   1      32.832  35.338  28.716  1.00  0.00    -0.269 OA
BRANCH  26  29
ATOM     29  C   UNL A   1      34.234  33.466  28.607  1.00  0.00     0.039 A 
ATOM     30  C   UNL A   1      35.475  34.109  28.615  1.00  0.00     0.014 A 
ATOM     31  C   UNL A   1      34.142  32.126  28.992  1.00  0.00     0.014 A 
ATOM     32  C   UNL A   1      36.602  33.446  29.112  1.00  0.00     0.010 A 
ATOM     33  C   UNL A   1      35.261  31.478  29.530  1.00  0.00     0.010 A 
ATOM     34  C   UNL A   1      36.495  32.145  29.631  1.00  0.00    -0.014 A 
BRANCH  34  35
ATOM     35  C   UNL A   1      37.642  31.527  30.357  1.00  0.00     0.031 A 
ATOM     36  C   UNL A   1      38.515  30.492  29.703  1.00  0.00     0.074 A 
ATOM     37  C   UNL A   1      37.869  31.884  31.638  1.00  0.00     0.049 A 
ATOM     38  N   UNL A   1      39.537  29.841  30.198  1.00  0.00    -0.248 NA
ATOM     39  C   UNL A   1      38.184  30.132  28.319  1.00  0.00     0.031 C 
ATOM     40  C   UNL A   1      37.070  32.854  32.393  1.00  0.00     0.029 A 
ATOM     41  N   UNL A   1      38.828  31.483  32.538  1.00  0.00    -0.354 N 
ATOM     42  C   UNL A   1      39.976  28.992  29.186  1.00  0.00     0.074 A 
ATOM     43  C   UNL A   1      39.068  29.176  28.072  1.00  0.00     0.031 C 
ATOM     44  C   UNL A   1      37.586  32.992  33.623  1.00  0.00     0.029 A 
ATOM     45  C   UNL A   1      38.720  32.086  33.771  1.00  0.00     0.049 A 
ATOM     46  H   UNL A   1      39.526  30.824  32.320  1.00  0.00     0.167 HD
ATOM     47  C   UNL A   1      41.046  28.156  29.183  1.00  0.00     0.034 A 
ATOM     48  C   UNL A   1      39.442  31.922  34.899  1.00  0.00     0.034 A 
ATOM     49  C   UNL A   1      41.930  27.975  30.312  1.00  0.00     0.049 A 
ATOM     50  C   UNL A   1      40.595  30.950  34.887  1.00  0.00     0.074 A 
ATOM     51  C   UNL A   1      43.059  27.178  30.407  1.00  0.00     0.029 A 
ATOM     52  N   UNL A   1      41.778  28.587  31.551  1.00  0.00    -0.354 N 
ATOM     53  N   UNL A   1      41.025  30.192  33.904  1.00  0.00    -0.248 NA
ATOM     54  C   UNL A   1      41.365  30.817  36.129  1.00  0.00     0.031 C 
ATOM     55  C   UNL A   1      43.539  27.246  31.719  1.00  0.00     0.029 A 
ATOM     56  C   UNL A   1      42.769  28.158  32.423  1.00  0.00     0.049 A 
ATOM     57  H   UNL A   1      41.069  29.233  31.778  1.00  0.00     0.167 HD
ATOM     58  C   UNL A   1      42.137  29.519  34.401  1.00  0.00     0.074 A 
ATOM     59  C   UNL A   1      42.320  29.974  35.765  1.00  0.00     0.031 C 
ATOM     60  C   UNL A   1      42.936  28.609  33.786  1.00  0.00     0.034 A 
BRANCH  47  61
ATOM     61  C   UNL A   1      41.294  27.347  27.929  1.00  0.00     0.023 A 
ATOM     62  C   UNL A   1      40.960  25.982  27.853  1.00  0.00     0.031 A 
ATOM     63  C   UNL A   1      41.890  27.937  26.799  1.00  0.00     0.131 A 
ATOM     64  C   UNL A   1      41.301  25.238  26.713  1.00  0.00     0.055 A 
ATOM     65  C   UNL A   1      42.145  27.210  25.634  1.00  0.00     0.041 A 
ATOM     66  F   UNL A   1      42.248  29.231  26.812  1.00  0.00    -0.206 F 
ATOM     67  C   UNL A   1      41.866  25.847  25.592  1.00  0.00     0.022 A 
BRANCH  64  68
ATOM     68  S   UNL A   1      41.141  23.432  26.781  1.00  0.00     0.124 S 
ATOM     69  O   UNL A   1      41.630  23.142  28.126  1.00  0.00    -0.237 OA
ATOM     70  O   UNL A   1      39.713  23.232  26.562  1.00  0.00    -0.237 OA
ATOM     71  O   UNL A   1      42.010  22.970  25.699  1.00  0.00    -0.744 OA
ENDBRANCH  64  68
ENDBRANCH  47  61
BRANCH  48  72
ATOM     72  C   UNL A   1      39.090  32.674  36.141  1.00  0.00     0.023 A 
ATOM     73  C   UNL A   1      39.575  33.973  36.370  1.00  0.00     0.031 A 
ATOM     74  C   UNL A   1      38.296  32.086  37.143  1.00  0.00     0.131 A 
ATOM     75  C   UNL A   1      39.301  34.620  37.586  1.00  0.00     0.055 A 
ATOM     76  C   UNL A   1      37.977  32.757  38.324  1.00  0.00     0.041 A 
ATOM     77  F   UNL A   1      37.807  30.846  36.980  1.00  0.00    -0.206 F 
ATOM     78  C   UNL A   1      38.492  34.027  38.558  1.00  0.00     0.022 A 
BRANCH  75  79
ATOM     79  S   UNL A   1      40.103  36.212  37.926  1.00  0.00     0.124 S 
ATOM     80  O   UNL A   1      41.392  35.787  38.461  1.00  0.00    -0.237 OA
ATOM     81  O   UNL A   1      40.127  36.828  36.604  1.00  0.00    -0.237 OA
ATOM     82  O   UNL A   1      39.206  36.845  38.890  1.00  0.00    -0.744 OA
ENDBRANCH  75  79
ENDBRANCH  48  72
BRANCH  60  83
ATOM     83  C   UNL A   1      44.113  28.083  34.576  1.00  0.00     0.023 A 
ATOM     84  C   UNL A   1      44.061  26.856  35.260  1.00  0.00     0.031 A 
ATOM     85  C   UNL A   1      45.302  28.830  34.651  1.00  0.00     0.131 A 
ATOM     86  C   UNL A   1      45.153  26.442  36.039  1.00  0.00     0.055 A 
ATOM     87  C   UNL A   1      46.411  28.380  35.370  1.00  0.00     0.041 A 
ATOM     88  F   UNL A   1      45.408  30.012  34.025  1.00  0.00    -0.206 F 
ATOM     89  C   UNL A   1      46.335  27.186  36.080  1.00  0.00     0.022 A 
BRANCH  86  90
ATOM     90  S   UNL A   1      44.971  24.970  37.083  1.00  0.00     0.124 S 
ATOM     91  O   UNL A   1      46.336  24.454  37.121  1.00  0.00    -0.237 OA
ATOM     92  O   UNL A   1      44.467  25.534  38.332  1.00  0.00    -0.237 OA
ATOM     93  O   UNL A   1      44.016  24.143  36.348  1.00  0.00    -0.744 OA
ENDBRANCH  86  90
ENDBRANCH  60  83
ENDBRANCH  34  35
ENDBRANCH  26  29
ENDBRANCH  24  25
ENDBRANCH  23  24
ENDBRANCH   1  23
TORSDOF 17
ENDMDL
MODEL 2
REMARK VINA RESULT:     -11.5      2.560      8.367
REMARK SMILES O=C(CCS(=O)(=O)c1ccc2[nH]c(=O)oc2c1)NCCCCNC(=O)c1ccc(-c2c3nc(c(-c4cc(S(=O)(=O)[O-])ccc4F)c4ccc([nH]4)c(-c4cc(S(=O)(=O)[O-])ccc4F)c4nc(c(-c5cc(S(=O)(=O)[O-])ccc5F)c5ccc2[nH]5)C=C4)C=C3)cc1
REMARK SMILES IDX 20 1 19 2 18 3 1 4 2 5 3 7 4 8 5 9 6 10 7 11 8 12 9 13 17 14
REMARK SMILES IDX 10 15 16 16 11 17 15 18 12 19 13 20 14 22 21 23 22 24 23 25
REMARK SMILES IDX 24 26 25 28 26 29 27 30 88 31 28 32 87 33 29 34 30 35 31 36
REMARK SMILES IDX 81 37 32 38 86 39 80 40 82 41 33 42 85 43 79 44 78 45 34 47
REMARK SMILES IDX 66 48 46 49 65 50 47 51 50 52 64 53 83 54 48 55 49 56 63 58
REMARK SMILES IDX 84 59 51 60 35 61 36 62 44 63 37 64 43 65 45 66 42 67 38 68
REMARK SMILES IDX 39 69 40 70 41 71 67 72 68 73 76 74 69 75 75 76 77 77 74 78
REMARK SMILES IDX 70 79 71 80 72 81 73 82 52 83 53 84 61 85 54 86 60 87 62 88
REMARK SMILES IDX 59 89 55 90 56 91 57 92 58 93
REMARK H PARENT 18 6 12 21 23 27 82 46 50 57
REMARK Flexibility Score: inf
ROOT
ATOM      1  C   UNL A   1      31.338  30.551  26.212  1.00  0.00     0.023 C 
ENDROOT
BRANCH   1   2
ATOM      2  C   UNL A   1      32.158  29.463  26.940  1.00  0.00     0.116 C 
BRANCH   2   3
ATOM      3  N   UNL A   1      32.139  28.102  26.433  1.00  0.00    -0.356 N 
ATOM      4  O   UNL A   1      34.437  27.945  26.380  1.00  0.00    -0.275 OA
ATOM      5  C   UNL A   1      33.332  27.438  26.200  1.00  0.00     0.221 C 
ATOM      6  H   UNL A   1      31.281  27.652  26.255  1.00  0.00     0.163 HD
BRANCH   5   7
ATOM      7  C   UNL A   1      33.218  25.998  25.758  1.00  0.00     0.116 C 
BRANCH   7   8
ATOM      8  C   UNL A   1      34.003  25.746  24.474  1.00  0.00     0.152 C 
BRANCH   8   9
ATOM      9  S   UNL A   1      32.990  25.502  23.028  1.00  0.00     0.179 S 
ATOM     10  O   UNL A   1      33.828  25.694  21.858  1.00  0.00    -0.224 OA
ATOM     11  O   UNL A   1      32.249  24.269  23.209  1.00  0.00    -0.224 OA
BRANCH   9  12
ATOM     12  C   UNL A   1      31.793  26.818  23.053  1.00  0.00     0.071 A 
ATOM     13  C   UNL A   1      32.128  28.136  22.691  1.00  0.00     0.023 A 
ATOM     14  C   UNL A   1      30.501  26.509  23.454  1.00  0.00     0.069 A 
ATOM     15  C   UNL A   1      31.136  29.133  22.651  1.00  0.00     0.031 A 
ATOM     16  C   UNL A   1      29.536  27.481  23.344  1.00  0.00     0.157 A 
ATOM     17  C   UNL A   1      29.846  28.756  22.951  1.00  0.00     0.087 A 
ATOM     18  O   UNL A   1      28.179  27.290  23.526  1.00  0.00    -0.408 OA
ATOM     19  N   UNL A   1      28.659  29.430  22.898  1.00  0.00    -0.287 N 
ATOM     20  C   UNL A   1      27.652  28.541  23.200  1.00  0.00     0.417 A 
ATOM     21  H   UNL A   1      28.543  30.383  22.681  1.00  0.00     0.173 HD
ATOM     22  O   UNL A   1      26.457  28.773  23.145  1.00  0.00    -0.224 OA
ENDBRANCH   9  12
ENDBRANCH   8   9
ENDBRANCH   7   8
ENDBRANCH   5   7
ENDBRANCH   2   3
ENDBRANCH   1   2
BRANCH   1  23
ATOM     23  C   UNL A   1      31.360  32.048  26.580  1.00  0.00     0.023 C 
BRANCH  23  24
ATOM     24  C   UNL A   1      32.645  32.868  26.827  1.00  0.00     0.116 C 
BRANCH  24  25
ATOM     25  N   UNL A   1      32.568  34.034  27.685  1.00  0.00    -0.352 N 
ATOM     26  C   UNL A   1      33.490  34.442  28.633  1.00  0.00     0.251 C 
ATOM     27  H   UNL A   1      31.769  34.601  27.580  1.00  0.00     0.163 HD
ATOM     28  O   UNL A   1      33.356  35.518  29.208  1.00  0.00    -0.269 OA
BRANCH  26  29
ATOM     29  C   UNL A   1      34.616  33.554  29.011  1.00  0.00     0.039 A 
ATOM     30  C   UNL A   1      35.917  33.999  28.763  1.00  0.00     0.014 A 
ATOM     31  C   UNL A   1      34.408  32.307  29.607  1.00  0.00     0.014 A 
ATOM     32  C   UNL A   1      37.009  33.249  29.212  1.00  0.00     0.010 A 
ATOM     33  C   UNL A   1      35.501  31.578  30.094  1.00  0.00     0.010 A 
ATOM     34  C   UNL A   1      36.812  32.061  29.935  1.00  0.00    -0.014 A 
BRANCH  34  35
ATOM     35  C   UNL A   1      37.963  31.383  30.599  1.00  0.00     0.031 A 
ATOM     36  C   UNL A   1      38.354  31.713  32.012  1.00  0.00     0.074 A 
ATOM     37  C   UNL A   1      38.682  30.484  29.895  1.00  0.00     0.049 A 
ATOM     38  N   UNL A   1      39.339  31.234  32.730  1.00  0.00    -0.248 NA
ATOM     39  C   UNL A   1      37.543  32.725  32.701  1.00  0.00     0.031 C 
ATOM     40  C   UNL A   1      38.420  30.105  28.504  1.00  0.00     0.029 A 
ATOM     41  N   UNL A   1      39.776  29.727  30.239  1.00  0.00    -0.354 N 
ATOM     42  C   UNL A   1      39.267  31.884  33.959  1.00  0.00     0.074 A 
ATOM     43  C   UNL A   1      38.176  32.832  33.861  1.00  0.00     0.031 C 
ATOM     44  C   UNL A   1      39.305  29.170  28.125  1.00  0.00     0.029 A 
ATOM     45  C   UNL A   1      40.233  28.917  29.223  1.00  0.00     0.049 A 
ATOM     46  H   UNL A   1      40.195  29.760  31.130  1.00  0.00     0.167 HD
ATOM     47  C   UNL A   1      40.029  31.692  35.067  1.00  0.00     0.034 A 
ATOM     48  C   UNL A   1      41.286  28.076  29.171  1.00  0.00     0.034 A 
ATOM     49  C   UNL A   1      41.124  30.753  35.139  1.00  0.00     0.049 A 
ATOM     50  C   UNL A   1      42.148  27.917  30.399  1.00  0.00     0.074 A 
ATOM     51  C   UNL A   1      41.940  30.458  36.219  1.00  0.00     0.029 A 
ATOM     52  N   UNL A   1      41.571  29.965  34.084  1.00  0.00    -0.354 N 
ATOM     53  N   UNL A   1      42.035  28.505  31.568  1.00  0.00    -0.248 NA
ATOM     54  C   UNL A   1      43.271  26.977  30.305  1.00  0.00     0.031 C 
ATOM     55  C   UNL A   1      42.924  29.557  35.796  1.00  0.00     0.029 A 
ATOM     56  C   UNL A   1      42.670  29.215  34.477  1.00  0.00     0.049 A 
ATOM     57  H   UNL A   1      41.167  29.943  33.186  1.00  0.00     0.167 HD
ATOM     58  C   UNL A   1      43.053  27.979  32.358  1.00  0.00     0.074 A 
ATOM     59  C   UNL A   1      43.757  27.014  31.537  1.00  0.00     0.031 C 
ATOM     60  C   UNL A   1      43.374  28.264  33.646  1.00  0.00     0.034 A 
BRANCH  47  61
ATOM     61  C   UNL A   1      39.721  32.545  36.279  1.00  0.00     0.023 A 
ATOM     62  C   UNL A   1      38.832  32.111  37.280  1.00  0.00     0.031 A 
ATOM     63  C   UNL A   1      40.304  33.816  36.430  1.00  0.00     0.131 A 
ATOM     64  C   UNL A   1      38.488  32.970  38.335  1.00  0.00     0.055 A 
ATOM     65  C   UNL A   1      40.025  34.631  37.529  1.00  0.00     0.041 A 
ATOM     66  F   UNL A   1      41.147  34.297  35.502  1.00  0.00    -0.206 F 
ATOM     67  C   UNL A   1      39.098  34.217  38.481  1.00  0.00     0.022 A 
BRANCH  64  68
ATOM     68  S   UNL A   1      37.113  32.499  39.420  1.00  0.00     0.124 S 
ATOM     69  O   UNL A   1      37.435  31.106  39.717  1.00  0.00    -0.237 OA
ATOM     70  O   UNL A   1      37.249  33.437  40.528  1.00  0.00    -0.237 OA
ATOM     71  O   UNL A   1      35.932  32.691  38.580  1.00  0.00    -0.744 OA
ENDBRANCH  64  68
ENDBRANCH  47  61
BRANCH  48  72
ATOM     72  C   UNL A   1      41.604  27.334  27.914  1.00  0.00     0.023 A 
ATOM     73  C   UNL A   1      41.386  25.950  27.808  1.00  0.00     0.031 A 
ATOM     74  C   UNL A   1      42.174  27.992  26.809  1.00  0.00     0.131 A 
ATOM     75  C   UNL A   1      41.778  25.264  26.647  1.00  0.00     0.055 A 
ATOM     76  C   UNL A   1      42.506  27.316  25.634  1.00  0.00     0.041 A 
ATOM     77  F   UNL A   1      42.407  29.314  26.853  1.00  0.00    -0.206 F 
ATOM     78  C   UNL A   1      42.321  25.940  25.553  1.00  0.00     0.022 A 
BRANCH  75  79
ATOM     79  S   UNL A   1      41.660  23.453  26.622  1.00  0.00     0.124 S 
ATOM     80  O   UNL A   1      40.219  23.248  26.716  1.00  0.00    -0.237 OA
ATOM     81  O   UNL A   1      42.274  23.127  25.339  1.00  0.00    -0.237 OA
ATOM     82  O   UNL A   1      42.426  23.047  27.799  1.00  0.00    -0.744 OA
ENDBRANCH  75  79
ENDBRANCH  48  72
BRANCH  60  83
ATOM     83  C   UNL A   1      44.514  27.483  34.259  1.00  0.00     0.023 A 
ATOM     84  C   UNL A   1      44.319  26.226  34.858  1.00  0.00     0.031 A 
ATOM     85  C   UNL A   1      45.817  28.015  34.251  1.00  0.00     0.131 A 
ATOM     86  C   UNL A   1      45.396  25.572  35.477  1.00  0.00     0.055 A 
ATOM     87  C   UNL A   1      46.897  27.327  34.807  1.00  0.00     0.041 A 
ATOM     88  F   UNL A   1      46.063  29.214  33.700  1.00  0.00    -0.206 F 
ATOM     89  C   UNL A   1      46.687  26.104  35.437  1.00  0.00     0.022 A 
BRANCH  86  90
ATOM     90  S   UNL A   1      45.066  24.064  36.430  1.00  0.00     0.124 S 
ATOM     91  O   UNL A   1      46.362  23.394  36.397  1.00  0.00    -0.237 OA
ATOM     92  O   UNL A   1      44.657  24.597  37.727  1.00  0.00    -0.237 OA
ATOM     93  O   UNL A   1      44.007  23.402  35.672  1.00  0.00    -0.744 OA
ENDBRANCH  86  90
ENDBRANCH  60  83
ENDBRANCH  34  35
ENDBRANCH  26  29
ENDBRANCH  24  25
ENDBRANCH  23  24
ENDBRANCH   1  23
TORSDOF 17
ENDMDL
MODEL 3
REMARK VINA RESULT:     -11.5      2.208      2.635
REMARK SMILES O=C(CCS(=O)(=O)c1ccc2[nH]c(=O)oc2c1)NCCCCNC(=O)c1ccc(-c2c3nc(c(-c4cc(S(=O)(=O)[O-])ccc4F)c4ccc([nH]4)c(-c4cc(S(=O)(=O)[O-])ccc4F)c4nc(c(-c5cc(S(=O)(=O)[O-])ccc5F)c5ccc2[nH]5)C=C4)C=C3)cc1
REMARK SMILES IDX 20 1 19 2 18 3 1 4 2 5 3 7 4 8 5 9 6 10 7 11 8 12 9 13 17 14
REMARK SMILES IDX 10 15 16 16 11 17 15 18 12 19 13 20 14 22 21 23 22 24 23 25
REMARK SMILES IDX 24 26 25 28 26 29 27 30 88 31 28 32 87 33 29 34 30 35 31 36
REMARK SMILES IDX 81 37 32 38 86 39 80 40 82 41 33 42 85 43 79 44 78 45 34 47
REMARK SMILES IDX 66 48 46 49 65 50 47 51 50 52 64 53 83 54 48 55 49 56 63 58
REMARK SMILES IDX 84 59 51 60 35 61 36 62 44 63 37 64 43 65 45 66 42 67 38 68
REMARK SMILES IDX 39 69 40 70 41 71 67 72 68 73 76 74 69 75 75 76 77 77 74 78
REMARK SMILES IDX 70 79 71 80 72 81 73 82 52 83 53 84 61 85 54 86 60 87 62 88
REMARK SMILES IDX 59 89 55 90 56 91 57 92 58 93
REMARK H PARENT 18 6 12 21 23 27 82 46 50 57
REMARK Flexibility Score: inf
ROOT
ATOM      1  C   UNL A   1      32.346  29.641  27.232  1.00  0.00     0.023 C 
ENDROOT
BRANCH   1   2
ATOM      2  C   UNL A   1      33.637  28.803  27.111  1.00  0.00     0.116 C 
BRANCH   2   3
ATOM      3  N   UNL A   1      33.565  27.464  26.551  1.00  0.00    -0.356 N 
ATOM      4  O   UNL A   1      33.977  28.191  24.405  1.00  0.00    -0.275 OA
ATOM      5  C   UNL A   1      33.760  27.274  25.194  1.00  0.00     0.221 C 
ATOM      6  H   UNL A   1      33.378  26.693  27.135  1.00  0.00     0.163 HD
BRANCH   5   7
ATOM      7  C   UNL A   1      33.755  25.842  24.712  1.00  0.00     0.116 C 
BRANCH   7   8
ATOM      8  C   UNL A   1      33.440  24.873  25.849  1.00  0.00     0.152 C 
BRANCH   8   9
ATOM      9  S   UNL A   1      31.789  24.203  25.806  1.00  0.00     0.179 S 
ATOM     10  O   UNL A   1      31.423  23.833  27.163  1.00  0.00    -0.224 OA
ATOM     11  O   UNL A   1      30.960  25.114  25.041  1.00  0.00    -0.224 OA
BRANCH   9  12
ATOM     12  C   UNL A   1      31.904  22.704  24.854  1.00  0.00     0.071 A 
ATOM     13  C   UNL A   1      31.993  22.719  23.450  1.00  0.00     0.023 A 
ATOM     14  C   UNL A   1      31.895  21.499  25.542  1.00  0.00     0.069 A 
ATOM     15  C   UNL A   1      32.158  21.516  22.738  1.00  0.00     0.031 A 
ATOM     16  C   UNL A   1      32.125  20.344  24.835  1.00  0.00     0.157 A 
ATOM     17  C   UNL A   1      32.255  20.354  23.471  1.00  0.00     0.087 A 
ATOM     18  O   UNL A   1      32.327  19.092  25.385  1.00  0.00    -0.408 OA
ATOM     19  N   UNL A   1      32.525  19.065  23.112  1.00  0.00    -0.287 N 
ATOM     20  C   UNL A   1      32.613  18.313  24.262  1.00  0.00     0.417 A 
ATOM     21  H   UNL A   1      32.639  18.731  22.193  1.00  0.00     0.173 HD
ATOM     22  O   UNL A   1      32.945  17.141  24.324  1.00  0.00    -0.224 OA
ENDBRANCH   9  12
ENDBRANCH   8   9
ENDBRANCH   7   8
ENDBRANCH   5   7
ENDBRANCH   2   3
ENDBRANCH   1   2
BRANCH   1  23
ATOM     23  C   UNL A   1      32.226  31.119  26.808  1.00  0.00     0.023 C 
BRANCH  23  24
ATOM     24  C   UNL A   1      33.192  32.237  27.256  1.00  0.00     0.116 C 
BRANCH  24  25
ATOM     25  N   UNL A   1      32.637  33.523  27.630  1.00  0.00    -0.352 N 
ATOM     26  C   UNL A   1      33.179  34.451  28.503  1.00  0.00     0.251 C 
ATOM     27  H   UNL A   1      31.777  33.763  27.215  1.00  0.00     0.163 HD
ATOM     28  O   UNL A   1      32.660  35.554  28.637  1.00  0.00    -0.269 OA
BRANCH  26  29
ATOM     29  C   UNL A   1      34.357  34.097  29.331  1.00  0.00     0.039 A 
ATOM     30  C   UNL A   1      34.137  33.427  30.537  1.00  0.00     0.014 A 
ATOM     31  C   UNL A   1      35.662  34.406  28.934  1.00  0.00     0.014 A 
ATOM     32  C   UNL A   1      35.222  32.968  31.290  1.00  0.00     0.010 A 
ATOM     33  C   UNL A   1      36.747  33.908  29.666  1.00  0.00     0.010 A 
ATOM     34  C   UNL A   1      36.538  33.150  30.832  1.00  0.00    -0.014 A 
BRANCH  34  35
ATOM     35  C   UNL A   1      37.675  32.472  31.518  1.00  0.00     0.031 A 
ATOM     36  C   UNL A   1      38.398  31.319  30.880  1.00  0.00     0.074 A 
ATOM     37  C   UNL A   1      38.031  32.887  32.752  1.00  0.00     0.049 A 
ATOM     38  N   UNL A   1      39.391  30.605  31.347  1.00  0.00    -0.248 NA
ATOM     39  C   UNL A   1      37.931  30.904  29.551  1.00  0.00     0.031 C 
ATOM     40  C   UNL A   1      37.384  33.975  33.490  1.00  0.00     0.029 A 
ATOM     41  N   UNL A   1      39.015  32.453  33.608  1.00  0.00    -0.354 N 
ATOM     42  C   UNL A   1      39.672  29.655  30.369  1.00  0.00     0.074 A 
ATOM     43  C   UNL A   1      38.703  29.854  29.311  1.00  0.00     0.031 C 
ATOM     44  C   UNL A   1      38.003  34.142  34.668  1.00  0.00     0.029 A 
ATOM     45  C   UNL A   1      39.058  33.142  34.800  1.00  0.00     0.049 A 
ATOM     46  H   UNL A   1      39.632  31.718  33.389  1.00  0.00     0.167 HD
ATOM     47  C   UNL A   1      40.658  28.721  30.351  1.00  0.00     0.034 A 
ATOM     48  C   UNL A   1      39.845  32.981  35.884  1.00  0.00     0.034 A 
ATOM     49  C   UNL A   1      41.605  28.528  31.425  1.00  0.00     0.049 A 
ATOM     50  C   UNL A   1      40.900  31.904  35.860  1.00  0.00     0.074 A 
ATOM     51  C   UNL A   1      42.660  27.634  31.497  1.00  0.00     0.029 A 
ATOM     52  N   UNL A   1      41.605  29.230  32.625  1.00  0.00    -0.354 N 
ATOM     53  N   UNL A   1      41.183  31.047  34.905  1.00  0.00    -0.248 NA
ATOM     54  C   UNL A   1      41.748  31.777  37.051  1.00  0.00     0.031 C 
ATOM     55  C   UNL A   1      43.244  27.739  32.764  1.00  0.00     0.029 A 
ATOM     56  C   UNL A   1      42.616  28.764  33.454  1.00  0.00     0.049 A 
ATOM     57  H   UNL A   1      40.977  29.954  32.855  1.00  0.00     0.167 HD
ATOM     58  C   UNL A   1      42.263  30.303  35.370  1.00  0.00     0.074 A 
ATOM     59  C   UNL A   1      42.590  30.824  36.683  1.00  0.00     0.031 C 
ATOM     60  C   UNL A   1      42.927  29.283  34.767  1.00  0.00     0.034 A 
BRANCH  47  61
ATOM     61  C   UNL A   1      40.734  27.813  29.142  1.00  0.00     0.023 A 
ATOM     62  C   UNL A   1      41.678  28.023  28.120  1.00  0.00     0.031 A 
ATOM     63  C   UNL A   1      39.841  26.737  28.995  1.00  0.00     0.131 A 
ATOM     64  C   UNL A   1      41.651  27.228  26.964  1.00  0.00     0.055 A 
ATOM     65  C   UNL A   1      39.878  25.894  27.881  1.00  0.00     0.041 A 
ATOM     66  F   UNL A   1      38.904  26.493  29.925  1.00  0.00    -0.206 F 
ATOM     67  C   UNL A   1      40.775  26.148  26.849  1.00  0.00     0.022 A 
BRANCH  64  68
ATOM     68  S   UNL A   1      42.668  27.728  25.548  1.00  0.00     0.124 S 
ATOM     69  O   UNL A   1      43.956  27.989  26.185  1.00  0.00    -0.237 OA
ATOM     70  O   UNL A   1      42.608  26.553  24.686  1.00  0.00    -0.237 OA
ATOM     71  O   UNL A   1      41.984  28.914  25.036  1.00  0.00    -0.744 OA
ENDBRANCH  64  68
ENDBRANCH  47  61
BRANCH  48  72
ATOM     72  C   UNL A   1      39.659  33.842  37.091  1.00  0.00     0.023 A 
ATOM     73  C   UNL A   1      39.083  33.334  38.267  1.00  0.00     0.031 A 
ATOM     74  C   UNL A   1      40.014  35.203  37.072  1.00  0.00     0.131 A 
ATOM     75  C   UNL A   1      38.837  34.189  39.355  1.00  0.00     0.055 A 
ATOM     76  C   UNL A   1      39.824  36.035  38.176  1.00  0.00     0.041 A 
ATOM     77  F   UNL A   1      40.567  35.745  35.974  1.00  0.00    -0.206 F 
ATOM     78  C   UNL A   1      39.219  35.531  39.323  1.00  0.00     0.022 A 
BRANCH  75  79
ATOM     79  S   UNL A   1      37.917  33.544  40.780  1.00  0.00     0.124 S 
ATOM     80  O   UNL A   1      38.603  32.281  41.030  1.00  0.00    -0.237 OA
ATOM     81  O   UNL A   1      38.121  34.594  41.772  1.00  0.00    -0.237 OA
ATOM     82  O   UNL A   1      36.551  33.422  40.276  1.00  0.00    -0.744 OA
ENDBRANCH  75  79
ENDBRANCH  48  72
BRANCH  60  83
ATOM     83  C   UNL A   1      44.107  28.697  35.508  1.00  0.00     0.023 A 
ATOM     84  C   UNL A   1      43.966  27.620  36.401  1.00  0.00     0.031 A 
ATOM     85  C   UNL A   1      45.393  29.235  35.322  1.00  0.00     0.131 A 
ATOM     86  C   UNL A   1      45.079  27.157  37.120  1.00  0.00     0.055 A 
ATOM     87  C   UNL A   1      46.509  28.723  35.987  1.00  0.00     0.041 A 
ATOM     88  F   UNL A   1      45.589  30.268  34.487  1.00  0.00    -0.206 F 
ATOM     89  C   UNL A   1      46.353  27.688  36.902  1.00  0.00     0.022 A 
BRANCH  86  90
ATOM     90  S   UNL A   1      44.821  25.921  38.422  1.00  0.00     0.124 S 
ATOM     91  O   UNL A   1      46.190  25.524  38.739  1.00  0.00    -0.237 OA
ATOM     92  O   UNL A   1      44.126  26.691  39.450  1.00  0.00    -0.237 OA
ATOM     93  O   UNL A   1      44.014  24.894  37.767  1.00  0.00    -0.744 OA
ENDBRANCH  86  90
ENDBRANCH  60  83
ENDBRANCH  34  35
ENDBRANCH  26  29
ENDBRANCH  24  25
ENDBRANCH  23  24
ENDBRANCH   1  23
TORSDOF 17
ENDMDL
