MODEL 1
REMARK VINA RESULT:     -12.1      0.000      0.000
REMARK SMILES CC(C)(C)OC(=O)Nc1ccc(-c2cccc(Cl)c2C(=O)NCCCCNC(=O)c2ccc(-c3c4nc(c(-c5cc(S(=O)(=O)[O-])ccc5F)c5ccc([nH]5)c(-c5cc(S(=O)(=O)[O-])ccc5F)c5nc(c(-c6cc(S(=O)(=O)[O-])ccc6F)c6ccc3[nH]6)C=C5)C=C4)cc2)cc1
REMARK SMILES IDX 24 1 23 2 22 3 20 4 21 5 19 7 13 8 14 9 15 10 17 11 16 12
REMARK SMILES IDX 18 13 12 14 9 15 10 16 94 17 11 18 93 19 8 20 6 21 7 22 5 24
REMARK SMILES IDX 2 25 1 26 3 27 4 28 25 29 26 30 27 31 28 32 29 34 30 35
REMARK SMILES IDX 31 36 92 37 32 38 91 39 33 40 34 41 35 42 85 43 36 44 90 45
REMARK SMILES IDX 84 46 86 47 37 48 89 49 83 50 82 51 38 53 70 54 50 55 69 56
REMARK SMILES IDX 51 57 54 58 68 59 87 60 52 61 53 62 67 64 88 65 55 66 39 67
REMARK SMILES IDX 40 68 48 69 41 70 47 71 49 72 46 73 42 74 43 75 44 76 45 77
REMARK SMILES IDX 71 78 72 79 80 80 73 81 79 82 81 83 78 84 74 85 75 86 76 87
REMARK SMILES IDX 77 88 56 89 57 90 65 91 58 92 64 93 66 94 63 95 59 96 60 97
REMARK SMILES IDX 61 98 62 99
REMARK H PARENT 22 6 8 23 27 33 86 52 54 63
REMARK Flexibility Score: inf
ROOT
ATOM      1  C   UNL A   1      32.230  30.670  26.509  1.00  0.00     0.023 C 
ENDROOT
BRANCH   1   2
ATOM      2  C   UNL A   1      31.346  29.747  25.691  1.00  0.00     0.116 C 
BRANCH   2   3
ATOM      3  N   UNL A   1      31.905  29.026  24.584  1.00  0.00    -0.352 N 
ATOM      4  C   UNL A   1      31.239  28.588  23.454  1.00  0.00     0.253 C 
ATOM      5  O   UNL A   1      31.920  28.461  22.432  1.00  0.00    -0.269 OA
ATOM      6  H   UNL A   1      32.866  28.821  24.635  1.00  0.00     0.163 HD
BRANCH   4   7
ATOM      7  C   UNL A   1      29.783  28.191  23.383  1.00  0.00     0.066 A 
ATOM      8  C   UNL A   1      29.212  26.948  23.787  1.00  0.00    -0.004 A 
ATOM      9  C   UNL A   1      27.799  26.819  23.826  1.00  0.00     0.009 A 
ATOM     10  C   UNL A   1      26.946  27.861  23.487  1.00  0.00     0.002 A 
ATOM     11  C   UNL A   1      28.885  29.225  23.000  1.00  0.00     0.054 A 
ATOM     12  C   UNL A   1      27.491  29.060  23.064  1.00  0.00     0.021 A 
ATOM     13  Cl  UNL A   1      29.395  30.757  22.349  1.00  0.00    -0.083 Cl
BRANCH   8  14
ATOM     14  C   UNL A   1      29.934  25.718  24.143  1.00  0.00    -0.017 A 
ATOM     15  C   UNL A   1      31.147  23.280  24.940  1.00  0.00     0.044 A 
ATOM     16  C   UNL A   1      30.769  24.225  25.895  1.00  0.00     0.027 A 
ATOM     17  C   UNL A   1      30.971  23.596  23.587  1.00  0.00     0.027 A 
ATOM     18  C   UNL A   1      30.202  25.440  25.502  1.00  0.00     0.011 A 
ATOM     19  C   UNL A   1      30.370  24.801  23.189  1.00  0.00     0.011 A 
BRANCH  15  20
ATOM     20  N   UNL A   1      31.639  22.058  25.431  1.00  0.00    -0.291 N 
ATOM     21  C   UNL A   1      32.897  21.509  25.421  1.00  0.00     0.412 C 
ATOM     22  O   UNL A   1      33.112  20.430  25.950  1.00  0.00    -0.224 OA
ATOM     23  H   UNL A   1      30.957  21.493  25.860  1.00  0.00     0.173 HD
BRANCH  21  24
ATOM     24  O   UNL A   1      33.830  22.288  24.840  1.00  0.00    -0.444 OA
BRANCH  24  25
ATOM     25  C   UNL A   1      34.771  23.072  25.610  1.00  0.00     0.106 C 
ATOM     26  C   UNL A   1      34.598  24.487  25.042  1.00  0.00     0.056 C 
ATOM     27  C   UNL A   1      36.196  22.584  25.343  1.00  0.00     0.056 C 
ATOM     28  C   UNL A   1      34.443  23.094  27.105  1.00  0.00     0.056 C 
ENDBRANCH  24  25
ENDBRANCH  21  24
ENDBRANCH  15  20
ENDBRANCH   8  14
ENDBRANCH   4   7
ENDBRANCH   2   3
ENDBRANCH   1   2
BRANCH   1  29
ATOM     29  C   UNL A   1      31.627  31.985  26.994  1.00  0.00     0.023 C 
BRANCH  29  30
ATOM     30  C   UNL A   1      32.333  33.270  26.565  1.00  0.00     0.116 C 
BRANCH  30  31
ATOM     31  N   UNL A   1      32.452  34.234  27.652  1.00  0.00    -0.352 N 
ATOM     32  C   UNL A   1      33.219  34.194  28.794  1.00  0.00     0.251 C 
ATOM     33  H   UNL A   1      31.897  35.041  27.553  1.00  0.00     0.163 HD
ATOM     34  O   UNL A   1      32.848  34.842  29.770  1.00  0.00    -0.269 OA
BRANCH  32  35
ATOM     35  C   UNL A   1      34.432  33.346  28.861  1.00  0.00     0.039 A 
ATOM     36  C   UNL A   1      35.687  33.954  28.778  1.00  0.00     0.014 A 
ATOM     37  C   UNL A   1      34.343  31.969  29.072  1.00  0.00     0.014 A 
ATOM     38  C   UNL A   1      36.829  33.221  29.104  1.00  0.00     0.010 A 
ATOM     39  C   UNL A   1      35.459  31.271  29.513  1.00  0.00     0.010 A 
ATOM     40  C   UNL A   1      36.702  31.910  29.586  1.00  0.00    -0.014 A 
BRANCH  40  41
ATOM     41  C   UNL A   1      37.826  31.243  30.292  1.00  0.00     0.031 A 
ATOM     42  C   UNL A   1      38.149  31.587  31.716  1.00  0.00     0.074 A 
ATOM     43  C   UNL A   1      38.611  30.399  29.590  1.00  0.00     0.049 A 
ATOM     44  N   UNL A   1      39.130  31.156  32.464  1.00  0.00    -0.248 NA
ATOM     45  C   UNL A   1      37.278  32.573  32.372  1.00  0.00     0.031 C 
ATOM     46  C   UNL A   1      38.431  30.063  28.173  1.00  0.00     0.029 A 
ATOM     47  N   UNL A   1      39.713  29.670  29.957  1.00  0.00    -0.354 N 
ATOM     48  C   UNL A   1      38.993  31.814  33.680  1.00  0.00     0.074 A 
ATOM     49  C   UNL A   1      37.887  32.735  33.536  1.00  0.00     0.031 C 
ATOM     50  C   UNL A   1      39.349  29.155  27.810  1.00  0.00     0.029 A 
ATOM     51  C   UNL A   1      40.224  28.889  28.944  1.00  0.00     0.049 A 
ATOM     52  H   UNL A   1      40.104  29.704  30.860  1.00  0.00     0.167 HD
ATOM     53  C   UNL A   1      39.706  31.635  34.820  1.00  0.00     0.034 A 
ATOM     54  C   UNL A   1      41.282  28.055  28.930  1.00  0.00     0.034 A 
ATOM     55  C   UNL A   1      40.813  30.717  34.926  1.00  0.00     0.049 A 
ATOM     56  C   UNL A   1      42.076  27.896  30.199  1.00  0.00     0.074 A 
ATOM     57  C   UNL A   1      41.594  30.431  36.031  1.00  0.00     0.029 A 
ATOM     58  N   UNL A   1      41.305  29.941  33.881  1.00  0.00    -0.354 N 
ATOM     59  N   UNL A   1      41.901  28.487  31.360  1.00  0.00    -0.248 NA
ATOM     60  C   UNL A   1      43.200  26.956  30.163  1.00  0.00     0.031 C 
ATOM     61  C   UNL A   1      42.599  29.540  35.638  1.00  0.00     0.029 A 
ATOM     62  C   UNL A   1      42.394  29.198  34.310  1.00  0.00     0.049 A 
ATOM     63  H   UNL A   1      40.932  29.923  32.970  1.00  0.00     0.167 HD
ATOM     64  C   UNL A   1      42.876  27.964  32.203  1.00  0.00     0.074 A 
ATOM     65  C   UNL A   1      43.622  26.999  31.418  1.00  0.00     0.031 C 
ATOM     66  C   UNL A   1      43.131  28.251  33.505  1.00  0.00     0.034 A 
BRANCH  53  67
ATOM     67  C   UNL A   1      39.308  32.463  36.020  1.00  0.00     0.023 A 
ATOM     68  C   UNL A   1      39.901  33.713  36.276  1.00  0.00     0.031 A 
ATOM     69  C   UNL A   1      38.360  31.989  36.941  1.00  0.00     0.131 A 
ATOM     70  C   UNL A   1      39.607  34.402  37.461  1.00  0.00     0.055 A 
ATOM     71  C   UNL A   1      38.002  32.723  38.075  1.00  0.00     0.041 A 
ATOM     72  F   UNL A   1      37.775  30.792  36.768  1.00  0.00    -0.206 F 
ATOM     73  C   UNL A   1      38.639  33.929  38.349  1.00  0.00     0.022 A 
BRANCH  70  74
ATOM     74  S   UNL A   1      40.622  35.840  37.900  1.00  0.00     0.124 S 
ATOM     75  O   UNL A   1      41.667  35.783  36.881  1.00  0.00    -0.237 OA
ATOM     76  O   UNL A   1      39.676  36.943  37.785  1.00  0.00    -0.237 OA
ATOM     77  O   UNL A   1      41.071  35.539  39.258  1.00  0.00    -0.744 OA
ENDBRANCH  70  74
ENDBRANCH  53  67
BRANCH  54  78
ATOM     78  C   UNL A   1      41.644  27.309  27.689  1.00  0.00     0.023 A 
ATOM     79  C   UNL A   1      41.453  25.921  27.597  1.00  0.00     0.031 A 
ATOM     80  C   UNL A   1      42.205  27.969  26.580  1.00  0.00     0.131 A 
ATOM     81  C   UNL A   1      41.859  25.232  26.442  1.00  0.00     0.055 A 
ATOM     82  C   UNL A   1      42.554  27.289  25.413  1.00  0.00     0.041 A 
ATOM     83  F   UNL A   1      42.404  29.296  26.610  1.00  0.00    -0.206 F 
ATOM     84  C   UNL A   1      42.392  25.909  25.344  1.00  0.00     0.022 A 
BRANCH  81  85
ATOM     85  S   UNL A   1      41.757  23.420  26.429  1.00  0.00     0.124 S 
ATOM     86  O   UNL A   1      42.384  23.079  27.701  1.00  0.00    -0.237 OA
ATOM     87  O   UNL A   1      40.317  23.198  26.343  1.00  0.00    -0.237 OA
ATOM     88  O   UNL A   1      42.516  23.047  25.238  1.00  0.00    -0.744 OA
ENDBRANCH  81  85
ENDBRANCH  54  78
BRANCH  66  89
ATOM     89  C   UNL A   1      44.239  27.472  34.170  1.00  0.00     0.023 A 
ATOM     90  C   UNL A   1      44.044  26.163  34.641  1.00  0.00     0.031 A 
ATOM     91  C   UNL A   1      45.508  28.055  34.337  1.00  0.00     0.131 A 
ATOM     92  C   UNL A   1      45.083  25.501  35.311  1.00  0.00     0.055 A 
ATOM     93  C   UNL A   1      46.560  27.364  34.939  1.00  0.00     0.041 A 
ATOM     94  F   UNL A   1      45.748  29.305  33.911  1.00  0.00    -0.206 F 
ATOM     95  C   UNL A   1      46.346  26.084  35.443  1.00  0.00     0.022 A 
BRANCH  92  96
ATOM     96  S   UNL A   1      44.730  23.909  36.103  1.00  0.00     0.124 S 
ATOM     97  O   UNL A   1      44.937  24.220  37.512  1.00  0.00    -0.237 OA
ATOM     98  O   UNL A   1      43.348  23.660  35.701  1.00  0.00    -0.237 OA
ATOM     99  O   UNL A   1      45.718  23.006  35.514  1.00  0.00    -0.744 OA
ENDBRANCH  92  96
ENDBRANCH  66  89
ENDBRANCH  40  41
ENDBRANCH  32  35
ENDBRANCH  30  31
ENDBRANCH  29  30
ENDBRANCH   1  29
TORSDOF 18
ENDMDL
MODEL 2
REMARK VINA RESULT:     -12.0      1.734      7.615
REMARK SMILES CC(C)(C)OC(=O)Nc1ccc(-c2cccc(Cl)c2C(=O)NCCCCNC(=O)c2ccc(-c3c4nc(c(-c5cc(S(=O)(=O)[O-])ccc5F)c5ccc([nH]5)c(-c5cc(S(=O)(=O)[O-])ccc5F)c5nc(c(-c6cc(S(=O)(=O)[O-])ccc6F)c6ccc3[nH]6)C=C5)C=C4)cc2)cc1
REMARK SMILES IDX 24 1 23 2 22 3 20 4 21 5 19 7 13 8 14 9 15 10 17 11 16 12
REMARK SMILES IDX 18 13 12 14 9 15 10 16 94 17 11 18 93 19 8 20 6 21 7 22 5 24
REMARK SMILES IDX 2 25 1 26 3 27 4 28 25 29 26 30 27 31 28 32 29 34 30 35
REMARK SMILES IDX 31 36 92 37 32 38 91 39 33 40 34 41 35 42 85 43 36 44 90 45
REMARK SMILES IDX 84 46 86 47 37 48 89 49 83 50 82 51 38 53 70 54 50 55 69 56
REMARK SMILES IDX 51 57 54 58 68 59 87 60 52 61 53 62 67 64 88 65 55 66 39 67
REMARK SMILES IDX 40 68 48 69 41 70 47 71 49 72 46 73 42 74 43 75 44 76 45 77
REMARK SMILES IDX 71 78 72 79 80 80 73 81 79 82 81 83 78 84 74 85 75 86 76 87
REMARK SMILES IDX 77 88 56 89 57 90 65 91 58 92 64 93 66 94 63 95 59 96 60 97
REMARK SMILES IDX 61 98 62 99
REMARK H PARENT 22 6 8 23 27 33 86 52 54 63
REMARK Flexibility Score: inf
ROOT
ATOM      1  C   UNL A   1      33.043  29.414  26.354  1.00  0.00     0.023 C 
ENDROOT
BRANCH   1   2
ATOM      2  C   UNL A   1      32.022  28.616  25.563  1.00  0.00     0.116 C 
BRANCH   2   3
ATOM      3  N   UNL A   1      32.347  28.157  24.243  1.00  0.00    -0.352 N 
ATOM      4  C   UNL A   1      31.500  28.092  23.152  1.00  0.00     0.253 C 
ATOM      5  O   UNL A   1      32.032  28.171  22.041  1.00  0.00    -0.269 OA
ATOM      6  H   UNL A   1      33.273  27.856  24.100  1.00  0.00     0.163 HD
BRANCH   4   7
ATOM      7  C   UNL A   1      30.007  27.868  23.203  1.00  0.00     0.066 A 
ATOM      8  C   UNL A   1      29.324  26.793  23.843  1.00  0.00    -0.004 A 
ATOM      9  C   UNL A   1      27.909  26.844  23.953  1.00  0.00     0.009 A 
ATOM     10  C   UNL A   1      27.161  27.904  23.460  1.00  0.00     0.002 A 
ATOM     11  C   UNL A   1      29.212  28.919  22.669  1.00  0.00     0.054 A 
ATOM     12  C   UNL A   1      27.814  28.936  22.809  1.00  0.00     0.021 A 
ATOM     13  Cl  UNL A   1      29.854  30.239  21.735  1.00  0.00    -0.083 Cl
BRANCH   8  14
ATOM     14  C   UNL A   1      29.921  25.567  24.392  1.00  0.00    -0.017 A 
ATOM     15  C   UNL A   1      31.266  23.263  25.359  1.00  0.00     0.044 A 
ATOM     16  C   UNL A   1      31.124  23.473  23.986  1.00  0.00     0.027 A 
ATOM     17  C   UNL A   1      30.675  24.181  26.236  1.00  0.00     0.027 A 
ATOM     18  C   UNL A   1      30.433  24.590  23.510  1.00  0.00     0.011 A 
ATOM     19  C   UNL A   1      30.009  25.322  25.761  1.00  0.00     0.011 A 
BRANCH  15  20
ATOM     20  N   UNL A   1      32.040  22.154  25.745  1.00  0.00    -0.291 N 
ATOM     21  C   UNL A   1      33.339  22.050  26.172  1.00  0.00     0.412 C 
ATOM     22  O   UNL A   1      33.806  20.971  26.500  1.00  0.00    -0.224 OA
ATOM     23  H   UNL A   1      31.561  21.294  25.701  1.00  0.00     0.173 HD
BRANCH  21  24
ATOM     24  O   UNL A   1      33.989  23.229  26.240  1.00  0.00    -0.444 OA
BRANCH  24  25
ATOM     25  C   UNL A   1      34.826  23.713  25.164  1.00  0.00     0.106 C 
ATOM     26  C   UNL A   1      36.228  23.726  25.788  1.00  0.00     0.056 C 
ATOM     27  C   UNL A   1      34.420  25.139  24.789  1.00  0.00     0.056 C 
ATOM     28  C   UNL A   1      34.833  22.780  23.950  1.00  0.00     0.056 C 
ENDBRANCH  24  25
ENDBRANCH  21  24
ENDBRANCH  15  20
ENDBRANCH   8  14
ENDBRANCH   4   7
ENDBRANCH   2   3
ENDBRANCH   1   2
BRANCH   1  29
ATOM     29  C   UNL A   1      32.568  30.689  27.043  1.00  0.00     0.023 C 
BRANCH  29  30
ATOM     30  C   UNL A   1      33.646  31.626  27.585  1.00  0.00     0.116 C 
BRANCH  30  31
ATOM     31  N   UNL A   1      33.223  33.020  27.599  1.00  0.00    -0.352 N 
ATOM     32  C   UNL A   1      33.455  34.009  28.527  1.00  0.00     0.251 C 
ATOM     33  H   UNL A   1      32.687  33.298  26.821  1.00  0.00     0.163 HD
ATOM     34  O   UNL A   1      32.661  34.944  28.597  1.00  0.00    -0.269 OA
BRANCH  32  35
ATOM     35  C   UNL A   1      34.606  33.918  29.457  1.00  0.00     0.039 A 
ATOM     36  C   UNL A   1      34.395  33.420  30.746  1.00  0.00     0.014 A 
ATOM     37  C   UNL A   1      35.897  34.253  29.048  1.00  0.00     0.014 A 
ATOM     38  C   UNL A   1      35.491  33.077  31.538  1.00  0.00     0.010 A 
ATOM     39  C   UNL A   1      36.986  33.802  29.781  1.00  0.00     0.010 A 
ATOM     40  C   UNL A   1      36.788  33.158  31.008  1.00  0.00    -0.014 A 
BRANCH  40  41
ATOM     41  C   UNL A   1      37.924  32.458  31.658  1.00  0.00     0.031 A 
ATOM     42  C   UNL A   1      38.588  31.290  30.991  1.00  0.00     0.074 A 
ATOM     43  C   UNL A   1      38.276  32.833  32.906  1.00  0.00     0.049 A 
ATOM     44  N   UNL A   1      39.544  30.521  31.440  1.00  0.00    -0.248 NA
ATOM     45  C   UNL A   1      38.083  30.913  29.662  1.00  0.00     0.031 C 
ATOM     46  C   UNL A   1      37.635  33.905  33.676  1.00  0.00     0.029 A 
ATOM     47  N   UNL A   1      39.250  32.365  33.751  1.00  0.00    -0.354 N 
ATOM     48  C   UNL A   1      39.760  29.572  30.448  1.00  0.00     0.074 A 
ATOM     49  C   UNL A   1      38.775  29.811  29.416  1.00  0.00     0.031 C 
ATOM     50  C   UNL A   1      38.268  34.049  34.850  1.00  0.00     0.029 A 
ATOM     51  C   UNL A   1      39.316  33.043  34.948  1.00  0.00     0.049 A 
ATOM     52  H   UNL A   1      39.844  31.614  33.524  1.00  0.00     0.167 HD
ATOM     53  C   UNL A   1      40.718  28.613  30.393  1.00  0.00     0.034 A 
ATOM     54  C   UNL A   1      40.129  32.869  36.009  1.00  0.00     0.034 A 
ATOM     55  C   UNL A   1      41.678  28.391  31.447  1.00  0.00     0.049 A 
ATOM     56  C   UNL A   1      41.164  31.779  35.937  1.00  0.00     0.074 A 
ATOM     57  C   UNL A   1      42.708  27.470  31.496  1.00  0.00     0.029 A 
ATOM     58  N   UNL A   1      41.718  29.095  32.646  1.00  0.00    -0.354 N 
ATOM     59  N   UNL A   1      41.392  30.921  34.967  1.00  0.00    -0.248 NA
ATOM     60  C   UNL A   1      42.057  31.637  37.091  1.00  0.00     0.031 C 
ATOM     61  C   UNL A   1      43.323  27.568  32.749  1.00  0.00     0.029 A 
ATOM     62  C   UNL A   1      42.737  28.610  33.451  1.00  0.00     0.049 A 
ATOM     63  H   UNL A   1      41.109  29.831  32.888  1.00  0.00     0.167 HD
ATOM     64  C   UNL A   1      42.477  30.157  35.384  1.00  0.00     0.074 A 
ATOM     65  C   UNL A   1      42.865  30.669  36.684  1.00  0.00     0.031 C 
ATOM     66  C   UNL A   1      43.098  29.129  34.751  1.00  0.00     0.034 A 
BRANCH  53  67
ATOM     67  C   UNL A   1      40.749  27.737  29.163  1.00  0.00     0.023 A 
ATOM     68  C   UNL A   1      41.692  27.945  28.140  1.00  0.00     0.031 A 
ATOM     69  C   UNL A   1      39.807  26.710  28.984  1.00  0.00     0.131 A 
ATOM     70  C   UNL A   1      41.620  27.200  26.954  1.00  0.00     0.055 A 
ATOM     71  C   UNL A   1      39.796  25.910  27.838  1.00  0.00     0.041 A 
ATOM     72  F   UNL A   1      38.864  26.477  29.912  1.00  0.00    -0.206 F 
ATOM     73  C   UNL A   1      40.696  26.164  26.808  1.00  0.00     0.022 A 
BRANCH  70  74
ATOM     74  S   UNL A   1      42.644  27.714  25.548  1.00  0.00     0.124 S 
ATOM     75  O   UNL A   1      43.940  27.924  26.189  1.00  0.00    -0.237 OA
ATOM     76  O   UNL A   1      42.553  26.566  24.654  1.00  0.00    -0.237 OA
ATOM     77  O   UNL A   1      41.989  28.931  25.073  1.00  0.00    -0.744 OA
ENDBRANCH  70  74
ENDBRANCH  53  67
BRANCH  54  78
ATOM     78  C   UNL A   1      40.004  33.743  37.212  1.00  0.00     0.023 A 
ATOM     79  C   UNL A   1      40.854  34.845  37.399  1.00  0.00     0.031 A 
ATOM     80  C   UNL A   1      39.044  33.479  38.207  1.00  0.00     0.131 A 
ATOM     81  C   UNL A   1      40.757  35.615  38.569  1.00  0.00     0.055 A 
ATOM     82  C   UNL A   1      38.914  34.282  39.341  1.00  0.00     0.041 A 
ATOM     83  F   UNL A   1      38.201  32.442  38.078  1.00  0.00    -0.206 F 
ATOM     84  C   UNL A   1      39.782  35.351  39.533  1.00  0.00     0.022 A 
BRANCH  81  85
ATOM     85  S   UNL A   1      41.984  36.922  38.855  1.00  0.00     0.124 S 
ATOM     86  O   UNL A   1      41.141  38.027  39.299  1.00  0.00    -0.237 OA
ATOM     87  O   UNL A   1      42.839  36.318  39.872  1.00  0.00    -0.237 OA
ATOM     88  O   UNL A   1      42.604  37.097  37.544  1.00  0.00    -0.744 OA
ENDBRANCH  81  85
ENDBRANCH  54  78
BRANCH  66  89
ATOM     89  C   UNL A   1      44.293  28.524  35.445  1.00  0.00     0.023 A 
ATOM     90  C   UNL A   1      44.176  27.392  36.270  1.00  0.00     0.031 A 
ATOM     91  C   UNL A   1      45.567  29.095  35.280  1.00  0.00     0.131 A 
ATOM     92  C   UNL A   1      45.302  26.903  36.947  1.00  0.00     0.055 A 
ATOM     93  C   UNL A   1      46.698  28.560  35.899  1.00  0.00     0.041 A 
ATOM     94  F   UNL A   1      45.736  30.180  34.508  1.00  0.00    -0.206 F 
ATOM     95  C   UNL A   1      46.566  27.466  36.749  1.00  0.00     0.022 A 
BRANCH  92  96
ATOM     96  S   UNL A   1      45.075  25.589  38.174  1.00  0.00     0.124 S 
ATOM     97  O   UNL A   1      45.200  26.322  39.429  1.00  0.00    -0.237 OA
ATOM     98  O   UNL A   1      43.739  25.092  37.856  1.00  0.00    -0.237 OA
ATOM     99  O   UNL A   1      46.165  24.659  37.887  1.00  0.00    -0.744 OA
ENDBRANCH  92  96
ENDBRANCH  66  89
ENDBRANCH  40  41
ENDBRANCH  32  35
ENDBRANCH  30  31
ENDBRANCH  29  30
ENDBRANCH   1  29
TORSDOF 18
ENDMDL
MODEL 3
REMARK VINA RESULT:     -12.0      2.422      7.724
REMARK SMILES CC(C)(C)OC(=O)Nc1ccc(-c2cccc(Cl)c2C(=O)NCCCCNC(=O)c2ccc(-c3c4nc(c(-c5cc(S(=O)(=O)[O-])ccc5F)c5ccc([nH]5)c(-c5cc(S(=O)(=O)[O-])ccc5F)c5nc(c(-c6cc(S(=O)(=O)[O-])ccc6F)c6ccc3[nH]6)C=C5)C=C4)cc2)cc1
REMARK SMILES IDX 24 1 23 2 22 3 20 4 21 5 19 7 13 8 14 9 15 10 17 11 16 12
REMARK SMILES IDX 18 13 12 14 9 15 10 16 94 17 11 18 93 19 8 20 6 21 7 22 5 24
REMARK SMILES IDX 2 25 1 26 3 27 4 28 25 29 26 30 27 31 28 32 29 34 30 35
REMARK SMILES IDX 31 36 92 37 32 38 91 39 33 40 34 41 35 42 85 43 36 44 90 45
REMARK SMILES IDX 84 46 86 47 37 48 89 49 83 50 82 51 38 53 70 54 50 55 69 56
REMARK SMILES IDX 51 57 54 58 68 59 87 60 52 61 53 62 67 64 88 65 55 66 39 67
REMARK SMILES IDX 40 68 48 69 41 70 47 71 49 72 46 73 42 74 43 75 44 76 45 77
REMARK SMILES IDX 71 78 72 79 80 80 73 81 79 82 81 83 78 84 74 85 75 86 76 87
REMARK SMILES IDX 77 88 56 89 57 90 65 91 58 92 64 93 66 94 63 95 59 96 60 97
REMARK SMILES IDX 61 98 62 99
REMARK H PARENT 22 6 8 23 27 33 86 52 54 63
REMARK Flexibility Score: inf
ROOT
ATOM      1  C   UNL A   1      35.405  29.753  27.277  1.00  0.00     0.023 C 
ENDROOT
BRANCH   1   2
ATOM      2  C   UNL A   1      34.377  28.933  26.518  1.00  0.00     0.116 C 
BRANCH   2   3
ATOM      3  N   UNL A   1      33.127  28.609  27.142  1.00  0.00    -0.352 N 
ATOM      4  C   UNL A   1      32.027  28.019  26.545  1.00  0.00     0.253 C 
ATOM      5  O   UNL A   1      31.283  27.372  27.288  1.00  0.00    -0.269 OA
ATOM      6  H   UNL A   1      33.043  28.832  28.097  1.00  0.00     0.163 HD
BRANCH   4   7
ATOM      7  C   UNL A   1      31.629  28.154  25.095  1.00  0.00     0.066 A 
ATOM      8  C   UNL A   1      31.660  27.134  24.099  1.00  0.00    -0.004 A 
ATOM      9  C   UNL A   1      31.069  27.388  22.833  1.00  0.00     0.009 A 
ATOM     10  C   UNL A   1      30.458  28.596  22.526  1.00  0.00     0.002 A 
ATOM     11  C   UNL A   1      31.035  29.395  24.736  1.00  0.00     0.054 A 
ATOM     12  C   UNL A   1      30.451  29.601  23.475  1.00  0.00     0.021 A 
ATOM     13  Cl  UNL A   1      31.028  30.797  25.766  1.00  0.00    -0.083 Cl
BRANCH   8  14
ATOM     14  C   UNL A   1      32.291  25.810  24.209  1.00  0.00    -0.017 A 
ATOM     15  C   UNL A   1      33.337  23.174  24.309  1.00  0.00     0.044 A 
ATOM     16  C   UNL A   1      32.130  23.479  24.941  1.00  0.00     0.027 A 
ATOM     17  C   UNL A   1      34.040  24.212  23.685  1.00  0.00     0.027 A 
ATOM     18  C   UNL A   1      31.631  24.784  24.920  1.00  0.00     0.011 A 
ATOM     19  C   UNL A   1      33.526  25.518  23.632  1.00  0.00     0.011 A 
BRANCH  15  20
ATOM     20  N   UNL A   1      33.722  21.822  24.317  1.00  0.00    -0.291 N 
ATOM     21  C   UNL A   1      34.812  21.186  24.856  1.00  0.00     0.412 C 
ATOM     22  O   UNL A   1      34.930  19.973  24.778  1.00  0.00    -0.224 OA
ATOM     23  H   UNL A   1      33.096  21.222  23.852  1.00  0.00     0.173 HD
BRANCH  21  24
ATOM     24  O   UNL A   1      35.664  22.009  25.499  1.00  0.00    -0.444 OA
BRANCH  24  25
ATOM     25  C   UNL A   1      36.934  22.403  24.932  1.00  0.00     0.106 C 
ATOM     26  C   UNL A   1      37.870  21.254  25.329  1.00  0.00     0.056 C 
ATOM     27  C   UNL A   1      37.414  23.702  25.581  1.00  0.00     0.056 C 
ATOM     28  C   UNL A   1      36.896  22.506  23.404  1.00  0.00     0.056 C 
ENDBRANCH  24  25
ENDBRANCH  21  24
ENDBRANCH  15  20
ENDBRANCH   8  14
ENDBRANCH   4   7
ENDBRANCH   2   3
ENDBRANCH   1   2
BRANCH   1  29
ATOM     29  C   UNL A   1      35.044  31.192  27.630  1.00  0.00     0.023 C 
BRANCH  29  30
ATOM     30  C   UNL A   1      33.562  31.505  27.826  1.00  0.00     0.116 C 
BRANCH  30  31
ATOM     31  N   UNL A   1      33.262  32.922  27.665  1.00  0.00    -0.352 N 
ATOM     32  C   UNL A   1      33.535  33.988  28.491  1.00  0.00     0.251 C 
ATOM     33  H   UNL A   1      32.788  33.154  26.832  1.00  0.00     0.163 HD
ATOM     34  O   UNL A   1      32.824  34.986  28.414  1.00  0.00    -0.269 OA
BRANCH  32  35
ATOM     35  C   UNL A   1      34.629  33.909  29.489  1.00  0.00     0.039 A 
ATOM     36  C   UNL A   1      34.372  33.314  30.727  1.00  0.00     0.014 A 
ATOM     37  C   UNL A   1      35.918  34.352  29.188  1.00  0.00     0.014 A 
ATOM     38  C   UNL A   1      35.438  32.990  31.568  1.00  0.00     0.010 A 
ATOM     39  C   UNL A   1      36.987  33.924  29.963  1.00  0.00     0.010 A 
ATOM     40  C   UNL A   1      36.757  33.189  31.131  1.00  0.00    -0.014 A 
BRANCH  40  41
ATOM     41  C   UNL A   1      37.895  32.521  31.811  1.00  0.00     0.031 A 
ATOM     42  C   UNL A   1      38.622  31.386  31.153  1.00  0.00     0.074 A 
ATOM     43  C   UNL A   1      38.192  32.892  33.075  1.00  0.00     0.049 A 
ATOM     44  N   UNL A   1      39.589  30.645  31.625  1.00  0.00    -0.248 NA
ATOM     45  C   UNL A   1      38.176  31.008  29.804  1.00  0.00     0.031 C 
ATOM     46  C   UNL A   1      37.488  33.931  33.835  1.00  0.00     0.029 A 
ATOM     47  N   UNL A   1      39.153  32.448  33.947  1.00  0.00    -0.354 N 
ATOM     48  C   UNL A   1      39.873  29.717  30.631  1.00  0.00     0.074 A 
ATOM     49  C   UNL A   1      38.915  29.935  29.568  1.00  0.00     0.031 C 
ATOM     50  C   UNL A   1      38.076  34.082  35.031  1.00  0.00     0.029 A 
ATOM     51  C   UNL A   1      39.156  33.112  35.153  1.00  0.00     0.049 A 
ATOM     52  H   UNL A   1      39.781  31.721  33.730  1.00  0.00     0.167 HD
ATOM     53  C   UNL A   1      40.865  28.793  30.597  1.00  0.00     0.034 A 
ATOM     54  C   UNL A   1      39.939  32.954  36.238  1.00  0.00     0.034 A 
ATOM     55  C   UNL A   1      41.797  28.592  31.680  1.00  0.00     0.049 A 
ATOM     56  C   UNL A   1      41.014  31.902  36.188  1.00  0.00     0.074 A 
ATOM     57  C   UNL A   1      42.858  27.707  31.752  1.00  0.00     0.029 A 
ATOM     58  N   UNL A   1      41.772  29.282  32.887  1.00  0.00    -0.354 N 
ATOM     59  N   UNL A   1      41.304  31.065  35.217  1.00  0.00    -0.248 NA
ATOM     60  C   UNL A   1      41.872  31.777  37.371  1.00  0.00     0.031 C 
ATOM     61  C   UNL A   1      43.427  27.811  33.026  1.00  0.00     0.029 A 
ATOM     62  C   UNL A   1      42.781  28.823  33.720  1.00  0.00     0.049 A 
ATOM     63  H   UNL A   1      41.130  29.993  33.117  1.00  0.00     0.167 HD
ATOM     64  C   UNL A   1      42.401  30.334  35.661  1.00  0.00     0.074 A 
ATOM     65  C   UNL A   1      42.727  30.844  36.979  1.00  0.00     0.031 C 
ATOM     66  C   UNL A   1      43.080  29.337  35.038  1.00  0.00     0.034 A 
BRANCH  53  67
ATOM     67  C   UNL A   1      40.968  27.935  29.358  1.00  0.00     0.023 A 
ATOM     68  C   UNL A   1      41.976  28.151  28.400  1.00  0.00     0.031 A 
ATOM     69  C   UNL A   1      40.033  26.918  29.105  1.00  0.00     0.131 A 
ATOM     70  C   UNL A   1      41.974  27.424  27.201  1.00  0.00     0.055 A 
ATOM     71  C   UNL A   1      40.090  26.134  27.949  1.00  0.00     0.041 A 
ATOM     72  F   UNL A   1      39.032  26.678  29.968  1.00  0.00    -0.206 F 
ATOM     73  C   UNL A   1      41.055  26.397  26.981  1.00  0.00     0.022 A 
BRANCH  70  74
ATOM     74  S   UNL A   1      43.088  27.950  25.869  1.00  0.00     0.124 S 
ATOM     75  O   UNL A   1      43.999  26.811  25.782  1.00  0.00    -0.237 OA
ATOM     76  O   UNL A   1      42.177  28.127  24.745  1.00  0.00    -0.237 OA
ATOM     77  O   UNL A   1      43.687  29.178  26.389  1.00  0.00    -0.744 OA
ENDBRANCH  70  74
ENDBRANCH  53  67
BRANCH  54  78
ATOM     78  C   UNL A   1      39.742  33.807  37.447  1.00  0.00     0.023 A 
ATOM     79  C   UNL A   1      38.990  33.351  38.541  1.00  0.00     0.031 A 
ATOM     80  C   UNL A   1      40.286  35.103  37.519  1.00  0.00     0.131 A 
ATOM     81  C   UNL A   1      38.768  34.195  39.641  1.00  0.00     0.055 A 
ATOM     82  C   UNL A   1      40.110  35.918  38.639  1.00  0.00     0.041 A 
ATOM     83  F   UNL A   1      41.018  35.590  36.505  1.00  0.00    -0.206 F 
ATOM     84  C   UNL A   1      39.336  35.469  39.704  1.00  0.00     0.022 A 
BRANCH  81  85
ATOM     85  S   UNL A   1      37.650  33.636  40.956  1.00  0.00     0.124 S 
ATOM     86  O   UNL A   1      36.604  32.966  40.191  1.00  0.00    -0.237 OA
ATOM     87  O   UNL A   1      38.520  32.771  41.747  1.00  0.00    -0.237 OA
ATOM     88  O   UNL A   1      37.246  34.878  41.610  1.00  0.00    -0.744 OA
ENDBRANCH  81  85
ENDBRANCH  54  78
BRANCH  66  89
ATOM     89  C   UNL A   1      44.272  28.766  35.764  1.00  0.00     0.023 A 
ATOM     90  C   UNL A   1      44.146  27.696  36.666  1.00  0.00     0.031 A 
ATOM     91  C   UNL A   1      45.552  29.308  35.553  1.00  0.00     0.131 A 
ATOM     92  C   UNL A   1      45.271  27.240  37.368  1.00  0.00     0.055 A 
ATOM     93  C   UNL A   1      46.680  28.802  36.200  1.00  0.00     0.041 A 
ATOM     94  F   UNL A   1      45.729  30.336  34.707  1.00  0.00    -0.206 F 
ATOM     95  C   UNL A   1      46.540  27.771  37.124  1.00  0.00     0.022 A 
BRANCH  92  96
ATOM     96  S   UNL A   1      45.035  26.016  38.684  1.00  0.00     0.124 S 
ATOM     97  O   UNL A   1      44.171  26.734  39.614  1.00  0.00    -0.237 OA
ATOM     98  O   UNL A   1      44.417  24.903  37.969  1.00  0.00    -0.237 OA
ATOM     99  O   UNL A   1      46.392  25.765  39.165  1.00  0.00    -0.744 OA
ENDBRANCH  92  96
ENDBRANCH  66  89
ENDBRANCH  40  41
ENDBRANCH  32  35
ENDBRANCH  30  31
ENDBRANCH  29  30
ENDBRANCH   1  29
TORSDOF 18
ENDMDL
