MODEL 1
REMARK VINA RESULT:     -11.8      0.000      0.000
REMARK SMILES N#C/C(=C\c1ccc(Oc2ccccc2Cl)c([N+](=O)[O-])c1)C(=O)NCCCCNC(=O)c1ccc(-c2c3nc(c(-c4cc(S(=O)(=O)[O-])ccc4F)c4ccc([nH]4)c(-c4cc(S(=O)(=O)[O-])ccc4F)c4nc(c(-c5cc(S(=O)(=O)[O-])ccc5F)c5ccc2[nH]5)C=C4)C=C3)cc1
REMARK SMILES IDX 26 1 25 2 24 3 22 4 23 5 3 7 4 8 2 9 1 10 5 11 6 12 21 13
REMARK SMILES IDX 7 14 17 15 8 16 18 17 19 18 20 19 9 20 10 21 11 22 15 23
REMARK SMILES IDX 12 24 14 25 16 26 13 27 27 28 28 29 29 30 30 31 31 33 32 34
REMARK SMILES IDX 33 35 94 36 34 37 93 38 35 39 36 40 37 41 87 42 38 43 92 44
REMARK SMILES IDX 86 45 88 46 39 47 91 48 85 49 84 50 40 52 72 53 52 54 71 55
REMARK SMILES IDX 53 56 56 57 70 58 89 59 54 60 55 61 69 63 90 64 57 65 41 66
REMARK SMILES IDX 42 67 50 68 43 69 49 70 51 71 48 72 44 73 45 74 46 75 47 76
REMARK SMILES IDX 73 77 74 78 82 79 75 80 81 81 83 82 80 83 76 84 77 85 78 86
REMARK SMILES IDX 79 87 58 88 59 89 67 90 60 91 66 92 68 93 65 94 61 95 62 96
REMARK SMILES IDX 63 97 64 98
REMARK H PARENT 24 6 29 32 88 51 56 62
REMARK Flexibility Score: inf
ROOT
ATOM      1  C   UNL A   1      31.733  29.458  25.769  1.00  0.00     0.023 C 
ENDROOT
BRANCH   1   2
ATOM      2  C   UNL A   1      31.261  28.942  24.406  1.00  0.00     0.116 C 
BRANCH   2   3
ATOM      3  N   UNL A   1      32.327  28.985  23.424  1.00  0.00    -0.351 N 
ATOM      4  C   UNL A   1      33.166  28.033  22.931  1.00  0.00     0.261 C 
ATOM      5  O   UNL A   1      33.956  28.381  22.051  1.00  0.00    -0.268 OA
ATOM      6  H   UNL A   1      32.474  29.879  23.038  1.00  0.00     0.163 HD
BRANCH   4   7
ATOM      7  C   UNL A   1      33.169  26.616  23.394  1.00  0.00     0.117 C 
ATOM      8  C   UNL A   1      34.157  25.947  24.039  1.00  0.00     0.033 C 
BRANCH   7   9
ATOM      9  C   UNL A   1      32.026  25.738  22.912  1.00  0.00     0.105 C 
ATOM     10  N   UNL A   1      31.078  25.009  22.512  1.00  0.00    -0.192 NA
ENDBRANCH   7   9
BRANCH   8  11
ATOM     11  C   UNL A   1      34.127  24.514  24.423  1.00  0.00    -0.017 A 
ATOM     12  C   UNL A   1      34.910  23.597  23.718  1.00  0.00     0.012 A 
ATOM     13  C   UNL A   1      33.369  24.046  25.502  1.00  0.00     0.098 A 
ATOM     14  C   UNL A   1      34.957  22.249  24.108  1.00  0.00     0.055 A 
ATOM     15  C   UNL A   1      33.497  22.716  25.939  1.00  0.00     0.312 A 
ATOM     16  C   UNL A   1      34.254  21.781  25.230  1.00  0.00     0.204 A 
BRANCH  15  17
ATOM     17  N   UNL A   1      32.904  22.436  27.231  1.00  0.00     0.066 N 
ATOM     18  O   UNL A   1      33.469  21.595  27.944  1.00  0.00    -0.258 OA
ATOM     19  O   UNL A   1      31.910  23.102  27.551  1.00  0.00    -0.258 OA
ENDBRANCH  15  17
BRANCH  16  20
ATOM     20  O   UNL A   1      34.450  20.435  25.455  1.00  0.00    -0.449 OA
BRANCH  20  21
ATOM     21  C   UNL A   1      33.918  19.496  24.610  1.00  0.00     0.146 A 
ATOM     22  C   UNL A   1      32.670  19.810  24.061  1.00  0.00     0.049 A 
ATOM     23  C   UNL A   1      34.518  18.265  24.315  1.00  0.00     0.083 A 
ATOM     24  C   UNL A   1      32.073  18.951  23.139  1.00  0.00     0.004 A 
ATOM     25  C   UNL A   1      33.926  17.417  23.376  1.00  0.00     0.024 A 
ATOM     26  Cl  UNL A   1      35.988  17.759  25.064  1.00  0.00    -0.080 Cl
ATOM     27  C   UNL A   1      32.712  17.766  22.779  1.00  0.00     0.002 A 
ENDBRANCH  20  21
ENDBRANCH  16  20
ENDBRANCH   8  11
ENDBRANCH   4   7
ENDBRANCH   2   3
ENDBRANCH   1   2
BRANCH   1  28
ATOM     28  C   UNL A   1      32.829  28.617  26.426  1.00  0.00     0.023 C 
BRANCH  28  29
ATOM     29  C   UNL A   1      34.100  29.384  26.769  1.00  0.00     0.116 C 
BRANCH  29  30
ATOM     30  N   UNL A   1      33.867  30.785  27.077  1.00  0.00    -0.352 N 
ATOM     31  C   UNL A   1      34.600  31.598  27.913  1.00  0.00     0.251 C 
ATOM     32  H   UNL A   1      33.092  31.204  26.635  1.00  0.00     0.163 HD
ATOM     33  O   UNL A   1      34.215  32.730  28.162  1.00  0.00    -0.269 OA
BRANCH  31  34
ATOM     34  C   UNL A   1      35.822  31.052  28.540  1.00  0.00     0.039 A 
ATOM     35  C   UNL A   1      35.716  29.927  29.360  1.00  0.00     0.014 A 
ATOM     36  C   UNL A   1      37.071  31.617  28.269  1.00  0.00     0.014 A 
ATOM     37  C   UNL A   1      36.874  29.333  29.865  1.00  0.00     0.010 A 
ATOM     38  C   UNL A   1      38.225  30.978  28.707  1.00  0.00     0.010 A 
ATOM     39  C   UNL A   1      38.139  29.836  29.517  1.00  0.00    -0.014 A 
BRANCH  39  40
ATOM     40  C   UNL A   1      39.385  29.205  30.020  1.00  0.00     0.031 A 
ATOM     41  C   UNL A   1      40.054  29.756  31.250  1.00  0.00     0.074 A 
ATOM     42  C   UNL A   1      39.947  28.190  29.337  1.00  0.00     0.049 A 
ATOM     43  N   UNL A   1      41.181  29.404  31.811  1.00  0.00    -0.248 NA
ATOM     44  C   UNL A   1      39.380  30.883  31.909  1.00  0.00     0.031 C 
ATOM     45  C   UNL A   1      39.417  27.601  28.106  1.00  0.00     0.029 A 
ATOM     46  N   UNL A   1      41.093  27.475  29.578  1.00  0.00    -0.354 N 
ATOM     47  C   UNL A   1      41.364  30.281  32.876  1.00  0.00     0.074 A 
ATOM     48  C   UNL A   1      40.266  31.225  32.830  1.00  0.00     0.031 C 
ATOM     49  C   UNL A   1      40.218  26.595  27.718  1.00  0.00     0.029 A 
ATOM     50  C   UNL A   1      41.338  26.492  28.649  1.00  0.00     0.049 A 
ATOM     51  H   UNL A   1      41.686  27.651  30.344  1.00  0.00     0.167 HD
ATOM     52  C   UNL A   1      42.340  30.283  33.818  1.00  0.00     0.034 A 
ATOM     53  C   UNL A   1      42.352  25.609  28.559  1.00  0.00     0.034 A 
ATOM     54  C   UNL A   1      43.413  29.320  33.855  1.00  0.00     0.049 A 
ATOM     55  C   UNL A   1      43.427  25.626  29.615  1.00  0.00     0.074 A 
ATOM     56  C   UNL A   1      44.421  29.183  34.793  1.00  0.00     0.029 A 
ATOM     57  N   UNL A   1      43.622  28.327  32.904  1.00  0.00    -0.354 N 
ATOM     58  N   UNL A   1      43.558  26.425  30.649  1.00  0.00    -0.248 NA
ATOM     59  C   UNL A   1      44.481  24.611  29.499  1.00  0.00     0.031 C 
ATOM     60  C   UNL A   1      45.272  28.153  34.377  1.00  0.00     0.029 A 
ATOM     61  C   UNL A   1      44.755  27.593  33.219  1.00  0.00     0.049 A 
ATOM     62  H   UNL A   1      43.048  28.168  32.119  1.00  0.00     0.167 HD
ATOM     63  C   UNL A   1      44.690  25.982  31.329  1.00  0.00     0.074 A 
ATOM     64  C   UNL A   1      45.198  24.844  30.588  1.00  0.00     0.031 C 
ATOM     65  C   UNL A   1      45.253  26.465  32.466  1.00  0.00     0.034 A 
BRANCH  52  66
ATOM     66  C   UNL A   1      42.293  31.382  34.856  1.00  0.00     0.023 A 
ATOM     67  C   UNL A   1      41.292  31.422  35.844  1.00  0.00     0.031 A 
ATOM     68  C   UNL A   1      43.216  32.441  34.817  1.00  0.00     0.131 A 
ATOM     69  C   UNL A   1      41.171  32.545  36.676  1.00  0.00     0.055 A 
ATOM     70  C   UNL A   1      43.150  33.509  35.715  1.00  0.00     0.041 A 
ATOM     71  F   UNL A   1      44.183  32.472  33.887  1.00  0.00    -0.206 F 
ATOM     72  C   UNL A   1      42.110  33.578  36.636  1.00  0.00     0.022 A 
BRANCH  69  73
ATOM     73  S   UNL A   1      39.663  32.724  37.669  1.00  0.00     0.124 S 
ATOM     74  O   UNL A   1      39.165  34.022  37.217  1.00  0.00    -0.237 OA
ATOM     75  O   UNL A   1      38.879  31.563  37.264  1.00  0.00    -0.237 OA
ATOM     76  O   UNL A   1      40.153  32.699  39.045  1.00  0.00    -0.744 OA
ENDBRANCH  69  73
ENDBRANCH  52  66
BRANCH  53  77
ATOM     77  C   UNL A   1      42.390  24.618  27.448  1.00  0.00     0.023 A 
ATOM     78  C   UNL A   1      41.624  23.444  27.506  1.00  0.00     0.031 A 
ATOM     79  C   UNL A   1      43.209  24.818  26.322  1.00  0.00     0.131 A 
ATOM     80  C   UNL A   1      41.722  22.492  26.478  1.00  0.00     0.055 A 
ATOM     81  C   UNL A   1      43.269  23.891  25.281  1.00  0.00     0.041 A 
ATOM     82  F   UNL A   1      43.952  25.931  26.213  1.00  0.00    -0.206 F 
ATOM     83  C   UNL A   1      42.530  22.713  25.361  1.00  0.00     0.022 A 
BRANCH  80  84
ATOM     84  S   UNL A   1      40.818  20.930  26.653  1.00  0.00     0.124 S 
ATOM     85  O   UNL A   1      40.775  20.772  28.102  1.00  0.00    -0.237 OA
ATOM     86  O   UNL A   1      39.550  21.240  26.002  1.00  0.00    -0.237 OA
ATOM     87  O   UNL A   1      41.661  19.969  25.945  1.00  0.00    -0.744 OA
ENDBRANCH  80  84
ENDBRANCH  53  77
BRANCH  65  88
ATOM     88  C   UNL A   1      46.449  25.719  33.007  1.00  0.00     0.023 A 
ATOM     89  C   UNL A   1      47.752  25.965  32.541  1.00  0.00     0.031 A 
ATOM     90  C   UNL A   1      46.274  24.736  33.997  1.00  0.00     0.131 A 
ATOM     91  C   UNL A   1      48.822  25.195  33.024  1.00  0.00     0.055 A 
ATOM     92  C   UNL A   1      47.350  24.016  34.517  1.00  0.00     0.041 A 
ATOM     93  F   UNL A   1      45.051  24.459  34.476  1.00  0.00    -0.206 F 
ATOM     94  C   UNL A   1      48.632  24.234  34.020  1.00  0.00     0.022 A 
BRANCH  91  95
ATOM     95  S   UNL A   1      50.455  25.400  32.261  1.00  0.00     0.124 S 
ATOM     96  O   UNL A   1      51.351  25.097  33.372  1.00  0.00    -0.237 OA
ATOM     97  O   UNL A   1      50.421  24.416  31.183  1.00  0.00    -0.237 OA
ATOM     98  O   UNL A   1      50.457  26.796  31.825  1.00  0.00    -0.744 OA
ENDBRANCH  91  95
ENDBRANCH  65  88
ENDBRANCH  39  40
ENDBRANCH  31  34
ENDBRANCH  29  30
ENDBRANCH  28  29
ENDBRANCH   1  28
TORSDOF 19
ENDMDL
MODEL 2
REMARK VINA RESULT:     -11.5      1.615      2.126
REMARK SMILES N#C/C(=C\c1ccc(Oc2ccccc2Cl)c([N+](=O)[O-])c1)C(=O)NCCCCNC(=O)c1ccc(-c2c3nc(c(-c4cc(S(=O)(=O)[O-])ccc4F)c4ccc([nH]4)c(-c4cc(S(=O)(=O)[O-])ccc4F)c4nc(c(-c5cc(S(=O)(=O)[O-])ccc5F)c5ccc2[nH]5)C=C4)C=C3)cc1
REMARK SMILES IDX 26 1 25 2 24 3 22 4 23 5 3 7 4 8 2 9 1 10 5 11 6 12 21 13
REMARK SMILES IDX 7 14 17 15 8 16 18 17 19 18 20 19 9 20 10 21 11 22 15 23
REMARK SMILES IDX 12 24 14 25 16 26 13 27 27 28 28 29 29 30 30 31 31 33 32 34
REMARK SMILES IDX 33 35 94 36 34 37 93 38 35 39 36 40 37 41 87 42 38 43 92 44
REMARK SMILES IDX 86 45 88 46 39 47 91 48 85 49 84 50 40 52 72 53 52 54 71 55
REMARK SMILES IDX 53 56 56 57 70 58 89 59 54 60 55 61 69 63 90 64 57 65 41 66
REMARK SMILES IDX 42 67 50 68 43 69 49 70 51 71 48 72 44 73 45 74 46 75 47 76
REMARK SMILES IDX 73 77 74 78 82 79 75 80 81 81 83 82 80 83 76 84 77 85 78 86
REMARK SMILES IDX 79 87 58 88 59 89 67 90 60 91 66 92 68 93 65 94 61 95 62 96
REMARK SMILES IDX 63 97 64 98
REMARK H PARENT 24 6 29 32 88 51 56 62
REMARK Flexibility Score: inf
ROOT
ATOM      1  C   UNL A   1      31.397  29.841  25.693  1.00  0.00     0.023 C 
ENDROOT
BRANCH   1   2
ATOM      2  C   UNL A   1      31.287  29.179  24.315  1.00  0.00     0.116 C 
BRANCH   2   3
ATOM      3  N   UNL A   1      32.507  29.341  23.549  1.00  0.00    -0.351 N 
ATOM      4  C   UNL A   1      33.503  28.477  23.207  1.00  0.00     0.261 C 
ATOM      5  O   UNL A   1      34.407  28.917  22.495  1.00  0.00    -0.268 OA
ATOM      6  H   UNL A   1      32.644  30.256  23.210  1.00  0.00     0.163 HD
BRANCH   4   7
ATOM      7  C   UNL A   1      33.543  27.052  23.641  1.00  0.00     0.117 C 
ATOM      8  C   UNL A   1      33.883  26.556  24.857  1.00  0.00     0.033 C 
BRANCH   7   9
ATOM      9  C   UNL A   1      33.396  26.002  22.553  1.00  0.00     0.105 C 
ATOM     10  N   UNL A   1      33.275  25.130  21.649  1.00  0.00    -0.192 NA
ENDBRANCH   7   9
BRANCH   8  11
ATOM     11  C   UNL A   1      33.964  25.119  25.216  1.00  0.00    -0.017 A 
ATOM     12  C   UNL A   1      32.833  24.474  25.724  1.00  0.00     0.012 A 
ATOM     13  C   UNL A   1      35.127  24.364  25.024  1.00  0.00     0.098 A 
ATOM     14  C   UNL A   1      32.860  23.098  26.002  1.00  0.00     0.055 A 
ATOM     15  C   UNL A   1      35.113  22.971  25.217  1.00  0.00     0.312 A 
ATOM     16  C   UNL A   1      34.000  22.317  25.750  1.00  0.00     0.204 A 
BRANCH  15  17
ATOM     17  N   UNL A   1      36.270  22.270  24.701  1.00  0.00     0.066 N 
ATOM     18  O   UNL A   1      37.031  21.747  25.526  1.00  0.00    -0.258 OA
ATOM     19  O   UNL A   1      36.380  22.196  23.469  1.00  0.00    -0.258 OA
ENDBRANCH  15  17
BRANCH  16  20
ATOM     20  O   UNL A   1      33.815  20.989  26.070  1.00  0.00    -0.449 OA
BRANCH  20  21
ATOM     21  C   UNL A   1      33.631  20.048  25.089  1.00  0.00     0.146 A 
ATOM     22  C   UNL A   1      34.474  18.934  25.151  1.00  0.00     0.049 A 
ATOM     23  C   UNL A   1      32.706  20.165  24.043  1.00  0.00     0.083 A 
ATOM     24  C   UNL A   1      34.324  17.890  24.238  1.00  0.00     0.004 A 
ATOM     25  C   UNL A   1      32.546  19.108  23.144  1.00  0.00     0.024 A 
ATOM     26  Cl  UNL A   1      31.733  21.574  23.832  1.00  0.00    -0.080 Cl
ATOM     27  C   UNL A   1      33.345  17.967  23.249  1.00  0.00     0.002 A 
ENDBRANCH  20  21
ENDBRANCH  16  20
ENDBRANCH   8  11
ENDBRANCH   4   7
ENDBRANCH   2   3
ENDBRANCH   1   2
BRANCH   1  28
ATOM     28  C   UNL A   1      32.017  28.958  26.777  1.00  0.00     0.023 C 
BRANCH  28  29
ATOM     29  C   UNL A   1      33.366  29.442  27.297  1.00  0.00     0.116 C 
BRANCH  29  30
ATOM     30  N   UNL A   1      33.431  30.881  27.487  1.00  0.00    -0.352 N 
ATOM     31  C   UNL A   1      34.458  31.612  28.042  1.00  0.00     0.251 C 
ATOM     32  H   UNL A   1      32.648  31.396  27.182  1.00  0.00     0.163 HD
ATOM     33  O   UNL A   1      34.323  32.810  28.239  1.00  0.00    -0.269 OA
BRANCH  31  34
ATOM     34  C   UNL A   1      35.695  30.907  28.440  1.00  0.00     0.039 A 
ATOM     35  C   UNL A   1      36.919  31.359  27.945  1.00  0.00     0.014 A 
ATOM     36  C   UNL A   1      35.644  29.842  29.343  1.00  0.00     0.014 A 
ATOM     37  C   UNL A   1      38.103  30.776  28.403  1.00  0.00     0.010 A 
ATOM     38  C   UNL A   1      36.824  29.317  29.855  1.00  0.00     0.010 A 
ATOM     39  C   UNL A   1      38.066  29.772  29.384  1.00  0.00    -0.014 A 
BRANCH  39  40
ATOM     40  C   UNL A   1      39.312  29.155  29.906  1.00  0.00     0.031 A 
ATOM     41  C   UNL A   1      39.971  29.731  31.130  1.00  0.00     0.074 A 
ATOM     42  C   UNL A   1      39.882  28.130  29.244  1.00  0.00     0.049 A 
ATOM     43  N   UNL A   1      41.096  29.393  31.703  1.00  0.00    -0.248 NA
ATOM     44  C   UNL A   1      39.288  30.867  31.765  1.00  0.00     0.031 C 
ATOM     45  C   UNL A   1      39.362  27.518  28.020  1.00  0.00     0.029 A 
ATOM     46  N   UNL A   1      41.029  27.425  29.505  1.00  0.00    -0.354 N 
ATOM     47  C   UNL A   1      41.268  30.290  32.754  1.00  0.00     0.074 A 
ATOM     48  C   UNL A   1      40.167  31.228  32.685  1.00  0.00     0.031 C 
ATOM     49  C   UNL A   1      40.169  26.508  27.656  1.00  0.00     0.029 A 
ATOM     50  C   UNL A   1      41.284  26.427  28.595  1.00  0.00     0.049 A 
ATOM     51  H   UNL A   1      41.616  27.617  30.272  1.00  0.00     0.167 HD
ATOM     52  C   UNL A   1      42.238  30.313  33.702  1.00  0.00     0.034 A 
ATOM     53  C   UNL A   1      42.301  25.546  28.527  1.00  0.00     0.034 A 
ATOM     54  C   UNL A   1      43.315  29.355  33.762  1.00  0.00     0.049 A 
ATOM     55  C   UNL A   1      43.370  25.586  29.589  1.00  0.00     0.074 A 
ATOM     56  C   UNL A   1      44.318  29.239  34.709  1.00  0.00     0.029 A 
ATOM     57  N   UNL A   1      43.534  28.347  32.830  1.00  0.00    -0.354 N 
ATOM     58  N   UNL A   1      43.492  26.404  30.610  1.00  0.00    -0.248 NA
ATOM     59  C   UNL A   1      44.429  24.574  29.497  1.00  0.00     0.031 C 
ATOM     60  C   UNL A   1      45.176  28.206  34.316  1.00  0.00     0.029 A 
ATOM     61  C   UNL A   1      44.668  27.623  33.166  1.00  0.00     0.049 A 
ATOM     62  H   UNL A   1      42.966  28.171  32.045  1.00  0.00     0.167 HD
ATOM     63  C   UNL A   1      44.622  25.978  31.304  1.00  0.00     0.074 A 
ATOM     64  C   UNL A   1      45.139  24.830  30.587  1.00  0.00     0.031 C 
ATOM     65  C   UNL A   1      45.175  26.484  32.436  1.00  0.00     0.034 A 
BRANCH  52  66
ATOM     66  C   UNL A   1      42.180  31.430  34.720  1.00  0.00     0.023 A 
ATOM     67  C   UNL A   1      41.215  31.447  35.743  1.00  0.00     0.031 A 
ATOM     68  C   UNL A   1      43.054  32.527  34.627  1.00  0.00     0.131 A 
ATOM     69  C   UNL A   1      41.075  32.580  36.557  1.00  0.00     0.055 A 
ATOM     70  C   UNL A   1      42.974  33.610  35.505  1.00  0.00     0.041 A 
ATOM     71  F   UNL A   1      43.985  32.581  33.661  1.00  0.00    -0.206 F 
ATOM     72  C   UNL A   1      41.965  33.652  36.464  1.00  0.00     0.022 A 
BRANCH  69  73
ATOM     73  S   UNL A   1      39.598  32.714  37.602  1.00  0.00     0.124 S 
ATOM     74  O   UNL A   1      40.172  32.592  38.941  1.00  0.00    -0.237 OA
ATOM     75  O   UNL A   1      39.078  34.028  37.247  1.00  0.00    -0.237 OA
ATOM     76  O   UNL A   1      38.776  31.581  37.182  1.00  0.00    -0.744 OA
ENDBRANCH  69  73
ENDBRANCH  52  66
BRANCH  53  77
ATOM     77  C   UNL A   1      42.351  24.536  27.434  1.00  0.00     0.023 A 
ATOM     78  C   UNL A   1      41.740  23.282  27.586  1.00  0.00     0.031 A 
ATOM     79  C   UNL A   1      43.028  24.799  26.229  1.00  0.00     0.131 A 
ATOM     80  C   UNL A   1      41.851  22.320  26.570  1.00  0.00     0.055 A 
ATOM     81  C   UNL A   1      43.097  23.856  25.203  1.00  0.00     0.041 A 
ATOM     82  F   UNL A   1      43.619  25.988  26.029  1.00  0.00    -0.206 F 
ATOM     83  C   UNL A   1      42.516  22.603  25.375  1.00  0.00     0.022 A 
BRANCH  80  84
ATOM     84  S   UNL A   1      41.161  20.668  26.859  1.00  0.00     0.124 S 
ATOM     85  O   UNL A   1      42.301  19.812  26.549  1.00  0.00    -0.237 OA
ATOM     86  O   UNL A   1      40.778  20.742  28.265  1.00  0.00    -0.237 OA
ATOM     87  O   UNL A   1      40.049  20.594  25.915  1.00  0.00    -0.744 OA
ENDBRANCH  80  84
ENDBRANCH  53  77
BRANCH  65  88
ATOM     88  C   UNL A   1      46.371  25.753  32.998  1.00  0.00     0.023 A 
ATOM     89  C   UNL A   1      46.233  24.663  33.876  1.00  0.00     0.031 A 
ATOM     90  C   UNL A   1      47.670  26.167  32.656  1.00  0.00     0.131 A 
ATOM     91  C   UNL A   1      47.375  24.064  34.428  1.00  0.00     0.055 A 
ATOM     92  C   UNL A   1      48.803  25.528  33.160  1.00  0.00     0.041 A 
ATOM     93  F   UNL A   1      47.860  27.203  31.823  1.00  0.00    -0.206 F 
ATOM     94  C   UNL A   1      48.659  24.478  34.063  1.00  0.00     0.022 A 
BRANCH  91  95
ATOM     95  S   UNL A   1      47.160  22.795  35.706  1.00  0.00     0.124 S 
ATOM     96  O   UNL A   1      45.926  23.224  36.356  1.00  0.00    -0.237 OA
ATOM     97  O   UNL A   1      47.074  21.570  34.919  1.00  0.00    -0.237 OA
ATOM     98  O   UNL A   1      48.367  22.923  36.522  1.00  0.00    -0.744 OA
ENDBRANCH  91  95
ENDBRANCH  65  88
ENDBRANCH  39  40
ENDBRANCH  31  34
ENDBRANCH  29  30
ENDBRANCH  28  29
ENDBRANCH   1  28
TORSDOF 19
ENDMDL
MODEL 3
REMARK VINA RESULT:     -11.5      3.260      8.403
REMARK SMILES N#C/C(=C\c1ccc(Oc2ccccc2Cl)c([N+](=O)[O-])c1)C(=O)NCCCCNC(=O)c1ccc(-c2c3nc(c(-c4cc(S(=O)(=O)[O-])ccc4F)c4ccc([nH]4)c(-c4cc(S(=O)(=O)[O-])ccc4F)c4nc(c(-c5cc(S(=O)(=O)[O-])ccc5F)c5ccc2[nH]5)C=C4)C=C3)cc1
REMARK SMILES IDX 26 1 25 2 24 3 22 4 23 5 3 7 4 8 2 9 1 10 5 11 6 12 21 13
REMARK SMILES IDX 7 14 17 15 8 16 18 17 19 18 20 19 9 20 10 21 11 22 15 23
REMARK SMILES IDX 12 24 14 25 16 26 13 27 27 28 28 29 29 30 30 31 31 33 32 34
REMARK SMILES IDX 33 35 94 36 34 37 93 38 35 39 36 40 37 41 87 42 38 43 92 44
REMARK SMILES IDX 86 45 88 46 39 47 91 48 85 49 84 50 40 52 72 53 52 54 71 55
REMARK SMILES IDX 53 56 56 57 70 58 89 59 54 60 55 61 69 63 90 64 57 65 41 66
REMARK SMILES IDX 42 67 50 68 43 69 49 70 51 71 48 72 44 73 45 74 46 75 47 76
REMARK SMILES IDX 73 77 74 78 82 79 75 80 81 81 83 82 80 83 76 84 77 85 78 86
REMARK SMILES IDX 79 87 58 88 59 89 67 90 60 91 66 92 68 93 65 94 61 95 62 96
REMARK SMILES IDX 63 97 64 98
REMARK H PARENT 24 6 29 32 88 51 56 62
REMARK Flexibility Score: inf
ROOT
ATOM      1  C   UNL A   1      31.575  30.922  25.851  1.00  0.00     0.023 C 
ENDROOT
BRANCH   1   2
ATOM      2  C   UNL A   1      31.920  29.513  25.357  1.00  0.00     0.116 C 
BRANCH   2   3
ATOM      3  N   UNL A   1      33.010  29.538  24.401  1.00  0.00    -0.351 N 
ATOM      4  C   UNL A   1      33.722  28.552  23.789  1.00  0.00     0.261 C 
ATOM      5  O   UNL A   1      34.578  28.901  22.973  1.00  0.00    -0.268 OA
ATOM      6  H   UNL A   1      33.290  30.446  24.143  1.00  0.00     0.163 HD
BRANCH   4   7
ATOM      7  C   UNL A   1      33.515  27.100  24.053  1.00  0.00     0.117 C 
ATOM      8  C   UNL A   1      33.872  26.388  25.151  1.00  0.00     0.033 C 
BRANCH   7   9
ATOM      9  C   UNL A   1      33.042  26.254  22.882  1.00  0.00     0.105 C 
ATOM     10  N   UNL A   1      32.650  25.552  21.910  1.00  0.00    -0.192 NA
ENDBRANCH   7   9
BRANCH   8  11
ATOM     11  C   UNL A   1      33.693  24.927  25.333  1.00  0.00    -0.017 A 
ATOM     12  C   UNL A   1      32.415  24.416  25.574  1.00  0.00     0.012 A 
ATOM     13  C   UNL A   1      34.758  24.025  25.231  1.00  0.00     0.098 A 
ATOM     14  C   UNL A   1      32.206  23.032  25.677  1.00  0.00     0.055 A 
ATOM     15  C   UNL A   1      34.522  22.638  25.242  1.00  0.00     0.312 A 
ATOM     16  C   UNL A   1      33.255  22.113  25.508  1.00  0.00     0.204 A 
BRANCH  15  17
ATOM     17  N   UNL A   1      35.645  21.822  24.828  1.00  0.00     0.066 N 
ATOM     18  O   UNL A   1      35.695  20.664  25.263  1.00  0.00    -0.258 OA
ATOM     19  O   UNL A   1      36.439  22.326  24.021  1.00  0.00    -0.258 OA
ENDBRANCH  15  17
BRANCH  16  20
ATOM     20  O   UNL A   1      32.839  20.804  25.625  1.00  0.00    -0.449 OA
BRANCH  20  21
ATOM     21  C   UNL A   1      32.604  20.039  24.511  1.00  0.00     0.146 A 
ATOM     22  C   UNL A   1      32.315  20.747  23.339  1.00  0.00     0.049 A 
ATOM     23  C   UNL A   1      32.595  18.639  24.500  1.00  0.00     0.083 A 
ATOM     24  C   UNL A   1      32.125  20.064  22.138  1.00  0.00     0.004 A 
ATOM     25  C   UNL A   1      32.424  17.961  23.291  1.00  0.00     0.024 A 
ATOM     26  Cl  UNL A   1      32.809  17.708  25.938  1.00  0.00    -0.080 Cl
ATOM     27  C   UNL A   1      32.202  18.673  22.109  1.00  0.00     0.002 A 
ENDBRANCH  20  21
ENDBRANCH  16  20
ENDBRANCH   8  11
ENDBRANCH   4   7
ENDBRANCH   2   3
ENDBRANCH   1   2
BRANCH   1  28
ATOM     28  C   UNL A   1      32.124  31.265  27.236  1.00  0.00     0.023 C 
BRANCH  28  29
ATOM     29  C   UNL A   1      33.250  32.292  27.239  1.00  0.00     0.116 C 
BRANCH  29  30
ATOM     30  N   UNL A   1      32.814  33.628  27.612  1.00  0.00    -0.352 N 
ATOM     31  C   UNL A   1      33.287  34.412  28.640  1.00  0.00     0.251 C 
ATOM     32  H   UNL A   1      32.096  34.019  27.063  1.00  0.00     0.163 HD
ATOM     33  O   UNL A   1      32.743  35.474  28.904  1.00  0.00    -0.269 OA
BRANCH  31  34
ATOM     34  C   UNL A   1      34.422  33.915  29.446  1.00  0.00     0.039 A 
ATOM     35  C   UNL A   1      34.170  33.026  30.493  1.00  0.00     0.014 A 
ATOM     36  C   UNL A   1      35.732  34.283  29.129  1.00  0.00     0.014 A 
ATOM     37  C   UNL A   1      35.241  32.460  31.187  1.00  0.00     0.010 A 
ATOM     38  C   UNL A   1      36.796  33.660  29.769  1.00  0.00     0.010 A 
ATOM     39  C   UNL A   1      36.563  32.749  30.810  1.00  0.00    -0.014 A 
BRANCH  39  40
ATOM     40  C   UNL A   1      37.718  32.139  31.516  1.00  0.00     0.031 A 
ATOM     41  C   UNL A   1      38.490  31.028  30.858  1.00  0.00     0.074 A 
ATOM     42  C   UNL A   1      38.026  32.534  32.766  1.00  0.00     0.049 A 
ATOM     43  N   UNL A   1      39.478  30.313  31.327  1.00  0.00    -0.248 NA
ATOM     44  C   UNL A   1      38.060  30.648  29.505  1.00  0.00     0.031 C 
ATOM     45  C   UNL A   1      37.321  33.568  33.526  1.00  0.00     0.029 A 
ATOM     46  N   UNL A   1      39.010  32.108  33.622  1.00  0.00    -0.354 N 
ATOM     47  C   UNL A   1      39.774  29.381  30.336  1.00  0.00     0.074 A 
ATOM     48  C   UNL A   1      38.808  29.581  29.276  1.00  0.00     0.031 C 
ATOM     49  C   UNL A   1      37.915  33.719  34.721  1.00  0.00     0.029 A 
ATOM     50  C   UNL A   1      39.017  32.767  34.829  1.00  0.00     0.049 A 
ATOM     51  H   UNL A   1      39.650  31.396  33.394  1.00  0.00     0.167 HD
ATOM     52  C   UNL A   1      40.773  28.464  30.302  1.00  0.00     0.034 A 
ATOM     53  C   UNL A   1      39.821  32.619  35.899  1.00  0.00     0.034 A 
ATOM     54  C   UNL A   1      41.737  28.297  31.362  1.00  0.00     0.049 A 
ATOM     55  C   UNL A   1      40.926  31.595  35.843  1.00  0.00     0.074 A 
ATOM     56  C   UNL A   1      42.828  27.447  31.413  1.00  0.00     0.029 A 
ATOM     57  N   UNL A   1      41.722  28.993  32.565  1.00  0.00    -0.354 N 
ATOM     58  N   UNL A   1      41.230  30.759  34.878  1.00  0.00    -0.248 NA
ATOM     59  C   UNL A   1      41.804  31.508  37.016  1.00  0.00     0.031 C 
ATOM     60  C   UNL A   1      43.432  27.583  32.668  1.00  0.00     0.029 A 
ATOM     61  C   UNL A   1      42.768  28.573  33.374  1.00  0.00     0.049 A 
ATOM     62  H   UNL A   1      41.064  29.684  32.809  1.00  0.00     0.167 HD
ATOM     63  C   UNL A   1      42.361  30.072  35.313  1.00  0.00     0.074 A 
ATOM     64  C   UNL A   1      42.684  30.598  36.625  1.00  0.00     0.031 C 
ATOM     65  C   UNL A   1      43.073  29.103  34.683  1.00  0.00     0.034 A 
BRANCH  52  66
ATOM     66  C   UNL A   1      40.839  27.562  29.090  1.00  0.00     0.023 A 
ATOM     67  C   UNL A   1      41.802  27.750  28.082  1.00  0.00     0.031 A 
ATOM     68  C   UNL A   1      39.886  26.548  28.902  1.00  0.00     0.131 A 
ATOM     69  C   UNL A   1      41.725  27.014  26.890  1.00  0.00     0.055 A 
ATOM     70  C   UNL A   1      39.874  25.749  27.755  1.00  0.00     0.041 A 
ATOM     71  F   UNL A   1      38.927  26.330  29.817  1.00  0.00    -0.206 F 
ATOM     72  C   UNL A   1      40.783  25.995  26.730  1.00  0.00     0.022 A 
BRANCH  69  73
ATOM     73  S   UNL A   1      42.744  27.540  25.484  1.00  0.00     0.124 S 
ATOM     74  O   UNL A   1      41.918  28.595  24.900  1.00  0.00    -0.237 OA
ATOM     75  O   UNL A   1      43.974  27.977  26.132  1.00  0.00    -0.237 OA
ATOM     76  O   UNL A   1      42.859  26.330  24.673  1.00  0.00    -0.744 OA
ENDBRANCH  69  73
ENDBRANCH  52  66
BRANCH  53  77
ATOM     77  C   UNL A   1      39.633  33.473  37.105  1.00  0.00     0.023 A 
ATOM     78  C   UNL A   1      40.427  34.612  37.309  1.00  0.00     0.031 A 
ATOM     79  C   UNL A   1      38.675  33.151  38.083  1.00  0.00     0.131 A 
ATOM     80  C   UNL A   1      40.278  35.369  38.482  1.00  0.00     0.055 A 
ATOM     81  C   UNL A   1      38.499  33.932  39.226  1.00  0.00     0.041 A 
ATOM     82  F   UNL A   1      37.883  32.078  37.929  1.00  0.00    -0.206 F 
ATOM     83  C   UNL A   1      39.312  35.042  39.437  1.00  0.00     0.022 A 
BRANCH  80  84
ATOM     84  S   UNL A   1      41.410  36.755  38.771  1.00  0.00     0.124 S 
ATOM     85  O   UNL A   1      41.996  36.941  37.448  1.00  0.00    -0.237 OA
ATOM     86  O   UNL A   1      40.498  37.802  39.222  1.00  0.00    -0.237 OA
ATOM     87  O   UNL A   1      42.321  36.244  39.792  1.00  0.00    -0.744 OA
ENDBRANCH  80  84
ENDBRANCH  53  77
BRANCH  65  88
ATOM     88  C   UNL A   1      44.309  28.596  35.386  1.00  0.00     0.023 A 
ATOM     89  C   UNL A   1      44.247  27.598  36.374  1.00  0.00     0.031 A 
ATOM     90  C   UNL A   1      45.568  29.136  35.069  1.00  0.00     0.131 A 
ATOM     91  C   UNL A   1      45.415  27.212  37.050  1.00  0.00     0.055 A 
ATOM     92  C   UNL A   1      46.734  28.705  35.702  1.00  0.00     0.041 A 
ATOM     93  F   UNL A   1      45.685  30.094  34.135  1.00  0.00    -0.206 F 
ATOM     94  C   UNL A   1      46.660  27.747  36.709  1.00  0.00     0.022 A 
BRANCH  91  95
ATOM     95  S   UNL A   1      45.272  26.069  38.451  1.00  0.00     0.124 S 
ATOM     96  O   UNL A   1      45.200  24.774  37.781  1.00  0.00    -0.237 OA
ATOM     97  O   UNL A   1      46.498  26.334  39.196  1.00  0.00    -0.237 OA
ATOM     98  O   UNL A   1      44.039  26.493  39.115  1.00  0.00    -0.744 OA
ENDBRANCH  91  95
ENDBRANCH  65  88
ENDBRANCH  39  40
ENDBRANCH  31  34
ENDBRANCH  29  30
ENDBRANCH  28  29
ENDBRANCH   1  28
TORSDOF 19
ENDMDL
