MODEL 1
REMARK VINA RESULT:     -12.2      0.000      0.000
REMARK SMILES O=C(Cc1ccc(NC(=O)Nc2ccc(Br)cc2)cc1)NCCCCNC(=O)c1ccc(-c2c3nc(c(-c4cc(S(=O)(=O)[O-])ccc4F)c4ccc([nH]4)c(-c4cc(S(=O)(=O)[O-])ccc4F)c4nc(c(-c5cc(S(=O)(=O)[O-])ccc5F)c5ccc2[nH]5)C=C4)C=C3)cc1
REMARK SMILES IDX 23 1 22 2 21 3 1 4 2 5 3 7 4 8 5 9 20 10 6 11 19 12 7 13
REMARK SMILES IDX 8 14 9 15 10 17 11 18 12 20 13 21 18 22 14 23 17 24 15 25
REMARK SMILES IDX 16 26 24 27 25 28 26 29 27 30 28 32 29 33 30 34 91 35 31 36
REMARK SMILES IDX 90 37 32 38 33 39 34 40 84 41 35 42 89 43 83 44 85 45 36 46
REMARK SMILES IDX 88 47 82 48 81 49 37 51 69 52 49 53 68 54 50 55 53 56 67 57
REMARK SMILES IDX 86 58 51 59 52 60 66 62 87 63 54 64 38 65 39 66 47 67 40 68
REMARK SMILES IDX 46 69 48 70 45 71 41 72 42 73 43 74 44 75 70 76 71 77 79 78
REMARK SMILES IDX 72 79 78 80 80 81 77 82 73 83 74 84 75 85 76 86 55 87 56 88
REMARK SMILES IDX 64 89 57 90 63 91 65 92 62 93 58 94 59 95 60 96 61 97
REMARK H PARENT 21 6 8 16 11 19 26 31 85 50 53 61
REMARK Flexibility Score: inf
ROOT
ATOM      1  C   UNL A   1      31.586  30.764  25.835  1.00  0.00     0.023 C 
ENDROOT
BRANCH   1   2
ATOM      2  C   UNL A   1      32.556  29.640  26.196  1.00  0.00     0.116 C 
BRANCH   2   3
ATOM      3  N   UNL A   1      32.121  28.308  25.808  1.00  0.00    -0.356 N 
ATOM      4  O   UNL A   1      31.335  27.741  27.900  1.00  0.00    -0.275 OA
ATOM      5  C   UNL A   1      31.414  27.508  26.695  1.00  0.00     0.224 C 
ATOM      6  H   UNL A   1      32.330  27.971  24.908  1.00  0.00     0.163 HD
BRANCH   5   7
ATOM      7  C   UNL A   1      30.656  26.353  26.053  1.00  0.00     0.135 C 
BRANCH   7   8
ATOM      8  C   UNL A   1      31.167  24.975  26.439  1.00  0.00    -0.039 A 
ATOM      9  C   UNL A   1      30.305  23.882  26.586  1.00  0.00     0.006 A 
ATOM     10  C   UNL A   1      32.547  24.742  26.542  1.00  0.00     0.006 A 
ATOM     11  C   UNL A   1      30.808  22.588  26.704  1.00  0.00     0.026 A 
ATOM     12  C   UNL A   1      33.050  23.437  26.651  1.00  0.00     0.026 A 
ATOM     13  C   UNL A   1      32.177  22.350  26.617  1.00  0.00     0.042 A 
BRANCH  13  14
ATOM     14  N   UNL A   1      32.705  21.057  26.435  1.00  0.00    -0.308 N 
ATOM     15  C   UNL A   1      32.594  20.207  25.368  1.00  0.00     0.323 C 
ATOM     16  H   UNL A   1      33.235  20.711  27.190  1.00  0.00     0.171 HD
ATOM     17  O   UNL A   1      32.700  18.994  25.556  1.00  0.00    -0.248 OA
ATOM     18  N   UNL A   1      32.355  20.681  24.109  1.00  0.00    -0.308 N 
ATOM     19  H   UNL A   1      31.863  20.071  23.513  1.00  0.00     0.171 HD
BRANCH  18  20
ATOM     20  C   UNL A   1      32.715  21.922  23.546  1.00  0.00     0.042 A 
ATOM     21  C   UNL A   1      31.696  22.764  23.094  1.00  0.00     0.027 A 
ATOM     22  C   UNL A   1      34.043  22.357  23.499  1.00  0.00     0.027 A 
ATOM     23  C   UNL A   1      31.994  24.082  22.737  1.00  0.00     0.018 A 
ATOM     24  C   UNL A   1      34.343  23.666  23.120  1.00  0.00     0.018 A 
ATOM     25  C   UNL A   1      33.313  24.533  22.776  1.00  0.00     0.018 A 
ATOM     26  Br  UNL A   1      33.710  26.342  22.406  1.00  0.00    -0.051 Br
ENDBRANCH  18  20
ENDBRANCH  13  14
ENDBRANCH   7   8
ENDBRANCH   5   7
ENDBRANCH   2   3
ENDBRANCH   1   2
BRANCH   1  27
ATOM     27  C   UNL A   1      31.425  31.877  26.870  1.00  0.00     0.023 C 
BRANCH  27  28
ATOM     28  C   UNL A   1      32.696  32.618  27.282  1.00  0.00     0.116 C 
BRANCH  28  29
ATOM     29  N   UNL A   1      32.473  33.998  27.671  1.00  0.00    -0.352 N 
ATOM     30  C   UNL A   1      33.121  34.767  28.612  1.00  0.00     0.251 C 
ATOM     31  H   UNL A   1      31.746  34.455  27.188  1.00  0.00     0.163 HD
ATOM     32  O   UNL A   1      32.688  35.894  28.857  1.00  0.00    -0.269 OA
BRANCH  30  33
ATOM     33  C   UNL A   1      34.297  34.255  29.364  1.00  0.00     0.039 A 
ATOM     34  C   UNL A   1      34.071  33.532  30.539  1.00  0.00     0.014 A 
ATOM     35  C   UNL A   1      35.612  34.495  28.953  1.00  0.00     0.014 A 
ATOM     36  C   UNL A   1      35.147  32.995  31.257  1.00  0.00     0.010 A 
ATOM     37  C   UNL A   1      36.683  33.900  29.631  1.00  0.00     0.010 A 
ATOM     38  C   UNL A   1      36.463  33.136  30.790  1.00  0.00    -0.014 A 
BRANCH  38  39
ATOM     39  C   UNL A   1      37.601  32.483  31.504  1.00  0.00     0.031 A 
ATOM     40  C   UNL A   1      38.345  31.330  30.880  1.00  0.00     0.074 A 
ATOM     41  C   UNL A   1      37.953  32.910  32.735  1.00  0.00     0.049 A 
ATOM     42  N   UNL A   1      39.332  30.620  31.367  1.00  0.00    -0.248 NA
ATOM     43  C   UNL A   1      37.908  30.911  29.541  1.00  0.00     0.031 C 
ATOM     44  C   UNL A   1      37.300  33.998  33.467  1.00  0.00     0.029 A 
ATOM     45  N   UNL A   1      38.940  32.483  33.591  1.00  0.00    -0.354 N 
ATOM     46  C   UNL A   1      39.635  29.670  30.397  1.00  0.00     0.074 A 
ATOM     47  C   UNL A   1      38.679  29.856  29.323  1.00  0.00     0.031 C 
ATOM     48  C   UNL A   1      37.921  34.169  34.645  1.00  0.00     0.029 A 
ATOM     49  C   UNL A   1      38.979  33.175  34.782  1.00  0.00     0.049 A 
ATOM     50  H   UNL A   1      39.561  31.752  33.374  1.00  0.00     0.167 HD
ATOM     51  C   UNL A   1      40.629  28.744  30.389  1.00  0.00     0.034 A 
ATOM     52  C   UNL A   1      39.764  33.019  35.870  1.00  0.00     0.034 A 
ATOM     53  C   UNL A   1      41.574  28.564  31.466  1.00  0.00     0.049 A 
ATOM     54  C   UNL A   1      40.826  31.947  35.862  1.00  0.00     0.074 A 
ATOM     55  C   UNL A   1      42.638  27.681  31.538  1.00  0.00     0.029 A 
ATOM     56  N   UNL A   1      41.566  29.266  32.665  1.00  0.00    -0.354 N 
ATOM     57  N   UNL A   1      41.123  31.084  34.915  1.00  0.00    -0.248 NA
ATOM     58  C   UNL A   1      41.664  31.834  37.062  1.00  0.00     0.031 C 
ATOM     59  C   UNL A   1      43.220  27.792  32.805  1.00  0.00     0.029 A 
ATOM     60  C   UNL A   1      42.581  28.809  33.494  1.00  0.00     0.049 A 
ATOM     61  H   UNL A   1      40.931  29.983  32.893  1.00  0.00     0.167 HD
ATOM     62  C   UNL A   1      42.203  30.350  35.399  1.00  0.00     0.074 A 
ATOM     63  C   UNL A   1      42.515  30.882  36.709  1.00  0.00     0.031 C 
ATOM     64  C   UNL A   1      42.881  29.333  34.807  1.00  0.00     0.034 A 
BRANCH  51  65
ATOM     65  C   UNL A   1      40.722  27.835  29.184  1.00  0.00     0.023 A 
ATOM     66  C   UNL A   1      41.647  28.070  28.151  1.00  0.00     0.031 A 
ATOM     67  C   UNL A   1      39.864  26.728  29.054  1.00  0.00     0.131 A 
ATOM     68  C   UNL A   1      41.638  27.265  27.002  1.00  0.00     0.055 A 
ATOM     69  C   UNL A   1      39.921  25.875  27.949  1.00  0.00     0.041 A 
ATOM     70  F   UNL A   1      38.946  26.460  29.995  1.00  0.00    -0.206 F 
ATOM     71  C   UNL A   1      40.800  26.152  26.905  1.00  0.00     0.022 A 
BRANCH  68  72
ATOM     72  S   UNL A   1      42.621  27.790  25.571  1.00  0.00     0.124 S 
ATOM     73  O   UNL A   1      43.918  28.058  26.188  1.00  0.00    -0.237 OA
ATOM     74  O   UNL A   1      42.556  26.624  24.699  1.00  0.00    -0.237 OA
ATOM     75  O   UNL A   1      41.915  28.975  25.087  1.00  0.00    -0.744 OA
ENDBRANCH  68  72
ENDBRANCH  51  65
BRANCH  52  76
ATOM     76  C   UNL A   1      39.563  33.879  37.073  1.00  0.00     0.023 A 
ATOM     77  C   UNL A   1      38.912  33.393  38.218  1.00  0.00     0.031 A 
ATOM     78  C   UNL A   1      39.978  35.223  37.075  1.00  0.00     0.131 A 
ATOM     79  C   UNL A   1      38.653  34.254  39.296  1.00  0.00     0.055 A 
ATOM     80  C   UNL A   1      39.774  36.059  38.174  1.00  0.00     0.041 A 
ATOM     81  F   UNL A   1      40.605  35.743  36.007  1.00  0.00    -0.206 F 
ATOM     82  C   UNL A   1      39.094  35.579  39.289  1.00  0.00     0.022 A 
BRANCH  79  83
ATOM     83  S   UNL A   1      37.643  33.644  40.675  1.00  0.00     0.124 S 
ATOM     84  O   UNL A   1      36.515  33.045  39.972  1.00  0.00    -0.237 OA
ATOM     85  O   UNL A   1      38.558  32.716  41.332  1.00  0.00    -0.237 OA
ATOM     86  O   UNL A   1      37.336  34.856  41.432  1.00  0.00    -0.744 OA
ENDBRANCH  79  83
ENDBRANCH  52  76
BRANCH  64  87
ATOM     87  C   UNL A   1      44.060  28.757  35.557  1.00  0.00     0.023 A 
ATOM     88  C   UNL A   1      43.943  27.614  36.368  1.00  0.00     0.031 A 
ATOM     89  C   UNL A   1      45.323  29.372  35.467  1.00  0.00     0.131 A 
ATOM     90  C   UNL A   1      45.050  27.157  37.100  1.00  0.00     0.055 A 
ATOM     91  C   UNL A   1      46.438  28.873  36.143  1.00  0.00     0.041 A 
ATOM     92  F   UNL A   1      45.496  30.470  34.712  1.00  0.00    -0.206 F 
ATOM     93  C   UNL A   1      46.301  27.767  36.976  1.00  0.00     0.022 A 
BRANCH  90  94
ATOM     94  S   UNL A   1      44.811  25.814  38.296  1.00  0.00     0.124 S 
ATOM     95  O   UNL A   1      44.599  26.549  39.538  1.00  0.00    -0.237 OA
ATOM     96  O   UNL A   1      43.646  25.119  37.758  1.00  0.00    -0.237 OA
ATOM     97  O   UNL A   1      46.065  25.064  38.225  1.00  0.00    -0.744 OA
ENDBRANCH  90  94
ENDBRANCH  64  87
ENDBRANCH  38  39
ENDBRANCH  30  33
ENDBRANCH  28  29
ENDBRANCH  27  28
ENDBRANCH   1  27
TORSDOF 17
ENDMDL
MODEL 2
REMARK VINA RESULT:     -11.8      6.001     10.154
REMARK SMILES O=C(Cc1ccc(NC(=O)Nc2ccc(Br)cc2)cc1)NCCCCNC(=O)c1ccc(-c2c3nc(c(-c4cc(S(=O)(=O)[O-])ccc4F)c4ccc([nH]4)c(-c4cc(S(=O)(=O)[O-])ccc4F)c4nc(c(-c5cc(S(=O)(=O)[O-])ccc5F)c5ccc2[nH]5)C=C4)C=C3)cc1
REMARK SMILES IDX 23 1 22 2 21 3 1 4 2 5 3 7 4 8 5 9 20 10 6 11 19 12 7 13
REMARK SMILES IDX 8 14 9 15 10 17 11 18 12 20 13 21 18 22 14 23 17 24 15 25
REMARK SMILES IDX 16 26 24 27 25 28 26 29 27 30 28 32 29 33 30 34 91 35 31 36
REMARK SMILES IDX 90 37 32 38 33 39 34 40 84 41 35 42 89 43 83 44 85 45 36 46
REMARK SMILES IDX 88 47 82 48 81 49 37 51 69 52 49 53 68 54 50 55 53 56 67 57
REMARK SMILES IDX 86 58 51 59 52 60 66 62 87 63 54 64 38 65 39 66 47 67 40 68
REMARK SMILES IDX 46 69 48 70 45 71 41 72 42 73 43 74 44 75 70 76 71 77 79 78
REMARK SMILES IDX 72 79 78 80 80 81 77 82 73 83 74 84 75 85 76 86 55 87 56 88
REMARK SMILES IDX 64 89 57 90 63 91 65 92 62 93 58 94 59 95 60 96 61 97
REMARK H PARENT 21 6 8 16 11 19 26 31 85 50 53 61
REMARK Flexibility Score: inf
ROOT
ATOM      1  C   UNL A   1      40.429  21.310  27.116  1.00  0.00     0.023 C 
ENDROOT
BRANCH   1   2
ATOM      2  C   UNL A   1      39.941  22.453  26.227  1.00  0.00     0.116 C 
BRANCH   2   3
ATOM      3  N   UNL A   1      38.704  22.188  25.511  1.00  0.00    -0.356 N 
ATOM      4  O   UNL A   1      37.627  24.079  26.271  1.00  0.00    -0.275 OA
ATOM      5  C   UNL A   1      37.678  23.121  25.501  1.00  0.00     0.224 C 
ATOM      6  H   UNL A   1      38.594  21.336  25.030  1.00  0.00     0.163 HD
BRANCH   5   7
ATOM      7  C   UNL A   1      36.648  22.930  24.395  1.00  0.00     0.135 C 
BRANCH   7   8
ATOM      8  C   UNL A   1      35.288  22.455  24.879  1.00  0.00    -0.039 A 
ATOM      9  C   UNL A   1      35.020  22.241  26.236  1.00  0.00     0.006 A 
ATOM     10  C   UNL A   1      34.223  22.334  23.972  1.00  0.00     0.006 A 
ATOM     11  C   UNL A   1      33.715  22.038  26.683  1.00  0.00     0.026 A 
ATOM     12  C   UNL A   1      32.910  22.141  24.426  1.00  0.00     0.026 A 
ATOM     13  C   UNL A   1      32.645  22.107  25.795  1.00  0.00     0.042 A 
BRANCH  13  14
ATOM     14  N   UNL A   1      31.310  22.204  26.233  1.00  0.00    -0.308 N 
ATOM     15  C   UNL A   1      30.686  23.207  26.925  1.00  0.00     0.323 C 
ATOM     16  H   UNL A   1      30.738  21.434  26.008  1.00  0.00     0.171 HD
ATOM     17  O   UNL A   1      29.701  22.935  27.613  1.00  0.00    -0.248 OA
ATOM     18  N   UNL A   1      31.145  24.492  26.874  1.00  0.00    -0.308 N 
ATOM     19  H   UNL A   1      30.971  25.036  27.675  1.00  0.00     0.171 HD
BRANCH  18  20
ATOM     20  C   UNL A   1      31.833  25.147  25.833  1.00  0.00     0.042 A 
ATOM     21  C   UNL A   1      31.150  25.391  24.639  1.00  0.00     0.027 A 
ATOM     22  C   UNL A   1      33.140  25.619  25.990  1.00  0.00     0.027 A 
ATOM     23  C   UNL A   1      31.719  26.225  23.672  1.00  0.00     0.018 A 
ATOM     24  C   UNL A   1      33.718  26.433  25.015  1.00  0.00     0.018 A 
ATOM     25  C   UNL A   1      32.990  26.762  23.878  1.00  0.00     0.018 A 
ATOM     26  Br  UNL A   1      33.720  27.981  22.633  1.00  0.00    -0.051 Br
ENDBRANCH  18  20
ENDBRANCH  13  14
ENDBRANCH   7   8
ENDBRANCH   5   7
ENDBRANCH   2   3
ENDBRANCH   1   2
BRANCH   1  27
ATOM     27  C   UNL A   1      40.757  19.996  26.407  1.00  0.00     0.023 C 
BRANCH  27  28
ATOM     28  C   UNL A   1      42.079  19.328  26.782  1.00  0.00     0.116 C 
BRANCH  28  29
ATOM     29  N   UNL A   1      42.988  19.151  25.664  1.00  0.00    -0.352 N 
ATOM     30  C   UNL A   1      43.765  20.075  25.002  1.00  0.00     0.251 C 
ATOM     31  H   UNL A   1      43.059  18.228  25.327  1.00  0.00     0.163 HD
ATOM     32  O   UNL A   1      44.384  19.719  23.998  1.00  0.00    -0.269 OA
BRANCH  30  33
ATOM     33  C   UNL A   1      43.839  21.493  25.444  1.00  0.00     0.039 A 
ATOM     34  C   UNL A   1      44.266  21.762  26.748  1.00  0.00     0.014 A 
ATOM     35  C   UNL A   1      43.470  22.557  24.614  1.00  0.00     0.014 A 
ATOM     36  C   UNL A   1      44.390  23.083  27.194  1.00  0.00     0.010 A 
ATOM     37  C   UNL A   1      43.661  23.878  25.035  1.00  0.00     0.010 A 
ATOM     38  C   UNL A   1      44.130  24.159  26.329  1.00  0.00    -0.014 A 
BRANCH  38  39
ATOM     39  C   UNL A   1      44.353  25.567  26.774  1.00  0.00     0.031 A 
ATOM     40  C   UNL A   1      45.725  26.189  26.710  1.00  0.00     0.074 A 
ATOM     41  C   UNL A   1      43.323  26.287  27.266  1.00  0.00     0.049 A 
ATOM     42  N   UNL A   1      46.112  27.383  27.086  1.00  0.00    -0.248 NA
ATOM     43  C   UNL A   1      46.804  25.350  26.171  1.00  0.00     0.031 C 
ATOM     44  C   UNL A   1      41.949  25.799  27.409  1.00  0.00     0.029 A 
ATOM     45  N   UNL A   1      43.265  27.576  27.738  1.00  0.00    -0.354 N 
ATOM     46  C   UNL A   1      47.479  27.440  26.830  1.00  0.00     0.074 A 
ATOM     47  C   UNL A   1      47.861  26.134  26.330  1.00  0.00     0.031 C 
ATOM     48  C   UNL A   1      41.182  26.783  27.906  1.00  0.00     0.029 A 
ATOM     49  C   UNL A   1      42.012  27.954  28.169  1.00  0.00     0.049 A 
ATOM     50  H   UNL A   1      44.046  28.174  27.767  1.00  0.00     0.167 HD
ATOM     51  C   UNL A   1      48.332  28.486  26.975  1.00  0.00     0.034 A 
ATOM     52  C   UNL A   1      41.579  29.104  28.728  1.00  0.00     0.034 A 
ATOM     53  C   UNL A   1      47.943  29.783  27.479  1.00  0.00     0.049 A 
ATOM     54  C   UNL A   1      42.557  30.235  28.933  1.00  0.00     0.074 A 
ATOM     55  C   UNL A   1      48.722  30.918  27.629  1.00  0.00     0.029 A 
ATOM     56  N   UNL A   1      46.671  30.119  27.927  1.00  0.00    -0.354 N 
ATOM     57  N   UNL A   1      43.838  30.283  28.645  1.00  0.00    -0.248 NA
ATOM     58  C   UNL A   1      42.028  31.470  29.526  1.00  0.00     0.031 C 
ATOM     59  C   UNL A   1      47.947  31.909  28.239  1.00  0.00     0.029 A 
ATOM     60  C   UNL A   1      46.657  31.428  28.387  1.00  0.00     0.049 A 
ATOM     61  H   UNL A   1      45.893  29.515  27.920  1.00  0.00     0.167 HD
ATOM     62  C   UNL A   1      44.257  31.564  28.994  1.00  0.00     0.074 A 
ATOM     63  C   UNL A   1      43.091  32.260  29.497  1.00  0.00     0.031 C 
ATOM     64  C   UNL A   1      45.494  32.116  28.901  1.00  0.00     0.034 A 
BRANCH  51  65
ATOM     65  C   UNL A   1      49.782  28.257  26.610  1.00  0.00     0.023 A 
ATOM     66  C   UNL A   1      50.268  28.521  25.317  1.00  0.00     0.031 A 
ATOM     67  C   UNL A   1      50.688  27.752  27.559  1.00  0.00     0.131 A 
ATOM     68  C   UNL A   1      51.593  28.203  24.986  1.00  0.00     0.055 A 
ATOM     69  C   UNL A   1      52.031  27.522  27.248  1.00  0.00     0.041 A 
ATOM     70  F   UNL A   1      50.283  27.461  28.804  1.00  0.00    -0.206 F 
ATOM     71  C   UNL A   1      52.487  27.731  25.949  1.00  0.00     0.022 A 
BRANCH  68  72
ATOM     72  S   UNL A   1      52.086  28.262  23.241  1.00  0.00     0.124 S 
ATOM     73  O   UNL A   1      53.543  28.271  23.347  1.00  0.00    -0.237 OA
ATOM     74  O   UNL A   1      51.491  27.044  22.704  1.00  0.00    -0.237 OA
ATOM     75  O   UNL A   1      51.497  29.510  22.760  1.00  0.00    -0.744 OA
ENDBRANCH  68  72
ENDBRANCH  51  65
BRANCH  52  76
ATOM     76  C   UNL A   1      40.157  29.242  29.163  1.00  0.00     0.023 A 
ATOM     77  C   UNL A   1      39.797  29.163  30.518  1.00  0.00     0.031 A 
ATOM     78  C   UNL A   1      39.128  29.405  28.219  1.00  0.00     0.131 A 
ATOM     79  C   UNL A   1      38.443  29.199  30.887  1.00  0.00     0.055 A 
ATOM     80  C   UNL A   1      37.787  29.503  28.594  1.00  0.00     0.041 A 
ATOM     81  F   UNL A   1      39.413  29.485  26.909  1.00  0.00    -0.206 F 
ATOM     82  C   UNL A   1      37.437  29.386  29.936  1.00  0.00     0.022 A 
BRANCH  79  83
ATOM     83  S   UNL A   1      38.004  28.903  32.622  1.00  0.00     0.124 S 
ATOM     84  O   UNL A   1      38.103  27.451  32.708  1.00  0.00    -0.237 OA
ATOM     85  O   UNL A   1      39.033  29.660  33.328  1.00  0.00    -0.237 OA
ATOM     86  O   UNL A   1      36.651  29.444  32.727  1.00  0.00    -0.744 OA
ENDBRANCH  79  83
ENDBRANCH  52  76
BRANCH  64  87
ATOM     87  C   UNL A   1      45.639  33.564  29.310  1.00  0.00     0.023 A 
ATOM     88  C   UNL A   1      45.503  34.617  28.388  1.00  0.00     0.031 A 
ATOM     89  C   UNL A   1      45.930  33.895  30.646  1.00  0.00     0.131 A 
ATOM     90  C   UNL A   1      45.715  35.942  28.801  1.00  0.00     0.055 A 
ATOM     91  C   UNL A   1      46.072  35.218  31.066  1.00  0.00     0.041 A 
ATOM     92  F   UNL A   1      46.077  32.932  31.572  1.00  0.00    -0.206 F 
ATOM     93  C   UNL A   1      45.979  36.250  30.138  1.00  0.00     0.022 A 
BRANCH  90  94
ATOM     94  S   UNL A   1      45.742  37.253  27.546  1.00  0.00     0.124 S 
ATOM     95  O   UNL A   1      46.610  38.249  28.168  1.00  0.00    -0.237 OA
ATOM     96  O   UNL A   1      46.293  36.563  26.384  1.00  0.00    -0.237 OA
ATOM     97  O   UNL A   1      44.338  37.643  27.427  1.00  0.00    -0.744 OA
ENDBRANCH  90  94
ENDBRANCH  64  87
ENDBRANCH  38  39
ENDBRANCH  30  33
ENDBRANCH  28  29
ENDBRANCH  27  28
ENDBRANCH   1  27
TORSDOF 17
ENDMDL
MODEL 3
REMARK VINA RESULT:     -11.8      1.427      1.925
REMARK SMILES O=C(Cc1ccc(NC(=O)Nc2ccc(Br)cc2)cc1)NCCCCNC(=O)c1ccc(-c2c3nc(c(-c4cc(S(=O)(=O)[O-])ccc4F)c4ccc([nH]4)c(-c4cc(S(=O)(=O)[O-])ccc4F)c4nc(c(-c5cc(S(=O)(=O)[O-])ccc5F)c5ccc2[nH]5)C=C4)C=C3)cc1
REMARK SMILES IDX 23 1 22 2 21 3 1 4 2 5 3 7 4 8 5 9 20 10 6 11 19 12 7 13
REMARK SMILES IDX 8 14 9 15 10 17 11 18 12 20 13 21 18 22 14 23 17 24 15 25
REMARK SMILES IDX 16 26 24 27 25 28 26 29 27 30 28 32 29 33 30 34 91 35 31 36
REMARK SMILES IDX 90 37 32 38 33 39 34 40 84 41 35 42 89 43 83 44 85 45 36 46
REMARK SMILES IDX 88 47 82 48 81 49 37 51 69 52 49 53 68 54 50 55 53 56 67 57
REMARK SMILES IDX 86 58 51 59 52 60 66 62 87 63 54 64 38 65 39 66 47 67 40 68
REMARK SMILES IDX 46 69 48 70 45 71 41 72 42 73 43 74 44 75 70 76 71 77 79 78
REMARK SMILES IDX 72 79 78 80 80 81 77 82 73 83 74 84 75 85 76 86 55 87 56 88
REMARK SMILES IDX 64 89 57 90 63 91 65 92 62 93 58 94 59 95 60 96 61 97
REMARK H PARENT 21 6 8 16 11 19 26 31 85 50 53 61
REMARK Flexibility Score: inf
ROOT
ATOM      1  C   UNL A   1      31.779  30.187  25.820  1.00  0.00     0.023 C 
ENDROOT
BRANCH   1   2
ATOM      2  C   UNL A   1      31.173  30.421  24.438  1.00  0.00     0.116 C 
BRANCH   2   3
ATOM      3  N   UNL A   1      31.255  29.286  23.533  1.00  0.00    -0.356 N 
ATOM      4  O   UNL A   1      33.499  29.558  23.080  1.00  0.00    -0.275 OA
ATOM      5  C   UNL A   1      32.479  28.874  23.024  1.00  0.00     0.224 C 
ATOM      6  H   UNL A   1      30.435  28.806  23.279  1.00  0.00     0.163 HD
BRANCH   5   7
ATOM      7  C   UNL A   1      32.495  27.458  22.461  1.00  0.00     0.135 C 
BRANCH   7   8
ATOM      8  C   UNL A   1      32.151  26.377  23.472  1.00  0.00    -0.039 A 
ATOM      9  C   UNL A   1      32.922  26.166  24.620  1.00  0.00     0.006 A 
ATOM     10  C   UNL A   1      30.967  25.636  23.330  1.00  0.00     0.006 A 
ATOM     11  C   UNL A   1      32.464  25.341  25.646  1.00  0.00     0.026 A 
ATOM     12  C   UNL A   1      30.504  24.815  24.369  1.00  0.00     0.026 A 
ATOM     13  C   UNL A   1      31.202  24.758  25.575  1.00  0.00     0.042 A 
BRANCH  13  14
ATOM     14  N   UNL A   1      30.582  24.169  26.695  1.00  0.00    -0.308 N 
ATOM     15  C   UNL A   1      30.222  22.867  26.912  1.00  0.00     0.323 C 
ATOM     16  H   UNL A   1      30.377  24.788  27.433  1.00  0.00     0.171 HD
ATOM     17  O   UNL A   1      29.303  22.624  27.696  1.00  0.00    -0.248 OA
ATOM     18  N   UNL A   1      30.852  21.842  26.266  1.00  0.00    -0.308 N 
ATOM     19  H   UNL A   1      30.304  21.039  26.110  1.00  0.00     0.171 HD
BRANCH  18  20
ATOM     20  C   UNL A   1      32.178  21.774  25.793  1.00  0.00     0.042 A 
ATOM     21  C   UNL A   1      32.385  21.702  24.414  1.00  0.00     0.027 A 
ATOM     22  C   UNL A   1      33.277  21.853  26.654  1.00  0.00     0.027 A 
ATOM     23  C   UNL A   1      33.675  21.856  23.898  1.00  0.00     0.018 A 
ATOM     24  C   UNL A   1      34.568  21.983  26.140  1.00  0.00     0.018 A 
ATOM     25  C   UNL A   1      34.756  22.021  24.763  1.00  0.00     0.018 A 
ATOM     26  Br  UNL A   1      36.485  22.344  24.075  1.00  0.00    -0.051 Br
ENDBRANCH  18  20
ENDBRANCH  13  14
ENDBRANCH   7   8
ENDBRANCH   5   7
ENDBRANCH   2   3
ENDBRANCH   1   2
BRANCH   1  27
ATOM     27  C   UNL A   1      31.637  31.332  26.824  1.00  0.00     0.023 C 
BRANCH  27  28
ATOM     28  C   UNL A   1      32.903  32.131  27.134  1.00  0.00     0.116 C 
BRANCH  28  29
ATOM     29  N   UNL A   1      32.652  33.511  27.501  1.00  0.00    -0.352 N 
ATOM     30  C   UNL A   1      33.272  34.303  28.442  1.00  0.00     0.251 C 
ATOM     31  H   UNL A   1      31.926  33.951  27.001  1.00  0.00     0.163 HD
ATOM     32  O   UNL A   1      32.817  35.425  28.666  1.00  0.00    -0.269 OA
BRANCH  30  33
ATOM     33  C   UNL A   1      34.444  33.819  29.220  1.00  0.00     0.039 A 
ATOM     34  C   UNL A   1      34.222  32.916  30.264  1.00  0.00     0.014 A 
ATOM     35  C   UNL A   1      35.747  34.256  28.961  1.00  0.00     0.014 A 
ATOM     36  C   UNL A   1      35.299  32.402  30.996  1.00  0.00     0.010 A 
ATOM     37  C   UNL A   1      36.829  33.689  29.646  1.00  0.00     0.010 A 
ATOM     38  C   UNL A   1      36.620  32.750  30.669  1.00  0.00    -0.014 A 
BRANCH  38  39
ATOM     39  C   UNL A   1      37.773  32.128  31.386  1.00  0.00     0.031 A 
ATOM     40  C   UNL A   1      38.569  31.017  30.752  1.00  0.00     0.074 A 
ATOM     41  C   UNL A   1      38.091  32.546  32.630  1.00  0.00     0.049 A 
ATOM     42  N   UNL A   1      39.577  30.337  31.240  1.00  0.00    -0.248 NA
ATOM     43  C   UNL A   1      38.166  30.606  29.401  1.00  0.00     0.031 C 
ATOM     44  C   UNL A   1      37.387  33.594  33.372  1.00  0.00     0.029 A 
ATOM     45  N   UNL A   1      39.084  32.143  33.491  1.00  0.00    -0.354 N 
ATOM     46  C   UNL A   1      39.929  29.417  30.258  1.00  0.00     0.074 A 
ATOM     47  C   UNL A   1      38.981  29.585  29.175  1.00  0.00     0.031 C 
ATOM     48  C   UNL A   1      37.985  33.768  34.562  1.00  0.00     0.029 A 
ATOM     49  C   UNL A   1      39.081  32.813  34.695  1.00  0.00     0.049 A 
ATOM     50  H   UNL A   1      39.736  31.440  33.270  1.00  0.00     0.167 HD
ATOM     51  C   UNL A   1      40.959  28.531  30.247  1.00  0.00     0.034 A 
ATOM     52  C   UNL A   1      39.856  32.668  35.790  1.00  0.00     0.034 A 
ATOM     53  C   UNL A   1      41.896  28.368  31.333  1.00  0.00     0.049 A 
ATOM     54  C   UNL A   1      40.959  31.639  35.778  1.00  0.00     0.074 A 
ATOM     55  C   UNL A   1      42.993  27.526  31.404  1.00  0.00     0.029 A 
ATOM     56  N   UNL A   1      41.845  29.047  32.544  1.00  0.00    -0.354 N 
ATOM     57  N   UNL A   1      41.302  30.806  34.821  1.00  0.00    -0.248 NA
ATOM     58  C   UNL A   1      41.786  31.537  36.987  1.00  0.00     0.031 C 
ATOM     59  C   UNL A   1      43.554  27.637  32.681  1.00  0.00     0.029 A 
ATOM     60  C   UNL A   1      42.867  28.615  33.379  1.00  0.00     0.049 A 
ATOM     61  H   UNL A   1      41.180  29.735  32.777  1.00  0.00     0.167 HD
ATOM     62  C   UNL A   1      42.404  30.106  35.305  1.00  0.00     0.074 A 
ATOM     63  C   UNL A   1      42.678  30.625  36.629  1.00  0.00     0.031 C 
ATOM     64  C   UNL A   1      43.129  29.126  34.705  1.00  0.00     0.034 A 
BRANCH  51  65
ATOM     65  C   UNL A   1      41.103  27.648  29.027  1.00  0.00     0.023 A 
ATOM     66  C   UNL A   1      42.106  27.873  28.067  1.00  0.00     0.031 A 
ATOM     67  C   UNL A   1      40.218  26.577  28.810  1.00  0.00     0.131 A 
ATOM     68  C   UNL A   1      42.147  27.097  26.900  1.00  0.00     0.055 A 
ATOM     69  C   UNL A   1      40.321  25.750  27.689  1.00  0.00     0.041 A 
ATOM     70  F   UNL A   1      39.227  26.321  29.678  1.00  0.00    -0.206 F 
ATOM     71  C   UNL A   1      41.280  26.019  26.715  1.00  0.00     0.022 A 
BRANCH  68  72
ATOM     72  S   UNL A   1      43.246  27.620  25.554  1.00  0.00     0.124 S 
ATOM     73  O   UNL A   1      43.882  26.357  25.186  1.00  0.00    -0.237 OA
ATOM     74  O   UNL A   1      42.311  28.172  24.581  1.00  0.00    -0.237 OA
ATOM     75  O   UNL A   1      44.132  28.592  26.192  1.00  0.00    -0.744 OA
ENDBRANCH  68  72
ENDBRANCH  51  65
BRANCH  52  76
ATOM     76  C   UNL A   1      39.607  33.498  37.006  1.00  0.00     0.023 A 
ATOM     77  C   UNL A   1      38.899  32.987  38.106  1.00  0.00     0.031 A 
ATOM     78  C   UNL A   1      40.032  34.838  37.063  1.00  0.00     0.131 A 
ATOM     79  C   UNL A   1      38.597  33.822  39.193  1.00  0.00     0.055 A 
ATOM     80  C   UNL A   1      39.783  35.646  38.173  1.00  0.00     0.041 A 
ATOM     81  F   UNL A   1      40.711  35.380  36.040  1.00  0.00    -0.206 F 
ATOM     82  C   UNL A   1      39.049  35.143  39.243  1.00  0.00     0.022 A 
BRANCH  79  83
ATOM     83  S   UNL A   1      37.519  33.185  40.507  1.00  0.00     0.124 S 
ATOM     84  O   UNL A   1      36.311  32.851  39.762  1.00  0.00    -0.237 OA
ATOM     85  O   UNL A   1      38.294  32.058  41.014  1.00  0.00    -0.237 OA
ATOM     86  O   UNL A   1      37.395  34.317  41.423  1.00  0.00    -0.744 OA
ENDBRANCH  79  83
ENDBRANCH  52  76
BRANCH  64  87
ATOM     87  C   UNL A   1      44.320  28.584  35.461  1.00  0.00     0.023 A 
ATOM     88  C   UNL A   1      44.193  27.561  36.418  1.00  0.00     0.031 A 
ATOM     89  C   UNL A   1      45.604  29.108  35.226  1.00  0.00     0.131 A 
ATOM     90  C   UNL A   1      45.318  27.137  37.144  1.00  0.00     0.055 A 
ATOM     91  C   UNL A   1      46.731  28.635  35.902  1.00  0.00     0.041 A 
ATOM     92  F   UNL A   1      45.788  30.090  34.328  1.00  0.00    -0.206 F 
ATOM     93  C   UNL A   1      46.588  27.654  36.878  1.00  0.00     0.022 A 
BRANCH  90  94
ATOM     94  S   UNL A   1      45.083  25.972  38.515  1.00  0.00     0.124 S 
ATOM     95  O   UNL A   1      46.458  25.692  38.914  1.00  0.00    -0.237 OA
ATOM     96  O   UNL A   1      44.291  26.755  39.459  1.00  0.00    -0.237 OA
ATOM     97  O   UNL A   1      44.376  24.852  37.896  1.00  0.00    -0.744 OA
ENDBRANCH  90  94
ENDBRANCH  64  87
ENDBRANCH  38  39
ENDBRANCH  30  33
ENDBRANCH  28  29
ENDBRANCH  27  28
ENDBRANCH   1  27
TORSDOF 17
ENDMDL
