MODEL 1
REMARK VINA RESULT:     -12.6      0.000      0.000
REMARK SMILES O=C(NCCCCNC(=O)[C@@H]1CN(C(=O)[C@H]2CC=CCC2)c2ccccc2O1)c1ccc(-c2c3nc(c(-c4cc(S(=O)(=O)[O-])ccc4F)c4ccc([nH]4)c(-c4cc(S(=O)(=O)[O-])ccc4F)c4nc(c(-c5cc(S(=O)(=O)[O-])ccc5F)c5ccc2[nH]5)C=C4)C=C3)cc1
REMARK SMILES IDX 5 1 4 2 3 3 1 4 2 5 29 7 30 8 91 9 31 10 90 11 32 12 33 13
REMARK SMILES IDX 34 14 84 15 35 16 89 17 83 18 85 19 36 20 88 21 82 22 81 23
REMARK SMILES IDX 37 25 69 26 49 27 68 28 50 29 53 30 67 31 86 32 51 33 52 34
REMARK SMILES IDX 66 36 87 37 54 38 38 39 39 40 47 41 40 42 46 43 48 44 45 45
REMARK SMILES IDX 41 46 42 47 43 48 44 49 70 50 71 51 79 52 72 53 78 54 80 55
REMARK SMILES IDX 77 56 73 57 74 58 75 59 76 60 55 61 56 62 64 63 57 64 63 65
REMARK SMILES IDX 65 66 62 67 58 68 59 69 60 70 61 71 6 72 7 73 8 74 9 75
REMARK SMILES IDX 10 77 11 78 12 79 28 80 13 81 27 82 22 83 26 84 23 85 25 86
REMARK SMILES IDX 24 87 14 88 15 89 16 90 17 91 21 92 18 93 20 94 19 95
REMARK H PARENT 3 6 85 24 53 35 8 76
REMARK Flexibility Score: inf
ROOT
ATOM      1  C   UNL A   1      32.692  28.337  24.452  1.00  0.00     0.023 C 
ENDROOT
BRANCH   1   2
ATOM      2  C   UNL A   1      33.533  29.167  25.387  1.00  0.00     0.116 C 
BRANCH   2   3
ATOM      3  N   UNL A   1      32.846  30.374  25.833  1.00  0.00    -0.352 N 
ATOM      4  O   UNL A   1      32.426  32.107  27.219  1.00  0.00    -0.269 OA
ATOM      5  C   UNL A   1      33.181  31.214  26.881  1.00  0.00     0.251 C 
ATOM      6  H   UNL A   1      32.040  30.623  25.323  1.00  0.00     0.163 HD
BRANCH   5   7
ATOM      7  C   UNL A   1      34.458  30.980  27.602  1.00  0.00     0.039 A 
ATOM      8  C   UNL A   1      34.718  29.729  28.158  1.00  0.00     0.014 A 
ATOM      9  C   UNL A   1      35.380  32.018  27.767  1.00  0.00     0.014 A 
ATOM     10  C   UNL A   1      35.758  29.573  29.050  1.00  0.00     0.010 A 
ATOM     11  C   UNL A   1      36.539  31.800  28.524  1.00  0.00     0.010 A 
ATOM     12  C   UNL A   1      36.726  30.577  29.185  1.00  0.00    -0.014 A 
BRANCH  12  13
ATOM     13  C   UNL A   1      37.964  30.226  29.921  1.00  0.00     0.031 A 
ATOM     14  C   UNL A   1      38.189  30.659  31.338  1.00  0.00     0.074 A 
ATOM     15  C   UNL A   1      38.845  29.418  29.292  1.00  0.00     0.049 A 
ATOM     16  N   UNL A   1      39.204  30.401  32.120  1.00  0.00    -0.248 NA
ATOM     17  C   UNL A   1      37.154  31.500  31.956  1.00  0.00     0.031 C 
ATOM     18  C   UNL A   1      38.706  28.951  27.905  1.00  0.00     0.029 A 
ATOM     19  N   UNL A   1      39.986  28.802  29.728  1.00  0.00    -0.354 N 
ATOM     20  C   UNL A   1      38.946  31.062  33.316  1.00  0.00     0.074 A 
ATOM     21  C   UNL A   1      37.687  31.757  33.143  1.00  0.00     0.031 C 
ATOM     22  C   UNL A   1      39.658  28.049  27.643  1.00  0.00     0.029 A 
ATOM     23  C   UNL A   1      40.550  27.968  28.789  1.00  0.00     0.049 A 
ATOM     24  H   UNL A   1      40.366  28.940  30.625  1.00  0.00     0.167 HD
ATOM     25  C   UNL A   1      39.696  31.078  34.446  1.00  0.00     0.034 A 
ATOM     26  C   UNL A   1      41.683  27.244  28.827  1.00  0.00     0.034 A 
ATOM     27  C   UNL A   1      40.952  30.371  34.577  1.00  0.00     0.049 A 
ATOM     28  C   UNL A   1      42.500  27.298  30.085  1.00  0.00     0.074 A 
ATOM     29  C   UNL A   1      41.815  30.332  35.659  1.00  0.00     0.029 A 
ATOM     30  N   UNL A   1      41.522  29.571  33.590  1.00  0.00    -0.354 N 
ATOM     31  N   UNL A   1      42.256  27.960  31.195  1.00  0.00    -0.248 NA
ATOM     32  C   UNL A   1      43.740  26.520  30.099  1.00  0.00     0.031 C 
ATOM     33  C   UNL A   1      42.928  29.560  35.306  1.00  0.00     0.029 A 
ATOM     34  C   UNL A   1      42.730  29.052  34.032  1.00  0.00     0.049 A 
ATOM     35  H   UNL A   1      41.125  29.400  32.705  1.00  0.00     0.167 HD
ATOM     36  C   UNL A   1      43.318  27.674  32.042  1.00  0.00     0.074 A 
ATOM     37  C   UNL A   1      44.173  26.744  31.330  1.00  0.00     0.031 C 
ATOM     38  C   UNL A   1      43.575  28.146  33.288  1.00  0.00     0.034 A 
BRANCH  25  39
ATOM     39  C   UNL A   1      39.205  31.922  35.598  1.00  0.00     0.023 A 
ATOM     40  C   UNL A   1      38.523  31.361  36.693  1.00  0.00     0.031 A 
ATOM     41  C   UNL A   1      39.402  33.316  35.594  1.00  0.00     0.131 A 
ATOM     42  C   UNL A   1      38.010  32.192  37.702  1.00  0.00     0.055 A 
ATOM     43  C   UNL A   1      38.955  34.128  36.638  1.00  0.00     0.041 A 
ATOM     44  F   UNL A   1      40.024  33.915  34.567  1.00  0.00    -0.206 F 
ATOM     45  C   UNL A   1      38.243  33.568  37.695  1.00  0.00     0.022 A 
BRANCH  42  46
ATOM     46  S   UNL A   1      36.923  31.463  38.957  1.00  0.00     0.124 S 
ATOM     47  O   UNL A   1      37.731  31.610  40.166  1.00  0.00    -0.237 OA
ATOM     48  O   UNL A   1      35.736  32.306  38.875  1.00  0.00    -0.237 OA
ATOM     49  O   UNL A   1      36.744  30.086  38.499  1.00  0.00    -0.744 OA
ENDBRANCH  42  46
ENDBRANCH  25  39
BRANCH  26  50
ATOM     50  C   UNL A   1      42.131  26.479  27.628  1.00  0.00     0.023 A 
ATOM     51  C   UNL A   1      41.862  25.109  27.489  1.00  0.00     0.031 A 
ATOM     52  C   UNL A   1      42.863  27.111  26.602  1.00  0.00     0.131 A 
ATOM     53  C   UNL A   1      42.355  24.409  26.376  1.00  0.00     0.055 A 
ATOM     54  C   UNL A   1      43.291  26.426  25.465  1.00  0.00     0.041 A 
ATOM     55  F   UNL A   1      43.151  28.421  26.679  1.00  0.00    -0.206 F 
ATOM     56  C   UNL A   1      43.051  25.061  25.356  1.00  0.00     0.022 A 
BRANCH  53  57
ATOM     57  S   UNL A   1      42.162  22.606  26.328  1.00  0.00     0.124 S 
ATOM     58  O   UNL A   1      43.003  22.187  27.443  1.00  0.00    -0.237 OA
ATOM     59  O   UNL A   1      40.723  22.453  26.516  1.00  0.00    -0.237 OA
ATOM     60  O   UNL A   1      42.658  22.247  25.002  1.00  0.00    -0.744 OA
ENDBRANCH  53  57
ENDBRANCH  26  50
BRANCH  38  61
ATOM     61  C   UNL A   1      44.830  27.630  33.944  1.00  0.00     0.023 A 
ATOM     62  C   UNL A   1      44.813  26.475  34.746  1.00  0.00     0.031 A 
ATOM     63  C   UNL A   1      46.040  28.334  33.817  1.00  0.00     0.131 A 
ATOM     64  C   UNL A   1      45.964  26.104  35.456  1.00  0.00     0.055 A 
ATOM     65  C   UNL A   1      47.199  27.918  34.470  1.00  0.00     0.041 A 
ATOM     66  F   UNL A   1      46.108  29.445  33.066  1.00  0.00    -0.206 F 
ATOM     67  C   UNL A   1      47.161  26.809  35.311  1.00  0.00     0.022 A 
BRANCH  64  68
ATOM     68  S   UNL A   1      45.835  24.765  36.673  1.00  0.00     0.124 S 
ATOM     69  O   UNL A   1      47.211  24.655  37.148  1.00  0.00    -0.237 OA
ATOM     70  O   UNL A   1      44.873  25.304  37.629  1.00  0.00    -0.237 OA
ATOM     71  O   UNL A   1      45.359  23.632  35.885  1.00  0.00    -0.744 OA
ENDBRANCH  64  68
ENDBRANCH  38  61
ENDBRANCH  12  13
ENDBRANCH   5   7
ENDBRANCH   2   3
ENDBRANCH   1   2
BRANCH   1  72
ATOM     72  C   UNL A   1      31.809  27.298  25.145  1.00  0.00     0.023 C 
BRANCH  72  73
ATOM     73  C   UNL A   1      31.576  25.954  24.429  1.00  0.00     0.116 C 
BRANCH  73  74
ATOM     74  N   UNL A   1      31.433  24.776  25.271  1.00  0.00    -0.353 N 
ATOM     75  C   UNL A   1      32.040  23.547  25.224  1.00  0.00     0.262 C 
ATOM     76  H   UNL A   1      30.786  24.881  26.007  1.00  0.00     0.163 HD
ATOM     77  O   UNL A   1      31.973  22.856  26.242  1.00  0.00    -0.271 OA
BRANCH  75  78
ATOM     78  C   UNL A   1      32.753  23.065  23.949  1.00  0.00     0.281 C 
ATOM     79  C   UNL A   1      32.524  21.569  23.742  1.00  0.00     0.181 C 
ATOM     80  O   UNL A   1      34.124  23.431  23.864  1.00  0.00    -0.477 OA
ATOM     81  N   UNL A   1      33.349  20.704  24.592  1.00  0.00    -0.304 N 
ATOM     82  C   UNL A   1      35.031  22.482  24.259  1.00  0.00     0.144 A 
ATOM     83  C   UNL A   1      34.719  21.163  24.641  1.00  0.00     0.086 A 
ATOM     84  C   UNL A   1      36.358  22.932  24.247  1.00  0.00     0.049 A 
ATOM     85  C   UNL A   1      35.789  20.328  25.000  1.00  0.00     0.030 A 
ATOM     86  C   UNL A   1      37.398  22.084  24.612  1.00  0.00     0.004 A 
ATOM     87  C   UNL A   1      37.112  20.781  24.990  1.00  0.00     0.002 A 
BRANCH  81  88
ATOM     88  C   UNL A   1      32.928  19.557  25.272  1.00  0.00     0.230 C 
ATOM     89  O   UNL A   1      32.848  19.511  26.509  1.00  0.00    -0.274 OA
BRANCH  88  90
ATOM     90  C   UNL A   1      32.518  18.246  24.572  1.00  0.00     0.083 C 
ATOM     91  C   UNL A   1      33.041  18.054  23.157  1.00  0.00     0.040 C 
ATOM     92  C   UNL A   1      32.525  16.977  25.435  1.00  0.00     0.018 C 
ATOM     93  C   UNL A   1      34.043  16.953  23.047  1.00  0.00    -0.030 C 
ATOM     94  C   UNL A   1      33.799  16.138  25.375  1.00  0.00     0.028 C 
ATOM     95  C   UNL A   1      34.417  16.115  24.019  1.00  0.00    -0.031 C 
ENDBRANCH  88  90
ENDBRANCH  81  88
ENDBRANCH  75  78
ENDBRANCH  73  74
ENDBRANCH  72  73
ENDBRANCH   1  72
TORSDOF 16
ENDMDL
MODEL 2
REMARK VINA RESULT:     -12.6      5.209     10.691
REMARK SMILES O=C(NCCCCNC(=O)[C@@H]1CN(C(=O)[C@H]2CC=CCC2)c2ccccc2O1)c1ccc(-c2c3nc(c(-c4cc(S(=O)(=O)[O-])ccc4F)c4ccc([nH]4)c(-c4cc(S(=O)(=O)[O-])ccc4F)c4nc(c(-c5cc(S(=O)(=O)[O-])ccc5F)c5ccc2[nH]5)C=C4)C=C3)cc1
REMARK SMILES IDX 5 1 4 2 3 3 1 4 2 5 29 7 30 8 91 9 31 10 90 11 32 12 33 13
REMARK SMILES IDX 34 14 84 15 35 16 89 17 83 18 85 19 36 20 88 21 82 22 81 23
REMARK SMILES IDX 37 25 69 26 49 27 68 28 50 29 53 30 67 31 86 32 51 33 52 34
REMARK SMILES IDX 66 36 87 37 54 38 38 39 39 40 47 41 40 42 46 43 48 44 45 45
REMARK SMILES IDX 41 46 42 47 43 48 44 49 70 50 71 51 79 52 72 53 78 54 80 55
REMARK SMILES IDX 77 56 73 57 74 58 75 59 76 60 55 61 56 62 64 63 57 64 63 65
REMARK SMILES IDX 65 66 62 67 58 68 59 69 60 70 61 71 6 72 7 73 8 74 9 75
REMARK SMILES IDX 10 77 11 78 12 79 28 80 13 81 27 82 22 83 26 84 23 85 25 86
REMARK SMILES IDX 24 87 14 88 15 89 16 90 17 91 21 92 18 93 20 94 19 95
REMARK H PARENT 3 6 85 24 53 35 8 76
REMARK Flexibility Score: inf
ROOT
ATOM      1  C   UNL A   1      35.788  23.653  24.853  1.00  0.00     0.023 C 
ENDROOT
BRANCH   1   2
ATOM      2  C   UNL A   1      36.188  22.942  26.120  1.00  0.00     0.116 C 
BRANCH   2   3
ATOM      3  N   UNL A   1      37.049  21.792  25.866  1.00  0.00    -0.352 N 
ATOM      4  O   UNL A   1      39.016  20.723  25.574  1.00  0.00    -0.269 OA
ATOM      5  C   UNL A   1      38.428  21.718  25.956  1.00  0.00     0.251 C 
ATOM      6  H   UNL A   1      36.590  20.963  25.597  1.00  0.00     0.163 HD
BRANCH   5   7
ATOM      7  C   UNL A   1      39.172  22.886  26.491  1.00  0.00     0.039 A 
ATOM      8  C   UNL A   1      39.001  24.140  25.909  1.00  0.00     0.014 A 
ATOM      9  C   UNL A   1      40.078  22.728  27.545  1.00  0.00     0.014 A 
ATOM     10  C   UNL A   1      39.872  25.165  26.209  1.00  0.00     0.010 A 
ATOM     11  C   UNL A   1      40.833  23.825  27.978  1.00  0.00     0.010 A 
ATOM     12  C   UNL A   1      40.746  25.050  27.299  1.00  0.00    -0.014 A 
BRANCH  12  13
ATOM     13  C   UNL A   1      41.430  26.286  27.750  1.00  0.00     0.031 A 
ATOM     14  C   UNL A   1      42.829  26.612  27.324  1.00  0.00     0.074 A 
ATOM     15  C   UNL A   1      40.705  27.155  28.487  1.00  0.00     0.049 A 
ATOM     16  N   UNL A   1      43.544  27.669  27.610  1.00  0.00    -0.248 NA
ATOM     17  C   UNL A   1      43.524  25.626  26.485  1.00  0.00     0.031 C 
ATOM     18  C   UNL A   1      39.331  26.914  28.951  1.00  0.00     0.029 A 
ATOM     19  N   UNL A   1      40.978  28.420  28.929  1.00  0.00    -0.354 N 
ATOM     20  C   UNL A   1      44.781  27.471  27.006  1.00  0.00     0.074 A 
ATOM     21  C   UNL A   1      44.725  26.175  26.360  1.00  0.00     0.031 C 
ATOM     22  C   UNL A   1      38.852  28.027  29.517  1.00  0.00     0.029 A 
ATOM     23  C   UNL A   1      39.917  29.015  29.575  1.00  0.00     0.049 A 
ATOM     24  H   UNL A   1      41.847  28.864  28.797  1.00  0.00     0.167 HD
ATOM     25  C   UNL A   1      45.853  28.301  26.996  1.00  0.00     0.034 A 
ATOM     26  C   UNL A   1      39.820  30.211  30.185  1.00  0.00     0.034 A 
ATOM     27  C   UNL A   1      45.869  29.587  27.656  1.00  0.00     0.049 A 
ATOM     28  C   UNL A   1      41.031  31.097  30.172  1.00  0.00     0.074 A 
ATOM     29  C   UNL A   1      46.903  30.504  27.741  1.00  0.00     0.029 A 
ATOM     30  N   UNL A   1      44.794  30.143  28.345  1.00  0.00    -0.354 N 
ATOM     31  N   UNL A   1      42.206  30.875  29.625  1.00  0.00    -0.248 NA
ATOM     32  C   UNL A   1      40.912  32.385  30.858  1.00  0.00     0.031 C 
ATOM     33  C   UNL A   1      46.473  31.581  28.525  1.00  0.00     0.029 A 
ATOM     34  C   UNL A   1      45.146  31.378  28.869  1.00  0.00     0.049 A 
ATOM     35  H   UNL A   1      43.911  29.719  28.445  1.00  0.00     0.167 HD
ATOM     36  C   UNL A   1      42.967  32.002  29.902  1.00  0.00     0.074 A 
ATOM     37  C   UNL A   1      42.100  32.917  30.621  1.00  0.00     0.031 C 
ATOM     38  C   UNL A   1      44.267  32.257  29.606  1.00  0.00     0.034 A 
BRANCH  25  39
ATOM     39  C   UNL A   1      47.103  27.818  26.297  1.00  0.00     0.023 A 
ATOM     40  C   UNL A   1      47.316  28.033  24.923  1.00  0.00     0.031 A 
ATOM     41  C   UNL A   1      48.090  27.112  27.010  1.00  0.00     0.131 A 
ATOM     42  C   UNL A   1      48.451  27.495  24.296  1.00  0.00     0.055 A 
ATOM     43  C   UNL A   1      49.253  26.645  26.395  1.00  0.00     0.041 A 
ATOM     44  F   UNL A   1      47.934  26.854  28.318  1.00  0.00    -0.206 F 
ATOM     45  C   UNL A   1      49.434  26.824  25.027  1.00  0.00     0.022 A 
BRANCH  42  46
ATOM     46  S   UNL A   1      48.563  27.572  22.487  1.00  0.00     0.124 S 
ATOM     47  O   UNL A   1      48.593  26.155  22.134  1.00  0.00    -0.237 OA
ATOM     48  O   UNL A   1      47.349  28.295  22.127  1.00  0.00    -0.237 OA
ATOM     49  O   UNL A   1      49.812  28.293  22.252  1.00  0.00    -0.744 OA
ENDBRANCH  42  46
ENDBRANCH  25  39
BRANCH  26  50
ATOM     50  C   UNL A   1      38.570  30.593  30.902  1.00  0.00     0.023 A 
ATOM     51  C   UNL A   1      37.529  31.271  30.251  1.00  0.00     0.031 A 
ATOM     52  C   UNL A   1      38.406  30.300  32.271  1.00  0.00     0.131 A 
ATOM     53  C   UNL A   1      36.395  31.671  30.975  1.00  0.00     0.055 A 
ATOM     54  C   UNL A   1      37.248  30.638  32.970  1.00  0.00     0.041 A 
ATOM     55  F   UNL A   1      39.369  29.651  32.948  1.00  0.00    -0.206 F 
ATOM     56  C   UNL A   1      36.239  31.343  32.324  1.00  0.00     0.022 A 
BRANCH  53  57
ATOM     57  S   UNL A   1      35.163  32.719  30.153  1.00  0.00     0.124 S 
ATOM     58  O   UNL A   1      34.617  31.809  29.153  1.00  0.00    -0.237 OA
ATOM     59  O   UNL A   1      34.276  33.064  31.259  1.00  0.00    -0.237 OA
ATOM     60  O   UNL A   1      35.958  33.824  29.624  1.00  0.00    -0.744 OA
ENDBRANCH  53  57
ENDBRANCH  26  50
BRANCH  38  61
ATOM     61  C   UNL A   1      44.797  33.594  30.055  1.00  0.00     0.023 A 
ATOM     62  C   UNL A   1      44.720  34.726  29.224  1.00  0.00     0.031 A 
ATOM     63  C   UNL A   1      45.441  33.723  31.297  1.00  0.00     0.131 A 
ATOM     64  C   UNL A   1      45.349  35.918  29.612  1.00  0.00     0.055 A 
ATOM     65  C   UNL A   1      46.003  34.931  31.707  1.00  0.00     0.041 A 
ATOM     66  F   UNL A   1      45.545  32.671  32.125  1.00  0.00    -0.206 F 
ATOM     67  C   UNL A   1      45.977  36.032  30.856  1.00  0.00     0.022 A 
BRANCH  64  68
ATOM     68  S   UNL A   1      45.449  37.274  28.412  1.00  0.00     0.124 S 
ATOM     69  O   UNL A   1      46.459  36.780  27.481  1.00  0.00    -0.237 OA
ATOM     70  O   UNL A   1      44.085  37.336  27.898  1.00  0.00    -0.237 OA
ATOM     71  O   UNL A   1      45.859  38.418  29.222  1.00  0.00    -0.744 OA
ENDBRANCH  64  68
ENDBRANCH  38  61
ENDBRANCH  12  13
ENDBRANCH   5   7
ENDBRANCH   2   3
ENDBRANCH   1   2
BRANCH   1  72
ATOM     72  C   UNL A   1      34.803  22.880  23.975  1.00  0.00     0.023 C 
BRANCH  72  73
ATOM     73  C   UNL A   1      33.393  23.471  23.777  1.00  0.00     0.116 C 
BRANCH  73  74
ATOM     74  N   UNL A   1      33.277  24.609  22.879  1.00  0.00    -0.353 N 
ATOM     75  C   UNL A   1      32.610  25.801  23.007  1.00  0.00     0.262 C 
ATOM     76  H   UNL A   1      33.763  24.506  22.029  1.00  0.00     0.163 HD
ATOM     77  O   UNL A   1      32.942  26.707  22.240  1.00  0.00    -0.271 OA
BRANCH  75  78
ATOM     78  C   UNL A   1      31.494  25.977  24.051  1.00  0.00     0.281 C 
ATOM     79  C   UNL A   1      30.358  26.825  23.483  1.00  0.00     0.181 C 
ATOM     80  O   UNL A   1      31.941  26.432  25.322  1.00  0.00    -0.477 OA
ATOM     81  N   UNL A   1      30.630  28.266  23.455  1.00  0.00    -0.304 N 
ATOM     82  C   UNL A   1      31.834  27.778  25.556  1.00  0.00     0.144 A 
ATOM     83  C   UNL A   1      31.235  28.713  24.689  1.00  0.00     0.086 A 
ATOM     84  C   UNL A   1      32.380  28.181  26.783  1.00  0.00     0.049 A 
ATOM     85  C   UNL A   1      31.206  30.052  25.111  1.00  0.00     0.030 A 
ATOM     86  C   UNL A   1      32.340  29.516  27.172  1.00  0.00     0.004 A 
ATOM     87  C   UNL A   1      31.753  30.451  26.334  1.00  0.00     0.002 A 
BRANCH  81  88
ATOM     88  C   UNL A   1      30.341  29.149  22.410  1.00  0.00     0.230 C 
ATOM     89  O   UNL A   1      31.224  29.622  21.678  1.00  0.00    -0.274 OA
BRANCH  88  90
ATOM     90  C   UNL A   1      28.918  29.621  22.054  1.00  0.00     0.083 C 
ATOM     91  C   UNL A   1      27.880  29.501  23.159  1.00  0.00     0.040 C 
ATOM     92  C   UNL A   1      28.809  30.899  21.211  1.00  0.00     0.018 C 
ATOM     93  C   UNL A   1      27.411  30.823  23.669  1.00  0.00    -0.030 C 
ATOM     94  C   UNL A   1      28.610  32.196  21.990  1.00  0.00     0.028 C 
ATOM     95  C   UNL A   1      27.744  32.026  23.190  1.00  0.00    -0.031 C 
ENDBRANCH  88  90
ENDBRANCH  81  88
ENDBRANCH  75  78
ENDBRANCH  73  74
ENDBRANCH  72  73
ENDBRANCH   1  72
TORSDOF 16
ENDMDL
MODEL 3
REMARK VINA RESULT:     -12.5      5.155     10.737
REMARK SMILES O=C(NCCCCNC(=O)[C@@H]1CN(C(=O)[C@H]2CC=CCC2)c2ccccc2O1)c1ccc(-c2c3nc(c(-c4cc(S(=O)(=O)[O-])ccc4F)c4ccc([nH]4)c(-c4cc(S(=O)(=O)[O-])ccc4F)c4nc(c(-c5cc(S(=O)(=O)[O-])ccc5F)c5ccc2[nH]5)C=C4)C=C3)cc1
REMARK SMILES IDX 5 1 4 2 3 3 1 4 2 5 29 7 30 8 91 9 31 10 90 11 32 12 33 13
REMARK SMILES IDX 34 14 84 15 35 16 89 17 83 18 85 19 36 20 88 21 82 22 81 23
REMARK SMILES IDX 37 25 69 26 49 27 68 28 50 29 53 30 67 31 86 32 51 33 52 34
REMARK SMILES IDX 66 36 87 37 54 38 38 39 39 40 47 41 40 42 46 43 48 44 45 45
REMARK SMILES IDX 41 46 42 47 43 48 44 49 70 50 71 51 79 52 72 53 78 54 80 55
REMARK SMILES IDX 77 56 73 57 74 58 75 59 76 60 55 61 56 62 64 63 57 64 63 65
REMARK SMILES IDX 65 66 62 67 58 68 59 69 60 70 61 71 6 72 7 73 8 74 9 75
REMARK SMILES IDX 10 77 11 78 12 79 28 80 13 81 27 82 22 83 26 84 23 85 25 86
REMARK SMILES IDX 24 87 14 88 15 89 16 90 17 91 21 92 18 93 20 94 19 95
REMARK H PARENT 3 6 85 24 53 35 8 76
REMARK Flexibility Score: inf
ROOT
ATOM      1  C   UNL A   1      34.738  23.249  25.324  1.00  0.00     0.023 C 
ENDROOT
BRANCH   1   2
ATOM      2  C   UNL A   1      35.901  23.038  26.259  1.00  0.00     0.116 C 
BRANCH   2   3
ATOM      3  N   UNL A   1      36.697  21.868  25.903  1.00  0.00    -0.352 N 
ATOM      4  O   UNL A   1      38.590  20.747  25.397  1.00  0.00    -0.269 OA
ATOM      5  C   UNL A   1      38.075  21.753  25.849  1.00  0.00     0.251 C 
ATOM      6  H   UNL A   1      36.188  21.056  25.674  1.00  0.00     0.163 HD
BRANCH   5   7
ATOM      7  C   UNL A   1      38.905  22.892  26.317  1.00  0.00     0.039 A 
ATOM      8  C   UNL A   1      38.647  24.176  25.842  1.00  0.00     0.014 A 
ATOM      9  C   UNL A   1      39.972  22.678  27.195  1.00  0.00     0.014 A 
ATOM     10  C   UNL A   1      39.563  25.186  26.050  1.00  0.00     0.010 A 
ATOM     11  C   UNL A   1      40.795  23.752  27.558  1.00  0.00     0.010 A 
ATOM     12  C   UNL A   1      40.605  25.012  26.971  1.00  0.00    -0.014 A 
BRANCH  12  13
ATOM     13  C   UNL A   1      41.362  26.223  27.370  1.00  0.00     0.031 A 
ATOM     14  C   UNL A   1      42.731  26.510  26.832  1.00  0.00     0.074 A 
ATOM     15  C   UNL A   1      40.728  27.109  28.169  1.00  0.00     0.049 A 
ATOM     16  N   UNL A   1      43.499  27.542  27.063  1.00  0.00    -0.248 NA
ATOM     17  C   UNL A   1      43.323  25.509  25.933  1.00  0.00     0.031 C 
ATOM     18  C   UNL A   1      39.390  26.907  28.744  1.00  0.00     0.029 A 
ATOM     19  N   UNL A   1      41.075  28.362  28.593  1.00  0.00    -0.354 N 
ATOM     20  C   UNL A   1      44.675  27.310  26.357  1.00  0.00     0.074 A 
ATOM     21  C   UNL A   1      44.526  26.022  25.712  1.00  0.00     0.031 C 
ATOM     22  C   UNL A   1      38.994  28.029  29.353  1.00  0.00     0.029 A 
ATOM     23  C   UNL A   1      40.090  28.984  29.327  1.00  0.00     0.049 A 
ATOM     24  H   UNL A   1      41.943  28.780  28.392  1.00  0.00     0.167 HD
ATOM     25  C   UNL A   1      45.769  28.107  26.263  1.00  0.00     0.034 A 
ATOM     26  C   UNL A   1      40.081  30.177  29.949  1.00  0.00     0.034 A 
ATOM     27  C   UNL A   1      45.879  29.388  26.926  1.00  0.00     0.049 A 
ATOM     28  C   UNL A   1      41.314  31.026  29.840  1.00  0.00     0.074 A 
ATOM     29  C   UNL A   1      46.945  30.272  26.930  1.00  0.00     0.029 A 
ATOM     30  N   UNL A   1      44.882  29.970  27.704  1.00  0.00    -0.354 N 
ATOM     31  N   UNL A   1      42.432  30.773  29.196  1.00  0.00    -0.248 NA
ATOM     32  C   UNL A   1      41.292  32.312  30.540  1.00  0.00     0.031 C 
ATOM     33  C   UNL A   1      46.614  31.356  27.751  1.00  0.00     0.029 A 
ATOM     34  C   UNL A   1      45.315  31.190  28.203  1.00  0.00     0.049 A 
ATOM     35  H   UNL A   1      43.998  29.573  27.875  1.00  0.00     0.167 HD
ATOM     36  C   UNL A   1      43.248  31.874  29.416  1.00  0.00     0.074 A 
ATOM     37  C   UNL A   1      42.473  32.809  30.208  1.00  0.00     0.031 C 
ATOM     38  C   UNL A   1      44.527  32.090  29.014  1.00  0.00     0.034 A 
BRANCH  25  39
ATOM     39  C   UNL A   1      46.941  27.591  25.461  1.00  0.00     0.023 A 
ATOM     40  C   UNL A   1      47.156  27.979  24.126  1.00  0.00     0.031 A 
ATOM     41  C   UNL A   1      47.848  26.679  26.032  1.00  0.00     0.131 A 
ATOM     42  C   UNL A   1      48.208  27.412  23.391  1.00  0.00     0.055 A 
ATOM     43  C   UNL A   1      48.938  26.177  25.318  1.00  0.00     0.041 A 
ATOM     44  F   UNL A   1      47.684  26.252  27.294  1.00  0.00    -0.206 F 
ATOM     45  C   UNL A   1      49.116  26.533  23.984  1.00  0.00     0.022 A 
BRANCH  42  46
ATOM     46  S   UNL A   1      48.299  27.740  21.609  1.00  0.00     0.124 S 
ATOM     47  O   UNL A   1      46.943  28.207  21.327  1.00  0.00    -0.237 OA
ATOM     48  O   UNL A   1      49.352  28.745  21.526  1.00  0.00    -0.237 OA
ATOM     49  O   UNL A   1      48.633  26.437  21.037  1.00  0.00    -0.744 OA
ENDBRANCH  42  46
ENDBRANCH  25  39
BRANCH  26  50
ATOM     50  C   UNL A   1      38.907  30.593  30.768  1.00  0.00     0.023 A 
ATOM     51  C   UNL A   1      37.910  31.431  30.249  1.00  0.00     0.031 A 
ATOM     52  C   UNL A   1      38.776  30.168  32.106  1.00  0.00     0.131 A 
ATOM     53  C   UNL A   1      36.852  31.852  31.072  1.00  0.00     0.055 A 
ATOM     54  C   UNL A   1      37.688  30.533  32.898  1.00  0.00     0.041 A 
ATOM     55  F   UNL A   1      39.700  29.364  32.658  1.00  0.00    -0.206 F 
ATOM     56  C   UNL A   1      36.725  31.394  32.385  1.00  0.00     0.022 A 
BRANCH  53  57
ATOM     57  S   UNL A   1      35.694  33.093  30.432  1.00  0.00     0.124 S 
ATOM     58  O   UNL A   1      36.289  33.418  29.140  1.00  0.00    -0.237 OA
ATOM     59  O   UNL A   1      34.442  32.343  30.391  1.00  0.00    -0.237 OA
ATOM     60  O   UNL A   1      35.751  34.157  31.431  1.00  0.00    -0.744 OA
ENDBRANCH  53  57
ENDBRANCH  26  50
BRANCH  38  61
ATOM     61  C   UNL A   1      45.134  33.408  29.424  1.00  0.00     0.023 A 
ATOM     62  C   UNL A   1      45.002  34.554  28.621  1.00  0.00     0.031 A 
ATOM     63  C   UNL A   1      45.904  33.501  30.596  1.00  0.00     0.131 A 
ATOM     64  C   UNL A   1      45.697  35.724  28.958  1.00  0.00     0.055 A 
ATOM     65  C   UNL A   1      46.535  34.689  30.963  1.00  0.00     0.041 A 
ATOM     66  F   UNL A   1      46.065  32.434  31.395  1.00  0.00    -0.206 F 
ATOM     67  C   UNL A   1      46.450  35.804  30.133  1.00  0.00     0.022 A 
BRANCH  64  68
ATOM     68  S   UNL A   1      45.708  37.096  27.773  1.00  0.00     0.124 S 
ATOM     69  O   UNL A   1      46.973  36.883  27.076  1.00  0.00    -0.237 OA
ATOM     70  O   UNL A   1      44.501  36.844  26.992  1.00  0.00    -0.237 OA
ATOM     71  O   UNL A   1      45.660  38.283  28.623  1.00  0.00    -0.744 OA
ENDBRANCH  64  68
ENDBRANCH  38  61
ENDBRANCH  12  13
ENDBRANCH   5   7
ENDBRANCH   2   3
ENDBRANCH   1   2
BRANCH   1  72
ATOM     72  C   UNL A   1      33.371  22.920  25.927  1.00  0.00     0.023 C 
BRANCH  72  73
ATOM     73  C   UNL A   1      32.115  23.398  25.174  1.00  0.00     0.116 C 
BRANCH  73  74
ATOM     74  N   UNL A   1      31.246  24.333  25.872  1.00  0.00    -0.353 N 
ATOM     75  C   UNL A   1      30.308  25.220  25.408  1.00  0.00     0.262 C 
ATOM     76  H   UNL A   1      31.349  24.328  26.851  1.00  0.00     0.163 HD
ATOM     77  O   UNL A   1      29.497  25.651  26.230  1.00  0.00    -0.271 OA
BRANCH  75  78
ATOM     78  C   UNL A   1      30.292  25.657  23.933  1.00  0.00     0.281 C 
ATOM     79  C   UNL A   1      31.526  26.497  23.610  1.00  0.00     0.181 C 
ATOM     80  O   UNL A   1      29.080  26.269  23.511  1.00  0.00    -0.477 OA
ATOM     81  N   UNL A   1      31.455  27.886  24.075  1.00  0.00    -0.304 N 
ATOM     82  C   UNL A   1      29.063  27.640  23.509  1.00  0.00     0.144 A 
ATOM     83  C   UNL A   1      30.164  28.472  23.793  1.00  0.00     0.086 A 
ATOM     84  C   UNL A   1      27.815  28.187  23.181  1.00  0.00     0.049 A 
ATOM     85  C   UNL A   1      29.955  29.859  23.726  1.00  0.00     0.030 A 
ATOM     86  C   UNL A   1      27.636  29.565  23.126  1.00  0.00     0.004 A 
ATOM     87  C   UNL A   1      28.709  30.401  23.400  1.00  0.00     0.002 A 
BRANCH  81  88
ATOM     88  C   UNL A   1      32.477  28.611  24.695  1.00  0.00     0.230 C 
ATOM     89  O   UNL A   1      33.274  29.314  24.054  1.00  0.00    -0.274 OA
BRANCH  88  90
ATOM     90  C   UNL A   1      32.722  28.622  26.217  1.00  0.00     0.083 C 
ATOM     91  C   UNL A   1      34.113  28.208  26.671  1.00  0.00     0.040 C 
ATOM     92  C   UNL A   1      32.115  29.792  27.001  1.00  0.00     0.018 C 
ATOM     93  C   UNL A   1      34.894  29.331  27.267  1.00  0.00    -0.030 C 
ATOM     94  C   UNL A   1      33.042  30.979  27.250  1.00  0.00     0.028 C 
ATOM     95  C   UNL A   1      34.453  30.571  27.503  1.00  0.00    -0.031 C 
ENDBRANCH  88  90
ENDBRANCH  81  88
ENDBRANCH  75  78
ENDBRANCH  73  74
ENDBRANCH  72  73
ENDBRANCH   1  72
TORSDOF 16
ENDMDL
