MODEL 1
REMARK VINA RESULT:     -10.5      0.000      0.000
REMARK SMILES O=C(C[C@H]([NH2+]Cc1ccccc1C1CC1)c1cccs1)NCCCCNC(=O)c1ccc(-c2c3nc(c(-c4cc(S(=O)(=O)[O-])ccc4F)c4ccc([nH]4)c(-c4cc(S(=O)(=O)[O-])ccc4F)c4nc(c(-c5cc(S(=O)(=O)[O-])ccc5F)c5ccc2[nH]5)C=C4)C=C3)cc1
REMARK SMILES IDX 22 1 21 2 1 3 2 4 3 6 4 7 16 8 17 9 20 10 18 11 19 12 5 13
REMARK SMILES IDX 6 16 7 17 8 18 12 19 9 20 11 21 10 22 13 23 14 24 15 25
REMARK SMILES IDX 23 26 24 27 25 28 26 29 27 30 28 32 29 33 30 34 91 35 31 36
REMARK SMILES IDX 90 37 32 38 33 39 34 40 84 41 35 42 89 43 83 44 85 45 36 46
REMARK SMILES IDX 88 47 82 48 81 49 37 51 69 52 49 53 68 54 50 55 53 56 67 57
REMARK SMILES IDX 86 58 51 59 52 60 66 62 87 63 54 64 38 65 39 66 47 67 40 68
REMARK SMILES IDX 46 69 48 70 45 71 41 72 42 73 43 74 44 75 70 76 71 77 79 78
REMARK SMILES IDX 72 79 78 80 80 81 77 82 73 83 74 84 75 85 76 86 55 87 56 88
REMARK SMILES IDX 64 89 57 90 63 91 65 92 62 93 58 94 59 95 60 96 61 97
REMARK H PARENT 21 5 5 14 5 15 26 31 85 50 53 61
REMARK Flexibility Score: inf
ROOT
ATOM      1  C   UNL A   1      38.844  23.877  26.506  1.00  0.00     0.116 C 
ENDROOT
BRANCH   1   2
ATOM      2  N   UNL A   1      38.176  23.545  25.268  1.00  0.00    -0.356 N 
ATOM      3  O   UNL A   1      36.056  23.303  26.142  1.00  0.00    -0.275 OA
ATOM      4  C   UNL A   1      36.811  23.381  25.179  1.00  0.00     0.226 C 
ATOM      5  H   UNL A   1      38.718  23.432  24.454  1.00  0.00     0.163 HD
BRANCH   4   6
ATOM      6  C   UNL A   1      36.317  23.249  23.754  1.00  0.00     0.171 C 
BRANCH   6   7
ATOM      7  C   UNL A   1      34.847  23.644  23.454  1.00  0.00     0.233 C 
BRANCH   7   8
ATOM      8  C   UNL A   1      33.840  22.509  23.544  1.00  0.00     0.062 A 
ATOM      9  C   UNL A   1      33.712  21.514  24.501  1.00  0.00     0.021 A 
ATOM     10  S   UNL A   1      32.591  22.364  22.361  1.00  0.00    -0.143 S 
ATOM     11  C   UNL A   1      32.711  20.556  24.171  1.00  0.00     0.012 A 
ATOM     12  C   UNL A   1      32.072  20.865  22.993  1.00  0.00     0.065 A 
ENDBRANCH   7   8
BRANCH   7  13
ATOM     13  N   UNL A   1      34.426  24.737  24.356  1.00  0.00    -0.335 N 
ATOM     14  H   UNL A   1      35.262  25.210  24.701  1.00  0.00     0.347 HD
ATOM     15  H   UNL A   1      33.881  24.311  25.106  1.00  0.00     0.347 HD
BRANCH  13  16
ATOM     16  C   UNL A   1      33.569  25.728  23.717  1.00  0.00     0.298 C 
BRANCH  16  17
ATOM     17  C   UNL A   1      32.956  26.661  24.744  1.00  0.00     0.010 A 
ATOM     18  C   UNL A   1      33.828  27.077  25.785  1.00  0.00     0.010 A 
ATOM     19  C   UNL A   1      31.621  27.143  24.713  1.00  0.00    -0.036 A 
ATOM     20  C   UNL A   1      33.401  27.904  26.818  1.00  0.00     0.001 A 
ATOM     21  C   UNL A   1      31.227  27.960  25.807  1.00  0.00     0.004 A 
ATOM     22  C   UNL A   1      32.088  28.335  26.840  1.00  0.00     0.000 A 
BRANCH  19  23
ATOM     23  C   UNL A   1      30.541  26.935  23.656  1.00  0.00     0.020 C 
ATOM     24  C   UNL A   1      29.107  26.547  23.857  1.00  0.00     0.009 C 
ATOM     25  C   UNL A   1      29.445  27.957  23.475  1.00  0.00     0.009 C 
ENDBRANCH  19  23
ENDBRANCH  16  17
ENDBRANCH  13  16
ENDBRANCH   7  13
ENDBRANCH   6   7
ENDBRANCH   4   6
ENDBRANCH   1   2
BRANCH   1  26
ATOM     26  C   UNL A   1      39.813  22.789  26.956  1.00  0.00     0.023 C 
BRANCH  26  27
ATOM     27  C   UNL A   1      39.806  21.507  26.117  1.00  0.00     0.023 C 
BRANCH  27  28
ATOM     28  C   UNL A   1      40.254  20.240  26.839  1.00  0.00     0.116 C 
BRANCH  28  29
ATOM     29  N   UNL A   1      41.266  19.501  26.104  1.00  0.00    -0.352 N 
ATOM     30  C   UNL A   1      42.487  19.915  25.628  1.00  0.00     0.251 C 
ATOM     31  H   UNL A   1      41.042  18.561  25.918  1.00  0.00     0.163 HD
ATOM     32  O   UNL A   1      43.121  19.176  24.874  1.00  0.00    -0.269 OA
BRANCH  30  33
ATOM     33  C   UNL A   1      43.026  21.245  25.989  1.00  0.00     0.039 A 
ATOM     34  C   UNL A   1      43.157  22.213  24.988  1.00  0.00     0.014 A 
ATOM     35  C   UNL A   1      43.416  21.543  27.297  1.00  0.00     0.014 A 
ATOM     36  C   UNL A   1      43.605  23.496  25.314  1.00  0.00     0.010 A 
ATOM     37  C   UNL A   1      43.792  22.844  27.633  1.00  0.00     0.010 A 
ATOM     38  C   UNL A   1      43.887  23.838  26.647  1.00  0.00    -0.014 A 
BRANCH  38  39
ATOM     39  C   UNL A   1      44.265  25.229  27.022  1.00  0.00     0.031 A 
ATOM     40  C   UNL A   1      43.241  26.169  27.602  1.00  0.00     0.074 A 
ATOM     41  C   UNL A   1      45.520  25.666  26.790  1.00  0.00     0.049 A 
ATOM     42  N   UNL A   1      43.365  27.430  27.928  1.00  0.00    -0.248 NA
ATOM     43  C   UNL A   1      41.893  25.623  27.817  1.00  0.00     0.031 C 
ATOM     44  C   UNL A   1      46.597  24.864  26.207  1.00  0.00     0.029 A 
ATOM     45  N   UNL A   1      46.104  26.889  27.009  1.00  0.00    -0.354 N 
ATOM     46  C   UNL A   1      42.111  27.833  28.377  1.00  0.00     0.074 A 
ATOM     47  C   UNL A   1      41.229  26.695  28.222  1.00  0.00     0.031 C 
ATOM     48  C   UNL A   1      47.715  25.605  26.145  1.00  0.00     0.029 A 
ATOM     49  C   UNL A   1      47.425  26.950  26.629  1.00  0.00     0.049 A 
ATOM     50  H   UNL A   1      45.623  27.652  27.403  1.00  0.00     0.167 HD
ATOM     51  C   UNL A   1      41.736  29.033  28.888  1.00  0.00     0.034 A 
ATOM     52  C   UNL A   1      48.303  27.975  26.653  1.00  0.00     0.034 A 
ATOM     53  C   UNL A   1      42.630  30.157  29.042  1.00  0.00     0.049 A 
ATOM     54  C   UNL A   1      47.848  29.313  27.181  1.00  0.00     0.074 A 
ATOM     55  C   UNL A   1      42.366  31.395  29.601  1.00  0.00     0.029 A 
ATOM     56  N   UNL A   1      43.955  30.187  28.625  1.00  0.00    -0.354 N 
ATOM     57  N   UNL A   1      46.672  29.660  27.650  1.00  0.00    -0.248 NA
ATOM     58  C   UNL A   1      48.843  30.393  27.192  1.00  0.00     0.031 C 
ATOM     59  C   UNL A   1      43.500  32.200  29.444  1.00  0.00     0.029 A 
ATOM     60  C   UNL A   1      44.505  31.437  28.876  1.00  0.00     0.049 A 
ATOM     61  H   UNL A   1      44.433  29.432  28.212  1.00  0.00     0.167 HD
ATOM     62  C   UNL A   1      46.799  30.991  28.044  1.00  0.00     0.074 A 
ATOM     63  C   UNL A   1      48.169  31.374  27.772  1.00  0.00     0.031 C 
ATOM     64  C   UNL A   1      45.870  31.817  28.590  1.00  0.00     0.034 A 
BRANCH  51  65
ATOM     65  C   UNL A   1      40.287  29.201  29.286  1.00  0.00     0.023 A 
ATOM     66  C   UNL A   1      39.873  29.142  30.628  1.00  0.00     0.031 A 
ATOM     67  C   UNL A   1      39.300  29.407  28.305  1.00  0.00     0.131 A 
ATOM     68  C   UNL A   1      38.508  29.208  30.946  1.00  0.00     0.055 A 
ATOM     69  C   UNL A   1      37.952  29.563  28.636  1.00  0.00     0.041 A 
ATOM     70  F   UNL A   1      39.627  29.451  27.004  1.00  0.00    -0.206 F 
ATOM     71  C   UNL A   1      37.547  29.447  29.961  1.00  0.00     0.022 A 
BRANCH  68  72
ATOM     72  S   UNL A   1      37.995  28.826  32.643  1.00  0.00     0.124 S 
ATOM     73  O   UNL A   1      36.640  29.370  32.670  1.00  0.00    -0.237 OA
ATOM     74  O   UNL A   1      38.102  27.372  32.685  1.00  0.00    -0.237 OA
ATOM     75  O   UNL A   1      38.965  29.547  33.465  1.00  0.00    -0.744 OA
ENDBRANCH  68  72
ENDBRANCH  51  65
BRANCH  52  76
ATOM     76  C   UNL A   1      49.697  27.791  26.152  1.00  0.00     0.023 A 
ATOM     77  C   UNL A   1      50.037  28.117  24.829  1.00  0.00     0.031 A 
ATOM     78  C   UNL A   1      50.697  27.237  26.971  1.00  0.00     0.131 A 
ATOM     79  C   UNL A   1      51.327  27.839  24.349  1.00  0.00     0.055 A 
ATOM     80  C   UNL A   1      51.996  27.021  26.507  1.00  0.00     0.041 A 
ATOM     81  F   UNL A   1      50.427  26.907  28.244  1.00  0.00    -0.206 F 
ATOM     82  C   UNL A   1      52.313  27.308  25.183  1.00  0.00     0.022 A 
BRANCH  79  83
ATOM     83  S   UNL A   1      51.670  28.089  22.585  1.00  0.00     0.124 S 
ATOM     84  O   UNL A   1      50.740  29.163  22.254  1.00  0.00    -0.237 OA
ATOM     85  O   UNL A   1      53.084  28.445  22.599  1.00  0.00    -0.237 OA
ATOM     86  O   UNL A   1      51.360  26.790  21.992  1.00  0.00    -0.744 OA
ENDBRANCH  79  83
ENDBRANCH  52  76
BRANCH  64  87
ATOM     87  C   UNL A   1      46.322  33.206  28.976  1.00  0.00     0.023 A 
ATOM     88  C   UNL A   1      46.196  34.300  28.101  1.00  0.00     0.031 A 
ATOM     89  C   UNL A   1      46.898  33.435  30.238  1.00  0.00     0.131 A 
ATOM     90  C   UNL A   1      46.694  35.558  28.477  1.00  0.00     0.055 A 
ATOM     91  C   UNL A   1      47.328  34.703  30.634  1.00  0.00     0.041 A 
ATOM     92  F   UNL A   1      47.048  32.428  31.114  1.00  0.00    -0.206 F 
ATOM     93  C   UNL A   1      47.240  35.771  29.746  1.00  0.00     0.022 A 
BRANCH  90  94
ATOM     94  S   UNL A   1      46.712  36.892  27.248  1.00  0.00     0.124 S 
ATOM     95  O   UNL A   1      45.300  37.251  27.170  1.00  0.00    -0.237 OA
ATOM     96  O   UNL A   1      47.587  37.879  27.871  1.00  0.00    -0.237 OA
ATOM     97  O   UNL A   1      47.256  36.249  26.053  1.00  0.00    -0.744 OA
ENDBRANCH  90  94
ENDBRANCH  64  87
ENDBRANCH  38  39
ENDBRANCH  30  33
ENDBRANCH  28  29
ENDBRANCH  27  28
ENDBRANCH  26  27
ENDBRANCH   1  26
TORSDOF 20
ENDMDL
MODEL 2
REMARK VINA RESULT:     -10.2      1.704      7.560
REMARK SMILES O=C(C[C@H]([NH2+]Cc1ccccc1C1CC1)c1cccs1)NCCCCNC(=O)c1ccc(-c2c3nc(c(-c4cc(S(=O)(=O)[O-])ccc4F)c4ccc([nH]4)c(-c4cc(S(=O)(=O)[O-])ccc4F)c4nc(c(-c5cc(S(=O)(=O)[O-])ccc5F)c5ccc2[nH]5)C=C4)C=C3)cc1
REMARK SMILES IDX 22 1 21 2 1 3 2 4 3 6 4 7 16 8 17 9 20 10 18 11 19 12 5 13
REMARK SMILES IDX 6 16 7 17 8 18 12 19 9 20 11 21 10 22 13 23 14 24 15 25
REMARK SMILES IDX 23 26 24 27 25 28 26 29 27 30 28 32 29 33 30 34 91 35 31 36
REMARK SMILES IDX 90 37 32 38 33 39 34 40 84 41 35 42 89 43 83 44 85 45 36 46
REMARK SMILES IDX 88 47 82 48 81 49 37 51 69 52 49 53 68 54 50 55 53 56 67 57
REMARK SMILES IDX 86 58 51 59 52 60 66 62 87 63 54 64 38 65 39 66 47 67 40 68
REMARK SMILES IDX 46 69 48 70 45 71 41 72 42 73 43 74 44 75 70 76 71 77 79 78
REMARK SMILES IDX 72 79 78 80 80 81 77 82 73 83 74 84 75 85 76 86 55 87 56 88
REMARK SMILES IDX 64 89 57 90 63 91 65 92 62 93 58 94 59 95 60 96 61 97
REMARK H PARENT 21 5 5 14 5 15 26 31 85 50 53 61
REMARK Flexibility Score: inf
ROOT
ATOM      1  C   UNL A   1      38.882  23.964  26.272  1.00  0.00     0.116 C 
ENDROOT
BRANCH   1   2
ATOM      2  N   UNL A   1      38.027  23.566  25.178  1.00  0.00    -0.356 N 
ATOM      3  O   UNL A   1      36.091  23.311  26.404  1.00  0.00    -0.275 OA
ATOM      4  C   UNL A   1      36.672  23.366  25.325  1.00  0.00     0.226 C 
ATOM      5  H   UNL A   1      38.429  23.432  24.289  1.00  0.00     0.163 HD
BRANCH   4   6
ATOM      6  C   UNL A   1      35.951  23.165  24.009  1.00  0.00     0.171 C 
BRANCH   6   7
ATOM      7  C   UNL A   1      34.503  23.708  23.882  1.00  0.00     0.233 C 
BRANCH   7   8
ATOM      8  C   UNL A   1      33.409  22.739  24.300  1.00  0.00     0.062 A 
ATOM      9  C   UNL A   1      32.060  22.972  24.522  1.00  0.00     0.021 A 
ATOM     10  S   UNL A   1      33.769  21.065  24.512  1.00  0.00    -0.143 S 
ATOM     11  C   UNL A   1      31.377  21.826  25.020  1.00  0.00     0.012 A 
ATOM     12  C   UNL A   1      32.210  20.737  25.128  1.00  0.00     0.065 A 
ENDBRANCH   7   8
BRANCH   7  13
ATOM     13  N   UNL A   1      34.365  24.958  24.659  1.00  0.00    -0.335 N 
ATOM     14  H   UNL A   1      35.295  25.259  24.953  1.00  0.00     0.347 HD
ATOM     15  H   UNL A   1      33.754  24.752  25.449  1.00  0.00     0.347 HD
BRANCH  13  16
ATOM     16  C   UNL A   1      33.745  26.047  23.914  1.00  0.00     0.298 C 
BRANCH  16  17
ATOM     17  C   UNL A   1      33.094  27.046  24.851  1.00  0.00     0.010 A 
ATOM     18  C   UNL A   1      33.840  27.362  26.017  1.00  0.00     0.010 A 
ATOM     19  C   UNL A   1      31.843  27.679  24.627  1.00  0.00    -0.036 A 
ATOM     20  C   UNL A   1      33.359  28.235  26.987  1.00  0.00     0.001 A 
ATOM     21  C   UNL A   1      31.384  28.538  25.661  1.00  0.00     0.004 A 
ATOM     22  C   UNL A   1      32.116  28.814  26.817  1.00  0.00     0.000 A 
BRANCH  19  23
ATOM     23  C   UNL A   1      30.918  27.593  23.416  1.00  0.00     0.020 C 
ATOM     24  C   UNL A   1      29.556  28.194  23.243  1.00  0.00     0.009 C 
ATOM     25  C   UNL A   1      30.725  28.792  22.519  1.00  0.00     0.009 C 
ENDBRANCH  19  23
ENDBRANCH  16  17
ENDBRANCH  13  16
ENDBRANCH   7  13
ENDBRANCH   6   7
ENDBRANCH   4   6
ENDBRANCH   1   2
BRANCH   1  26
ATOM     26  C   UNL A   1      39.634  22.786  26.884  1.00  0.00     0.023 C 
BRANCH  26  27
ATOM     27  C   UNL A   1      39.681  21.514  26.030  1.00  0.00     0.023 C 
BRANCH  27  28
ATOM     28  C   UNL A   1      40.083  20.239  26.764  1.00  0.00     0.116 C 
BRANCH  28  29
ATOM     29  N   UNL A   1      41.160  19.523  26.100  1.00  0.00    -0.352 N 
ATOM     30  C   UNL A   1      42.395  19.969  25.697  1.00  0.00     0.251 C 
ATOM     31  H   UNL A   1      40.975  18.575  25.911  1.00  0.00     0.163 HD
ATOM     32  O   UNL A   1      43.096  19.243  24.991  1.00  0.00    -0.269 OA
BRANCH  30  33
ATOM     33  C   UNL A   1      42.872  21.318  26.076  1.00  0.00     0.039 A 
ATOM     34  C   UNL A   1      43.069  22.270  25.071  1.00  0.00     0.014 A 
ATOM     35  C   UNL A   1      43.139  21.648  27.408  1.00  0.00     0.014 A 
ATOM     36  C   UNL A   1      43.460  23.569  25.410  1.00  0.00     0.010 A 
ATOM     37  C   UNL A   1      43.457  22.963  27.749  1.00  0.00     0.010 A 
ATOM     38  C   UNL A   1      43.616  23.941  26.755  1.00  0.00    -0.014 A 
BRANCH  38  39
ATOM     39  C   UNL A   1      43.930  25.347  27.134  1.00  0.00     0.031 A 
ATOM     40  C   UNL A   1      45.348  25.854  27.080  1.00  0.00     0.074 A 
ATOM     41  C   UNL A   1      42.946  26.155  27.581  1.00  0.00     0.049 A 
ATOM     42  N   UNL A   1      45.823  27.021  27.430  1.00  0.00    -0.248 NA
ATOM     43  C   UNL A   1      46.365  24.913  26.592  1.00  0.00     0.031 C 
ATOM     44  C   UNL A   1      41.537  25.776  27.708  1.00  0.00     0.029 A 
ATOM     45  N   UNL A   1      42.976  27.457  28.014  1.00  0.00    -0.354 N 
ATOM     46  C   UNL A   1      47.196  26.954  27.216  1.00  0.00     0.074 A 
ATOM     47  C   UNL A   1      47.480  25.608  26.763  1.00  0.00     0.031 C 
ATOM     48  C   UNL A   1      40.836  26.829  28.156  1.00  0.00     0.029 A 
ATOM     49  C   UNL A   1      41.748  27.942  28.402  1.00  0.00     0.049 A 
ATOM     50  H   UNL A   1      43.799  27.996  28.044  1.00  0.00     0.167 HD
ATOM     51  C   UNL A   1      48.130  27.928  27.365  1.00  0.00     0.034 A 
ATOM     52  C   UNL A   1      41.393  29.139  28.912  1.00  0.00     0.034 A 
ATOM     53  C   UNL A   1      47.830  29.268  27.812  1.00  0.00     0.049 A 
ATOM     54  C   UNL A   1      42.458  30.190  29.114  1.00  0.00     0.074 A 
ATOM     55  C   UNL A   1      48.690  30.344  27.942  1.00  0.00     0.029 A 
ATOM     56  N   UNL A   1      46.578  29.714  28.217  1.00  0.00    -0.354 N 
ATOM     57  N   UNL A   1      43.743  30.124  28.857  1.00  0.00    -0.248 NA
ATOM     58  C   UNL A   1      42.019  31.478  29.666  1.00  0.00     0.031 C 
ATOM     59  C   UNL A   1      47.980  31.410  28.504  1.00  0.00     0.029 A 
ATOM     60  C   UNL A   1      46.654  31.035  28.636  1.00  0.00     0.049 A 
ATOM     61  H   UNL A   1      45.756  29.171  28.208  1.00  0.00     0.167 HD
ATOM     62  C   UNL A   1      44.259  31.377  29.183  1.00  0.00     0.074 A 
ATOM     63  C   UNL A   1      43.143  32.179  29.640  1.00  0.00     0.031 C 
ATOM     64  C   UNL A   1      45.539  31.826  29.103  1.00  0.00     0.034 A 
BRANCH  51  65
ATOM     65  C   UNL A   1      49.568  27.567  27.073  1.00  0.00     0.023 A 
ATOM     66  C   UNL A   1      50.475  27.240  28.097  1.00  0.00     0.031 A 
ATOM     67  C   UNL A   1      50.046  27.566  25.749  1.00  0.00     0.131 A 
ATOM     68  C   UNL A   1      51.824  27.003  27.791  1.00  0.00     0.055 A 
ATOM     69  C   UNL A   1      51.370  27.241  25.444  1.00  0.00     0.041 A 
ATOM     70  F   UNL A   1      49.237  27.891  24.729  1.00  0.00    -0.206 F 
ATOM     71  C   UNL A   1      52.271  26.973  26.468  1.00  0.00     0.022 A 
BRANCH  68  72
ATOM     72  S   UNL A   1      53.013  26.886  29.156  1.00  0.00     0.124 S 
ATOM     73  O   UNL A   1      54.042  26.027  28.576  1.00  0.00    -0.237 OA
ATOM     74  O   UNL A   1      53.387  28.280  29.368  1.00  0.00    -0.237 OA
ATOM     75  O   UNL A   1      52.238  26.276  30.234  1.00  0.00    -0.744 OA
ENDBRANCH  68  72
ENDBRANCH  51  65
BRANCH  52  76
ATOM     76  C   UNL A   1      39.975  29.416  29.285  1.00  0.00     0.023 A 
ATOM     77  C   UNL A   1      39.577  29.462  30.630  1.00  0.00     0.031 A 
ATOM     78  C   UNL A   1      38.985  29.585  28.300  1.00  0.00     0.131 A 
ATOM     79  C   UNL A   1      38.220  29.619  30.955  1.00  0.00     0.055 A 
ATOM     80  C   UNL A   1      37.645  29.804  28.629  1.00  0.00     0.041 A 
ATOM     81  F   UNL A   1      39.308  29.551  26.997  1.00  0.00    -0.206 F 
ATOM     82  C   UNL A   1      37.254  29.807  29.964  1.00  0.00     0.022 A 
BRANCH  79  83
ATOM     83  S   UNL A   1      37.720  29.474  32.693  1.00  0.00     0.124 S 
ATOM     84  O   UNL A   1      37.641  28.027  32.857  1.00  0.00    -0.237 OA
ATOM     85  O   UNL A   1      38.822  30.140  33.380  1.00  0.00    -0.237 OA
ATOM     86  O   UNL A   1      36.441  30.180  32.739  1.00  0.00    -0.744 OA
ENDBRANCH  79  83
ENDBRANCH  52  76
BRANCH  64  87
ATOM     87  C   UNL A   1      45.789  33.269  29.473  1.00  0.00     0.023 A 
ATOM     88  C   UNL A   1      45.786  34.296  28.513  1.00  0.00     0.031 A 
ATOM     89  C   UNL A   1      46.044  33.620  30.811  1.00  0.00     0.131 A 
ATOM     90  C   UNL A   1      46.092  35.612  28.894  1.00  0.00     0.055 A 
ATOM     91  C   UNL A   1      46.279  34.940  31.196  1.00  0.00     0.041 A 
ATOM     92  F   UNL A   1      46.065  32.681  31.772  1.00  0.00    -0.206 F 
ATOM     93  C   UNL A   1      46.318  35.944  30.233  1.00  0.00     0.022 A 
BRANCH  90  94
ATOM     94  S   UNL A   1      46.292  36.870  27.603  1.00  0.00     0.124 S 
ATOM     95  O   UNL A   1      47.729  37.122  27.645  1.00  0.00    -0.237 OA
ATOM     96  O   UNL A   1      45.802  36.179  26.415  1.00  0.00    -0.237 OA
ATOM     97  O   UNL A   1      45.454  37.974  28.067  1.00  0.00    -0.744 OA
ENDBRANCH  90  94
ENDBRANCH  64  87
ENDBRANCH  38  39
ENDBRANCH  30  33
ENDBRANCH  28  29
ENDBRANCH  27  28
ENDBRANCH  26  27
ENDBRANCH   1  26
TORSDOF 20
ENDMDL
MODEL 3
REMARK VINA RESULT:     -10.1      2.811      8.348
REMARK SMILES O=C(C[C@H]([NH2+]Cc1ccccc1C1CC1)c1cccs1)NCCCCNC(=O)c1ccc(-c2c3nc(c(-c4cc(S(=O)(=O)[O-])ccc4F)c4ccc([nH]4)c(-c4cc(S(=O)(=O)[O-])ccc4F)c4nc(c(-c5cc(S(=O)(=O)[O-])ccc5F)c5ccc2[nH]5)C=C4)C=C3)cc1
REMARK SMILES IDX 22 1 21 2 1 3 2 4 3 6 4 7 16 8 17 9 20 10 18 11 19 12 5 13
REMARK SMILES IDX 6 16 7 17 8 18 12 19 9 20 11 21 10 22 13 23 14 24 15 25
REMARK SMILES IDX 23 26 24 27 25 28 26 29 27 30 28 32 29 33 30 34 91 35 31 36
REMARK SMILES IDX 90 37 32 38 33 39 34 40 84 41 35 42 89 43 83 44 85 45 36 46
REMARK SMILES IDX 88 47 82 48 81 49 37 51 69 52 49 53 68 54 50 55 53 56 67 57
REMARK SMILES IDX 86 58 51 59 52 60 66 62 87 63 54 64 38 65 39 66 47 67 40 68
REMARK SMILES IDX 46 69 48 70 45 71 41 72 42 73 43 74 44 75 70 76 71 77 79 78
REMARK SMILES IDX 72 79 78 80 80 81 77 82 73 83 74 84 75 85 76 86 55 87 56 88
REMARK SMILES IDX 64 89 57 90 63 91 65 92 62 93 58 94 59 95 60 96 61 97
REMARK H PARENT 21 5 5 14 5 15 26 31 85 50 53 61
REMARK Flexibility Score: inf
ROOT
ATOM      1  C   UNL A   1      32.917  23.562  25.563  1.00  0.00     0.116 C 
ENDROOT
BRANCH   1   2
ATOM      2  N   UNL A   1      33.585  24.843  25.537  1.00  0.00    -0.356 N 
ATOM      3  O   UNL A   1      31.876  26.076  26.472  1.00  0.00    -0.275 OA
ATOM      4  C   UNL A   1      33.037  25.981  26.088  1.00  0.00     0.226 C 
ATOM      5  H   UNL A   1      34.469  24.907  25.108  1.00  0.00     0.163 HD
BRANCH   4   6
ATOM      6  C   UNL A   1      34.000  27.147  26.132  1.00  0.00     0.171 C 
BRANCH   6   7
ATOM      7  C   UNL A   1      33.480  28.538  25.683  1.00  0.00     0.233 C 
BRANCH   7   8
ATOM      8  C   UNL A   1      33.783  29.682  26.636  1.00  0.00     0.062 A 
ATOM      9  C   UNL A   1      33.014  30.789  26.961  1.00  0.00     0.021 A 
ATOM     10  S   UNL A   1      35.253  29.689  27.540  1.00  0.00    -0.143 S 
ATOM     11  C   UNL A   1      33.698  31.707  27.809  1.00  0.00     0.012 A 
ATOM     12  C   UNL A   1      34.955  31.259  28.143  1.00  0.00     0.065 A 
ENDBRANCH   7   8
BRANCH   7  13
ATOM     13  N   UNL A   1      34.015  28.867  24.345  1.00  0.00    -0.335 N 
ATOM     14  H   UNL A   1      34.719  28.169  24.099  1.00  0.00     0.347 HD
ATOM     15  H   UNL A   1      34.404  29.808  24.403  1.00  0.00     0.347 HD
BRANCH  13  16
ATOM     16  C   UNL A   1      33.003  28.888  23.296  1.00  0.00     0.298 C 
BRANCH  16  17
ATOM     17  C   UNL A   1      32.555  27.482  22.945  1.00  0.00     0.010 A 
ATOM     18  C   UNL A   1      33.559  26.642  22.396  1.00  0.00     0.010 A 
ATOM     19  C   UNL A   1      31.246  26.968  23.148  1.00  0.00    -0.036 A 
ATOM     20  C   UNL A   1      33.292  25.338  21.993  1.00  0.00     0.001 A 
ATOM     21  C   UNL A   1      31.019  25.642  22.693  1.00  0.00     0.004 A 
ATOM     22  C   UNL A   1      32.010  24.839  22.126  1.00  0.00     0.000 A 
BRANCH  19  23
ATOM     23  C   UNL A   1      30.042  27.627  23.814  1.00  0.00     0.020 C 
ATOM     24  C   UNL A   1      28.956  28.439  23.175  1.00  0.00     0.009 C 
ATOM     25  C   UNL A   1      28.661  27.043  23.636  1.00  0.00     0.009 C 
ENDBRANCH  19  23
ENDBRANCH  16  17
ENDBRANCH  13  16
ENDBRANCH   7  13
ENDBRANCH   6   7
ENDBRANCH   4   6
ENDBRANCH   1   2
BRANCH   1  26
ATOM     26  C   UNL A   1      33.897  22.393  25.552  1.00  0.00     0.023 C 
BRANCH  26  27
ATOM     27  C   UNL A   1      35.262  22.665  26.194  1.00  0.00     0.023 C 
BRANCH  27  28
ATOM     28  C   UNL A   1      36.453  22.673  25.240  1.00  0.00     0.116 C 
BRANCH  28  29
ATOM     29  N   UNL A   1      37.343  21.542  25.443  1.00  0.00    -0.352 N 
ATOM     30  C   UNL A   1      38.627  21.508  25.928  1.00  0.00     0.251 C 
ATOM     31  H   UNL A   1      36.967  20.667  25.194  1.00  0.00     0.163 HD
ATOM     32  O   UNL A   1      39.271  20.462  25.855  1.00  0.00    -0.269 OA
BRANCH  30  33
ATOM     33  C   UNL A   1      39.248  22.722  26.505  1.00  0.00     0.039 A 
ATOM     34  C   UNL A   1      40.269  22.573  27.448  1.00  0.00     0.014 A 
ATOM     35  C   UNL A   1      38.826  24.002  26.136  1.00  0.00     0.014 A 
ATOM     36  C   UNL A   1      40.915  23.702  27.962  1.00  0.00     0.010 A 
ATOM     37  C   UNL A   1      39.520  25.123  26.593  1.00  0.00     0.010 A 
ATOM     38  C   UNL A   1      40.575  24.987  27.507  1.00  0.00    -0.014 A 
BRANCH  38  39
ATOM     39  C   UNL A   1      41.324  26.189  27.968  1.00  0.00     0.031 A 
ATOM     40  C   UNL A   1      42.755  26.404  27.550  1.00  0.00     0.074 A 
ATOM     41  C   UNL A   1      40.734  27.062  28.811  1.00  0.00     0.049 A 
ATOM     42  N   UNL A   1      43.587  27.352  27.900  1.00  0.00    -0.248 NA
ATOM     43  C   UNL A   1      43.332  25.405  26.640  1.00  0.00     0.031 C 
ATOM     44  C   UNL A   1      39.363  26.952  29.313  1.00  0.00     0.029 A 
ATOM     45  N   UNL A   1      41.207  28.210  29.397  1.00  0.00    -0.354 N 
ATOM     46  C   UNL A   1      44.788  27.060  27.262  1.00  0.00     0.074 A 
ATOM     47  C   UNL A   1      44.590  25.813  26.554  1.00  0.00     0.031 C 
ATOM     48  C   UNL A   1      39.097  28.004  30.104  1.00  0.00     0.029 A 
ATOM     49  C   UNL A   1      40.293  28.835  30.213  1.00  0.00     0.049 A 
ATOM     50  H   UNL A   1      42.117  28.555  29.247  1.00  0.00     0.167 HD
ATOM     51  C   UNL A   1      45.942  27.775  27.253  1.00  0.00     0.034 A 
ATOM     52  C   UNL A   1      40.403  29.943  30.975  1.00  0.00     0.034 A 
ATOM     53  C   UNL A   1      46.122  29.021  27.959  1.00  0.00     0.049 A 
ATOM     54  C   UNL A   1      41.712  30.693  30.986  1.00  0.00     0.074 A 
ATOM     55  C   UNL A   1      47.229  29.852  27.969  1.00  0.00     0.029 A 
ATOM     56  N   UNL A   1      45.180  29.610  28.794  1.00  0.00    -0.354 N 
ATOM     57  N   UNL A   1      42.821  30.430  30.335  1.00  0.00    -0.248 NA
ATOM     58  C   UNL A   1      41.779  31.896  31.827  1.00  0.00     0.031 C 
ATOM     59  C   UNL A   1      46.989  30.894  28.872  1.00  0.00     0.029 A 
ATOM     60  C   UNL A   1      45.698  30.770  29.354  1.00  0.00     0.049 A 
ATOM     61  H   UNL A   1      44.276  29.257  28.962  1.00  0.00     0.167 HD
ATOM     62  C   UNL A   1      43.705  31.456  30.662  1.00  0.00     0.074 A 
ATOM     63  C   UNL A   1      42.993  32.348  31.554  1.00  0.00     0.031 C 
ATOM     64  C   UNL A   1      44.986  31.648  30.254  1.00  0.00     0.034 A 
BRANCH  51  65
ATOM     65  C   UNL A   1      47.110  27.206  26.479  1.00  0.00     0.023 A 
ATOM     66  C   UNL A   1      48.112  26.441  27.101  1.00  0.00     0.031 A 
ATOM     67  C   UNL A   1      47.231  27.445  25.098  1.00  0.00     0.131 A 
ATOM     68  C   UNL A   1      49.227  26.012  26.365  1.00  0.00     0.055 A 
ATOM     69  C   UNL A   1      48.298  26.938  24.352  1.00  0.00     0.041 A 
ATOM     70  F   UNL A   1      46.319  28.186  24.449  1.00  0.00    -0.206 F 
ATOM     71  C   UNL A   1      49.312  26.231  24.989  1.00  0.00     0.022 A 
BRANCH  68  72
ATOM     72  S   UNL A   1      50.633  25.298  27.261  1.00  0.00     0.124 S 
ATOM     73  O   UNL A   1      50.003  24.175  27.950  1.00  0.00    -0.237 OA
ATOM     74  O   UNL A   1      51.552  24.954  26.182  1.00  0.00    -0.237 OA
ATOM     75  O   UNL A   1      51.072  26.387  28.132  1.00  0.00    -0.744 OA
ENDBRANCH  68  72
ENDBRANCH  51  65
BRANCH  52  76
ATOM     76  C   UNL A   1      39.254  30.410  31.807  1.00  0.00     0.023 A 
ATOM     77  C   UNL A   1      38.316  31.320  31.296  1.00  0.00     0.031 A 
ATOM     78  C   UNL A   1      39.108  29.993  33.142  1.00  0.00     0.131 A 
ATOM     79  C   UNL A   1      37.305  31.825  32.129  1.00  0.00     0.055 A 
ATOM     80  C   UNL A   1      38.063  30.451  33.948  1.00  0.00     0.041 A 
ATOM     81  F   UNL A   1      39.976  29.123  33.683  1.00  0.00    -0.206 F 
ATOM     82  C   UNL A   1      37.162  31.385  33.446  1.00  0.00     0.022 A 
BRANCH  79  83
ATOM     83  S   UNL A   1      36.236  33.146  31.493  1.00  0.00     0.124 S 
ATOM     84  O   UNL A   1      36.420  34.185  32.501  1.00  0.00    -0.237 OA
ATOM     85  O   UNL A   1      36.825  33.409  30.185  1.00  0.00    -0.237 OA
ATOM     86  O   UNL A   1      34.912  32.529  31.466  1.00  0.00    -0.744 OA
ENDBRANCH  79  83
ENDBRANCH  52  76
BRANCH  64  87
ATOM     87  C   UNL A   1      45.683  32.901  30.733  1.00  0.00     0.023 A 
ATOM     88  C   UNL A   1      45.622  34.108  30.014  1.00  0.00     0.031 A 
ATOM     89  C   UNL A   1      46.429  32.881  31.925  1.00  0.00     0.131 A 
ATOM     90  C   UNL A   1      46.344  35.226  30.462  1.00  0.00     0.055 A 
ATOM     91  C   UNL A   1      47.087  34.015  32.402  1.00  0.00     0.041 A 
ATOM     92  F   UNL A   1      46.527  31.755  32.651  1.00  0.00    -0.206 F 
ATOM     93  C   UNL A   1      47.058  35.193  31.663  1.00  0.00     0.022 A 
BRANCH  90  94
ATOM     94  S   UNL A   1      46.419  36.697  29.403  1.00  0.00     0.124 S 
ATOM     95  O   UNL A   1      47.544  36.383  28.529  1.00  0.00    -0.237 OA
ATOM     96  O   UNL A   1      45.103  36.696  28.773  1.00  0.00    -0.237 OA
ATOM     97  O   UNL A   1      46.653  37.788  30.348  1.00  0.00    -0.744 OA
ENDBRANCH  90  94
ENDBRANCH  64  87
ENDBRANCH  38  39
ENDBRANCH  30  33
ENDBRANCH  28  29
ENDBRANCH  27  28
ENDBRANCH  26  27
ENDBRANCH   1  26
TORSDOF 20
ENDMDL
