MODEL 1
REMARK VINA RESULT:     -14.3      0.000      0.000
REMARK SMILES Cc1cc(N2CC[NH+]([C@@H](C(=O)NCCCCNC(=O)c3ccc(-c4c5nc(c(-c6cc(S(=O)(=O)[O-])ccc6F)c6ccc([nH]6)c(-c6cc(S(=O)(=O)[O-])ccc6F)c6nc(c(-c7cc(S(=O)(=O)[O-])ccc7F)c7ccc4[nH]7)C=C6)C=C5)cc3)c3c[nH]c4ccccc34)CC2)nc2ccccc12
REMARK SMILES IDX 15 1 14 2 13 3 12 4 10 5 11 6 9 8 8 9 5 10 6 11 93 12 7 13
REMARK SMILES IDX 92 14 4 16 1 17 2 18 3 19 100 20 95 21 99 22 94 23 96 24
REMARK SMILES IDX 98 25 97 26 83 27 84 28 91 29 85 30 86 31 90 32 87 34 89 35
REMARK SMILES IDX 88 36 16 37 17 38 18 39 19 41 20 42 21 43 82 44 22 45 81 46
REMARK SMILES IDX 23 47 24 48 25 49 75 50 26 51 80 52 74 53 76 54 27 55 79 56
REMARK SMILES IDX 73 57 72 58 28 60 60 61 40 62 59 63 41 64 44 65 58 66 77 67
REMARK SMILES IDX 42 68 43 69 57 71 78 72 45 73 29 74 30 75 38 76 31 77 37 78
REMARK SMILES IDX 39 79 36 80 32 81 33 82 34 83 35 84 61 85 62 86 70 87 63 88
REMARK SMILES IDX 69 89 71 90 68 91 64 92 65 93 66 94 67 95 46 96 47 97 55 98
REMARK SMILES IDX 48 99 54 100 56 101 53 102 49 103 50 104 51 105 52 106
REMARK H PARENT 12 7 8 15 85 33 17 40 76 59 44 70
REMARK Flexibility Score: inf
ROOT
ATOM      1  C   UNL A   1      31.385  31.954  26.636  1.00  0.00     0.023 C 
ENDROOT
BRANCH   1   2
ATOM      2  C   UNL A   1      31.533  30.597  25.932  1.00  0.00     0.023 C 
BRANCH   2   3
ATOM      3  C   UNL A   1      31.941  29.373  26.805  1.00  0.00     0.116 C 
BRANCH   3   4
ATOM      4  N   UNL A   1      32.555  28.221  26.122  1.00  0.00    -0.351 N 
ATOM      5  C   UNL A   1      32.190  27.214  25.248  1.00  0.00     0.283 C 
ATOM      6  O   UNL A   1      33.154  26.574  24.807  1.00  0.00    -0.268 OA
ATOM      7  H   UNL A   1      33.508  28.148  26.356  1.00  0.00     0.163 HD
BRANCH   5   8
ATOM      8  C   UNL A   1      30.731  26.928  24.759  1.00  0.00     0.307 C 
BRANCH   8   9
ATOM      9  N   UNL A   1      30.187  25.515  24.816  1.00  0.00    -0.318 N 
ATOM     10  N   UNL A   1      32.170  23.360  24.601  1.00  0.00    -0.345 N 
ATOM     11  C   UNL A   1      31.802  24.114  23.413  1.00  0.00     0.179 C 
ATOM     12  C   UNL A   1      32.004  24.092  25.855  1.00  0.00     0.179 C 
ATOM     13  C   UNL A   1      30.364  24.587  23.676  1.00  0.00     0.284 C 
ATOM     14  C   UNL A   1      30.602  24.739  25.982  1.00  0.00     0.284 C 
ATOM     15  H   UNL A   1      29.208  25.802  24.827  1.00  0.00     0.349 HD
BRANCH  10  16
ATOM     16  C   UNL A   1      33.342  22.613  24.598  1.00  0.00     0.129 A 
ATOM     17  C   UNL A   1      34.029  18.917  24.566  1.00  0.00     0.045 C 
ATOM     18  C   UNL A   1      34.277  20.394  24.637  1.00  0.00    -0.038 A 
ATOM     19  C   UNL A   1      33.189  21.239  24.483  1.00  0.00     0.051 A 
ATOM     20  C   UNL A   1      35.539  20.971  24.862  1.00  0.00     0.003 A 
ATOM     21  C   UNL A   1      35.611  22.382  24.973  1.00  0.00     0.073 A 
ATOM     22  C   UNL A   1      36.717  20.204  24.988  1.00  0.00     0.010 A 
ATOM     23  N   UNL A   1      34.535  23.184  24.830  1.00  0.00    -0.231 NA
ATOM     24  C   UNL A   1      36.843  22.957  25.263  1.00  0.00     0.029 A 
ATOM     25  C   UNL A   1      37.942  20.811  25.252  1.00  0.00     0.001 A 
ATOM     26  C   UNL A   1      38.003  22.188  25.406  1.00  0.00     0.002 A 
ENDBRANCH  10  16
ENDBRANCH   8   9
BRANCH   8  27
ATOM     27  C   UNL A   1      30.342  27.578  23.387  1.00  0.00     0.044 A 
ATOM     28  C   UNL A   1      31.305  28.039  22.481  1.00  0.00     0.094 A 
ATOM     29  C   UNL A   1      29.218  28.439  23.062  1.00  0.00     0.009 A 
ATOM     30  N   UNL A   1      31.164  29.412  22.642  1.00  0.00    -0.361 N 
ATOM     31  C   UNL A   1      29.820  29.681  22.803  1.00  0.00     0.046 A 
ATOM     32  C   UNL A   1      27.813  28.414  23.177  1.00  0.00     0.011 A 
ATOM     33  H   UNL A   1      31.891  30.075  22.640  1.00  0.00     0.166 HD
ATOM     34  C   UNL A   1      29.139  30.901  22.922  1.00  0.00     0.026 A 
ATOM     35  C   UNL A   1      27.093  29.621  23.131  1.00  0.00     0.001 A 
ATOM     36  C   UNL A   1      27.756  30.847  23.092  1.00  0.00     0.002 A 
ENDBRANCH   8  27
ENDBRANCH   5   8
ENDBRANCH   3   4
ENDBRANCH   2   3
ENDBRANCH   1   2
BRANCH   1  37
ATOM     37  C   UNL A   1      32.678  32.501  27.201  1.00  0.00     0.116 C 
BRANCH  37  38
ATOM     38  N   UNL A   1      32.541  33.885  27.636  1.00  0.00    -0.352 N 
ATOM     39  C   UNL A   1      33.219  34.548  28.637  1.00  0.00     0.251 C 
ATOM     40  H   UNL A   1      31.873  34.419  27.148  1.00  0.00     0.163 HD
ATOM     41  O   UNL A   1      32.837  35.650  28.998  1.00  0.00    -0.269 OA
BRANCH  39  42
ATOM     42  C   UNL A   1      34.387  33.902  29.284  1.00  0.00     0.039 A 
ATOM     43  C   UNL A   1      35.674  34.341  28.966  1.00  0.00     0.014 A 
ATOM     44  C   UNL A   1      34.213  32.867  30.206  1.00  0.00     0.014 A 
ATOM     45  C   UNL A   1      36.777  33.773  29.608  1.00  0.00     0.010 A 
ATOM     46  C   UNL A   1      35.296  32.387  30.928  1.00  0.00     0.010 A 
ATOM     47  C   UNL A   1      36.594  32.814  30.617  1.00  0.00    -0.014 A 
BRANCH  47  48
ATOM     48  C   UNL A   1      37.743  32.200  31.328  1.00  0.00     0.031 A 
ATOM     49  C   UNL A   1      38.502  31.076  30.670  1.00  0.00     0.074 A 
ATOM     50  C   UNL A   1      38.054  32.610  32.572  1.00  0.00     0.049 A 
ATOM     51  N   UNL A   1      39.477  30.346  31.146  1.00  0.00    -0.248 NA
ATOM     52  C   UNL A   1      38.085  30.697  29.309  1.00  0.00     0.031 C 
ATOM     53  C   UNL A   1      37.349  33.657  33.319  1.00  0.00     0.029 A 
ATOM     54  N   UNL A   1      39.036  32.196  33.436  1.00  0.00    -0.354 N 
ATOM     55  C   UNL A   1      39.769  29.413  30.156  1.00  0.00     0.074 A 
ATOM     56  C   UNL A   1      38.828  29.625  29.080  1.00  0.00     0.031 C 
ATOM     57  C   UNL A   1      37.942  33.823  34.511  1.00  0.00     0.029 A 
ATOM     58  C   UNL A   1      39.032  32.863  34.641  1.00  0.00     0.049 A 
ATOM     59  H   UNL A   1      39.683  31.488  33.215  1.00  0.00     0.167 HD
ATOM     60  C   UNL A   1      40.753  28.481  30.138  1.00  0.00     0.034 A 
ATOM     61  C   UNL A   1      39.811  32.702  35.729  1.00  0.00     0.034 A 
ATOM     62  C   UNL A   1      41.700  28.312  31.210  1.00  0.00     0.049 A 
ATOM     63  C   UNL A   1      40.897  31.652  35.681  1.00  0.00     0.074 A 
ATOM     64  C   UNL A   1      42.780  27.450  31.276  1.00  0.00     0.029 A 
ATOM     65  N   UNL A   1      41.677  29.015  32.408  1.00  0.00    -0.354 N 
ATOM     66  N   UNL A   1      41.203  30.822  34.709  1.00  0.00    -0.248 NA
ATOM     67  C   UNL A   1      41.752  31.527  36.868  1.00  0.00     0.031 C 
ATOM     68  C   UNL A   1      43.362  27.578  32.540  1.00  0.00     0.029 A 
ATOM     69  C   UNL A   1      42.704  28.583  33.230  1.00  0.00     0.049 A 
ATOM     70  H   UNL A   1      41.027  29.718  32.638  1.00  0.00     0.167 HD
ATOM     71  C   UNL A   1      42.308  30.105  35.157  1.00  0.00     0.074 A 
ATOM     72  C   UNL A   1      42.627  30.614  36.474  1.00  0.00     0.031 C 
ATOM     73  C   UNL A   1      43.001  29.112  34.540  1.00  0.00     0.034 A 
BRANCH  60  74
ATOM     74  C   UNL A   1      40.843  27.569  28.939  1.00  0.00     0.023 A 
ATOM     75  C   UNL A   1      41.799  27.761  27.927  1.00  0.00     0.031 A 
ATOM     76  C   UNL A   1      39.961  26.482  28.811  1.00  0.00     0.131 A 
ATOM     77  C   UNL A   1      41.816  26.915  26.807  1.00  0.00     0.055 A 
ATOM     78  C   UNL A   1      40.033  25.596  27.733  1.00  0.00     0.041 A 
ATOM     79  F   UNL A   1      39.008  26.262  29.731  1.00  0.00    -0.206 F 
ATOM     80  C   UNL A   1      40.958  25.816  26.717  1.00  0.00     0.022 A 
BRANCH  77  81
ATOM     81  S   UNL A   1      42.896  27.338  25.414  1.00  0.00     0.124 S 
ATOM     82  O   UNL A   1      43.007  26.053  24.726  1.00  0.00    -0.237 OA
ATOM     83  O   UNL A   1      42.132  28.369  24.722  1.00  0.00    -0.237 OA
ATOM     84  O   UNL A   1      44.124  27.798  26.058  1.00  0.00    -0.744 OA
ENDBRANCH  77  81
ENDBRANCH  60  74
BRANCH  61  85
ATOM     85  C   UNL A   1      39.600  33.528  36.955  1.00  0.00     0.023 A 
ATOM     86  C   UNL A   1      38.930  33.004  38.072  1.00  0.00     0.031 A 
ATOM     87  C   UNL A   1      39.998  34.876  37.003  1.00  0.00     0.131 A 
ATOM     88  C   UNL A   1      38.613  33.839  39.156  1.00  0.00     0.055 A 
ATOM     89  C   UNL A   1      39.742  35.685  38.113  1.00  0.00     0.041 A 
ATOM     90  F   UNL A   1      40.647  35.433  35.967  1.00  0.00    -0.206 F 
ATOM     91  C   UNL A   1      39.026  35.172  39.190  1.00  0.00     0.022 A 
BRANCH  88  92
ATOM     92  S   UNL A   1      37.530  33.191  40.460  1.00  0.00     0.124 S 
ATOM     93  O   UNL A   1      36.334  32.839  39.703  1.00  0.00    -0.237 OA
ATOM     94  O   UNL A   1      38.316  32.075  40.976  1.00  0.00    -0.237 OA
ATOM     95  O   UNL A   1      37.382  34.323  41.372  1.00  0.00    -0.744 OA
ENDBRANCH  88  92
ENDBRANCH  61  85
BRANCH  73  96
ATOM     96  C   UNL A   1      44.203  28.561  35.266  1.00  0.00     0.023 A 
ATOM     97  C   UNL A   1      44.086  27.543  36.226  1.00  0.00     0.031 A 
ATOM     98  C   UNL A   1      45.486  29.070  34.991  1.00  0.00     0.131 A 
ATOM     99  C   UNL A   1      45.223  27.109  36.924  1.00  0.00     0.055 A 
ATOM    100  C   UNL A   1      46.622  28.582  35.635  1.00  0.00     0.041 A 
ATOM    101  F   UNL A   1      45.655  30.045  34.084  1.00  0.00    -0.206 F 
ATOM    102  C   UNL A   1      46.492  27.606  36.619  1.00  0.00     0.022 A 
BRANCH  99 103
ATOM    103  S   UNL A   1      45.005  25.959  38.309  1.00  0.00     0.124 S 
ATOM    104  O   UNL A   1      46.374  25.806  38.792  1.00  0.00    -0.237 OA
ATOM    105  O   UNL A   1      44.099  26.694  39.185  1.00  0.00    -0.237 OA
ATOM    106  O   UNL A   1      44.432  24.771  37.680  1.00  0.00    -0.744 OA
ENDBRANCH  99 103
ENDBRANCH  73  96
ENDBRANCH  47  48
ENDBRANCH  39  42
ENDBRANCH  37  38
ENDBRANCH   1  37
TORSDOF 17
ENDMDL
MODEL 2
REMARK VINA RESULT:     -14.2      0.842      1.753
REMARK SMILES Cc1cc(N2CC[NH+]([C@@H](C(=O)NCCCCNC(=O)c3ccc(-c4c5nc(c(-c6cc(S(=O)(=O)[O-])ccc6F)c6ccc([nH]6)c(-c6cc(S(=O)(=O)[O-])ccc6F)c6nc(c(-c7cc(S(=O)(=O)[O-])ccc7F)c7ccc4[nH]7)C=C6)C=C5)cc3)c3c[nH]c4ccccc34)CC2)nc2ccccc12
REMARK SMILES IDX 15 1 14 2 13 3 12 4 10 5 11 6 9 8 8 9 5 10 6 11 93 12 7 13
REMARK SMILES IDX 92 14 4 16 1 17 2 18 3 19 100 20 95 21 99 22 94 23 96 24
REMARK SMILES IDX 98 25 97 26 83 27 84 28 91 29 85 30 86 31 90 32 87 34 89 35
REMARK SMILES IDX 88 36 16 37 17 38 18 39 19 41 20 42 21 43 82 44 22 45 81 46
REMARK SMILES IDX 23 47 24 48 25 49 75 50 26 51 80 52 74 53 76 54 27 55 79 56
REMARK SMILES IDX 73 57 72 58 28 60 60 61 40 62 59 63 41 64 44 65 58 66 77 67
REMARK SMILES IDX 42 68 43 69 57 71 78 72 45 73 29 74 30 75 38 76 31 77 37 78
REMARK SMILES IDX 39 79 36 80 32 81 33 82 34 83 35 84 61 85 62 86 70 87 63 88
REMARK SMILES IDX 69 89 71 90 68 91 64 92 65 93 66 94 67 95 46 96 47 97 55 98
REMARK SMILES IDX 48 99 54 100 56 101 53 102 49 103 50 104 51 105 52 106
REMARK H PARENT 12 7 8 15 85 33 17 40 76 59 44 70
REMARK Flexibility Score: inf
ROOT
ATOM      1  C   UNL A   1      31.583  31.793  26.854  1.00  0.00     0.023 C 
ENDROOT
BRANCH   1   2
ATOM      2  C   UNL A   1      31.781  30.628  25.874  1.00  0.00     0.023 C 
BRANCH   2   3
ATOM      3  C   UNL A   1      32.312  29.282  26.452  1.00  0.00     0.116 C 
BRANCH   3   4
ATOM      4  N   UNL A   1      31.361  28.161  26.555  1.00  0.00    -0.351 N 
ATOM      5  C   UNL A   1      31.051  26.994  25.882  1.00  0.00     0.283 C 
ATOM      6  O   UNL A   1      30.257  26.269  26.497  1.00  0.00    -0.268 OA
ATOM      7  H   UNL A   1      30.773  28.277  27.336  1.00  0.00     0.163 HD
BRANCH   5   8
ATOM      8  C   UNL A   1      31.681  26.542  24.522  1.00  0.00     0.307 C 
BRANCH   8   9
ATOM      9  N   UNL A   1      33.183  26.378  24.413  1.00  0.00    -0.318 N 
ATOM     10  N   UNL A   1      34.207  23.644  24.727  1.00  0.00    -0.345 N 
ATOM     11  C   UNL A   1      33.753  24.376  25.899  1.00  0.00     0.179 C 
ATOM     12  C   UNL A   1      33.581  24.061  23.474  1.00  0.00     0.179 C 
ATOM     13  C   UNL A   1      33.975  25.856  25.550  1.00  0.00     0.284 C 
ATOM     14  C   UNL A   1      33.637  25.595  23.266  1.00  0.00     0.284 C 
ATOM     15  H   UNL A   1      33.371  27.378  24.342  1.00  0.00     0.349 HD
BRANCH  10  16
ATOM     16  C   UNL A   1      34.340  22.263  24.796  1.00  0.00     0.129 A 
ATOM     17  C   UNL A   1      37.319  19.975  24.972  1.00  0.00     0.045 C 
ATOM     18  C   UNL A   1      35.892  20.421  24.862  1.00  0.00    -0.038 A 
ATOM     19  C   UNL A   1      35.631  21.781  24.950  1.00  0.00     0.051 A 
ATOM     20  C   UNL A   1      34.806  19.550  24.664  1.00  0.00     0.003 A 
ATOM     21  C   UNL A   1      33.519  20.121  24.510  1.00  0.00     0.073 A 
ATOM     22  C   UNL A   1      34.955  18.148  24.605  1.00  0.00     0.010 A 
ATOM     23  N   UNL A   1      33.292  21.449  24.588  1.00  0.00    -0.231 NA
ATOM     24  C   UNL A   1      32.450  19.271  24.246  1.00  0.00     0.029 A 
ATOM     25  C   UNL A   1      33.861  17.321  24.365  1.00  0.00     0.001 A 
ATOM     26  C   UNL A   1      32.609  17.884  24.169  1.00  0.00     0.002 A 
ENDBRANCH  10  16
ENDBRANCH   8   9
BRANCH   8  27
ATOM     27  C   UNL A   1      31.147  27.290  23.252  1.00  0.00     0.044 A 
ATOM     28  C   UNL A   1      31.981  28.066  22.439  1.00  0.00     0.094 A 
ATOM     29  C   UNL A   1      29.865  27.937  23.036  1.00  0.00     0.009 A 
ATOM     30  N   UNL A   1      31.561  29.342  22.794  1.00  0.00    -0.361 N 
ATOM     31  C   UNL A   1      30.193  29.301  22.970  1.00  0.00     0.046 A 
ATOM     32  C   UNL A   1      28.497  27.605  23.123  1.00  0.00     0.011 A 
ATOM     33  H   UNL A   1      32.136  30.135  22.900  1.00  0.00     0.166 HD
ATOM     34  C   UNL A   1      29.276  30.323  23.252  1.00  0.00     0.026 A 
ATOM     35  C   UNL A   1      27.542  28.631  23.238  1.00  0.00     0.001 A 
ATOM     36  C   UNL A   1      27.937  29.960  23.389  1.00  0.00     0.002 A 
ENDBRANCH   8  27
ENDBRANCH   5   8
ENDBRANCH   3   4
ENDBRANCH   2   3
ENDBRANCH   1   2
BRANCH   1  37
ATOM     37  C   UNL A   1      32.871  32.451  27.300  1.00  0.00     0.116 C 
BRANCH  37  38
ATOM     38  N   UNL A   1      32.680  33.858  27.627  1.00  0.00    -0.352 N 
ATOM     39  C   UNL A   1      33.286  34.606  28.614  1.00  0.00     0.251 C 
ATOM     40  H   UNL A   1      32.029  34.340  27.067  1.00  0.00     0.163 HD
ATOM     41  O   UNL A   1      32.861  35.721  28.874  1.00  0.00    -0.269 OA
BRANCH  39  42
ATOM     42  C   UNL A   1      34.429  34.037  29.368  1.00  0.00     0.039 A 
ATOM     43  C   UNL A   1      34.183  33.110  30.384  1.00  0.00     0.014 A 
ATOM     44  C   UNL A   1      35.742  34.413  29.074  1.00  0.00     0.014 A 
ATOM     45  C   UNL A   1      35.255  32.530  31.065  1.00  0.00     0.010 A 
ATOM     46  C   UNL A   1      36.806  33.753  29.668  1.00  0.00     0.010 A 
ATOM     47  C   UNL A   1      36.577  32.824  30.691  1.00  0.00    -0.014 A 
BRANCH  47  48
ATOM     48  C   UNL A   1      37.738  32.216  31.386  1.00  0.00     0.031 A 
ATOM     49  C   UNL A   1      38.508  31.112  30.709  1.00  0.00     0.074 A 
ATOM     50  C   UNL A   1      38.050  32.613  32.635  1.00  0.00     0.049 A 
ATOM     51  N   UNL A   1      39.496  30.389  31.169  1.00  0.00    -0.248 NA
ATOM     52  C   UNL A   1      38.089  30.746  29.345  1.00  0.00     0.031 C 
ATOM     53  C   UNL A   1      37.335  33.639  33.400  1.00  0.00     0.029 A 
ATOM     54  N   UNL A   1      39.042  32.200  33.487  1.00  0.00    -0.354 N 
ATOM     55  C   UNL A   1      39.796  29.473  30.165  1.00  0.00     0.074 A 
ATOM     56  C   UNL A   1      38.846  29.688  29.097  1.00  0.00     0.031 C 
ATOM     57  C   UNL A   1      37.933  33.797  34.591  1.00  0.00     0.029 A 
ATOM     58  C   UNL A   1      39.036  32.850  34.702  1.00  0.00     0.049 A 
ATOM     59  H   UNL A   1      39.698  31.505  33.253  1.00  0.00     0.167 HD
ATOM     60  C   UNL A   1      40.791  28.556  30.128  1.00  0.00     0.034 A 
ATOM     61  C   UNL A   1      39.824  32.685  35.783  1.00  0.00     0.034 A 
ATOM     62  C   UNL A   1      41.747  28.384  31.193  1.00  0.00     0.049 A 
ATOM     63  C   UNL A   1      40.924  31.650  35.715  1.00  0.00     0.074 A 
ATOM     64  C   UNL A   1      42.839  27.537  31.241  1.00  0.00     0.029 A 
ATOM     65  N   UNL A   1      41.721  29.070  32.401  1.00  0.00    -0.354 N 
ATOM     66  N   UNL A   1      41.235  30.839  34.729  1.00  0.00    -0.248 NA
ATOM     67  C   UNL A   1      41.787  31.520  36.895  1.00  0.00     0.031 C 
ATOM     68  C   UNL A   1      43.425  27.654  32.504  1.00  0.00     0.029 A 
ATOM     69  C   UNL A   1      42.758  28.641  33.212  1.00  0.00     0.049 A 
ATOM     70  H   UNL A   1      41.063  29.761  32.644  1.00  0.00     0.167 HD
ATOM     71  C   UNL A   1      42.353  30.130  35.161  1.00  0.00     0.074 A 
ATOM     72  C   UNL A   1      42.672  30.626  36.484  1.00  0.00     0.031 C 
ATOM     73  C   UNL A   1      43.055  29.155  34.527  1.00  0.00     0.034 A 
BRANCH  60  74
ATOM     74  C   UNL A   1      40.887  27.661  28.917  1.00  0.00     0.023 A 
ATOM     75  C   UNL A   1      41.893  27.825  27.948  1.00  0.00     0.031 A 
ATOM     76  C   UNL A   1      39.960  26.621  28.731  1.00  0.00     0.131 A 
ATOM     77  C   UNL A   1      41.916  26.999  26.813  1.00  0.00     0.055 A 
ATOM     78  C   UNL A   1      40.034  25.752  27.640  1.00  0.00     0.041 A 
ATOM     79  F   UNL A   1      38.960  26.431  29.607  1.00  0.00    -0.206 F 
ATOM     80  C   UNL A   1      41.010  25.945  26.667  1.00  0.00     0.022 A 
BRANCH  77  81
ATOM     81  S   UNL A   1      43.072  27.393  25.474  1.00  0.00     0.124 S 
ATOM     82  O   UNL A   1      44.141  28.077  26.198  1.00  0.00    -0.237 OA
ATOM     83  O   UNL A   1      43.402  26.076  24.943  1.00  0.00    -0.237 OA
ATOM     84  O   UNL A   1      42.288  28.246  24.583  1.00  0.00    -0.744 OA
ENDBRANCH  77  81
ENDBRANCH  60  74
BRANCH  61  85
ATOM     85  C   UNL A   1      39.608  33.491  37.021  1.00  0.00     0.023 A 
ATOM     86  C   UNL A   1      38.988  32.930  38.149  1.00  0.00     0.031 A 
ATOM     87  C   UNL A   1      39.951  34.853  37.074  1.00  0.00     0.131 A 
ATOM     88  C   UNL A   1      38.662  33.742  39.248  1.00  0.00     0.055 A 
ATOM     89  C   UNL A   1      39.689  35.641  38.197  1.00  0.00     0.041 A 
ATOM     90  F   UNL A   1      40.553  35.445  36.028  1.00  0.00    -0.206 F 
ATOM     91  C   UNL A   1      39.021  35.090  39.286  1.00  0.00     0.022 A 
BRANCH  88  92
ATOM     92  S   UNL A   1      37.638  33.038  40.571  1.00  0.00     0.124 S 
ATOM     93  O   UNL A   1      36.331  32.965  39.926  1.00  0.00    -0.237 OA
ATOM     94  O   UNL A   1      38.304  31.764  40.821  1.00  0.00    -0.237 OA
ATOM     95  O   UNL A   1      37.750  34.021  41.646  1.00  0.00    -0.744 OA
ENDBRANCH  88  92
ENDBRANCH  61  85
BRANCH  73  96
ATOM     96  C   UNL A   1      44.269  28.611  35.239  1.00  0.00     0.023 A 
ATOM     97  C   UNL A   1      44.164  27.622  36.231  1.00  0.00     0.031 A 
ATOM     98  C   UNL A   1      45.550  29.095  34.918  1.00  0.00     0.131 A 
ATOM     99  C   UNL A   1      45.313  27.195  36.912  1.00  0.00     0.055 A 
ATOM    100  C   UNL A   1      46.696  28.612  35.547  1.00  0.00     0.041 A 
ATOM    101  F   UNL A   1      45.707  30.042  33.978  1.00  0.00    -0.206 F 
ATOM    102  C   UNL A   1      46.580  27.667  36.561  1.00  0.00     0.022 A 
BRANCH  99 103
ATOM    103  S   UNL A   1      45.117  26.088  38.335  1.00  0.00     0.124 S 
ATOM    104  O   UNL A   1      45.201  24.773  37.709  1.00  0.00    -0.237 OA
ATOM    105  O   UNL A   1      46.245  26.464  39.181  1.00  0.00    -0.237 OA
ATOM    106  O   UNL A   1      43.800  26.441  38.864  1.00  0.00    -0.744 OA
ENDBRANCH  99 103
ENDBRANCH  73  96
ENDBRANCH  47  48
ENDBRANCH  39  42
ENDBRANCH  37  38
ENDBRANCH   1  37
TORSDOF 17
ENDMDL
MODEL 3
REMARK VINA RESULT:     -13.7      1.541      2.047
REMARK SMILES Cc1cc(N2CC[NH+]([C@@H](C(=O)NCCCCNC(=O)c3ccc(-c4c5nc(c(-c6cc(S(=O)(=O)[O-])ccc6F)c6ccc([nH]6)c(-c6cc(S(=O)(=O)[O-])ccc6F)c6nc(c(-c7cc(S(=O)(=O)[O-])ccc7F)c7ccc4[nH]7)C=C6)C=C5)cc3)c3c[nH]c4ccccc34)CC2)nc2ccccc12
REMARK SMILES IDX 15 1 14 2 13 3 12 4 10 5 11 6 9 8 8 9 5 10 6 11 93 12 7 13
REMARK SMILES IDX 92 14 4 16 1 17 2 18 3 19 100 20 95 21 99 22 94 23 96 24
REMARK SMILES IDX 98 25 97 26 83 27 84 28 91 29 85 30 86 31 90 32 87 34 89 35
REMARK SMILES IDX 88 36 16 37 17 38 18 39 19 41 20 42 21 43 82 44 22 45 81 46
REMARK SMILES IDX 23 47 24 48 25 49 75 50 26 51 80 52 74 53 76 54 27 55 79 56
REMARK SMILES IDX 73 57 72 58 28 60 60 61 40 62 59 63 41 64 44 65 58 66 77 67
REMARK SMILES IDX 42 68 43 69 57 71 78 72 45 73 29 74 30 75 38 76 31 77 37 78
REMARK SMILES IDX 39 79 36 80 32 81 33 82 34 83 35 84 61 85 62 86 70 87 63 88
REMARK SMILES IDX 69 89 71 90 68 91 64 92 65 93 66 94 67 95 46 96 47 97 55 98
REMARK SMILES IDX 48 99 54 100 56 101 53 102 49 103 50 104 51 105 52 106
REMARK H PARENT 12 7 8 15 85 33 17 40 76 59 44 70
REMARK Flexibility Score: inf
ROOT
ATOM      1  C   UNL A   1      31.429  31.725  26.556  1.00  0.00     0.023 C 
ENDROOT
BRANCH   1   2
ATOM      2  C   UNL A   1      31.469  30.194  26.677  1.00  0.00     0.023 C 
BRANCH   2   3
ATOM      3  C   UNL A   1      32.530  29.431  25.829  1.00  0.00     0.116 C 
BRANCH   3   4
ATOM      4  N   UNL A   1      32.414  29.507  24.362  1.00  0.00    -0.351 N 
ATOM      5  C   UNL A   1      31.532  29.127  23.367  1.00  0.00     0.283 C 
ATOM      6  O   UNL A   1      31.810  29.603  22.258  1.00  0.00    -0.268 OA
ATOM      7  H   UNL A   1      33.195  29.966  23.976  1.00  0.00     0.163 HD
BRANCH   5   8
ATOM      8  C   UNL A   1      30.247  28.261  23.583  1.00  0.00     0.307 C 
BRANCH   8   9
ATOM      9  N   UNL A   1      30.063  26.984  22.788  1.00  0.00    -0.318 N 
ATOM     10  N   UNL A   1      31.945  24.811  23.387  1.00  0.00    -0.345 N 
ATOM     11  C   UNL A   1      32.399  25.957  22.614  1.00  0.00     0.179 C 
ATOM     12  C   UNL A   1      30.829  25.094  24.288  1.00  0.00     0.179 C 
ATOM     13  C   UNL A   1      31.138  26.478  21.905  1.00  0.00     0.284 C 
ATOM     14  C   UNL A   1      29.661  25.820  23.574  1.00  0.00     0.284 C 
ATOM     15  H   UNL A   1      29.329  27.363  22.190  1.00  0.00     0.349 HD
BRANCH  10  16
ATOM     16  C   UNL A   1      32.883  23.977  23.984  1.00  0.00     0.129 A 
ATOM     17  C   UNL A   1      33.253  22.606  27.465  1.00  0.00     0.045 C 
ATOM     18  C   UNL A   1      33.573  22.918  26.034  1.00  0.00    -0.038 A 
ATOM     19  C   UNL A   1      32.623  23.606  25.295  1.00  0.00     0.051 A 
ATOM     20  C   UNL A   1      34.779  22.567  25.402  1.00  0.00     0.003 A 
ATOM     21  C   UNL A   1      34.970  22.989  24.063  1.00  0.00     0.073 A 
ATOM     22  C   UNL A   1      35.792  21.828  26.049  1.00  0.00     0.010 A 
ATOM     23  N   UNL A   1      34.035  23.668  23.367  1.00  0.00    -0.231 NA
ATOM     24  C   UNL A   1      36.187  22.705  23.452  1.00  0.00     0.029 A 
ATOM     25  C   UNL A   1      36.990  21.536  25.402  1.00  0.00     0.001 A 
ATOM     26  C   UNL A   1      37.195  21.989  24.106  1.00  0.00     0.002 A 
ENDBRANCH  10  16
ENDBRANCH   8   9
BRANCH   8  27
ATOM     27  C   UNL A   1      28.896  29.057  23.604  1.00  0.00     0.044 A 
ATOM     28  C   UNL A   1      27.696  28.500  23.146  1.00  0.00     0.094 A 
ATOM     29  C   UNL A   1      28.656  30.469  23.369  1.00  0.00     0.009 A 
ATOM     30  N   UNL A   1      27.542  29.186  21.947  1.00  0.00    -0.361 N 
ATOM     31  C   UNL A   1      27.959  30.486  22.150  1.00  0.00     0.046 A 
ATOM     32  C   UNL A   1      29.118  31.706  23.865  1.00  0.00     0.011 A 
ATOM     33  H   UNL A   1      27.197  28.812  21.105  1.00  0.00     0.166 HD
ATOM     34  C   UNL A   1      27.937  31.597  21.295  1.00  0.00     0.026 A 
ATOM     35  C   UNL A   1      28.954  32.868  23.089  1.00  0.00     0.001 A 
ATOM     36  C   UNL A   1      28.451  32.794  21.791  1.00  0.00     0.002 A 
ENDBRANCH   8  27
ENDBRANCH   5   8
ENDBRANCH   3   4
ENDBRANCH   2   3
ENDBRANCH   1   2
BRANCH   1  37
ATOM     37  C   UNL A   1      32.740  32.405  26.885  1.00  0.00     0.116 C 
BRANCH  37  38
ATOM     38  N   UNL A   1      32.540  33.747  27.414  1.00  0.00    -0.352 N 
ATOM     39  C   UNL A   1      33.186  34.369  28.462  1.00  0.00     0.251 C 
ATOM     40  H   UNL A   1      31.850  34.284  26.961  1.00  0.00     0.163 HD
ATOM     41  O   UNL A   1      32.754  35.425  28.897  1.00  0.00    -0.269 OA
BRANCH  39  42
ATOM     42  C   UNL A   1      34.379  33.731  29.070  1.00  0.00     0.039 A 
ATOM     43  C   UNL A   1      35.637  34.307  28.872  1.00  0.00     0.014 A 
ATOM     44  C   UNL A   1      34.260  32.569  29.836  1.00  0.00     0.014 A 
ATOM     45  C   UNL A   1      36.759  33.744  29.483  1.00  0.00     0.010 A 
ATOM     46  C   UNL A   1      35.353  32.079  30.535  1.00  0.00     0.010 A 
ATOM     47  C   UNL A   1      36.621  32.643  30.345  1.00  0.00    -0.014 A 
BRANCH  47  48
ATOM     48  C   UNL A   1      37.791  32.028  31.018  1.00  0.00     0.031 A 
ATOM     49  C   UNL A   1      38.610  30.999  30.280  1.00  0.00     0.074 A 
ATOM     50  C   UNL A   1      38.069  32.347  32.297  1.00  0.00     0.049 A 
ATOM     51  N   UNL A   1      39.615  30.280  30.708  1.00  0.00    -0.248 NA
ATOM     52  C   UNL A   1      38.225  30.715  28.887  1.00  0.00     0.031 C 
ATOM     53  C   UNL A   1      37.307  33.294  33.117  1.00  0.00     0.029 A 
ATOM     54  N   UNL A   1      39.061  31.910  33.137  1.00  0.00    -0.354 N 
ATOM     55  C   UNL A   1      39.962  29.447  29.649  1.00  0.00     0.074 A 
ATOM     56  C   UNL A   1      39.022  29.703  28.582  1.00  0.00     0.031 C 
ATOM     57  C   UNL A   1      37.880  33.388  34.327  1.00  0.00     0.029 A 
ATOM     58  C   UNL A   1      39.013  32.473  34.393  1.00  0.00     0.049 A 
ATOM     59  H   UNL A   1      39.744  31.255  32.867  1.00  0.00     0.167 HD
ATOM     60  C   UNL A   1      40.989  28.568  29.568  1.00  0.00     0.034 A 
ATOM     61  C   UNL A   1      39.788  32.260  35.474  1.00  0.00     0.034 A 
ATOM     62  C   UNL A   1      41.933  28.355  30.636  1.00  0.00     0.049 A 
ATOM     63  C   UNL A   1      40.924  31.270  35.356  1.00  0.00     0.074 A 
ATOM     64  C   UNL A   1      43.053  27.543  30.646  1.00  0.00     0.029 A 
ATOM     65  N   UNL A   1      41.864  28.954  31.887  1.00  0.00    -0.354 N 
ATOM     66  N   UNL A   1      41.279  30.540  34.322  1.00  0.00    -0.248 NA
ATOM     67  C   UNL A   1      41.772  31.088  36.540  1.00  0.00     0.031 C 
ATOM     68  C   UNL A   1      43.614  27.592  31.924  1.00  0.00     0.029 A 
ATOM     69  C   UNL A   1      42.902  28.505  32.686  1.00  0.00     0.049 A 
ATOM     70  H   UNL A   1      41.178  29.604  32.165  1.00  0.00     0.167 HD
ATOM     71  C   UNL A   1      42.414  29.840  34.725  1.00  0.00     0.074 A 
ATOM     72  C   UNL A   1      42.694  30.254  36.084  1.00  0.00     0.031 C 
ATOM     73  C   UNL A   1      43.160  28.936  34.039  1.00  0.00     0.034 A 
BRANCH  60  74
ATOM     74  C   UNL A   1      41.135  27.763  28.300  1.00  0.00     0.023 A 
ATOM     75  C   UNL A   1      40.766  26.408  28.231  1.00  0.00     0.031 A 
ATOM     76  C   UNL A   1      41.646  28.365  27.136  1.00  0.00     0.131 A 
ATOM     77  C   UNL A   1      40.963  25.687  27.043  1.00  0.00     0.055 A 
ATOM     78  C   UNL A   1      41.766  27.662  25.935  1.00  0.00     0.041 A 
ATOM     79  F   UNL A   1      42.041  29.648  27.146  1.00  0.00    -0.206 F 
ATOM     80  C   UNL A   1      41.434  26.312  25.886  1.00  0.00     0.022 A 
BRANCH  77  81
ATOM     81  S   UNL A   1      40.706  23.892  27.063  1.00  0.00     0.124 S 
ATOM     82  O   UNL A   1      41.622  23.451  26.013  1.00  0.00    -0.237 OA
ATOM     83  O   UNL A   1      41.078  23.533  28.426  1.00  0.00    -0.237 OA
ATOM     84  O   UNL A   1      39.288  23.745  26.744  1.00  0.00    -0.744 OA
ENDBRANCH  77  81
ENDBRANCH  60  74
BRANCH  61  85
ATOM     85  C   UNL A   1      39.525  32.970  36.761  1.00  0.00     0.023 A 
ATOM     86  C   UNL A   1      38.664  32.423  37.726  1.00  0.00     0.031 A 
ATOM     87  C   UNL A   1      40.070  34.241  37.017  1.00  0.00     0.131 A 
ATOM     88  C   UNL A   1      38.315  33.171  38.861  1.00  0.00     0.055 A 
ATOM     89  C   UNL A   1      39.775  34.953  38.183  1.00  0.00     0.041 A 
ATOM     90  F   UNL A   1      40.905  34.815  36.135  1.00  0.00    -0.206 F 
ATOM     91  C   UNL A   1      38.875  34.427  39.104  1.00  0.00     0.022 A 
BRANCH  88  92
ATOM     92  S   UNL A   1      37.008  32.535  39.949  1.00  0.00     0.124 S 
ATOM     93  O   UNL A   1      35.839  32.605  39.080  1.00  0.00    -0.237 OA
ATOM     94  O   UNL A   1      37.500  31.197  40.258  1.00  0.00    -0.237 OA
ATOM     95  O   UNL A   1      37.013  33.474  41.068  1.00  0.00    -0.744 OA
ENDBRANCH  88  92
ENDBRANCH  61  85
BRANCH  73  96
ATOM     96  C   UNL A   1      44.380  28.385  34.734  1.00  0.00     0.023 A 
ATOM     97  C   UNL A   1      44.329  27.206  35.495  1.00  0.00     0.031 A 
ATOM     98  C   UNL A   1      45.612  29.056  34.631  1.00  0.00     0.131 A 
ATOM     99  C   UNL A   1      45.473  26.768  36.178  1.00  0.00     0.055 A 
ATOM    100  C   UNL A   1      46.764  28.574  35.252  1.00  0.00     0.041 A 
ATOM    101  F   UNL A   1      45.717  30.188  33.917  1.00  0.00    -0.206 F 
ATOM    102  C   UNL A   1      46.695  27.432  36.043  1.00  0.00     0.022 A 
BRANCH  99 103
ATOM    103  S   UNL A   1      45.317  25.375  37.328  1.00  0.00     0.124 S 
ATOM    104  O   UNL A   1      43.923  24.986  37.144  1.00  0.00    -0.237 OA
ATOM    105  O   UNL A   1      46.312  24.437  36.820  1.00  0.00    -0.237 OA
ATOM    106  O   UNL A   1      45.629  25.968  38.627  1.00  0.00    -0.744 OA
ENDBRANCH  99 103
ENDBRANCH  73  96
ENDBRANCH  47  48
ENDBRANCH  39  42
ENDBRANCH  37  38
ENDBRANCH   1  37
TORSDOF 17
ENDMDL
