MODEL 1
REMARK VINA RESULT:     -11.5      0.000      0.000
REMARK SMILES CCc1ccc(OCC(=O)Nc2cc(C)c(O)c(C(=O)NCCCCNC(=O)c3ccc(-c4c5nc(c(-c6cc(S(=O)(=O)[O-])ccc6F)c6ccc([nH]6)c(-c6cc(S(=O)(=O)[O-])ccc6F)c6nc(c(-c7cc(S(=O)(=O)[O-])ccc7F)c7ccc4[nH]7)C=C6)C=C5)cc3)c2)cc1
REMARK SMILES IDX 22 1 21 2 19 3 20 4 18 6 12 7 13 8 92 9 14 10 15 11 16 12
REMARK SMILES IDX 11 13 9 14 10 15 8 17 7 18 6 19 3 20 4 21 94 22 5 23 93 24
REMARK SMILES IDX 2 25 1 26 17 27 23 29 24 30 25 31 26 32 27 33 28 35 29 36
REMARK SMILES IDX 30 37 91 38 31 39 90 40 32 41 33 42 34 43 84 44 35 45 89 46
REMARK SMILES IDX 83 47 85 48 36 49 88 50 82 51 81 52 37 54 69 55 49 56 68 57
REMARK SMILES IDX 50 58 53 59 67 60 86 61 51 62 52 63 66 65 87 66 54 67 38 68
REMARK SMILES IDX 39 69 47 70 40 71 46 72 48 73 45 74 41 75 42 76 43 77 44 78
REMARK SMILES IDX 70 79 71 80 79 81 72 82 78 83 80 84 77 85 73 86 74 87 75 88
REMARK SMILES IDX 76 89 55 90 56 91 64 92 57 93 63 94 65 95 62 96 58 97 59 98
REMARK SMILES IDX 60 99 61 100
REMARK H PARENT 21 5 11 16 17 28 26 34 85 53 53 64
REMARK Flexibility Score: inf
ROOT
ATOM      1  C   UNL A   1      30.959  26.876  26.148  1.00  0.00     0.116 C 
ENDROOT
BRANCH   1   2
ATOM      2  N   UNL A   1      30.615  25.596  26.695  1.00  0.00    -0.352 N 
ATOM      3  C   UNL A   1      31.287  24.403  26.555  1.00  0.00     0.255 C 
ATOM      4  O   UNL A   1      30.812  23.407  27.108  1.00  0.00    -0.269 OA
ATOM      5  H   UNL A   1      29.795  25.567  27.240  1.00  0.00     0.163 HD
BRANCH   3   6
ATOM      6  C   UNL A   1      32.491  24.206  25.673  1.00  0.00     0.083 A 
ATOM      7  C   UNL A   1      34.890  24.170  25.185  1.00  0.00     0.042 A 
ATOM      8  C   UNL A   1      34.574  23.948  23.833  1.00  0.00     0.033 A 
ATOM      9  C   UNL A   1      33.842  24.256  26.114  1.00  0.00     0.043 A 
ATOM     10  C   UNL A   1      33.258  23.804  23.382  1.00  0.00    -0.006 A 
ATOM     11  C   UNL A   1      33.025  23.487  21.932  1.00  0.00     0.048 C 
ATOM     12  C   UNL A   1      32.224  23.939  24.308  1.00  0.00     0.131 A 
BRANCH   7  13
ATOM     13  N   UNL A   1      36.269  24.349  25.414  1.00  0.00    -0.323 N 
ATOM     14  C   UNL A   1      37.317  23.635  25.903  1.00  0.00     0.262 C 
ATOM     15  O   UNL A   1      38.390  24.243  26.023  1.00  0.00    -0.271 OA
ATOM     16  H   UNL A   1      36.556  25.250  25.139  1.00  0.00     0.170 HD
BRANCH  14  17
ATOM     17  C   UNL A   1      37.262  22.145  26.184  1.00  0.00     0.329 C 
BRANCH  17  18
ATOM     18  O   UNL A   1      37.225  21.263  25.091  1.00  0.00    -0.484 OA
BRANCH  18  19
ATOM     19  C   UNL A   1      36.237  20.325  25.045  1.00  0.00     0.120 A 
ATOM     20  C   UNL A   1      33.862  18.877  24.554  1.00  0.00    -0.048 A 
ATOM     21  C   UNL A   1      33.812  20.192  24.991  1.00  0.00     0.007 A 
ATOM     22  C   UNL A   1      35.126  18.267  24.447  1.00  0.00     0.007 A 
ATOM     23  C   UNL A   1      34.987  20.878  25.233  1.00  0.00     0.047 A 
ATOM     24  C   UNL A   1      36.319  18.991  24.694  1.00  0.00     0.047 A 
BRANCH  20  25
ATOM     25  C   UNL A   1      32.550  18.304  24.082  1.00  0.00     0.032 C 
ATOM     26  C   UNL A   1      32.527  17.640  22.723  1.00  0.00     0.009 C 
ENDBRANCH  20  25
ENDBRANCH  18  19
ENDBRANCH  17  18
ENDBRANCH  14  17
ENDBRANCH   7  13
BRANCH  12  27
ATOM     27  O   UNL A   1      30.946  23.808  23.820  1.00  0.00    -0.507 OA
ATOM     28  H   UNL A   1      30.686  24.281  23.054  1.00  0.00     0.293 HD
ENDBRANCH  12  27
ENDBRANCH   3   6
ENDBRANCH   1   2
BRANCH   1  29
ATOM     29  C   UNL A   1      31.952  27.731  26.934  1.00  0.00     0.023 C 
BRANCH  29  30
ATOM     30  C   UNL A   1      33.304  28.118  26.310  1.00  0.00     0.023 C 
BRANCH  30  31
ATOM     31  C   UNL A   1      33.525  29.497  25.684  1.00  0.00     0.116 C 
BRANCH  31  32
ATOM     32  N   UNL A   1      33.109  30.645  26.485  1.00  0.00    -0.352 N 
ATOM     33  C   UNL A   1      33.735  31.336  27.507  1.00  0.00     0.251 C 
ATOM     34  H   UNL A   1      32.217  30.993  26.254  1.00  0.00     0.163 HD
ATOM     35  O   UNL A   1      33.146  32.220  28.109  1.00  0.00    -0.269 OA
BRANCH  33  36
ATOM     36  C   UNL A   1      35.122  31.002  27.888  1.00  0.00     0.039 A 
ATOM     37  C   UNL A   1      36.107  31.994  27.874  1.00  0.00     0.014 A 
ATOM     38  C   UNL A   1      35.440  29.704  28.275  1.00  0.00     0.014 A 
ATOM     39  C   UNL A   1      37.375  31.711  28.388  1.00  0.00     0.010 A 
ATOM     40  C   UNL A   1      36.653  29.458  28.895  1.00  0.00     0.010 A 
ATOM     41  C   UNL A   1      37.628  30.463  28.973  1.00  0.00    -0.014 A 
BRANCH  41  42
ATOM     42  C   UNL A   1      38.886  30.153  29.699  1.00  0.00     0.031 A 
ATOM     43  C   UNL A   1      39.812  29.106  29.145  1.00  0.00     0.074 A 
ATOM     44  C   UNL A   1      39.099  30.691  30.916  1.00  0.00     0.049 A 
ATOM     45  N   UNL A   1      40.816  28.498  29.720  1.00  0.00    -0.248 NA
ATOM     46  C   UNL A   1      39.525  28.638  27.780  1.00  0.00     0.031 C 
ATOM     47  C   UNL A   1      38.235  31.678  31.572  1.00  0.00     0.029 A 
ATOM     48  N   UNL A   1      40.090  30.463  31.836  1.00  0.00    -0.354 N 
ATOM     49  C   UNL A   1      41.253  27.548  28.803  1.00  0.00     0.074 A 
ATOM     50  C   UNL A   1      40.361  27.619  27.665  1.00  0.00     0.031 C 
ATOM     51  C   UNL A   1      38.744  31.981  32.776  1.00  0.00     0.029 A 
ATOM     52  C   UNL A   1      39.933  31.171  33.007  1.00  0.00     0.049 A 
ATOM     53  H   UNL A   1      40.844  29.849  31.674  1.00  0.00     0.167 HD
ATOM     54  C   UNL A   1      42.316  26.710  28.895  1.00  0.00     0.034 A 
ATOM     55  C   UNL A   1      40.654  31.148  34.145  1.00  0.00     0.034 A 
ATOM     56  C   UNL A   1      43.205  26.689  30.031  1.00  0.00     0.049 A 
ATOM     57  C   UNL A   1      41.841  30.221  34.221  1.00  0.00     0.074 A 
ATOM     58  C   UNL A   1      44.349  25.935  30.219  1.00  0.00     0.029 A 
ATOM     59  N   UNL A   1      43.046  27.463  31.175  1.00  0.00    -0.354 N 
ATOM     60  N   UNL A   1      42.269  29.354  33.331  1.00  0.00    -0.248 NA
ATOM     61  C   UNL A   1      42.646  30.273  35.447  1.00  0.00     0.031 C 
ATOM     62  C   UNL A   1      44.850  26.211  31.495  1.00  0.00     0.029 A 
ATOM     63  C   UNL A   1      44.061  27.192  32.078  1.00  0.00     0.049 A 
ATOM     64  H   UNL A   1      42.318  28.109  31.322  1.00  0.00     0.167 HD
ATOM     65  C   UNL A   1      43.415  28.786  33.877  1.00  0.00     0.074 A 
ATOM     66  C   UNL A   1      43.614  29.414  35.168  1.00  0.00     0.031 C 
ATOM     67  C   UNL A   1      44.236  27.836  33.358  1.00  0.00     0.034 A 
BRANCH  54  68
ATOM     68  C   UNL A   1      42.549  25.751  27.751  1.00  0.00     0.023 A 
ATOM     69  C   UNL A   1      41.960  24.475  27.726  1.00  0.00     0.031 A 
ATOM     70  C   UNL A   1      43.409  26.095  26.694  1.00  0.00     0.131 A 
ATOM     71  C   UNL A   1      42.310  23.558  26.724  1.00  0.00     0.055 A 
ATOM     72  C   UNL A   1      43.680  25.211  25.646  1.00  0.00     0.041 A 
ATOM     73  F   UNL A   1      44.020  27.290  26.668  1.00  0.00    -0.206 F 
ATOM     74  C   UNL A   1      43.145  23.926  25.668  1.00  0.00     0.022 A 
BRANCH  71  75
ATOM     75  S   UNL A   1      41.786  21.832  26.912  1.00  0.00     0.124 S 
ATOM     76  O   UNL A   1      42.730  21.347  27.917  1.00  0.00    -0.237 OA
ATOM     77  O   UNL A   1      40.402  21.968  27.349  1.00  0.00    -0.237 OA
ATOM     78  O   UNL A   1      41.967  21.271  25.574  1.00  0.00    -0.744 OA
ENDBRANCH  71  75
ENDBRANCH  54  68
BRANCH  55  79
ATOM     79  C   UNL A   1      40.285  32.021  35.295  1.00  0.00     0.023 A 
ATOM     80  C   UNL A   1      39.302  31.620  36.214  1.00  0.00     0.031 A 
ATOM     81  C   UNL A   1      40.888  33.278  35.484  1.00  0.00     0.131 A 
ATOM     82  C   UNL A   1      38.917  32.484  37.251  1.00  0.00     0.055 A 
ATOM     83  C   UNL A   1      40.538  34.112  36.549  1.00  0.00     0.041 A 
ATOM     84  F   UNL A   1      41.842  33.708  34.643  1.00  0.00    -0.206 F 
ATOM     85  C   UNL A   1      39.537  33.722  37.433  1.00  0.00     0.022 A 
BRANCH  82  86
ATOM     86  S   UNL A   1      37.530  31.996  38.315  1.00  0.00     0.124 S 
ATOM     87  O   UNL A   1      38.100  32.175  39.645  1.00  0.00    -0.237 OA
ATOM     88  O   UNL A   1      36.499  32.951  37.924  1.00  0.00    -0.237 OA
ATOM     89  O   UNL A   1      37.276  30.610  37.927  1.00  0.00    -0.744 OA
ENDBRANCH  82  86
ENDBRANCH  55  79
BRANCH  67  90
ATOM     90  C   UNL A   1      45.454  27.471  34.166  1.00  0.00     0.023 A 
ATOM     91  C   UNL A   1      45.437  26.424  35.102  1.00  0.00     0.031 A 
ATOM     92  C   UNL A   1      46.653  28.183  33.986  1.00  0.00     0.131 A 
ATOM     93  C   UNL A   1      46.585  26.147  35.857  1.00  0.00     0.055 A 
ATOM     94  C   UNL A   1      47.809  27.865  34.698  1.00  0.00     0.041 A 
ATOM     95  F   UNL A   1      46.722  29.194  33.105  1.00  0.00    -0.206 F 
ATOM     96  C   UNL A   1      47.776  26.848  35.649  1.00  0.00     0.022 A 
BRANCH  93  97
ATOM     97  S   UNL A   1      46.482  24.906  37.174  1.00  0.00     0.124 S 
ATOM     98  O   UNL A   1      45.140  24.366  36.978  1.00  0.00    -0.237 OA
ATOM     99  O   UNL A   1      47.583  24.007  36.845  1.00  0.00    -0.237 OA
ATOM    100  O   UNL A   1      46.664  25.685  38.397  1.00  0.00    -0.744 OA
ENDBRANCH  93  97
ENDBRANCH  67  90
ENDBRANCH  41  42
ENDBRANCH  33  36
ENDBRANCH  31  32
ENDBRANCH  30  31
ENDBRANCH  29  30
ENDBRANCH   1  29
TORSDOF 20
ENDMDL
MODEL 2
REMARK VINA RESULT:     -10.9      1.752      7.400
REMARK SMILES CCc1ccc(OCC(=O)Nc2cc(C)c(O)c(C(=O)NCCCCNC(=O)c3ccc(-c4c5nc(c(-c6cc(S(=O)(=O)[O-])ccc6F)c6ccc([nH]6)c(-c6cc(S(=O)(=O)[O-])ccc6F)c6nc(c(-c7cc(S(=O)(=O)[O-])ccc7F)c7ccc4[nH]7)C=C6)C=C5)cc3)c2)cc1
REMARK SMILES IDX 22 1 21 2 19 3 20 4 18 6 12 7 13 8 92 9 14 10 15 11 16 12
REMARK SMILES IDX 11 13 9 14 10 15 8 17 7 18 6 19 3 20 4 21 94 22 5 23 93 24
REMARK SMILES IDX 2 25 1 26 17 27 23 29 24 30 25 31 26 32 27 33 28 35 29 36
REMARK SMILES IDX 30 37 91 38 31 39 90 40 32 41 33 42 34 43 84 44 35 45 89 46
REMARK SMILES IDX 83 47 85 48 36 49 88 50 82 51 81 52 37 54 69 55 49 56 68 57
REMARK SMILES IDX 50 58 53 59 67 60 86 61 51 62 52 63 66 65 87 66 54 67 38 68
REMARK SMILES IDX 39 69 47 70 40 71 46 72 48 73 45 74 41 75 42 76 43 77 44 78
REMARK SMILES IDX 70 79 71 80 79 81 72 82 78 83 80 84 77 85 73 86 74 87 75 88
REMARK SMILES IDX 76 89 55 90 56 91 64 92 57 93 63 94 65 95 62 96 58 97 59 98
REMARK SMILES IDX 60 99 61 100
REMARK H PARENT 21 5 11 16 17 28 26 34 85 53 53 64
REMARK Flexibility Score: inf
ROOT
ATOM      1  C   UNL A   1      31.021  27.353  26.328  1.00  0.00     0.116 C 
ENDROOT
BRANCH   1   2
ATOM      2  N   UNL A   1      30.589  26.053  26.753  1.00  0.00    -0.352 N 
ATOM      3  C   UNL A   1      31.179  24.835  26.495  1.00  0.00     0.255 C 
ATOM      4  O   UNL A   1      30.636  23.826  26.953  1.00  0.00    -0.269 OA
ATOM      5  H   UNL A   1      29.769  26.028  27.297  1.00  0.00     0.163 HD
BRANCH   3   6
ATOM      6  C   UNL A   1      32.366  24.642  25.591  1.00  0.00     0.083 A 
ATOM      7  C   UNL A   1      34.755  24.425  25.096  1.00  0.00     0.042 A 
ATOM      8  C   UNL A   1      34.434  24.434  23.727  1.00  0.00     0.033 A 
ATOM      9  C   UNL A   1      33.710  24.486  26.030  1.00  0.00     0.043 A 
ATOM     10  C   UNL A   1      33.116  24.496  23.263  1.00  0.00    -0.006 A 
ATOM     11  C   UNL A   1      32.870  24.416  21.783  1.00  0.00     0.048 C 
ATOM     12  C   UNL A   1      32.090  24.604  24.202  1.00  0.00     0.131 A 
BRANCH   7  13
ATOM     13  N   UNL A   1      36.141  24.423  25.345  1.00  0.00    -0.323 N 
ATOM     14  C   UNL A   1      37.076  23.592  25.877  1.00  0.00     0.262 C 
ATOM     15  O   UNL A   1      38.220  24.053  25.997  1.00  0.00    -0.271 OA
ATOM     16  H   UNL A   1      36.552  25.267  25.047  1.00  0.00     0.170 HD
BRANCH  14  17
ATOM     17  C   UNL A   1      36.815  22.134  26.205  1.00  0.00     0.329 C 
BRANCH  17  18
ATOM     18  O   UNL A   1      36.948  21.186  25.177  1.00  0.00    -0.484 OA
BRANCH  18  19
ATOM     19  C   UNL A   1      35.991  20.224  25.052  1.00  0.00     0.120 A 
ATOM     20  C   UNL A   1      33.709  18.710  24.360  1.00  0.00    -0.048 A 
ATOM     21  C   UNL A   1      33.586  20.029  24.771  1.00  0.00     0.007 A 
ATOM     22  C   UNL A   1      34.991  18.131  24.381  1.00  0.00     0.007 A 
ATOM     23  C   UNL A   1      34.717  20.747  25.112  1.00  0.00     0.047 A 
ATOM     24  C   UNL A   1      36.138  18.887  24.729  1.00  0.00     0.047 A 
BRANCH  20  25
ATOM     25  C   UNL A   1      32.462  18.098  23.775  1.00  0.00     0.032 C 
ATOM     26  C   UNL A   1      32.340  18.067  22.267  1.00  0.00     0.009 C 
ENDBRANCH  20  25
ENDBRANCH  18  19
ENDBRANCH  17  18
ENDBRANCH  14  17
ENDBRANCH   7  13
BRANCH  12  27
ATOM     27  O   UNL A   1      30.812  24.679  23.703  1.00  0.00    -0.507 OA
ATOM     28  H   UNL A   1      30.612  25.282  23.015  1.00  0.00     0.293 HD
ENDBRANCH  12  27
ENDBRANCH   3   6
ENDBRANCH   1   2
BRANCH   1  29
ATOM     29  C   UNL A   1      32.127  28.025  27.140  1.00  0.00     0.023 C 
BRANCH  29  30
ATOM     30  C   UNL A   1      33.530  28.203  26.536  1.00  0.00     0.023 C 
BRANCH  30  31
ATOM     31  C   UNL A   1      33.929  29.494  25.818  1.00  0.00     0.116 C 
BRANCH  31  32
ATOM     32  N   UNL A   1      33.627  30.742  26.515  1.00  0.00    -0.352 N 
ATOM     33  C   UNL A   1      34.248  31.385  27.572  1.00  0.00     0.251 C 
ATOM     34  H   UNL A   1      32.836  31.214  26.169  1.00  0.00     0.163 HD
ATOM     35  O   UNL A   1      33.754  32.388  28.064  1.00  0.00    -0.269 OA
BRANCH  33  36
ATOM     36  C   UNL A   1      35.511  30.857  28.124  1.00  0.00     0.039 A 
ATOM     37  C   UNL A   1      36.672  31.635  28.078  1.00  0.00     0.014 A 
ATOM     38  C   UNL A   1      35.539  29.592  28.701  1.00  0.00     0.014 A 
ATOM     39  C   UNL A   1      37.820  31.198  28.743  1.00  0.00     0.010 A 
ATOM     40  C   UNL A   1      36.633  29.215  29.461  1.00  0.00     0.010 A 
ATOM     41  C   UNL A   1      37.780  30.021  29.504  1.00  0.00    -0.014 A 
BRANCH  41  42
ATOM     42  C   UNL A   1      38.898  29.590  30.381  1.00  0.00     0.031 A 
ATOM     43  C   UNL A   1      39.029  30.195  31.751  1.00  0.00     0.074 A 
ATOM     44  C   UNL A   1      39.863  28.793  29.881  1.00  0.00     0.049 A 
ATOM     45  N   UNL A   1      40.042  30.167  32.578  1.00  0.00    -0.248 NA
ATOM     46  C   UNL A   1      37.886  30.992  32.224  1.00  0.00     0.031 C 
ATOM     47  C   UNL A   1      39.862  28.193  28.543  1.00  0.00     0.029 A 
ATOM     48  N   UNL A   1      41.050  28.373  30.426  1.00  0.00    -0.354 N 
ATOM     49  C   UNL A   1      39.673  30.976  33.648  1.00  0.00     0.074 A 
ATOM     50  C   UNL A   1      38.375  31.530  33.330  1.00  0.00     0.031 C 
ATOM     51  C   UNL A   1      40.982  27.471  28.381  1.00  0.00     0.029 A 
ATOM     52  C   UNL A   1      41.809  27.602  29.573  1.00  0.00     0.049 A 
ATOM     53  H   UNL A   1      41.333  28.602  31.341  1.00  0.00     0.167 HD
ATOM     54  C   UNL A   1      40.350  31.213  34.799  1.00  0.00     0.034 A 
ATOM     55  C   UNL A   1      43.042  27.083  29.729  1.00  0.00     0.034 A 
ATOM     56  C   UNL A   1      41.629  30.618  35.098  1.00  0.00     0.049 A 
ATOM     57  C   UNL A   1      43.771  27.347  31.023  1.00  0.00     0.074 A 
ATOM     58  C   UNL A   1      42.386  30.728  36.250  1.00  0.00     0.029 A 
ATOM     59  N   UNL A   1      42.341  29.795  34.231  1.00  0.00    -0.354 N 
ATOM     60  N   UNL A   1      43.396  28.081  32.045  1.00  0.00    -0.248 NA
ATOM     61  C   UNL A   1      45.081  26.707  31.188  1.00  0.00     0.031 C 
ATOM     62  C   UNL A   1      43.577  30.020  36.060  1.00  0.00     0.029 A 
ATOM     63  C   UNL A   1      43.534  29.406  34.817  1.00  0.00     0.049 A 
ATOM     64  H   UNL A   1      42.041  29.529  33.333  1.00  0.00     0.167 HD
ATOM     65  C   UNL A   1      44.409  27.960  32.990  1.00  0.00     0.074 A 
ATOM     66  C   UNL A   1      45.406  27.077  32.417  1.00  0.00     0.031 C 
ATOM     67  C   UNL A   1      44.508  28.521  34.223  1.00  0.00     0.034 A 
BRANCH  54  68
ATOM     68  C   UNL A   1      39.723  32.164  35.792  1.00  0.00     0.023 A 
ATOM     69  C   UNL A   1      38.962  31.699  36.879  1.00  0.00     0.031 A 
ATOM     70  C   UNL A   1      39.846  33.555  35.627  1.00  0.00     0.131 A 
ATOM     71  C   UNL A   1      38.278  32.610  37.698  1.00  0.00     0.055 A 
ATOM     72  C   UNL A   1      39.238  34.458  36.503  1.00  0.00     0.041 A 
ATOM     73  F   UNL A   1      40.541  34.064  34.598  1.00  0.00    -0.206 F 
ATOM     74  C   UNL A   1      38.432  33.986  37.535  1.00  0.00     0.022 A 
BRANCH  71  75
ATOM     75  S   UNL A   1      37.057  31.962  38.874  1.00  0.00     0.124 S 
ATOM     76  O   UNL A   1      37.721  32.210  40.152  1.00  0.00    -0.237 OA
ATOM     77  O   UNL A   1      35.884  32.782  38.594  1.00  0.00    -0.237 OA
ATOM     78  O   UNL A   1      36.939  30.553  38.504  1.00  0.00    -0.744 OA
ENDBRANCH  71  75
ENDBRANCH  54  68
BRANCH  55  79
ATOM     79  C   UNL A   1      43.664  26.267  28.648  1.00  0.00     0.023 A 
ATOM     80  C   UNL A   1      44.547  26.850  27.725  1.00  0.00     0.031 A 
ATOM     81  C   UNL A   1      43.372  24.898  28.503  1.00  0.00     0.131 A 
ATOM     82  C   UNL A   1      45.070  26.084  26.672  1.00  0.00     0.055 A 
ATOM     83  C   UNL A   1      43.937  24.127  27.484  1.00  0.00     0.041 A 
ATOM     84  F   UNL A   1      42.544  24.285  29.363  1.00  0.00    -0.206 F 
ATOM     85  C   UNL A   1      44.781  24.723  26.552  1.00  0.00     0.022 A 
BRANCH  82  86
ATOM     86  S   UNL A   1      46.072  26.916  25.410  1.00  0.00     0.124 S 
ATOM     87  O   UNL A   1      45.171  27.973  24.965  1.00  0.00    -0.237 OA
ATOM     88  O   UNL A   1      47.234  27.344  26.180  1.00  0.00    -0.237 OA
ATOM     89  O   UNL A   1      46.328  25.862  24.431  1.00  0.00    -0.744 OA
ENDBRANCH  82  86
ENDBRANCH  55  79
BRANCH  67  90
ATOM     90  C   UNL A   1      45.707  28.141  35.052  1.00  0.00     0.023 A 
ATOM     91  C   UNL A   1      45.705  27.012  35.888  1.00  0.00     0.031 A 
ATOM     92  C   UNL A   1      46.874  28.924  34.995  1.00  0.00     0.131 A 
ATOM     93  C   UNL A   1      46.832  26.721  36.668  1.00  0.00     0.055 A 
ATOM     94  C   UNL A   1      48.013  28.597  35.729  1.00  0.00     0.041 A 
ATOM     95  F   UNL A   1      46.927  30.014  34.213  1.00  0.00    -0.206 F 
ATOM     96  C   UNL A   1      47.993  27.496  36.581  1.00  0.00     0.022 A 
BRANCH  93  97
ATOM     97  S   UNL A   1      46.738  25.360  37.861  1.00  0.00     0.124 S 
ATOM     98  O   UNL A   1      45.632  24.569  37.332  1.00  0.00    -0.237 OA
ATOM     99  O   UNL A   1      48.062  24.756  37.752  1.00  0.00    -0.237 OA
ATOM    100  O   UNL A   1      46.468  26.032  39.130  1.00  0.00    -0.744 OA
ENDBRANCH  93  97
ENDBRANCH  67  90
ENDBRANCH  41  42
ENDBRANCH  33  36
ENDBRANCH  31  32
ENDBRANCH  30  31
ENDBRANCH  29  30
ENDBRANCH   1  29
TORSDOF 20
ENDMDL
MODEL 3
REMARK VINA RESULT:     -10.7      5.893      9.271
REMARK SMILES CCc1ccc(OCC(=O)Nc2cc(C)c(O)c(C(=O)NCCCCNC(=O)c3ccc(-c4c5nc(c(-c6cc(S(=O)(=O)[O-])ccc6F)c6ccc([nH]6)c(-c6cc(S(=O)(=O)[O-])ccc6F)c6nc(c(-c7cc(S(=O)(=O)[O-])ccc7F)c7ccc4[nH]7)C=C6)C=C5)cc3)c2)cc1
REMARK SMILES IDX 22 1 21 2 19 3 20 4 18 6 12 7 13 8 92 9 14 10 15 11 16 12
REMARK SMILES IDX 11 13 9 14 10 15 8 17 7 18 6 19 3 20 4 21 94 22 5 23 93 24
REMARK SMILES IDX 2 25 1 26 17 27 23 29 24 30 25 31 26 32 27 33 28 35 29 36
REMARK SMILES IDX 30 37 91 38 31 39 90 40 32 41 33 42 34 43 84 44 35 45 89 46
REMARK SMILES IDX 83 47 85 48 36 49 88 50 82 51 81 52 37 54 69 55 49 56 68 57
REMARK SMILES IDX 50 58 53 59 67 60 86 61 51 62 52 63 66 65 87 66 54 67 38 68
REMARK SMILES IDX 39 69 47 70 40 71 46 72 48 73 45 74 41 75 42 76 43 77 44 78
REMARK SMILES IDX 70 79 71 80 79 81 72 82 78 83 80 84 77 85 73 86 74 87 75 88
REMARK SMILES IDX 76 89 55 90 56 91 64 92 57 93 63 94 65 95 62 96 58 97 59 98
REMARK SMILES IDX 60 99 61 100
REMARK H PARENT 21 5 11 16 17 28 26 34 85 53 53 64
REMARK Flexibility Score: inf
ROOT
ATOM      1  C   UNL A   1      37.881  22.716  26.041  1.00  0.00     0.116 C 
ENDROOT
BRANCH   1   2
ATOM      2  N   UNL A   1      37.660  22.863  24.631  1.00  0.00    -0.352 N 
ATOM      3  C   UNL A   1      36.460  22.967  23.965  1.00  0.00     0.255 C 
ATOM      4  O   UNL A   1      36.493  23.080  22.736  1.00  0.00    -0.269 OA
ATOM      5  H   UNL A   1      38.469  22.893  24.070  1.00  0.00     0.163 HD
BRANCH   3   6
ATOM      6  C   UNL A   1      35.111  22.827  24.619  1.00  0.00     0.083 A 
ATOM      7  C   UNL A   1      33.047  23.672  25.629  1.00  0.00     0.042 A 
ATOM      8  C   UNL A   1      32.712  22.348  25.963  1.00  0.00     0.033 A 
ATOM      9  C   UNL A   1      34.232  23.904  24.915  1.00  0.00     0.043 A 
ATOM     10  C   UNL A   1      33.512  21.257  25.608  1.00  0.00    -0.006 A 
ATOM     11  C   UNL A   1      33.029  19.873  25.937  1.00  0.00     0.048 C 
ATOM     12  C   UNL A   1      34.711  21.507  24.940  1.00  0.00     0.131 A 
BRANCH   7  13
ATOM     13  N   UNL A   1      32.140  24.622  26.137  1.00  0.00    -0.323 N 
ATOM     14  C   UNL A   1      31.389  25.657  25.675  1.00  0.00     0.262 C 
ATOM     15  O   UNL A   1      30.781  26.320  26.527  1.00  0.00    -0.271 OA
ATOM     16  H   UNL A   1      32.014  24.503  27.106  1.00  0.00     0.170 HD
BRANCH  14  17
ATOM     17  C   UNL A   1      31.172  25.947  24.202  1.00  0.00     0.329 C 
BRANCH  17  18
ATOM     18  O   UNL A   1      29.857  25.946  23.709  1.00  0.00    -0.484 OA
BRANCH  18  19
ATOM     19  C   UNL A   1      29.234  27.142  23.513  1.00  0.00     0.120 A 
ATOM     20  C   UNL A   1      28.306  29.607  22.492  1.00  0.00    -0.048 A 
ATOM     21  C   UNL A   1      29.660  29.306  22.494  1.00  0.00     0.007 A 
ATOM     22  C   UNL A   1      27.427  28.686  23.090  1.00  0.00     0.007 A 
ATOM     23  C   UNL A   1      30.091  28.097  23.006  1.00  0.00     0.047 A 
ATOM     24  C   UNL A   1      27.889  27.449  23.604  1.00  0.00     0.047 A 
BRANCH  20  25
ATOM     25  C   UNL A   1      27.918  30.825  21.693  1.00  0.00     0.032 C 
ATOM     26  C   UNL A   1      28.715  32.091  21.917  1.00  0.00     0.009 C 
ENDBRANCH  20  25
ENDBRANCH  18  19
ENDBRANCH  17  18
ENDBRANCH  14  17
ENDBRANCH   7  13
BRANCH  12  27
ATOM     27  O   UNL A   1      35.474  20.408  24.624  1.00  0.00    -0.507 OA
ATOM     28  H   UNL A   1      35.272  19.574  24.999  1.00  0.00     0.293 HD
ENDBRANCH  12  27
ENDBRANCH   3   6
ENDBRANCH   1   2
BRANCH   1  29
ATOM     29  C   UNL A   1      39.315  22.869  26.547  1.00  0.00     0.023 C 
BRANCH  29  30
ATOM     30  C   UNL A   1      40.400  21.871  26.110  1.00  0.00     0.023 C 
BRANCH  30  31
ATOM     31  C   UNL A   1      40.458  20.456  26.689  1.00  0.00     0.116 C 
BRANCH  31  32
ATOM     32  N   UNL A   1      41.479  19.571  26.132  1.00  0.00    -0.352 N 
ATOM     33  C   UNL A   1      42.760  19.814  25.668  1.00  0.00     0.251 C 
ATOM     34  H   UNL A   1      41.206  18.627  26.077  1.00  0.00     0.163 HD
ATOM     35  O   UNL A   1      43.409  18.921  25.145  1.00  0.00    -0.269 OA
BRANCH  33  36
ATOM     36  C   UNL A   1      43.351  21.161  25.788  1.00  0.00     0.039 A 
ATOM     37  C   UNL A   1      43.424  21.993  24.666  1.00  0.00     0.014 A 
ATOM     38  C   UNL A   1      43.820  21.604  27.020  1.00  0.00     0.014 A 
ATOM     39  C   UNL A   1      43.835  23.320  24.820  1.00  0.00     0.010 A 
ATOM     40  C   UNL A   1      44.109  22.946  27.195  1.00  0.00     0.010 A 
ATOM     41  C   UNL A   1      44.105  23.823  26.101  1.00  0.00    -0.014 A 
BRANCH  41  42
ATOM     42  C   UNL A   1      44.368  25.261  26.363  1.00  0.00     0.031 A 
ATOM     43  C   UNL A   1      45.756  25.801  26.152  1.00  0.00     0.074 A 
ATOM     44  C   UNL A   1      43.412  26.017  26.937  1.00  0.00     0.049 A 
ATOM     45  N   UNL A   1      46.275  26.933  26.548  1.00  0.00    -0.248 NA
ATOM     46  C   UNL A   1      46.701  24.914  25.455  1.00  0.00     0.031 C 
ATOM     47  C   UNL A   1      42.045  25.576  27.235  1.00  0.00     0.029 A 
ATOM     48  N   UNL A   1      43.447  27.307  27.402  1.00  0.00    -0.354 N 
ATOM     49  C   UNL A   1      47.617  26.877  26.185  1.00  0.00     0.074 A 
ATOM     50  C   UNL A   1      47.840  25.572  25.599  1.00  0.00     0.031 C 
ATOM     51  C   UNL A   1      41.372  26.582  27.814  1.00  0.00     0.029 A 
ATOM     52  C   UNL A   1      42.269  27.718  27.985  1.00  0.00     0.049 A 
ATOM     53  H   UNL A   1      44.241  27.885  27.326  1.00  0.00     0.167 HD
ATOM     54  C   UNL A   1      48.566  27.836  26.310  1.00  0.00     0.034 A 
ATOM     55  C   UNL A   1      41.959  28.871  28.608  1.00  0.00     0.034 A 
ATOM     56  C   UNL A   1      48.301  29.139  26.869  1.00  0.00     0.049 A 
ATOM     57  C   UNL A   1      43.026  29.931  28.722  1.00  0.00     0.074 A 
ATOM     58  C   UNL A   1      49.158  30.218  26.993  1.00  0.00     0.029 A 
ATOM     59  N   UNL A   1      47.078  29.539  27.398  1.00  0.00    -0.354 N 
ATOM     60  N   UNL A   1      44.281  29.882  28.340  1.00  0.00    -0.248 NA
ATOM     61  C   UNL A   1      42.633  31.202  29.343  1.00  0.00     0.031 C 
ATOM     62  C   UNL A   1      48.472  31.248  27.646  1.00  0.00     0.029 A 
ATOM     63  C   UNL A   1      47.165  30.841  27.864  1.00  0.00     0.049 A 
ATOM     64  H   UNL A   1      46.270  28.979  27.435  1.00  0.00     0.167 HD
ATOM     65  C   UNL A   1      44.818  31.130  28.640  1.00  0.00     0.074 A 
ATOM     66  C   UNL A   1      43.747  31.910  29.229  1.00  0.00     0.031 C 
ATOM     67  C   UNL A   1      46.078  31.595  28.443  1.00  0.00     0.034 A 
BRANCH  54  68
ATOM     68  C   UNL A   1      49.966  27.496  25.852  1.00  0.00     0.023 A 
ATOM     69  C   UNL A   1      50.383  27.720  24.527  1.00  0.00     0.031 A 
ATOM     70  C   UNL A   1      50.881  26.897  26.734  1.00  0.00     0.131 A 
ATOM     71  C   UNL A   1      51.639  27.262  24.100  1.00  0.00     0.055 A 
ATOM     72  C   UNL A   1      52.166  26.529  26.325  1.00  0.00     0.041 A 
ATOM     73  F   UNL A   1      50.539  26.637  28.005  1.00  0.00    -0.206 F 
ATOM     74  C   UNL A   1      52.544  26.693  24.995  1.00  0.00     0.022 A 
BRANCH  71  75
ATOM     75  S   UNL A   1      52.002  27.277  22.322  1.00  0.00     0.124 S 
ATOM     76  O   UNL A   1      52.895  26.128  22.196  1.00  0.00    -0.237 OA
ATOM     77  O   UNL A   1      50.678  27.126  21.729  1.00  0.00    -0.237 OA
ATOM     78  O   UNL A   1      52.636  28.577  22.113  1.00  0.00    -0.744 OA
ENDBRANCH  71  75
ENDBRANCH  54  68
BRANCH  55  79
ATOM     79  C   UNL A   1      40.594  29.090  29.165  1.00  0.00     0.023 A 
ATOM     80  C   UNL A   1      40.366  29.030  30.549  1.00  0.00     0.031 A 
ATOM     81  C   UNL A   1      39.492  29.339  28.328  1.00  0.00     0.131 A 
ATOM     82  C   UNL A   1      39.063  29.169  31.053  1.00  0.00     0.055 A 
ATOM     83  C   UNL A   1      38.205  29.529  28.838  1.00  0.00     0.041 A 
ATOM     84  F   UNL A   1      39.653  29.417  26.997  1.00  0.00    -0.206 F 
ATOM     85  C   UNL A   1      37.983  29.431  30.208  1.00  0.00     0.022 A 
BRANCH  82  86
ATOM     86  S   UNL A   1      38.789  28.921  32.829  1.00  0.00     0.124 S 
ATOM     87  O   UNL A   1      37.484  28.271  32.840  1.00  0.00    -0.237 OA
ATOM     88  O   UNL A   1      39.927  28.085  33.196  1.00  0.00    -0.237 OA
ATOM     89  O   UNL A   1      38.814  30.279  33.369  1.00  0.00    -0.744 OA
ENDBRANCH  82  86
ENDBRANCH  55  79
BRANCH  67  90
ATOM     90  C   UNL A   1      46.342  33.032  28.812  1.00  0.00     0.023 A 
ATOM     91  C   UNL A   1      46.174  34.078  27.890  1.00  0.00     0.031 A 
ATOM     92  C   UNL A   1      46.761  33.354  30.115  1.00  0.00     0.131 A 
ATOM     93  C   UNL A   1      46.469  35.394  28.271  1.00  0.00     0.055 A 
ATOM     94  C   UNL A   1      46.996  34.671  30.505  1.00  0.00     0.041 A 
ATOM     95  F   UNL A   1      46.937  32.391  31.034  1.00  0.00    -0.206 F 
ATOM     96  C   UNL A   1      46.861  35.701  29.577  1.00  0.00     0.022 A 
BRANCH  93  97
ATOM     97  S   UNL A   1      46.408  36.699  27.013  1.00  0.00     0.124 S 
ATOM     98  O   UNL A   1      46.835  35.984  25.815  1.00  0.00    -0.237 OA
ATOM     99  O   UNL A   1      45.006  37.102  27.048  1.00  0.00    -0.237 OA
ATOM    100  O   UNL A   1      47.351  37.699  27.509  1.00  0.00    -0.744 OA
ENDBRANCH  93  97
ENDBRANCH  67  90
ENDBRANCH  41  42
ENDBRANCH  33  36
ENDBRANCH  31  32
ENDBRANCH  30  31
ENDBRANCH  29  30
ENDBRANCH   1  29
TORSDOF 20
ENDMDL
