MODEL 1
REMARK VINA RESULT:     -12.2      0.000      0.000
REMARK SMILES Cc1ccc(S(=O)(=O)n2cc(C(=O)C(=O)N[C@H](Cc3c[nH]c4ccccc34)C(=O)NCC(=O)NCCCCNC(=O)c3ccc(-c4c5nc(c(-c6cc(S(=O)(=O)[O-])ccc6F)c6ccc([nH]6)c(-c6cc(S(=O)(=O)[O-])ccc6F)c6nc(c(-c7cc(S(=O)(=O)[O-])ccc7F)c7ccc4[nH]7)C=C6)C=C5)cc3)c3ccccc32)cc1
REMARK SMILES IDX 32 1 33 2 34 3 31 5 30 6 28 7 29 8 17 10 16 11 14 12 15 13
REMARK SMILES IDX 12 15 13 16 11 17 9 18 10 19 110 20 105 21 109 22 106 23
REMARK SMILES IDX 108 24 107 25 6 26 7 27 8 28 5 29 1 30 2 31 3 32 112 33 4 34
REMARK SMILES IDX 111 35 18 36 19 37 20 38 27 39 21 40 22 41 26 42 23 44 25 45
REMARK SMILES IDX 24 46 35 47 36 48 37 49 38 50 39 51 40 52 41 54 42 55 43 56
REMARK SMILES IDX 104 57 44 58 103 59 45 60 46 61 47 62 97 63 48 64 102 65
REMARK SMILES IDX 96 66 98 67 49 68 101 69 95 70 94 71 50 73 82 74 62 75 81 76
REMARK SMILES IDX 63 77 66 78 80 79 99 80 64 81 65 82 79 84 100 85 67 86 51 87
REMARK SMILES IDX 52 88 60 89 53 90 59 91 61 92 58 93 54 94 55 95 56 96 57 97
REMARK SMILES IDX 83 98 84 99 92 100 85 101 91 102 93 103 90 104 86 105 87 106
REMARK SMILES IDX 88 107 89 108 68 109 69 110 77 111 70 112 76 113 78 114
REMARK SMILES IDX 75 115 71 116 72 117 73 118 74 119
REMARK H PARENT 34 4 30 9 16 14 21 43 39 53 98 72 66 83
REMARK Flexibility Score: inf
ROOT
ATOM      1  C   UNL A   1      38.277  21.908  25.716  1.00  0.00     0.239 C 
ATOM      2  O   UNL A   1      38.145  20.891  25.024  1.00  0.00    -0.273 OA
ATOM      3  N   UNL A   1      39.473  22.079  26.347  1.00  0.00    -0.355 N 
ATOM      4  H   UNL A   1      40.085  21.311  26.291  1.00  0.00     0.163 HD
ENDROOT
BRANCH   1   5
ATOM      5  C   UNL A   1      37.171  22.977  25.717  1.00  0.00     0.216 C 
BRANCH   5   6
ATOM      6  N   UNL A   1      35.946  22.652  26.407  1.00  0.00    -0.345 N 
ATOM      7  C   UNL A   1      34.979  21.733  26.189  1.00  0.00     0.243 C 
ATOM      8  O   UNL A   1      34.320  21.465  27.205  1.00  0.00    -0.273 OA
ATOM      9  H   UNL A   1      35.781  23.215  27.197  1.00  0.00     0.164 HD
BRANCH   7  10
ATOM     10  C   UNL A   1      34.616  21.041  24.837  1.00  0.00     0.176 C 
BRANCH  10  11
ATOM     11  N   UNL A   1      33.461  21.550  24.032  1.00  0.00    -0.337 N 
ATOM     12  C   UNL A   1      33.094  22.781  23.508  1.00  0.00     0.293 C 
ATOM     13  O   UNL A   1      32.009  22.882  22.940  1.00  0.00    -0.265 OA
ATOM     14  H   UNL A   1      32.807  20.844  23.825  1.00  0.00     0.164 HD
BRANCH  12  15
ATOM     15  C   UNL A   1      34.039  23.986  23.584  1.00  0.00     0.252 C 
ATOM     16  O   UNL A   1      35.072  23.890  22.922  1.00  0.00    -0.283 OA
BRANCH  15  17
ATOM     17  C   UNL A   1      33.779  25.228  24.328  1.00  0.00     0.054 A 
ATOM     18  N   UNL A   1      33.222  26.841  25.790  1.00  0.00    -0.240 N 
ATOM     19  C   UNL A   1      33.508  25.474  25.672  1.00  0.00     0.117 A 
ATOM     20  C   UNL A   1      33.795  27.478  24.700  1.00  0.00     0.065 A 
ATOM     21  C   UNL A   1      33.740  26.517  23.696  1.00  0.00     0.012 A 
ATOM     22  C   UNL A   1      34.123  28.815  24.440  1.00  0.00     0.028 A 
ATOM     23  C   UNL A   1      33.706  26.955  22.361  1.00  0.00     0.011 A 
ATOM     24  C   UNL A   1      34.185  29.200  23.095  1.00  0.00     0.002 A 
ATOM     25  C   UNL A   1      33.898  28.301  22.071  1.00  0.00     0.001 A 
BRANCH  18  26
ATOM     26  S   UNL A   1      31.555  27.317  26.171  1.00  0.00     0.268 S 
ATOM     27  O   UNL A   1      31.683  28.400  27.134  1.00  0.00    -0.201 OA
ATOM     28  O   UNL A   1      30.850  26.096  26.519  1.00  0.00    -0.201 OA
BRANCH  26  29
ATOM     29  C   UNL A   1      30.758  28.001  24.742  1.00  0.00     0.088 A 
ATOM     30  C   UNL A   1      27.819  29.787  22.146  1.00  0.00     0.044 C 
ATOM     31  C   UNL A   1      28.879  29.171  23.012  1.00  0.00    -0.051 A 
ATOM     32  C   UNL A   1      28.904  27.784  23.190  1.00  0.00     0.005 A 
ATOM     33  C   UNL A   1      29.841  29.959  23.662  1.00  0.00     0.005 A 
ATOM     34  C   UNL A   1      29.835  27.200  24.052  1.00  0.00     0.022 A 
ATOM     35  C   UNL A   1      30.773  29.381  24.534  1.00  0.00     0.022 A 
ENDBRANCH  26  29
ENDBRANCH  18  26
ENDBRANCH  15  17
ENDBRANCH  12  15
ENDBRANCH  10  11
BRANCH  10  36
ATOM     36  C   UNL A   1      34.931  19.526  24.673  1.00  0.00     0.072 C 
BRANCH  36  37
ATOM     37  C   UNL A   1      33.841  18.509  24.880  1.00  0.00    -0.020 A 
ATOM     38  C   UNL A   1      32.482  18.779  24.787  1.00  0.00     0.087 A 
ATOM     39  C   UNL A   1      33.954  17.081  25.034  1.00  0.00     0.003 A 
ATOM     40  N   UNL A   1      31.801  17.593  24.849  1.00  0.00    -0.361 N 
ATOM     41  C   UNL A   1      32.663  16.565  25.135  1.00  0.00     0.046 A 
ATOM     42  C   UNL A   1      35.018  16.156  25.067  1.00  0.00     0.010 A 
ATOM     43  H   UNL A   1      30.832  17.493  24.709  1.00  0.00     0.166 HD
ATOM     44  C   UNL A   1      32.377  15.213  25.356  1.00  0.00     0.026 A 
ATOM     45  C   UNL A   1      34.756  14.791  25.261  1.00  0.00     0.001 A 
ATOM     46  C   UNL A   1      33.453  14.330  25.426  1.00  0.00     0.002 A 
ENDBRANCH  36  37
ENDBRANCH  10  36
ENDBRANCH   7  10
ENDBRANCH   5   6
ENDBRANCH   1   5
BRANCH   3  47
ATOM     47  C   UNL A   1      39.986  23.218  27.091  1.00  0.00     0.116 C 
BRANCH  47  48
ATOM     48  C   UNL A   1      41.502  23.154  27.287  1.00  0.00     0.023 C 
BRANCH  48  49
ATOM     49  C   UNL A   1      42.338  23.281  26.009  1.00  0.00     0.023 C 
BRANCH  49  50
ATOM     50  C   UNL A   1      43.076  22.029  25.564  1.00  0.00     0.116 C 
BRANCH  50  51
ATOM     51  N   UNL A   1      44.178  21.606  26.412  1.00  0.00    -0.352 N 
ATOM     52  C   UNL A   1      45.429  22.199  26.211  1.00  0.00     0.251 C 
ATOM     53  H   UNL A   1      44.047  20.923  27.110  1.00  0.00     0.163 HD
ATOM     54  O   UNL A   1      46.149  22.041  25.256  1.00  0.00    -0.269 OA
BRANCH  52  55
ATOM     55  C   UNL A   1      45.635  23.307  27.173  1.00  0.00     0.039 A 
ATOM     56  C   UNL A   1      45.123  23.298  28.471  1.00  0.00     0.014 A 
ATOM     57  C   UNL A   1      46.103  24.479  26.577  1.00  0.00     0.014 A 
ATOM     58  C   UNL A   1      44.956  24.523  29.129  1.00  0.00     0.010 A 
ATOM     59  C   UNL A   1      45.842  25.679  27.184  1.00  0.00     0.010 A 
ATOM     60  C   UNL A   1      45.243  25.711  28.450  1.00  0.00    -0.014 A 
BRANCH  60  61
ATOM     61  C   UNL A   1      44.825  27.052  28.858  1.00  0.00     0.031 A 
ATOM     62  C   UNL A   1      43.461  27.548  28.548  1.00  0.00     0.074 A 
ATOM     63  C   UNL A   1      45.564  27.658  29.813  1.00  0.00     0.049 A 
ATOM     64  N   UNL A   1      43.021  28.729  28.823  1.00  0.00    -0.248 NA
ATOM     65  C   UNL A   1      42.471  26.728  27.856  1.00  0.00     0.031 C 
ATOM     66  C   UNL A   1      45.127  28.674  30.765  1.00  0.00     0.029 A 
ATOM     67  N   UNL A   1      46.956  27.630  29.943  1.00  0.00    -0.354 N 
ATOM     68  C   UNL A   1      41.653  28.727  28.649  1.00  0.00     0.074 A 
ATOM     69  C   UNL A   1      41.378  27.484  27.971  1.00  0.00     0.031 C 
ATOM     70  C   UNL A   1      46.200  29.362  31.183  1.00  0.00     0.029 A 
ATOM     71  C   UNL A   1      47.322  28.923  30.372  1.00  0.00     0.049 A 
ATOM     72  H   UNL A   1      47.555  26.867  29.772  1.00  0.00     0.167 HD
ATOM     73  C   UNL A   1      40.911  29.718  29.227  1.00  0.00     0.034 A 
ATOM     74  C   UNL A   1      48.057  29.744  29.568  1.00  0.00     0.034 A 
ATOM     75  C   UNL A   1      41.776  30.776  29.760  1.00  0.00     0.049 A 
ATOM     76  C   UNL A   1      47.378  31.046  29.215  1.00  0.00     0.074 A 
ATOM     77  C   UNL A   1      42.176  31.134  31.038  1.00  0.00     0.029 A 
ATOM     78  N   UNL A   1      42.589  31.491  28.884  1.00  0.00    -0.354 N 
ATOM     79  N   UNL A   1      46.102  31.279  29.356  1.00  0.00    -0.248 NA
ATOM     80  C   UNL A   1      48.094  32.186  28.652  1.00  0.00     0.031 C 
ATOM     81  C   UNL A   1      43.290  32.009  30.919  1.00  0.00     0.029 A 
ATOM     82  C   UNL A   1      43.545  32.209  29.574  1.00  0.00     0.049 A 
ATOM     83  H   UNL A   1      42.493  31.486  27.904  1.00  0.00     0.167 HD
ATOM     84  C   UNL A   1      45.808  32.536  28.890  1.00  0.00     0.074 A 
ATOM     85  C   UNL A   1      47.099  33.076  28.497  1.00  0.00     0.031 C 
ATOM     86  C   UNL A   1      44.526  33.012  28.850  1.00  0.00     0.034 A 
BRANCH  73  87
ATOM     87  C   UNL A   1      39.428  29.620  29.564  1.00  0.00     0.023 A 
ATOM     88  C   UNL A   1      38.542  30.585  29.033  1.00  0.00     0.031 A 
ATOM     89  C   UNL A   1      38.826  28.689  30.435  1.00  0.00     0.131 A 
ATOM     90  C   UNL A   1      37.192  30.661  29.437  1.00  0.00     0.055 A 
ATOM     91  C   UNL A   1      37.495  28.784  30.867  1.00  0.00     0.041 A 
ATOM     92  F   UNL A   1      39.466  27.604  30.877  1.00  0.00    -0.206 F 
ATOM     93  C   UNL A   1      36.671  29.783  30.379  1.00  0.00     0.022 A 
BRANCH  90  94
ATOM     94  S   UNL A   1      36.124  31.943  28.726  1.00  0.00     0.124 S 
ATOM     95  O   UNL A   1      35.191  32.206  29.818  1.00  0.00    -0.237 OA
ATOM     96  O   UNL A   1      37.076  33.002  28.417  1.00  0.00    -0.237 OA
ATOM     97  O   UNL A   1      35.533  31.285  27.560  1.00  0.00    -0.744 OA
ENDBRANCH  90  94
ENDBRANCH  73  87
BRANCH  74  98
ATOM     98  C   UNL A   1      49.022  29.021  28.696  1.00  0.00     0.023 A 
ATOM     99  C   UNL A   1      50.249  28.627  29.265  1.00  0.00     0.031 A 
ATOM    100  C   UNL A   1      48.615  28.402  27.504  1.00  0.00     0.131 A 
ATOM    101  C   UNL A   1      50.965  27.559  28.710  1.00  0.00     0.055 A 
ATOM    102  C   UNL A   1      49.364  27.370  26.926  1.00  0.00     0.041 A 
ATOM    103  F   UNL A   1      47.431  28.700  26.950  1.00  0.00    -0.206 F 
ATOM    104  C   UNL A   1      50.526  26.921  27.548  1.00  0.00     0.022 A 
BRANCH 101 105
ATOM    105  S   UNL A   1      52.336  26.807  29.632  1.00  0.00     0.124 S 
ATOM    106  O   UNL A   1      52.893  27.956  30.337  1.00  0.00    -0.237 OA
ATOM    107  O   UNL A   1      51.666  25.816  30.465  1.00  0.00    -0.237 OA
ATOM    108  O   UNL A   1      53.150  26.266  28.542  1.00  0.00    -0.744 OA
ENDBRANCH 101 105
ENDBRANCH  74  98
BRANCH  86 109
ATOM    109  C   UNL A   1      44.072  34.298  28.183  1.00  0.00     0.023 A 
ATOM    110  C   UNL A   1      44.084  35.550  28.816  1.00  0.00     0.031 A 
ATOM    111  C   UNL A   1      43.673  34.310  26.823  1.00  0.00     0.131 A 
ATOM    112  C   UNL A   1      43.635  36.709  28.154  1.00  0.00     0.055 A 
ATOM    113  C   UNL A   1      43.306  35.475  26.142  1.00  0.00     0.041 A 
ATOM    114  F   UNL A   1      43.628  33.188  26.089  1.00  0.00    -0.206 F 
ATOM    115  C   UNL A   1      43.267  36.686  26.813  1.00  0.00     0.022 A 
BRANCH 112 116
ATOM    116  S   UNL A   1      43.483  38.240  29.112  1.00  0.00     0.124 S 
ATOM    117  O   UNL A   1      44.653  38.990  28.664  1.00  0.00    -0.237 OA
ATOM    118  O   UNL A   1      42.192  38.759  28.672  1.00  0.00    -0.237 OA
ATOM    119  O   UNL A   1      43.531  37.786  30.500  1.00  0.00    -0.744 OA
ENDBRANCH 112 116
ENDBRANCH  86 109
ENDBRANCH  60  61
ENDBRANCH  52  55
ENDBRANCH  50  51
ENDBRANCH  49  50
ENDBRANCH  48  49
ENDBRANCH  47  48
ENDBRANCH   3  47
TORSDOF 23
ENDMDL
MODEL 2
REMARK VINA RESULT:     -11.8      5.575     14.119
REMARK SMILES Cc1ccc(S(=O)(=O)n2cc(C(=O)C(=O)N[C@H](Cc3c[nH]c4ccccc34)C(=O)NCC(=O)NCCCCNC(=O)c3ccc(-c4c5nc(c(-c6cc(S(=O)(=O)[O-])ccc6F)c6ccc([nH]6)c(-c6cc(S(=O)(=O)[O-])ccc6F)c6nc(c(-c7cc(S(=O)(=O)[O-])ccc7F)c7ccc4[nH]7)C=C6)C=C5)cc3)c3ccccc32)cc1
REMARK SMILES IDX 32 1 33 2 34 3 31 5 30 6 28 7 29 8 17 10 16 11 14 12 15 13
REMARK SMILES IDX 12 15 13 16 11 17 9 18 10 19 110 20 105 21 109 22 106 23
REMARK SMILES IDX 108 24 107 25 6 26 7 27 8 28 5 29 1 30 2 31 3 32 112 33 4 34
REMARK SMILES IDX 111 35 18 36 19 37 20 38 27 39 21 40 22 41 26 42 23 44 25 45
REMARK SMILES IDX 24 46 35 47 36 48 37 49 38 50 39 51 40 52 41 54 42 55 43 56
REMARK SMILES IDX 104 57 44 58 103 59 45 60 46 61 47 62 97 63 48 64 102 65
REMARK SMILES IDX 96 66 98 67 49 68 101 69 95 70 94 71 50 73 82 74 62 75 81 76
REMARK SMILES IDX 63 77 66 78 80 79 99 80 64 81 65 82 79 84 100 85 67 86 51 87
REMARK SMILES IDX 52 88 60 89 53 90 59 91 61 92 58 93 54 94 55 95 56 96 57 97
REMARK SMILES IDX 83 98 84 99 92 100 85 101 91 102 93 103 90 104 86 105 87 106
REMARK SMILES IDX 88 107 89 108 68 109 69 110 77 111 70 112 76 113 78 114
REMARK SMILES IDX 75 115 71 116 72 117 73 118 74 119
REMARK H PARENT 34 4 30 9 16 14 21 43 39 53 98 72 66 83
REMARK Flexibility Score: inf
ROOT
ATOM      1  C   UNL A   1      40.171  33.528  29.878  1.00  0.00     0.239 C 
ATOM      2  O   UNL A   1      40.981  32.673  30.257  1.00  0.00    -0.273 OA
ATOM      3  N   UNL A   1      38.876  33.131  29.724  1.00  0.00    -0.355 N 
ATOM      4  H   UNL A   1      38.726  32.162  29.813  1.00  0.00     0.163 HD
ENDROOT
BRANCH   1   5
ATOM      5  C   UNL A   1      40.618  34.993  29.743  1.00  0.00     0.216 C 
BRANCH   5   6
ATOM      6  N   UNL A   1      41.525  35.304  28.664  1.00  0.00    -0.345 N 
ATOM      7  C   UNL A   1      42.831  35.032  28.447  1.00  0.00     0.243 C 
ATOM      8  O   UNL A   1      43.149  35.080  27.250  1.00  0.00    -0.273 OA
ATOM      9  H   UNL A   1      41.106  35.820  27.938  1.00  0.00     0.164 HD
BRANCH   7  10
ATOM     10  C   UNL A   1      43.923  34.714  29.517  1.00  0.00     0.176 C 
BRANCH  10  11
ATOM     11  N   UNL A   1      43.836  35.343  30.874  1.00  0.00    -0.337 N 
ATOM     12  C   UNL A   1      44.292  36.523  31.442  1.00  0.00     0.293 C 
ATOM     13  O   UNL A   1      44.111  36.710  32.642  1.00  0.00    -0.265 OA
ATOM     14  H   UNL A   1      43.336  34.786  31.514  1.00  0.00     0.164 HD
BRANCH  12  15
ATOM     15  C   UNL A   1      44.964  37.603  30.587  1.00  0.00     0.252 C 
ATOM     16  O   UNL A   1      46.190  37.664  30.677  1.00  0.00    -0.283 OA
BRANCH  15  17
ATOM     17  C   UNL A   1      44.271  38.509  29.657  1.00  0.00     0.054 A 
ATOM     18  N   UNL A   1      43.492  39.707  27.923  1.00  0.00    -0.240 N 
ATOM     19  C   UNL A   1      44.199  38.547  28.266  1.00  0.00     0.117 A 
ATOM     20  C   UNL A   1      42.731  40.068  29.024  1.00  0.00     0.065 A 
ATOM     21  C   UNL A   1      43.493  39.631  30.103  1.00  0.00     0.012 A 
ATOM     22  C   UNL A   1      41.619  40.905  29.182  1.00  0.00     0.028 A 
ATOM     23  C   UNL A   1      43.334  40.288  31.335  1.00  0.00     0.011 A 
ATOM     24  C   UNL A   1      41.426  41.465  30.452  1.00  0.00     0.002 A 
ATOM     25  C   UNL A   1      42.320  41.225  31.492  1.00  0.00     0.001 A 
BRANCH  18  26
ATOM     26  S   UNL A   1      44.381  41.027  27.136  1.00  0.00     0.268 S 
ATOM     27  O   UNL A   1      45.481  40.378  26.440  1.00  0.00    -0.201 OA
ATOM     28  O   UNL A   1      44.640  42.018  28.167  1.00  0.00    -0.201 OA
BRANCH  26  29
ATOM     29  C   UNL A   1      43.381  41.802  25.894  1.00  0.00     0.088 A 
ATOM     30  C   UNL A   1      41.688  42.901  22.087  1.00  0.00     0.044 C 
ATOM     31  C   UNL A   1      42.240  42.545  23.437  1.00  0.00    -0.051 A 
ATOM     32  C   UNL A   1      43.383  43.199  23.910  1.00  0.00     0.005 A 
ATOM     33  C   UNL A   1      41.641  41.558  24.235  1.00  0.00     0.005 A 
ATOM     34  C   UNL A   1      43.954  42.830  25.130  1.00  0.00     0.022 A 
ATOM     35  C   UNL A   1      42.213  41.177  25.455  1.00  0.00     0.022 A 
ENDBRANCH  26  29
ENDBRANCH  18  26
ENDBRANCH  15  17
ENDBRANCH  12  15
ENDBRANCH  10  11
BRANCH  10  36
ATOM     36  C   UNL A   1      45.359  34.371  29.029  1.00  0.00     0.072 C 
BRANCH  36  37
ATOM     37  C   UNL A   1      46.008  33.083  29.462  1.00  0.00    -0.020 A 
ATOM     38  C   UNL A   1      46.399  32.796  30.763  1.00  0.00     0.087 A 
ATOM     39  C   UNL A   1      46.196  31.867  28.711  1.00  0.00     0.003 A 
ATOM     40  N   UNL A   1      46.774  31.480  30.820  1.00  0.00    -0.361 N 
ATOM     41  C   UNL A   1      46.789  30.936  29.561  1.00  0.00     0.046 A 
ATOM     42  C   UNL A   1      45.895  31.441  27.401  1.00  0.00     0.010 A 
ATOM     43  H   UNL A   1      47.001  30.996  31.646  1.00  0.00     0.166 HD
ATOM     44  C   UNL A   1      47.179  29.652  29.162  1.00  0.00     0.026 A 
ATOM     45  C   UNL A   1      46.253  30.149  26.985  1.00  0.00     0.001 A 
ATOM     46  C   UNL A   1      46.907  29.275  27.849  1.00  0.00     0.002 A 
ENDBRANCH  36  37
ENDBRANCH  10  36
ENDBRANCH   7  10
ENDBRANCH   5   6
ENDBRANCH   1   5
BRANCH   3  47
ATOM     47  C   UNL A   1      37.682  33.913  29.448  1.00  0.00     0.116 C 
BRANCH  47  48
ATOM     48  C   UNL A   1      36.406  33.072  29.499  1.00  0.00     0.023 C 
BRANCH  48  49
ATOM     49  C   UNL A   1      35.658  32.928  28.170  1.00  0.00     0.023 C 
BRANCH  49  50
ATOM     50  C   UNL A   1      34.605  31.833  28.108  1.00  0.00     0.116 C 
BRANCH  50  51
ATOM     51  N   UNL A   1      34.919  30.609  28.825  1.00  0.00    -0.352 N 
ATOM     52  C   UNL A   1      35.633  29.614  28.147  1.00  0.00     0.251 C 
ATOM     53  H   UNL A   1      34.639  30.483  29.761  1.00  0.00     0.163 HD
ATOM     54  O   UNL A   1      35.225  28.936  27.238  1.00  0.00    -0.269 OA
BRANCH  52  55
ATOM     55  C   UNL A   1      37.076  29.704  28.471  1.00  0.00     0.039 A 
ATOM     56  C   UNL A   1      38.069  29.862  27.503  1.00  0.00     0.014 A 
ATOM     57  C   UNL A   1      37.379  29.304  29.774  1.00  0.00     0.014 A 
ATOM     58  C   UNL A   1      39.376  29.476  27.822  1.00  0.00     0.010 A 
ATOM     59  C   UNL A   1      38.636  28.833  30.045  1.00  0.00     0.010 A 
ATOM     60  C   UNL A   1      39.635  28.890  29.065  1.00  0.00    -0.014 A 
BRANCH  60  61
ATOM     61  C   UNL A   1      40.842  28.147  29.426  1.00  0.00     0.031 A 
ATOM     62  C   UNL A   1      41.032  26.745  28.979  1.00  0.00     0.074 A 
ATOM     63  C   UNL A   1      41.902  28.871  29.848  1.00  0.00     0.049 A 
ATOM     64  N   UNL A   1      42.037  25.998  29.289  1.00  0.00    -0.248 NA
ATOM     65  C   UNL A   1      40.055  26.053  28.146  1.00  0.00     0.031 C 
ATOM     66  C   UNL A   1      43.315  28.519  29.754  1.00  0.00     0.029 A 
ATOM     67  N   UNL A   1      41.875  29.996  30.680  1.00  0.00    -0.354 N 
ATOM     68  C   UNL A   1      42.010  24.885  28.474  1.00  0.00     0.074 A 
ATOM     69  C   UNL A   1      40.714  24.933  27.842  1.00  0.00     0.031 C 
ATOM     70  C   UNL A   1      43.993  29.206  30.685  1.00  0.00     0.029 A 
ATOM     71  C   UNL A   1      43.006  29.876  31.514  1.00  0.00     0.049 A 
ATOM     72  H   UNL A   1      41.206  30.719  30.683  1.00  0.00     0.167 HD
ATOM     73  C   UNL A   1      43.145  24.139  28.334  1.00  0.00     0.034 A 
ATOM     74  C   UNL A   1      42.867  29.676  32.856  1.00  0.00     0.034 A 
ATOM     75  C   UNL A   1      44.165  24.553  29.303  1.00  0.00     0.049 A 
ATOM     76  C   UNL A   1      43.490  28.398  33.367  1.00  0.00     0.074 A 
ATOM     77  C   UNL A   1      45.337  25.287  29.207  1.00  0.00     0.029 A 
ATOM     78  N   UNL A   1      43.897  24.426  30.664  1.00  0.00    -0.354 N 
ATOM     79  N   UNL A   1      43.847  27.395  32.612  1.00  0.00    -0.248 NA
ATOM     80  C   UNL A   1      43.741  28.149  34.782  1.00  0.00     0.031 C 
ATOM     81  C   UNL A   1      45.724  25.669  30.520  1.00  0.00     0.029 A 
ATOM     82  C   UNL A   1      44.810  25.139  31.414  1.00  0.00     0.049 A 
ATOM     83  H   UNL A   1      43.156  23.899  31.039  1.00  0.00     0.167 HD
ATOM     84  C   UNL A   1      44.325  26.375  33.398  1.00  0.00     0.074 A 
ATOM     85  C   UNL A   1      44.275  26.916  34.746  1.00  0.00     0.031 C 
ATOM     86  C   UNL A   1      44.702  25.170  32.870  1.00  0.00     0.034 A 
BRANCH  73  87
ATOM     87  C   UNL A   1      43.454  23.224  27.155  1.00  0.00     0.023 A 
ATOM     88  C   UNL A   1      42.913  21.917  27.146  1.00  0.00     0.031 A 
ATOM     89  C   UNL A   1      44.305  23.512  26.070  1.00  0.00     0.131 A 
ATOM     90  C   UNL A   1      43.291  20.960  26.181  1.00  0.00     0.055 A 
ATOM     91  C   UNL A   1      44.713  22.552  25.131  1.00  0.00     0.041 A 
ATOM     92  F   UNL A   1      44.751  24.745  25.818  1.00  0.00    -0.206 F 
ATOM     93  C   UNL A   1      44.217  21.262  25.191  1.00  0.00     0.022 A 
BRANCH  90  94
ATOM     94  S   UNL A   1      42.570  19.297  26.250  1.00  0.00     0.124 S 
ATOM     95  O   UNL A   1      42.024  19.255  27.604  1.00  0.00    -0.237 OA
ATOM     96  O   UNL A   1      41.601  19.335  25.162  1.00  0.00    -0.237 OA
ATOM     97  O   UNL A   1      43.718  18.419  26.024  1.00  0.00    -0.744 OA
ENDBRANCH  90  94
ENDBRANCH  73  87
BRANCH  74  98
ATOM     98  C   UNL A   1      41.663  30.329  33.437  1.00  0.00     0.023 A 
ATOM     99  C   UNL A   1      41.730  31.712  33.695  1.00  0.00     0.031 A 
ATOM    100  C   UNL A   1      40.396  29.728  33.372  1.00  0.00     0.131 A 
ATOM    101  C   UNL A   1      40.553  32.469  33.757  1.00  0.00     0.055 A 
ATOM    102  C   UNL A   1      39.224  30.484  33.487  1.00  0.00     0.041 A 
ATOM    103  F   UNL A   1      40.273  28.426  33.075  1.00  0.00    -0.206 F 
ATOM    104  C   UNL A   1      39.299  31.865  33.645  1.00  0.00     0.022 A 
BRANCH 101 105
ATOM    105  S   UNL A   1      40.635  34.282  33.717  1.00  0.00     0.124 S 
ATOM    106  O   UNL A   1      39.417  34.624  32.990  1.00  0.00    -0.237 OA
ATOM    107  O   UNL A   1      40.652  34.640  35.130  1.00  0.00    -0.237 OA
ATOM    108  O   UNL A   1      41.893  34.495  32.998  1.00  0.00    -0.744 OA
ENDBRANCH 101 105
ENDBRANCH  74  98
BRANCH  86 109
ATOM    109  C   UNL A   1      45.058  23.924  33.659  1.00  0.00     0.023 A 
ATOM    110  C   UNL A   1      46.368  23.584  34.029  1.00  0.00     0.031 A 
ATOM    111  C   UNL A   1      44.048  23.053  34.139  1.00  0.00     0.131 A 
ATOM    112  C   UNL A   1      46.644  22.404  34.747  1.00  0.00     0.055 A 
ATOM    113  C   UNL A   1      44.316  21.926  34.923  1.00  0.00     0.041 A 
ATOM    114  F   UNL A   1      42.750  23.263  33.875  1.00  0.00    -0.206 F 
ATOM    115  C   UNL A   1      45.624  21.583  35.218  1.00  0.00     0.022 A 
BRANCH 112 116
ATOM    116  S   UNL A   1      48.377  21.937  34.996  1.00  0.00     0.124 S 
ATOM    117  O   UNL A   1      48.509  20.790  34.102  1.00  0.00    -0.237 OA
ATOM    118  O   UNL A   1      49.090  23.143  34.587  1.00  0.00    -0.237 OA
ATOM    119  O   UNL A   1      48.450  21.624  36.421  1.00  0.00    -0.744 OA
ENDBRANCH 112 116
ENDBRANCH  86 109
ENDBRANCH  60  61
ENDBRANCH  52  55
ENDBRANCH  50  51
ENDBRANCH  49  50
ENDBRANCH  48  49
ENDBRANCH  47  48
ENDBRANCH   3  47
TORSDOF 23
ENDMDL
MODEL 3
REMARK VINA RESULT:     -11.3      1.733      2.115
REMARK SMILES Cc1ccc(S(=O)(=O)n2cc(C(=O)C(=O)N[C@H](Cc3c[nH]c4ccccc34)C(=O)NCC(=O)NCCCCNC(=O)c3ccc(-c4c5nc(c(-c6cc(S(=O)(=O)[O-])ccc6F)c6ccc([nH]6)c(-c6cc(S(=O)(=O)[O-])ccc6F)c6nc(c(-c7cc(S(=O)(=O)[O-])ccc7F)c7ccc4[nH]7)C=C6)C=C5)cc3)c3ccccc32)cc1
REMARK SMILES IDX 32 1 33 2 34 3 31 5 30 6 28 7 29 8 17 10 16 11 14 12 15 13
REMARK SMILES IDX 12 15 13 16 11 17 9 18 10 19 110 20 105 21 109 22 106 23
REMARK SMILES IDX 108 24 107 25 6 26 7 27 8 28 5 29 1 30 2 31 3 32 112 33 4 34
REMARK SMILES IDX 111 35 18 36 19 37 20 38 27 39 21 40 22 41 26 42 23 44 25 45
REMARK SMILES IDX 24 46 35 47 36 48 37 49 38 50 39 51 40 52 41 54 42 55 43 56
REMARK SMILES IDX 104 57 44 58 103 59 45 60 46 61 47 62 97 63 48 64 102 65
REMARK SMILES IDX 96 66 98 67 49 68 101 69 95 70 94 71 50 73 82 74 62 75 81 76
REMARK SMILES IDX 63 77 66 78 80 79 99 80 64 81 65 82 79 84 100 85 67 86 51 87
REMARK SMILES IDX 52 88 60 89 53 90 59 91 61 92 58 93 54 94 55 95 56 96 57 97
REMARK SMILES IDX 83 98 84 99 92 100 85 101 91 102 93 103 90 104 86 105 87 106
REMARK SMILES IDX 88 107 89 108 68 109 69 110 77 111 70 112 76 113 78 114
REMARK SMILES IDX 75 115 71 116 72 117 73 118 74 119
REMARK H PARENT 34 4 30 9 16 14 21 43 39 53 98 72 66 83
REMARK Flexibility Score: inf
ROOT
ATOM      1  C   UNL A   1      38.078  22.113  25.667  1.00  0.00     0.239 C 
ATOM      2  O   UNL A   1      38.026  21.099  24.961  1.00  0.00    -0.273 OA
ATOM      3  N   UNL A   1      39.221  22.314  26.382  1.00  0.00    -0.355 N 
ATOM      4  H   UNL A   1      39.858  21.565  26.365  1.00  0.00     0.163 HD
ENDROOT
BRANCH   1   5
ATOM      5  C   UNL A   1      36.944  23.149  25.594  1.00  0.00     0.216 C 
BRANCH   5   6
ATOM      6  N   UNL A   1      35.727  22.839  26.305  1.00  0.00    -0.345 N 
ATOM      7  C   UNL A   1      34.779  21.890  26.143  1.00  0.00     0.243 C 
ATOM      8  O   UNL A   1      34.128  21.666  27.174  1.00  0.00    -0.273 OA
ATOM      9  H   UNL A   1      35.552  23.442  27.063  1.00  0.00     0.164 HD
BRANCH   7  10
ATOM     10  C   UNL A   1      34.427  21.116  24.833  1.00  0.00     0.176 C 
BRANCH  10  11
ATOM     11  N   UNL A   1      33.233  21.527  24.028  1.00  0.00    -0.337 N 
ATOM     12  C   UNL A   1      32.811  22.701  23.424  1.00  0.00     0.293 C 
ATOM     13  O   UNL A   1      31.707  22.726  22.885  1.00  0.00    -0.265 OA
ATOM     14  H   UNL A   1      32.596  20.787  23.897  1.00  0.00     0.164 HD
BRANCH  12  15
ATOM     15  C   UNL A   1      33.719  23.936  23.376  1.00  0.00     0.252 C 
ATOM     16  O   UNL A   1      34.634  23.889  22.555  1.00  0.00    -0.283 OA
BRANCH  15  17
ATOM     17  C   UNL A   1      33.545  25.153  24.183  1.00  0.00     0.054 A 
ATOM     18  N   UNL A   1      33.093  26.726  25.724  1.00  0.00    -0.240 N 
ATOM     19  C   UNL A   1      33.275  25.349  25.536  1.00  0.00     0.117 A 
ATOM     20  C   UNL A   1      33.728  27.373  24.675  1.00  0.00     0.065 A 
ATOM     21  C   UNL A   1      33.612  26.473  23.620  1.00  0.00     0.012 A 
ATOM     22  C   UNL A   1      34.160  28.693  24.490  1.00  0.00     0.028 A 
ATOM     23  C   UNL A   1      33.629  26.982  22.310  1.00  0.00     0.011 A 
ATOM     24  C   UNL A   1      34.269  29.142  23.168  1.00  0.00     0.002 A 
ATOM     25  C   UNL A   1      33.927  28.323  22.095  1.00  0.00     0.001 A 
BRANCH  18  26
ATOM     26  S   UNL A   1      31.463  27.308  26.114  1.00  0.00     0.268 S 
ATOM     27  O   UNL A   1      31.668  28.408  27.045  1.00  0.00    -0.201 OA
ATOM     28  O   UNL A   1      30.693  26.140  26.507  1.00  0.00    -0.201 OA
BRANCH  26  29
ATOM     29  C   UNL A   1      30.684  27.998  24.678  1.00  0.00     0.088 A 
ATOM     30  C   UNL A   1      27.800  29.850  22.066  1.00  0.00     0.044 C 
ATOM     31  C   UNL A   1      28.840  29.209  22.938  1.00  0.00    -0.051 A 
ATOM     32  C   UNL A   1      28.815  27.824  23.139  1.00  0.00     0.005 A 
ATOM     33  C   UNL A   1      29.835  29.971  23.570  1.00  0.00     0.005 A 
ATOM     34  C   UNL A   1      29.728  27.220  24.006  1.00  0.00     0.022 A 
ATOM     35  C   UNL A   1      30.749  29.373  24.447  1.00  0.00     0.022 A 
ENDBRANCH  26  29
ENDBRANCH  18  26
ENDBRANCH  15  17
ENDBRANCH  12  15
ENDBRANCH  10  11
BRANCH  10  36
ATOM     36  C   UNL A   1      34.817  19.613  24.734  1.00  0.00     0.072 C 
BRANCH  36  37
ATOM     37  C   UNL A   1      33.762  18.554  24.912  1.00  0.00    -0.020 A 
ATOM     38  C   UNL A   1      32.396  18.776  24.808  1.00  0.00     0.087 A 
ATOM     39  C   UNL A   1      33.925  17.128  25.043  1.00  0.00     0.003 A 
ATOM     40  N   UNL A   1      31.758  17.565  24.843  1.00  0.00    -0.361 N 
ATOM     41  C   UNL A   1      32.653  16.565  25.122  1.00  0.00     0.046 A 
ATOM     42  C   UNL A   1      35.023  16.242  25.073  1.00  0.00     0.010 A 
ATOM     43  H   UNL A   1      30.795  17.433  24.690  1.00  0.00     0.166 HD
ATOM     44  C   UNL A   1      32.414  15.200  25.317  1.00  0.00     0.026 A 
ATOM     45  C   UNL A   1      34.808  14.865  25.242  1.00  0.00     0.001 A 
ATOM     46  C   UNL A   1      33.520  14.355  25.385  1.00  0.00     0.002 A 
ENDBRANCH  36  37
ENDBRANCH  10  36
ENDBRANCH   7  10
ENDBRANCH   5   6
ENDBRANCH   1   5
BRANCH   3  47
ATOM     47  C   UNL A   1      39.646  23.462  27.167  1.00  0.00     0.116 C 
BRANCH  47  48
ATOM     48  C   UNL A   1      41.150  23.459  27.441  1.00  0.00     0.023 C 
BRANCH  48  49
ATOM     49  C   UNL A   1      42.046  23.601  26.206  1.00  0.00     0.023 C 
BRANCH  49  50
ATOM     50  C   UNL A   1      42.755  22.339  25.743  1.00  0.00     0.116 C 
BRANCH  50  51
ATOM     51  N   UNL A   1      43.706  21.765  26.680  1.00  0.00    -0.352 N 
ATOM     52  C   UNL A   1      44.981  22.339  26.759  1.00  0.00     0.251 C 
ATOM     53  H   UNL A   1      43.461  20.996  27.244  1.00  0.00     0.163 HD
ATOM     54  O   UNL A   1      45.839  22.291  25.912  1.00  0.00    -0.269 OA
BRANCH  52  55
ATOM     55  C   UNL A   1      45.047  23.294  27.889  1.00  0.00     0.039 A 
ATOM     56  C   UNL A   1      44.267  23.173  29.040  1.00  0.00     0.014 A 
ATOM     57  C   UNL A   1      45.710  24.481  27.574  1.00  0.00     0.014 A 
ATOM     58  C   UNL A   1      44.043  24.316  29.816  1.00  0.00     0.010 A 
ATOM     59  C   UNL A   1      45.404  25.616  28.278  1.00  0.00     0.010 A 
ATOM     60  C   UNL A   1      44.549  25.548  29.385  1.00  0.00    -0.014 A 
BRANCH  60  61
ATOM     61  C   UNL A   1      44.142  26.861  29.884  1.00  0.00     0.031 A 
ATOM     62  C   UNL A   1      43.048  27.617  29.225  1.00  0.00     0.074 A 
ATOM     63  C   UNL A   1      44.527  27.184  31.138  1.00  0.00     0.049 A 
ATOM     64  N   UNL A   1      42.656  28.798  29.563  1.00  0.00    -0.248 NA
ATOM     65  C   UNL A   1      42.313  27.087  28.081  1.00  0.00     0.031 C 
ATOM     66  C   UNL A   1      43.869  28.100  32.063  1.00  0.00     0.029 A 
ATOM     67  N   UNL A   1      45.761  26.906  31.737  1.00  0.00    -0.354 N 
ATOM     68  C   UNL A   1      41.458  29.049  28.926  1.00  0.00     0.074 A 
ATOM     69  C   UNL A   1      41.336  27.987  27.958  1.00  0.00     0.031 C 
ATOM     70  C   UNL A   1      44.770  28.530  32.958  1.00  0.00     0.029 A 
ATOM     71  C   UNL A   1      46.065  28.041  32.519  1.00  0.00     0.049 A 
ATOM     72  H   UNL A   1      46.302  26.090  31.635  1.00  0.00     0.167 HD
ATOM     73  C   UNL A   1      40.656  30.049  29.397  1.00  0.00     0.034 A 
ATOM     74  C   UNL A   1      47.124  28.841  32.206  1.00  0.00     0.034 A 
ATOM     75  C   UNL A   1      41.359  30.856  30.400  1.00  0.00     0.049 A 
ATOM     76  C   UNL A   1      46.757  30.276  31.909  1.00  0.00     0.074 A 
ATOM     77  C   UNL A   1      41.286  30.944  31.781  1.00  0.00     0.029 A 
ATOM     78  N   UNL A   1      42.506  31.552  30.026  1.00  0.00    -0.354 N 
ATOM     79  N   UNL A   1      45.549  30.692  31.641  1.00  0.00    -0.248 NA
ATOM     80  C   UNL A   1      47.739  31.354  31.874  1.00  0.00     0.031 C 
ATOM     81  C   UNL A   1      42.444  31.630  32.238  1.00  0.00     0.029 A 
ATOM     82  C   UNL A   1      43.201  31.988  31.136  1.00  0.00     0.049 A 
ATOM     83  H   UNL A   1      42.782  31.712  29.095  1.00  0.00     0.167 HD
ATOM     84  C   UNL A   1      45.576  32.037  31.366  1.00  0.00     0.074 A 
ATOM     85  C   UNL A   1      46.966  32.410  31.566  1.00  0.00     0.031 C 
ATOM     86  C   UNL A   1      44.454  32.719  30.979  1.00  0.00     0.034 A 
BRANCH  73  87
ATOM     87  C   UNL A   1      39.152  30.147  29.168  1.00  0.00     0.023 A 
ATOM     88  C   UNL A   1      38.378  30.937  30.050  1.00  0.00     0.031 A 
ATOM     89  C   UNL A   1      38.406  29.459  28.191  1.00  0.00     0.131 A 
ATOM     90  C   UNL A   1      36.968  30.938  30.007  1.00  0.00     0.055 A 
ATOM     91  C   UNL A   1      37.003  29.428  28.169  1.00  0.00     0.041 A 
ATOM     92  F   UNL A   1      38.981  28.822  27.168  1.00  0.00    -0.206 F 
ATOM     93  C   UNL A   1      36.274  30.159  29.089  1.00  0.00     0.022 A 
BRANCH  90  94
ATOM     94  S   UNL A   1      36.044  31.961  31.187  1.00  0.00     0.124 S 
ATOM     95  O   UNL A   1      36.999  33.027  31.481  1.00  0.00    -0.237 OA
ATOM     96  O   UNL A   1      34.868  32.340  30.414  1.00  0.00    -0.237 OA
ATOM     97  O   UNL A   1      35.784  31.046  32.298  1.00  0.00    -0.744 OA
ENDBRANCH  90  94
ENDBRANCH  73  87
BRANCH  74  98
ATOM     98  C   UNL A   1      48.268  28.110  31.598  1.00  0.00     0.023 A 
ATOM     99  C   UNL A   1      49.005  27.243  32.428  1.00  0.00     0.031 A 
ATOM    100  C   UNL A   1      48.389  27.958  30.208  1.00  0.00     0.131 A 
ATOM    101  C   UNL A   1      49.733  26.187  31.865  1.00  0.00     0.055 A 
ATOM    102  C   UNL A   1      49.161  26.931  29.651  1.00  0.00     0.041 A 
ATOM    103  F   UNL A   1      47.668  28.720  29.373  1.00  0.00    -0.206 F 
ATOM    104  C   UNL A   1      49.809  26.020  30.481  1.00  0.00     0.022 A 
BRANCH 101 105
ATOM    105  S   UNL A   1      50.374  24.859  32.923  1.00  0.00     0.124 S 
ATOM    106  O   UNL A   1      51.454  25.535  33.635  1.00  0.00    -0.237 OA
ATOM    107  O   UNL A   1      49.216  24.493  33.728  1.00  0.00    -0.237 OA
ATOM    108  O   UNL A   1      50.784  23.871  31.924  1.00  0.00    -0.744 OA
ENDBRANCH 101 105
ENDBRANCH  74  98
BRANCH  86 109
ATOM    109  C   UNL A   1      44.411  34.148  30.470  1.00  0.00     0.023 A 
ATOM    110  C   UNL A   1      44.206  34.491  29.125  1.00  0.00     0.031 A 
ATOM    111  C   UNL A   1      44.504  35.242  31.366  1.00  0.00     0.131 A 
ATOM    112  C   UNL A   1      44.193  35.835  28.705  1.00  0.00     0.055 A 
ATOM    113  C   UNL A   1      44.407  36.577  30.960  1.00  0.00     0.041 A 
ATOM    114  F   UNL A   1      44.685  35.064  32.684  1.00  0.00    -0.206 F 
ATOM    115  C   UNL A   1      44.268  36.883  29.617  1.00  0.00     0.022 A 
BRANCH 112 116
ATOM    116  S   UNL A   1      44.136  36.178  26.927  1.00  0.00     0.124 S 
ATOM    117  O   UNL A   1      43.320  35.072  26.435  1.00  0.00    -0.237 OA
ATOM    118  O   UNL A   1      43.510  37.496  26.881  1.00  0.00    -0.237 OA
ATOM    119  O   UNL A   1      45.540  36.142  26.522  1.00  0.00    -0.744 OA
ENDBRANCH 112 116
ENDBRANCH  86 109
ENDBRANCH  60  61
ENDBRANCH  52  55
ENDBRANCH  50  51
ENDBRANCH  49  50
ENDBRANCH  48  49
ENDBRANCH  47  48
ENDBRANCH   3  47
TORSDOF 23
ENDMDL
