MODEL 1
REMARK VINA RESULT:     -12.2      0.000      0.000
REMARK SMILES O=C(CC(=O)c1ccccc1)Nc1cccc(C(=O)NCCCCNC(=O)c2ccc(-c3c4nc(c(-c5cc(S(=O)(=O)[O-])ccc5F)c5ccc([nH]5)c(-c5cc(S(=O)(=O)[O-])ccc5F)c5nc(c(-c6cc(S(=O)(=O)[O-])ccc6F)c6ccc3[nH]6)C=C5)C=C4)cc2)c1
REMARK SMILES IDX 22 1 21 2 20 3 18 4 19 5 17 7 13 8 14 9 91 10 15 11 16 12
REMARK SMILES IDX 12 13 1 14 2 15 3 17 4 18 5 19 6 20 7 21 11 22 8 23 10 24
REMARK SMILES IDX 9 25 23 26 24 27 25 28 26 29 27 31 28 32 29 33 90 34 30 35
REMARK SMILES IDX 89 36 31 37 32 38 33 39 83 40 34 41 88 42 82 43 84 44 35 45
REMARK SMILES IDX 87 46 81 47 80 48 36 50 68 51 48 52 67 53 49 54 52 55 66 56
REMARK SMILES IDX 85 57 50 58 51 59 65 61 86 62 53 63 37 64 38 65 46 66 39 67
REMARK SMILES IDX 45 68 47 69 44 70 40 71 41 72 42 73 43 74 69 75 70 76 78 77
REMARK SMILES IDX 71 78 77 79 79 80 76 81 72 82 73 83 74 84 75 85 54 86 55 87
REMARK SMILES IDX 63 88 56 89 62 90 64 91 61 92 57 93 58 94 59 95 60 96
REMARK H PARENT 20 6 12 16 25 30 84 49 52 60
REMARK Flexibility Score: inf
ROOT
ATOM      1  C   UNL A   1      31.757  29.902  26.780  1.00  0.00     0.023 C 
ENDROOT
BRANCH   1   2
ATOM      2  C   UNL A   1      33.118  29.608  26.166  1.00  0.00     0.116 C 
BRANCH   2   3
ATOM      3  N   UNL A   1      33.165  29.659  24.708  1.00  0.00    -0.352 N 
ATOM      4  C   UNL A   1      32.570  28.837  23.770  1.00  0.00     0.251 C 
ATOM      5  O   UNL A   1      32.738  29.051  22.572  1.00  0.00    -0.269 OA
ATOM      6  H   UNL A   1      33.704  30.393  24.336  1.00  0.00     0.163 HD
BRANCH   4   7
ATOM      7  C   UNL A   1      31.788  27.644  24.188  1.00  0.00     0.041 A 
ATOM      8  C   UNL A   1      31.740  25.272  24.640  1.00  0.00     0.041 A 
ATOM      9  C   UNL A   1      30.349  25.283  24.503  1.00  0.00     0.026 A 
ATOM     10  C   UNL A   1      32.424  26.482  24.621  1.00  0.00     0.040 A 
ATOM     11  C   UNL A   1      29.673  26.484  24.261  1.00  0.00     0.003 A 
ATOM     12  C   UNL A   1      30.397  27.661  24.065  1.00  0.00     0.014 A 
BRANCH   8  13
ATOM     13  N   UNL A   1      32.398  24.023  24.714  1.00  0.00    -0.326 N 
ATOM     14  O   UNL A   1      32.908  23.655  22.468  1.00  0.00    -0.274 OA
ATOM     15  C   UNL A   1      32.956  23.326  23.650  1.00  0.00     0.232 C 
ATOM     16  H   UNL A   1      32.469  23.609  25.604  1.00  0.00     0.169 HD
BRANCH  15  17
ATOM     17  C   UNL A   1      33.631  22.039  24.023  1.00  0.00     0.181 C 
BRANCH  17  18
ATOM     18  C   UNL A   1      32.748  20.895  24.430  1.00  0.00     0.172 C 
ATOM     19  O   UNL A   1      31.688  21.100  25.024  1.00  0.00    -0.294 OA
BRANCH  18  20
ATOM     20  C   UNL A   1      33.113  19.491  24.098  1.00  0.00     0.018 A 
ATOM     21  C   UNL A   1      34.311  19.000  24.629  1.00  0.00     0.012 A 
ATOM     22  C   UNL A   1      32.376  18.694  23.216  1.00  0.00     0.012 A 
ATOM     23  C   UNL A   1      34.771  17.730  24.274  1.00  0.00     0.001 A 
ATOM     24  C   UNL A   1      32.852  17.435  22.843  1.00  0.00     0.001 A 
ATOM     25  C   UNL A   1      34.047  16.955  23.371  1.00  0.00     0.000 A 
ENDBRANCH  18  20
ENDBRANCH  17  18
ENDBRANCH  15  17
ENDBRANCH   8  13
ENDBRANCH   4   7
ENDBRANCH   2   3
ENDBRANCH   1   2
BRANCH   1  26
ATOM     26  C   UNL A   1      31.317  31.359  26.789  1.00  0.00     0.023 C 
BRANCH  26  27
ATOM     27  C   UNL A   1      32.403  32.389  26.499  1.00  0.00     0.116 C 
BRANCH  27  28
ATOM     28  N   UNL A   1      32.246  33.636  27.234  1.00  0.00    -0.352 N 
ATOM     29  C   UNL A   1      33.022  34.172  28.240  1.00  0.00     0.251 C 
ATOM     30  H   UNL A   1      31.469  34.180  26.972  1.00  0.00     0.163 HD
ATOM     31  O   UNL A   1      32.670  35.206  28.794  1.00  0.00    -0.269 OA
BRANCH  29  32
ATOM     32  C   UNL A   1      34.251  33.470  28.682  1.00  0.00     0.039 A 
ATOM     33  C   UNL A   1      35.465  34.162  28.665  1.00  0.00     0.014 A 
ATOM     34  C   UNL A   1      34.205  32.153  29.142  1.00  0.00     0.014 A 
ATOM     35  C   UNL A   1      36.610  33.568  29.206  1.00  0.00     0.010 A 
ATOM     36  C   UNL A   1      35.323  31.595  29.757  1.00  0.00     0.010 A 
ATOM     37  C   UNL A   1      36.535  32.301  29.807  1.00  0.00    -0.014 A 
BRANCH  37  38
ATOM     38  C   UNL A   1      37.703  31.705  30.512  1.00  0.00     0.031 A 
ATOM     39  C   UNL A   1      38.552  30.668  29.825  1.00  0.00     0.074 A 
ATOM     40  C   UNL A   1      37.947  32.032  31.796  1.00  0.00     0.049 A 
ATOM     41  N   UNL A   1      39.545  29.962  30.302  1.00  0.00    -0.248 NA
ATOM     42  C   UNL A   1      38.214  30.362  28.429  1.00  0.00     0.031 C 
ATOM     43  C   UNL A   1      37.162  32.982  32.591  1.00  0.00     0.029 A 
ATOM     44  N   UNL A   1      38.912  31.594  32.670  1.00  0.00    -0.354 N 
ATOM     45  C   UNL A   1      39.936  29.113  29.272  1.00  0.00     0.074 A 
ATOM     46  C   UNL A   1      39.032  29.354  28.167  1.00  0.00     0.031 C 
ATOM     47  C   UNL A   1      37.690  33.068  33.822  1.00  0.00     0.029 A 
ATOM     48  C   UNL A   1      38.819  32.150  33.925  1.00  0.00     0.049 A 
ATOM     49  H   UNL A   1      39.606  30.942  32.420  1.00  0.00     0.167 HD
ATOM     50  C   UNL A   1      40.966  28.229  29.243  1.00  0.00     0.034 A 
ATOM     51  C   UNL A   1      39.550  31.936  35.037  1.00  0.00     0.034 A 
ATOM     52  C   UNL A   1      41.870  28.015  30.346  1.00  0.00     0.049 A 
ATOM     53  C   UNL A   1      40.690  30.950  34.982  1.00  0.00     0.074 A 
ATOM     54  C   UNL A   1      42.989  27.201  30.400  1.00  0.00     0.029 A 
ATOM     55  N   UNL A   1      41.757  28.613  31.596  1.00  0.00    -0.354 N 
ATOM     56  N   UNL A   1      41.085  30.200  33.980  1.00  0.00    -0.248 NA
ATOM     57  C   UNL A   1      41.488  30.794  36.204  1.00  0.00     0.031 C 
ATOM     58  C   UNL A   1      43.513  27.257  31.696  1.00  0.00     0.029 A 
ATOM     59  C   UNL A   1      42.767  28.162  32.434  1.00  0.00     0.049 A 
ATOM     60  H   UNL A   1      41.062  29.262  31.850  1.00  0.00     0.167 HD
ATOM     61  C   UNL A   1      42.195  29.502  34.443  1.00  0.00     0.074 A 
ATOM     62  C   UNL A   1      42.416  29.933  35.810  1.00  0.00     0.031 C 
ATOM     63  C   UNL A   1      42.968  28.591  33.799  1.00  0.00     0.034 A 
BRANCH  50  64
ATOM     64  C   UNL A   1      41.146  27.417  27.983  1.00  0.00     0.023 A 
ATOM     65  C   UNL A   1      40.799  26.054  27.925  1.00  0.00     0.031 A 
ATOM     66  C   UNL A   1      41.703  28.001  26.832  1.00  0.00     0.131 A 
ATOM     67  C   UNL A   1      41.090  25.304  26.776  1.00  0.00     0.055 A 
ATOM     68  C   UNL A   1      41.912  27.268  25.661  1.00  0.00     0.041 A 
ATOM     69  F   UNL A   1      42.072  29.291  26.830  1.00  0.00    -0.206 F 
ATOM     70  C   UNL A   1      41.621  25.907  25.634  1.00  0.00     0.022 A 
BRANCH  67  71
ATOM     71  S   UNL A   1      40.903  23.501  26.850  1.00  0.00     0.124 S 
ATOM     72  O   UNL A   1      39.473  23.344  26.593  1.00  0.00    -0.237 OA
ATOM     73  O   UNL A   1      41.796  23.048  25.790  1.00  0.00    -0.237 OA
ATOM     74  O   UNL A   1      41.326  23.168  28.208  1.00  0.00    -0.744 OA
ENDBRANCH  67  71
ENDBRANCH  50  64
BRANCH  51  75
ATOM     75  C   UNL A   1      39.227  32.654  36.303  1.00  0.00     0.023 A 
ATOM     76  C   UNL A   1      38.378  32.082  37.263  1.00  0.00     0.031 A 
ATOM     77  C   UNL A   1      39.734  33.942  36.554  1.00  0.00     0.131 A 
ATOM     78  C   UNL A   1      38.025  32.811  38.410  1.00  0.00     0.055 A 
ATOM     79  C   UNL A   1      39.420  34.644  37.719  1.00  0.00     0.041 A 
ATOM     80  F   UNL A   1      40.556  34.532  35.671  1.00  0.00    -0.206 F 
ATOM     81  C   UNL A   1      38.550  34.084  38.649  1.00  0.00     0.022 A 
BRANCH  78  82
ATOM     82  S   UNL A   1      36.806  32.102  39.550  1.00  0.00     0.124 S 
ATOM     83  O   UNL A   1      35.557  32.635  39.020  1.00  0.00    -0.237 OA
ATOM     84  O   UNL A   1      37.021  30.670  39.371  1.00  0.00    -0.237 OA
ATOM     85  O   UNL A   1      37.209  32.632  40.852  1.00  0.00    -0.744 OA
ENDBRANCH  78  82
ENDBRANCH  51  75
BRANCH  63  86
ATOM     86  C   UNL A   1      44.148  28.035  34.557  1.00  0.00     0.023 A 
ATOM     87  C   UNL A   1      44.071  26.820  35.260  1.00  0.00     0.031 A 
ATOM     88  C   UNL A   1      45.363  28.741  34.586  1.00  0.00     0.131 A 
ATOM     89  C   UNL A   1      45.172  26.375  36.007  1.00  0.00     0.055 A 
ATOM     90  C   UNL A   1      46.473  28.264  35.283  1.00  0.00     0.041 A 
ATOM     91  F   UNL A   1      45.492  29.908  33.934  1.00  0.00    -0.206 F 
ATOM     92  C   UNL A   1      46.377  27.081  36.010  1.00  0.00     0.022 A 
BRANCH  89  93
ATOM     93  S   UNL A   1      44.981  24.902  37.048  1.00  0.00     0.124 S 
ATOM     94  O   UNL A   1      44.764  25.489  38.367  1.00  0.00    -0.237 OA
ATOM     95  O   UNL A   1      43.828  24.240  36.448  1.00  0.00    -0.237 OA
ATOM     96  O   UNL A   1      46.252  24.198  36.885  1.00  0.00    -0.744 OA
ENDBRANCH  89  93
ENDBRANCH  63  86
ENDBRANCH  37  38
ENDBRANCH  29  32
ENDBRANCH  27  28
ENDBRANCH  26  27
ENDBRANCH   1  26
TORSDOF 18
ENDMDL
MODEL 2
REMARK VINA RESULT:     -12.1      1.645      2.066
REMARK SMILES O=C(CC(=O)c1ccccc1)Nc1cccc(C(=O)NCCCCNC(=O)c2ccc(-c3c4nc(c(-c5cc(S(=O)(=O)[O-])ccc5F)c5ccc([nH]5)c(-c5cc(S(=O)(=O)[O-])ccc5F)c5nc(c(-c6cc(S(=O)(=O)[O-])ccc6F)c6ccc3[nH]6)C=C5)C=C4)cc2)c1
REMARK SMILES IDX 22 1 21 2 20 3 18 4 19 5 17 7 13 8 14 9 91 10 15 11 16 12
REMARK SMILES IDX 12 13 1 14 2 15 3 17 4 18 5 19 6 20 7 21 11 22 8 23 10 24
REMARK SMILES IDX 9 25 23 26 24 27 25 28 26 29 27 31 28 32 29 33 90 34 30 35
REMARK SMILES IDX 89 36 31 37 32 38 33 39 83 40 34 41 88 42 82 43 84 44 35 45
REMARK SMILES IDX 87 46 81 47 80 48 36 50 68 51 48 52 67 53 49 54 52 55 66 56
REMARK SMILES IDX 85 57 50 58 51 59 65 61 86 62 53 63 37 64 38 65 46 66 39 67
REMARK SMILES IDX 45 68 47 69 44 70 40 71 41 72 42 73 43 74 69 75 70 76 78 77
REMARK SMILES IDX 71 78 77 79 79 80 76 81 72 82 73 83 74 84 75 85 54 86 55 87
REMARK SMILES IDX 63 88 56 89 62 90 64 91 61 92 57 93 58 94 59 95 60 96
REMARK H PARENT 20 6 12 16 25 30 84 49 52 60
REMARK Flexibility Score: inf
ROOT
ATOM      1  C   UNL A   1      32.144  29.786  26.898  1.00  0.00     0.023 C 
ENDROOT
BRANCH   1   2
ATOM      2  C   UNL A   1      33.505  29.267  26.453  1.00  0.00     0.116 C 
BRANCH   2   3
ATOM      3  N   UNL A   1      33.716  29.241  25.009  1.00  0.00    -0.352 N 
ATOM      4  C   UNL A   1      33.104  28.478  24.033  1.00  0.00     0.251 C 
ATOM      5  O   UNL A   1      33.433  28.607  22.857  1.00  0.00    -0.269 OA
ATOM      6  H   UNL A   1      34.402  29.865  24.679  1.00  0.00     0.163 HD
BRANCH   4   7
ATOM      7  C   UNL A   1      32.103  27.440  24.394  1.00  0.00     0.041 A 
ATOM      8  C   UNL A   1      31.627  25.124  24.887  1.00  0.00     0.041 A 
ATOM      9  C   UNL A   1      30.277  25.351  24.609  1.00  0.00     0.026 A 
ATOM     10  C   UNL A   1      32.497  26.208  24.913  1.00  0.00     0.040 A 
ATOM     11  C   UNL A   1      29.831  26.635  24.276  1.00  0.00     0.003 A 
ATOM     12  C   UNL A   1      30.751  27.674  24.130  1.00  0.00     0.014 A 
BRANCH   8  13
ATOM     13  N   UNL A   1      32.065  23.790  25.052  1.00  0.00    -0.326 N 
ATOM     14  O   UNL A   1      31.761  23.504  27.347  1.00  0.00    -0.274 OA
ATOM     15  C   UNL A   1      32.073  23.072  26.241  1.00  0.00     0.232 C 
ATOM     16  H   UNL A   1      32.394  23.326  24.250  1.00  0.00     0.169 HD
BRANCH  15  17
ATOM     17  C   UNL A   1      32.556  21.656  26.120  1.00  0.00     0.181 C 
BRANCH  17  18
ATOM     18  C   UNL A   1      33.496  21.346  24.991  1.00  0.00     0.172 C 
ATOM     19  O   UNL A   1      34.320  22.180  24.613  1.00  0.00    -0.294 OA
BRANCH  18  20
ATOM     20  C   UNL A   1      33.479  20.014  24.326  1.00  0.00     0.018 A 
ATOM     21  C   UNL A   1      32.430  19.758  23.436  1.00  0.00     0.012 A 
ATOM     22  C   UNL A   1      34.391  18.997  24.622  1.00  0.00     0.012 A 
ATOM     23  C   UNL A   1      32.289  18.495  22.858  1.00  0.00     0.001 A 
ATOM     24  C   UNL A   1      34.233  17.728  24.062  1.00  0.00     0.001 A 
ATOM     25  C   UNL A   1      33.183  17.478  23.182  1.00  0.00     0.000 A 
ENDBRANCH  18  20
ENDBRANCH  17  18
ENDBRANCH  15  17
ENDBRANCH   8  13
ENDBRANCH   4   7
ENDBRANCH   2   3
ENDBRANCH   1   2
BRANCH   1  26
ATOM     26  C   UNL A   1      31.927  31.289  26.800  1.00  0.00     0.023 C 
BRANCH  26  27
ATOM     27  C   UNL A   1      33.056  32.166  27.330  1.00  0.00     0.116 C 
BRANCH  27  28
ATOM     28  N   UNL A   1      32.665  33.544  27.587  1.00  0.00    -0.352 N 
ATOM     29  C   UNL A   1      33.177  34.455  28.487  1.00  0.00     0.251 C 
ATOM     30  H   UNL A   1      31.922  33.877  27.034  1.00  0.00     0.163 HD
ATOM     31  O   UNL A   1      32.647  35.551  28.611  1.00  0.00    -0.269 OA
BRANCH  29  32
ATOM     32  C   UNL A   1      34.334  34.085  29.337  1.00  0.00     0.039 A 
ATOM     33  C   UNL A   1      34.114  33.295  30.468  1.00  0.00     0.014 A 
ATOM     34  C   UNL A   1      35.631  34.485  29.007  1.00  0.00     0.014 A 
ATOM     35  C   UNL A   1      35.203  32.820  31.206  1.00  0.00     0.010 A 
ATOM     36  C   UNL A   1      36.717  33.943  29.689  1.00  0.00     0.010 A 
ATOM     37  C   UNL A   1      36.516  33.094  30.790  1.00  0.00    -0.014 A 
BRANCH  37  38
ATOM     38  C   UNL A   1      37.691  32.489  31.473  1.00  0.00     0.031 A 
ATOM     39  C   UNL A   1      38.435  31.349  30.831  1.00  0.00     0.074 A 
ATOM     40  C   UNL A   1      38.034  32.906  32.708  1.00  0.00     0.049 A 
ATOM     41  N   UNL A   1      39.416  30.625  31.308  1.00  0.00    -0.248 NA
ATOM     42  C   UNL A   1      37.992  30.948  29.488  1.00  0.00     0.031 C 
ATOM     43  C   UNL A   1      37.357  33.965  33.462  1.00  0.00     0.029 A 
ATOM     44  N   UNL A   1      39.027  32.484  33.558  1.00  0.00    -0.354 N 
ATOM     45  C   UNL A   1      39.691  29.670  30.334  1.00  0.00     0.074 A 
ATOM     46  C   UNL A   1      38.733  29.874  29.268  1.00  0.00     0.031 C 
ATOM     47  C   UNL A   1      37.965  34.121  34.649  1.00  0.00     0.029 A 
ATOM     48  C   UNL A   1      39.046  33.146  34.763  1.00  0.00     0.049 A 
ATOM     49  H   UNL A   1      39.666  31.771  33.325  1.00  0.00     0.167 HD
ATOM     50  C   UNL A   1      40.666  28.726  30.321  1.00  0.00     0.034 A 
ATOM     51  C   UNL A   1      39.833  32.981  35.846  1.00  0.00     0.034 A 
ATOM     52  C   UNL A   1      41.626  28.549  31.384  1.00  0.00     0.049 A 
ATOM     53  C   UNL A   1      40.910  31.927  35.809  1.00  0.00     0.074 A 
ATOM     54  C   UNL A   1      42.698  27.675  31.442  1.00  0.00     0.029 A 
ATOM     55  N   UNL A   1      41.626  29.255  32.581  1.00  0.00    -0.354 N 
ATOM     56  N   UNL A   1      41.197  31.072  34.854  1.00  0.00    -0.248 NA
ATOM     57  C   UNL A   1      41.775  31.823  36.991  1.00  0.00     0.031 C 
ATOM     58  C   UNL A   1      43.306  27.807  32.695  1.00  0.00     0.029 A 
ATOM     59  C   UNL A   1      42.660  28.814  33.395  1.00  0.00     0.049 A 
ATOM     60  H   UNL A   1      40.987  29.965  32.818  1.00  0.00     0.167 HD
ATOM     61  C   UNL A   1      42.294  30.349  35.310  1.00  0.00     0.074 A 
ATOM     62  C   UNL A   1      42.625  30.878  36.619  1.00  0.00     0.031 C 
ATOM     63  C   UNL A   1      42.972  29.341  34.703  1.00  0.00     0.034 A 
BRANCH  50  64
ATOM     64  C   UNL A   1      40.720  27.802  29.128  1.00  0.00     0.023 A 
ATOM     65  C   UNL A   1      41.653  27.986  28.091  1.00  0.00     0.031 A 
ATOM     66  C   UNL A   1      39.804  26.742  29.006  1.00  0.00     0.131 A 
ATOM     67  C   UNL A   1      41.596  27.180  26.944  1.00  0.00     0.055 A 
ATOM     68  C   UNL A   1      39.807  25.889  27.899  1.00  0.00     0.041 A 
ATOM     69  F   UNL A   1      38.877  26.527  29.952  1.00  0.00    -0.206 F 
ATOM     70  C   UNL A   1      40.695  26.116  26.852  1.00  0.00     0.022 A 
BRANCH  67  71
ATOM     71  S   UNL A   1      42.614  27.637  25.515  1.00  0.00     0.124 S 
ATOM     72  O   UNL A   1      42.510  26.439  24.685  1.00  0.00    -0.237 OA
ATOM     73  O   UNL A   1      41.934  28.824  25.010  1.00  0.00    -0.237 OA
ATOM     74  O   UNL A   1      43.934  27.873  26.095  1.00  0.00    -0.744 OA
ENDBRANCH  67  71
ENDBRANCH  50  64
BRANCH  51  75
ATOM     75  C   UNL A   1      39.632  33.821  37.061  1.00  0.00     0.023 A 
ATOM     76  C   UNL A   1      38.936  33.326  38.175  1.00  0.00     0.031 A 
ATOM     77  C   UNL A   1      40.102  35.145  37.112  1.00  0.00     0.131 A 
ATOM     78  C   UNL A   1      38.690  34.163  39.276  1.00  0.00     0.055 A 
ATOM     79  C   UNL A   1      39.899  35.958  38.228  1.00  0.00     0.041 A 
ATOM     80  F   UNL A   1      40.781  35.665  36.076  1.00  0.00    -0.206 F 
ATOM     81  C   UNL A   1      39.178  35.472  39.314  1.00  0.00     0.022 A 
BRANCH  78  82
ATOM     82  S   UNL A   1      37.655  33.539  40.628  1.00  0.00     0.124 S 
ATOM     83  O   UNL A   1      37.302  34.769  41.325  1.00  0.00    -0.237 OA
ATOM     84  O   UNL A   1      36.575  32.878  39.903  1.00  0.00    -0.237 OA
ATOM     85  O   UNL A   1      38.552  32.643  41.357  1.00  0.00    -0.744 OA
ENDBRANCH  78  82
ENDBRANCH  51  75
BRANCH  63  86
ATOM     86  C   UNL A   1      44.165  28.779  35.436  1.00  0.00     0.023 A 
ATOM     87  C   UNL A   1      44.035  27.748  36.383  1.00  0.00     0.031 A 
ATOM     88  C   UNL A   1      45.450  29.294  35.191  1.00  0.00     0.131 A 
ATOM     89  C   UNL A   1      45.161  27.303  37.089  1.00  0.00     0.055 A 
ATOM     90  C   UNL A   1      46.575  28.807  35.855  1.00  0.00     0.041 A 
ATOM     91  F   UNL A   1      45.632  30.281  34.298  1.00  0.00    -0.206 F 
ATOM     92  C   UNL A   1      46.433  27.814  36.821  1.00  0.00     0.022 A 
BRANCH  89  93
ATOM     93  S   UNL A   1      44.931  26.104  38.431  1.00  0.00     0.124 S 
ATOM     94  O   UNL A   1      46.091  26.370  39.277  1.00  0.00    -0.237 OA
ATOM     95  O   UNL A   1      43.638  26.494  38.982  1.00  0.00    -0.237 OA
ATOM     96  O   UNL A   1      44.948  24.813  37.746  1.00  0.00    -0.744 OA
ENDBRANCH  89  93
ENDBRANCH  63  86
ENDBRANCH  37  38
ENDBRANCH  29  32
ENDBRANCH  27  28
ENDBRANCH  26  27
ENDBRANCH   1  26
TORSDOF 18
ENDMDL
MODEL 3
REMARK VINA RESULT:     -11.9      5.720     11.374
REMARK SMILES O=C(CC(=O)c1ccccc1)Nc1cccc(C(=O)NCCCCNC(=O)c2ccc(-c3c4nc(c(-c5cc(S(=O)(=O)[O-])ccc5F)c5ccc([nH]5)c(-c5cc(S(=O)(=O)[O-])ccc5F)c5nc(c(-c6cc(S(=O)(=O)[O-])ccc6F)c6ccc3[nH]6)C=C5)C=C4)cc2)c1
REMARK SMILES IDX 22 1 21 2 20 3 18 4 19 5 17 7 13 8 14 9 91 10 15 11 16 12
REMARK SMILES IDX 12 13 1 14 2 15 3 17 4 18 5 19 6 20 7 21 11 22 8 23 10 24
REMARK SMILES IDX 9 25 23 26 24 27 25 28 26 29 27 31 28 32 29 33 90 34 30 35
REMARK SMILES IDX 89 36 31 37 32 38 33 39 83 40 34 41 88 42 82 43 84 44 35 45
REMARK SMILES IDX 87 46 81 47 80 48 36 50 68 51 48 52 67 53 49 54 52 55 66 56
REMARK SMILES IDX 85 57 50 58 51 59 65 61 86 62 53 63 37 64 38 65 46 66 39 67
REMARK SMILES IDX 45 68 47 69 44 70 40 71 41 72 42 73 43 74 69 75 70 76 78 77
REMARK SMILES IDX 71 78 77 79 79 80 76 81 72 82 73 83 74 84 75 85 54 86 55 87
REMARK SMILES IDX 63 88 56 89 62 90 64 91 61 92 57 93 58 94 59 95 60 96
REMARK H PARENT 20 6 12 16 25 30 84 49 52 60
REMARK Flexibility Score: inf
ROOT
ATOM      1  C   UNL A   1      37.115  21.695  24.385  1.00  0.00     0.023 C 
ENDROOT
BRANCH   1   2
ATOM      2  C   UNL A   1      36.761  22.764  25.409  1.00  0.00     0.116 C 
BRANCH   2   3
ATOM      3  N   UNL A   1      35.874  22.326  26.483  1.00  0.00    -0.352 N 
ATOM      4  C   UNL A   1      34.568  21.875  26.430  1.00  0.00     0.251 C 
ATOM      5  O   UNL A   1      33.989  21.552  27.464  1.00  0.00    -0.269 OA
ATOM      6  H   UNL A   1      36.268  22.354  27.384  1.00  0.00     0.163 HD
BRANCH   4   7
ATOM      7  C   UNL A   1      33.821  21.850  25.146  1.00  0.00     0.041 A 
ATOM      8  C   UNL A   1      32.483  23.035  23.521  1.00  0.00     0.041 A 
ATOM      9  C   UNL A   1      32.027  21.813  23.019  1.00  0.00     0.026 A 
ATOM     10  C   UNL A   1      33.485  23.030  24.485  1.00  0.00     0.040 A 
ATOM     11  C   UNL A   1      32.509  20.609  23.545  1.00  0.00     0.003 A 
ATOM     12  C   UNL A   1      33.379  20.627  24.636  1.00  0.00     0.014 A 
BRANCH   8  13
ATOM     13  N   UNL A   1      31.850  24.220  23.083  1.00  0.00    -0.326 N 
ATOM     14  O   UNL A   1      33.643  25.345  22.102  1.00  0.00    -0.274 OA
ATOM     15  C   UNL A   1      32.451  25.262  22.389  1.00  0.00     0.232 C 
ATOM     16  H   UNL A   1      30.893  24.317  23.289  1.00  0.00     0.169 HD
BRANCH  15  17
ATOM     17  C   UNL A   1      31.530  26.386  22.014  1.00  0.00     0.181 C 
BRANCH  17  18
ATOM     18  C   UNL A   1      30.693  26.981  23.108  1.00  0.00     0.172 C 
ATOM     19  O   UNL A   1      30.847  26.629  24.279  1.00  0.00    -0.294 OA
BRANCH  18  20
ATOM     20  C   UNL A   1      29.681  28.032  22.812  1.00  0.00     0.018 A 
ATOM     21  C   UNL A   1      30.141  29.210  22.211  1.00  0.00     0.012 A 
ATOM     22  C   UNL A   1      28.339  27.933  23.190  1.00  0.00     0.012 A 
ATOM     23  C   UNL A   1      29.269  30.280  22.002  1.00  0.00     0.001 A 
ATOM     24  C   UNL A   1      27.476  29.015  23.003  1.00  0.00     0.001 A 
ATOM     25  C   UNL A   1      27.941  30.187  22.411  1.00  0.00     0.000 A 
ENDBRANCH  18  20
ENDBRANCH  17  18
ENDBRANCH  15  17
ENDBRANCH   8  13
ENDBRANCH   4   7
ENDBRANCH   2   3
ENDBRANCH   1   2
BRANCH   1  26
ATOM     26  C   UNL A   1      37.762  20.428  24.924  1.00  0.00     0.023 C 
BRANCH  26  27
ATOM     27  C   UNL A   1      38.907  20.627  25.910  1.00  0.00     0.116 C 
BRANCH  27  28
ATOM     28  N   UNL A   1      39.877  19.541  25.918  1.00  0.00    -0.352 N 
ATOM     29  C   UNL A   1      41.242  19.577  26.115  1.00  0.00     0.251 C 
ATOM     30  H   UNL A   1      39.503  18.645  25.758  1.00  0.00     0.163 HD
ATOM     31  O   UNL A   1      41.901  18.552  25.997  1.00  0.00    -0.269 OA
BRANCH  29  32
ATOM     32  C   UNL A   1      41.913  20.864  26.419  1.00  0.00     0.039 A 
ATOM     33  C   UNL A   1      42.178  21.750  25.371  1.00  0.00     0.014 A 
ATOM     34  C   UNL A   1      42.248  21.213  27.729  1.00  0.00     0.014 A 
ATOM     35  C   UNL A   1      42.683  23.024  25.650  1.00  0.00     0.010 A 
ATOM     36  C   UNL A   1      42.669  22.509  28.013  1.00  0.00     0.010 A 
ATOM     37  C   UNL A   1      42.880  23.434  26.978  1.00  0.00    -0.014 A 
BRANCH  37  38
ATOM     38  C   UNL A   1      43.283  24.828  27.310  1.00  0.00     0.031 A 
ATOM     39  C   UNL A   1      42.304  25.761  27.970  1.00  0.00     0.074 A 
ATOM     40  C   UNL A   1      44.498  25.278  26.938  1.00  0.00     0.049 A 
ATOM     41  N   UNL A   1      42.431  27.034  28.247  1.00  0.00    -0.248 NA
ATOM     42  C   UNL A   1      40.998  25.194  28.333  1.00  0.00     0.031 C 
ATOM     43  C   UNL A   1      45.517  24.488  26.241  1.00  0.00     0.029 A 
ATOM     44  N   UNL A   1      45.082  26.513  27.078  1.00  0.00    -0.354 N 
ATOM     45  C   UNL A   1      41.213  27.425  28.796  1.00  0.00     0.074 A 
ATOM     46  C   UNL A   1      40.347  26.266  28.757  1.00  0.00     0.031 C 
ATOM     47  C   UNL A   1      46.602  25.250  26.035  1.00  0.00     0.029 A 
ATOM     48  C   UNL A   1      46.346  26.595  26.540  1.00  0.00     0.049 A 
ATOM     49  H   UNL A   1      44.636  27.271  27.523  1.00  0.00     0.167 HD
ATOM     50  C   UNL A   1      40.859  28.632  29.305  1.00  0.00     0.034 A 
ATOM     51  C   UNL A   1      47.197  27.636  26.450  1.00  0.00     0.034 A 
ATOM     52  C   UNL A   1      41.742  29.772  29.355  1.00  0.00     0.049 A 
ATOM     53  C   UNL A   1      46.784  28.968  27.024  1.00  0.00     0.074 A 
ATOM     54  C   UNL A   1      41.513  31.018  29.914  1.00  0.00     0.029 A 
ATOM     55  N   UNL A   1      43.024  29.810  28.819  1.00  0.00    -0.354 N 
ATOM     56  N   UNL A   1      45.651  29.304  27.596  1.00  0.00    -0.248 NA
ATOM     57  C   UNL A   1      47.768  30.055  26.949  1.00  0.00     0.031 C 
ATOM     58  C   UNL A   1      42.626  31.826  29.661  1.00  0.00     0.029 A 
ATOM     59  C   UNL A   1      43.584  31.066  29.008  1.00  0.00     0.049 A 
ATOM     60  H   UNL A   1      43.471  29.056  28.371  1.00  0.00     0.167 HD
ATOM     61  C   UNL A   1      45.798  30.635  27.974  1.00  0.00     0.074 A 
ATOM     62  C   UNL A   1      47.135  31.034  27.578  1.00  0.00     0.031 C 
ATOM     63  C   UNL A   1      44.913  31.454  28.597  1.00  0.00     0.034 A 
BRANCH  50  64
ATOM     64  C   UNL A   1      39.449  28.778  29.825  1.00  0.00     0.023 A 
ATOM     65  C   UNL A   1      38.403  29.243  29.006  1.00  0.00     0.031 A 
ATOM     66  C   UNL A   1      39.149  28.481  31.166  1.00  0.00     0.131 A 
ATOM     67  C   UNL A   1      37.133  29.477  29.554  1.00  0.00     0.055 A 
ATOM     68  C   UNL A   1      37.861  28.636  31.685  1.00  0.00     0.041 A 
ATOM     69  F   UNL A   1      40.107  28.052  32.002  1.00  0.00    -0.206 F 
ATOM     70  C   UNL A   1      36.849  29.153  30.883  1.00  0.00     0.022 A 
BRANCH  67  71
ATOM     71  S   UNL A   1      35.904  30.351  28.547  1.00  0.00     0.124 S 
ATOM     72  O   UNL A   1      36.751  31.006  27.553  1.00  0.00    -0.237 OA
ATOM     73  O   UNL A   1      35.068  29.262  28.056  1.00  0.00    -0.237 OA
ATOM     74  O   UNL A   1      35.259  31.252  29.499  1.00  0.00    -0.744 OA
ENDBRANCH  67  71
ENDBRANCH  50  64
BRANCH  51  75
ATOM     75  C   UNL A   1      48.522  27.473  25.784  1.00  0.00     0.023 A 
ATOM     76  C   UNL A   1      48.647  27.575  24.390  1.00  0.00     0.031 A 
ATOM     77  C   UNL A   1      49.676  27.176  26.531  1.00  0.00     0.131 A 
ATOM     78  C   UNL A   1      49.889  27.339  23.779  1.00  0.00     0.055 A 
ATOM     79  C   UNL A   1      50.919  26.991  25.924  1.00  0.00     0.041 A 
ATOM     80  F   UNL A   1      49.612  27.075  27.868  1.00  0.00    -0.206 F 
ATOM     81  C   UNL A   1      51.028  27.060  24.539  1.00  0.00     0.022 A 
BRANCH  78  82
ATOM     82  S   UNL A   1      49.979  27.327  21.968  1.00  0.00     0.124 S 
ATOM     83  O   UNL A   1      51.379  26.992  21.742  1.00  0.00    -0.237 OA
ATOM     84  O   UNL A   1      49.007  26.295  21.623  1.00  0.00    -0.237 OA
ATOM     85  O   UNL A   1      49.595  28.689  21.600  1.00  0.00    -0.744 OA
ENDBRANCH  78  82
ENDBRANCH  51  75
BRANCH  63  86
ATOM     86  C   UNL A   1      45.384  32.850  28.923  1.00  0.00     0.023 A 
ATOM     87  C   UNL A   1      45.064  33.950  28.108  1.00  0.00     0.031 A 
ATOM     88  C   UNL A   1      46.176  33.078  30.062  1.00  0.00     0.131 A 
ATOM     89  C   UNL A   1      45.580  35.218  28.412  1.00  0.00     0.055 A 
ATOM     90  C   UNL A   1      46.638  34.352  30.392  1.00  0.00     0.041 A 
ATOM     91  F   UNL A   1      46.513  32.063  30.875  1.00  0.00    -0.206 F 
ATOM     92  C   UNL A   1      46.351  35.430  29.558  1.00  0.00     0.022 A 
BRANCH  89  93
ATOM     93  S   UNL A   1      45.302  36.577  27.243  1.00  0.00     0.124 S 
ATOM     94  O   UNL A   1      44.213  36.053  26.424  1.00  0.00    -0.237 OA
ATOM     95  O   UNL A   1      44.957  37.685  28.128  1.00  0.00    -0.237 OA
ATOM     96  O   UNL A   1      46.585  36.709  26.557  1.00  0.00    -0.744 OA
ENDBRANCH  89  93
ENDBRANCH  63  86
ENDBRANCH  37  38
ENDBRANCH  29  32
ENDBRANCH  27  28
ENDBRANCH  26  27
ENDBRANCH   1  26
TORSDOF 18
ENDMDL
