MODEL 1
REMARK VINA RESULT:     -12.6      0.000      0.000
REMARK SMILES COC(=O)c1ccc(C)c(NC(=O)[C@H]2CC=CC[C@H]2C(=O)NCCCCNC(=O)c2ccc(-c3c4nc(c(-c5cc(S(=O)(=O)[O-])ccc5F)c5ccc([nH]5)c(-c5cc(S(=O)(=O)[O-])ccc5F)c5nc(c(-c6cc(S(=O)(=O)[O-])ccc6F)c6ccc3[nH]6)C=C5)C=C4)cc2)c1
REMARK SMILES IDX 24 1 23 2 22 3 20 4 21 5 19 7 14 8 15 9 16 10 18 11 17 12
REMARK SMILES IDX 12 13 11 14 13 16 10 17 5 18 6 19 93 20 7 21 8 22 9 23 3 24
REMARK SMILES IDX 4 25 2 26 1 27 25 28 26 29 27 30 28 31 29 33 30 34 31 35
REMARK SMILES IDX 92 36 32 37 91 38 33 39 34 40 35 41 85 42 36 43 90 44 84 45
REMARK SMILES IDX 86 46 37 47 89 48 83 49 82 50 38 52 70 53 50 54 69 55 51 56
REMARK SMILES IDX 54 57 68 58 87 59 52 60 53 61 67 63 88 64 55 65 39 66 40 67
REMARK SMILES IDX 48 68 41 69 47 70 49 71 46 72 42 73 43 74 44 75 45 76 71 77
REMARK SMILES IDX 72 78 80 79 73 80 79 81 81 82 78 83 74 84 75 85 76 86 77 87
REMARK SMILES IDX 56 88 57 89 65 90 58 91 64 92 66 93 63 94 59 95 60 96 61 97
REMARK SMILES IDX 62 98
REMARK H PARENT 22 6 11 15 27 32 86 51 54 62
REMARK Flexibility Score: inf
ROOT
ATOM      1  C   UNL A   1      32.168  29.720  26.835  1.00  0.00     0.023 C 
ENDROOT
BRANCH   1   2
ATOM      2  C   UNL A   1      32.854  28.357  26.749  1.00  0.00     0.116 C 
BRANCH   2   3
ATOM      3  N   UNL A   1      33.575  28.212  25.491  1.00  0.00    -0.356 N 
ATOM      4  C   UNL A   1      33.310  27.502  24.369  1.00  0.00     0.224 C 
ATOM      5  O   UNL A   1      34.227  27.425  23.536  1.00  0.00    -0.275 OA
ATOM      6  H   UNL A   1      34.413  28.729  25.448  1.00  0.00     0.163 HD
BRANCH   4   7
ATOM      7  C   UNL A   1      32.000  26.774  24.086  1.00  0.00     0.095 C 
ATOM      8  C   UNL A   1      32.012  25.270  24.422  1.00  0.00     0.095 C 
ATOM      9  C   UNL A   1      30.747  24.587  23.853  1.00  0.00     0.041 C 
ATOM     10  C   UNL A   1      29.488  25.396  23.989  1.00  0.00    -0.030 C 
ATOM     11  C   UNL A   1      30.713  27.550  24.376  1.00  0.00     0.041 C 
ATOM     12  C   UNL A   1      29.475  26.713  24.234  1.00  0.00    -0.030 C 
BRANCH   8  13
ATOM     13  C   UNL A   1      32.063  24.868  25.876  1.00  0.00     0.228 C 
ATOM     14  N   UNL A   1      32.756  23.799  26.357  1.00  0.00    -0.326 N 
ATOM     15  H   UNL A   1      32.552  23.640  27.308  1.00  0.00     0.169 HD
ATOM     16  O   UNL A   1      31.447  25.511  26.731  1.00  0.00    -0.274 OA
BRANCH  14  17
ATOM     17  C   UNL A   1      33.684  22.858  25.872  1.00  0.00     0.044 A 
ATOM     18  C   UNL A   1      33.862  20.495  25.191  1.00  0.00     0.062 A 
ATOM     19  C   UNL A   1      35.208  20.669  24.902  1.00  0.00     0.016 A 
ATOM     20  C   UNL A   1      33.121  21.581  25.680  1.00  0.00     0.042 A 
ATOM     21  C   UNL A   1      35.778  21.933  25.060  1.00  0.00     0.006 A 
ATOM     22  C   UNL A   1      35.018  23.049  25.490  1.00  0.00    -0.027 A 
ATOM     23  C   UNL A   1      35.696  24.380  25.364  1.00  0.00     0.046 C 
BRANCH  18  24
ATOM     24  C   UNL A   1      33.199  19.211  24.848  1.00  0.00     0.337 C 
ATOM     25  O   UNL A   1      32.068  18.899  25.202  1.00  0.00    -0.246 OA
BRANCH  24  26
ATOM     26  O   UNL A   1      34.080  18.400  24.222  1.00  0.00    -0.465 OA
ATOM     27  C   UNL A   1      33.474  17.294  23.557  1.00  0.00     0.282 C 
ENDBRANCH  24  26
ENDBRANCH  18  24
ENDBRANCH  14  17
ENDBRANCH   8  13
ENDBRANCH   4   7
ENDBRANCH   2   3
ENDBRANCH   1   2
BRANCH   1  28
ATOM     28  C   UNL A   1      33.022  30.911  27.228  1.00  0.00     0.023 C 
BRANCH  28  29
ATOM     29  C   UNL A   1      34.495  30.597  27.334  1.00  0.00     0.116 C 
BRANCH  29  30
ATOM     30  N   UNL A   1      35.291  31.489  28.169  1.00  0.00    -0.352 N 
ATOM     31  C   UNL A   1      36.365  31.156  28.990  1.00  0.00     0.251 C 
ATOM     32  H   UNL A   1      35.038  32.439  28.151  1.00  0.00     0.163 HD
ATOM     33  O   UNL A   1      36.874  31.978  29.744  1.00  0.00    -0.269 OA
BRANCH  31  34
ATOM     34  C   UNL A   1      36.985  29.814  28.832  1.00  0.00     0.039 A 
ATOM     35  C   UNL A   1      37.163  29.056  29.995  1.00  0.00     0.014 A 
ATOM     36  C   UNL A   1      37.715  29.528  27.689  1.00  0.00     0.014 A 
ATOM     37  C   UNL A   1      38.287  28.244  30.104  1.00  0.00     0.010 A 
ATOM     38  C   UNL A   1      38.919  28.886  27.860  1.00  0.00     0.010 A 
ATOM     39  C   UNL A   1      39.233  28.291  29.087  1.00  0.00    -0.014 A 
BRANCH  39  40
ATOM     40  C   UNL A   1      40.601  27.807  29.211  1.00  0.00     0.031 A 
ATOM     41  C   UNL A   1      40.905  26.426  28.789  1.00  0.00     0.074 A 
ATOM     42  C   UNL A   1      41.601  28.638  29.582  1.00  0.00     0.049 A 
ATOM     43  N   UNL A   1      41.977  25.790  29.101  1.00  0.00    -0.248 NA
ATOM     44  C   UNL A   1      39.975  25.619  28.010  1.00  0.00     0.031 C 
ATOM     45  C   UNL A   1      43.039  28.408  29.457  1.00  0.00     0.029 A 
ATOM     46  N   UNL A   1      41.503  29.765  30.397  1.00  0.00    -0.354 N 
ATOM     47  C   UNL A   1      42.032  24.651  28.333  1.00  0.00     0.074 A 
ATOM     48  C   UNL A   1      40.723  24.550  27.740  1.00  0.00     0.031 C 
ATOM     49  C   UNL A   1      43.680  29.155  30.369  1.00  0.00     0.029 A 
ATOM     50  C   UNL A   1      42.667  29.777  31.198  1.00  0.00     0.049 A 
ATOM     51  H   UNL A   1      40.770  30.422  30.413  1.00  0.00     0.167 HD
ATOM     52  C   UNL A   1      43.230  24.017  28.202  1.00  0.00     0.034 A 
ATOM     53  C   UNL A   1      42.580  29.664  32.555  1.00  0.00     0.034 A 
ATOM     54  C   UNL A   1      44.222  24.576  29.135  1.00  0.00     0.049 A 
ATOM     55  C   UNL A   1      43.263  28.433  33.116  1.00  0.00     0.074 A 
ATOM     56  C   UNL A   1      45.334  25.392  29.008  1.00  0.00     0.029 A 
ATOM     57  N   UNL A   1      43.947  24.524  30.497  1.00  0.00    -0.354 N 
ATOM     58  N   UNL A   1      43.764  27.465  32.394  1.00  0.00    -0.248 NA
ATOM     59  C   UNL A   1      43.391  28.169  34.545  1.00  0.00     0.031 C 
ATOM     60  C   UNL A   1      45.714  25.833  30.311  1.00  0.00     0.029 A 
ATOM     61  C   UNL A   1      44.854  25.261  31.231  1.00  0.00     0.049 A 
ATOM     62  H   UNL A   1      43.197  24.022  30.889  1.00  0.00     0.167 HD
ATOM     63  C   UNL A   1      44.218  26.452  33.206  1.00  0.00     0.074 A 
ATOM     64  C   UNL A   1      43.954  26.947  34.548  1.00  0.00     0.031 C 
ATOM     65  C   UNL A   1      44.737  25.290  32.689  1.00  0.00     0.034 A 
BRANCH  52  66
ATOM     66  C   UNL A   1      43.588  23.064  27.076  1.00  0.00     0.023 A 
ATOM     67  C   UNL A   1      42.974  21.793  27.046  1.00  0.00     0.031 A 
ATOM     68  C   UNL A   1      44.546  23.276  26.063  1.00  0.00     0.131 A 
ATOM     69  C   UNL A   1      43.370  20.798  26.130  1.00  0.00     0.055 A 
ATOM     70  C   UNL A   1      44.969  22.277  25.175  1.00  0.00     0.041 A 
ATOM     71  F   UNL A   1      45.094  24.470  25.829  1.00  0.00    -0.206 F 
ATOM     72  C   UNL A   1      44.389  21.024  25.212  1.00  0.00     0.022 A 
BRANCH  69  73
ATOM     73  S   UNL A   1      42.539  19.189  26.161  1.00  0.00     0.124 S 
ATOM     74  O   UNL A   1      41.303  19.467  25.437  1.00  0.00    -0.237 OA
ATOM     75  O   UNL A   1      43.506  18.329  25.488  1.00  0.00    -0.237 OA
ATOM     76  O   UNL A   1      42.370  18.923  27.590  1.00  0.00    -0.744 OA
ENDBRANCH  69  73
ENDBRANCH  52  66
BRANCH  53  77
ATOM     77  C   UNL A   1      41.359  30.341  33.092  1.00  0.00     0.023 A 
ATOM     78  C   UNL A   1      41.380  31.754  33.073  1.00  0.00     0.031 A 
ATOM     79  C   UNL A   1      40.110  29.708  33.128  1.00  0.00     0.131 A 
ATOM     80  C   UNL A   1      40.197  32.471  32.847  1.00  0.00     0.055 A 
ATOM     81  C   UNL A   1      38.920  30.444  33.016  1.00  0.00     0.041 A 
ATOM     82  F   UNL A   1      40.021  28.370  33.112  1.00  0.00    -0.206 F 
ATOM     83  C   UNL A   1      38.963  31.825  32.813  1.00  0.00     0.022 A 
BRANCH  80  84
ATOM     84  S   UNL A   1      40.353  34.185  32.248  1.00  0.00     0.124 S 
ATOM     85  O   UNL A   1      38.958  34.597  32.153  1.00  0.00    -0.237 OA
ATOM     86  O   UNL A   1      41.143  34.807  33.311  1.00  0.00    -0.237 OA
ATOM     87  O   UNL A   1      41.062  34.043  30.978  1.00  0.00    -0.744 OA
ENDBRANCH  80  84
ENDBRANCH  53  77
BRANCH  65  88
ATOM     88  C   UNL A   1      45.172  24.052  33.472  1.00  0.00     0.023 A 
ATOM     89  C   UNL A   1      46.489  23.807  33.883  1.00  0.00     0.031 A 
ATOM     90  C   UNL A   1      44.245  23.027  33.812  1.00  0.00     0.131 A 
ATOM     91  C   UNL A   1      46.825  22.668  34.648  1.00  0.00     0.055 A 
ATOM     92  C   UNL A   1      44.585  21.880  34.537  1.00  0.00     0.041 A 
ATOM     93  F   UNL A   1      42.951  23.083  33.470  1.00  0.00    -0.206 F 
ATOM     94  C   UNL A   1      45.881  21.701  34.976  1.00  0.00     0.022 A 
BRANCH  91  95
ATOM     95  S   UNL A   1      48.535  22.486  35.220  1.00  0.00     0.124 S 
ATOM     96  O   UNL A   1      48.432  22.852  36.629  1.00  0.00    -0.237 OA
ATOM     97  O   UNL A   1      48.794  21.075  34.950  1.00  0.00    -0.237 OA
ATOM     98  O   UNL A   1      49.282  23.425  34.386  1.00  0.00    -0.744 OA
ENDBRANCH  91  95
ENDBRANCH  65  88
ENDBRANCH  39  40
ENDBRANCH  31  34
ENDBRANCH  29  30
ENDBRANCH  28  29
ENDBRANCH   1  28
TORSDOF 18
ENDMDL
MODEL 2
REMARK VINA RESULT:     -12.5      2.238      2.587
REMARK SMILES COC(=O)c1ccc(C)c(NC(=O)[C@H]2CC=CC[C@H]2C(=O)NCCCCNC(=O)c2ccc(-c3c4nc(c(-c5cc(S(=O)(=O)[O-])ccc5F)c5ccc([nH]5)c(-c5cc(S(=O)(=O)[O-])ccc5F)c5nc(c(-c6cc(S(=O)(=O)[O-])ccc6F)c6ccc3[nH]6)C=C5)C=C4)cc2)c1
REMARK SMILES IDX 24 1 23 2 22 3 20 4 21 5 19 7 14 8 15 9 16 10 18 11 17 12
REMARK SMILES IDX 12 13 11 14 13 16 10 17 5 18 6 19 93 20 7 21 8 22 9 23 3 24
REMARK SMILES IDX 4 25 2 26 1 27 25 28 26 29 27 30 28 31 29 33 30 34 31 35
REMARK SMILES IDX 92 36 32 37 91 38 33 39 34 40 35 41 85 42 36 43 90 44 84 45
REMARK SMILES IDX 86 46 37 47 89 48 83 49 82 50 38 52 70 53 50 54 69 55 51 56
REMARK SMILES IDX 54 57 68 58 87 59 52 60 53 61 67 63 88 64 55 65 39 66 40 67
REMARK SMILES IDX 48 68 41 69 47 70 49 71 46 72 42 73 43 74 44 75 45 76 71 77
REMARK SMILES IDX 72 78 80 79 73 80 79 81 81 82 78 83 74 84 75 85 76 86 77 87
REMARK SMILES IDX 56 88 57 89 65 90 58 91 64 92 66 93 63 94 59 95 60 96 61 97
REMARK SMILES IDX 62 98
REMARK H PARENT 22 6 11 15 27 32 86 51 54 62
REMARK Flexibility Score: inf
ROOT
ATOM      1  C   UNL A   1      33.410  29.559  25.066  1.00  0.00     0.023 C 
ENDROOT
BRANCH   1   2
ATOM      2  C   UNL A   1      33.863  28.100  25.086  1.00  0.00     0.116 C 
BRANCH   2   3
ATOM      3  N   UNL A   1      34.082  27.600  23.735  1.00  0.00    -0.356 N 
ATOM      4  C   UNL A   1      33.470  26.629  23.016  1.00  0.00     0.224 C 
ATOM      5  O   UNL A   1      34.021  26.300  21.955  1.00  0.00    -0.275 OA
ATOM      6  H   UNL A   1      34.811  28.054  23.253  1.00  0.00     0.163 HD
BRANCH   4   7
ATOM      7  C   UNL A   1      32.195  25.904  23.436  1.00  0.00     0.095 C 
ATOM      8  C   UNL A   1      32.426  24.603  24.228  1.00  0.00     0.095 C 
ATOM      9  C   UNL A   1      31.099  23.821  24.366  1.00  0.00     0.041 C 
ATOM     10  C   UNL A   1      29.894  24.680  24.629  1.00  0.00    -0.030 C 
ATOM     11  C   UNL A   1      31.016  26.786  23.856  1.00  0.00     0.041 C 
ATOM     12  C   UNL A   1      29.864  26.003  24.414  1.00  0.00    -0.030 C 
BRANCH   8  13
ATOM     13  C   UNL A   1      32.971  24.713  25.632  1.00  0.00     0.228 C 
ATOM     14  N   UNL A   1      33.811  23.808  26.206  1.00  0.00    -0.326 N 
ATOM     15  H   UNL A   1      33.942  24.000  27.163  1.00  0.00     0.169 HD
ATOM     16  O   UNL A   1      32.661  25.663  26.357  1.00  0.00    -0.274 OA
BRANCH  14  17
ATOM     17  C   UNL A   1      34.546  22.674  25.810  1.00  0.00     0.044 A 
ATOM     18  C   UNL A   1      34.255  20.312  25.167  1.00  0.00     0.062 A 
ATOM     19  C   UNL A   1      35.625  20.180  24.993  1.00  0.00     0.016 A 
ATOM     20  C   UNL A   1      33.734  21.547  25.581  1.00  0.00     0.042 A 
ATOM     21  C   UNL A   1      36.445  21.292  25.189  1.00  0.00     0.006 A 
ATOM     22  C   UNL A   1      35.916  22.559  25.542  1.00  0.00    -0.027 A 
ATOM     23  C   UNL A   1      36.879  23.706  25.464  1.00  0.00     0.046 C 
BRANCH  18  24
ATOM     24  C   UNL A   1      33.355  19.196  24.778  1.00  0.00     0.337 C 
ATOM     25  O   UNL A   1      32.153  19.162  25.012  1.00  0.00    -0.246 OA
BRANCH  24  26
ATOM     26  O   UNL A   1      34.088  18.180  24.271  1.00  0.00    -0.465 OA
ATOM     27  C   UNL A   1      33.316  17.203  23.577  1.00  0.00     0.282 C 
ENDBRANCH  24  26
ENDBRANCH  18  24
ENDBRANCH  14  17
ENDBRANCH   8  13
ENDBRANCH   4   7
ENDBRANCH   2   3
ENDBRANCH   1   2
BRANCH   1  28
ATOM     28  C   UNL A   1      32.503  30.028  26.188  1.00  0.00     0.023 C 
BRANCH  28  29
ATOM     29  C   UNL A   1      33.209  30.202  27.511  1.00  0.00     0.116 C 
BRANCH  29  30
ATOM     30  N   UNL A   1      34.034  31.395  27.655  1.00  0.00    -0.352 N 
ATOM     31  C   UNL A   1      35.344  31.476  28.118  1.00  0.00     0.251 C 
ATOM     32  H   UNL A   1      33.614  32.246  27.395  1.00  0.00     0.163 HD
ATOM     33  O   UNL A   1      35.890  32.556  28.315  1.00  0.00    -0.269 OA
BRANCH  31  34
ATOM     34  C   UNL A   1      36.129  30.219  28.235  1.00  0.00     0.039 A 
ATOM     35  C   UNL A   1      36.233  29.652  29.511  1.00  0.00     0.014 A 
ATOM     36  C   UNL A   1      37.037  29.884  27.242  1.00  0.00     0.014 A 
ATOM     37  C   UNL A   1      37.417  29.017  29.872  1.00  0.00     0.010 A 
ATOM     38  C   UNL A   1      38.272  29.435  27.648  1.00  0.00     0.010 A 
ATOM     39  C   UNL A   1      38.481  29.055  28.978  1.00  0.00    -0.014 A 
BRANCH  39  40
ATOM     40  C   UNL A   1      39.866  28.777  29.335  1.00  0.00     0.031 A 
ATOM     41  C   UNL A   1      40.487  27.532  28.845  1.00  0.00     0.074 A 
ATOM     42  C   UNL A   1      40.612  29.695  29.989  1.00  0.00     0.049 A 
ATOM     43  N   UNL A   1      41.579  27.034  29.308  1.00  0.00    -0.248 NA
ATOM     44  C   UNL A   1      39.881  26.704  27.811  1.00  0.00     0.031 C 
ATOM     45  C   UNL A   1      42.065  29.712  30.144  1.00  0.00     0.029 A 
ATOM     46  N   UNL A   1      40.161  30.671  30.878  1.00  0.00    -0.354 N 
ATOM     47  C   UNL A   1      41.981  26.032  28.454  1.00  0.00     0.074 A 
ATOM     48  C   UNL A   1      40.847  25.811  27.594  1.00  0.00     0.031 C 
ATOM     49  C   UNL A   1      42.378  30.417  31.241  1.00  0.00     0.029 A 
ATOM     50  C   UNL A   1      41.133  30.754  31.900  1.00  0.00     0.049 A 
ATOM     51  H   UNL A   1      39.332  31.197  30.807  1.00  0.00     0.167 HD
ATOM     52  C   UNL A   1      43.277  25.617  28.512  1.00  0.00     0.034 A 
ATOM     53  C   UNL A   1      40.814  30.445  33.191  1.00  0.00     0.034 A 
ATOM     54  C   UNL A   1      43.958  26.191  29.683  1.00  0.00     0.049 A 
ATOM     55  C   UNL A   1      41.590  29.270  33.752  1.00  0.00     0.074 A 
ATOM     56  C   UNL A   1      44.909  27.180  29.875  1.00  0.00     0.029 A 
ATOM     57  N   UNL A   1      43.447  25.911  30.945  1.00  0.00    -0.354 N 
ATOM     58  N   UNL A   1      42.383  28.500  33.055  1.00  0.00    -0.248 NA
ATOM     59  C   UNL A   1      41.492  28.837  35.141  1.00  0.00     0.031 C 
ATOM     60  C   UNL A   1      44.952  27.492  31.267  1.00  0.00     0.029 A 
ATOM     61  C   UNL A   1      44.051  26.673  31.924  1.00  0.00     0.049 A 
ATOM     62  H   UNL A   1      42.739  25.249  31.119  1.00  0.00     0.167 HD
ATOM     63  C   UNL A   1      42.852  27.469  33.835  1.00  0.00     0.074 A 
ATOM     64  C   UNL A   1      42.255  27.729  35.136  1.00  0.00     0.031 C 
ATOM     65  C   UNL A   1      43.659  26.483  33.321  1.00  0.00     0.034 A 
BRANCH  52  66
ATOM     66  C   UNL A   1      44.005  24.894  27.393  1.00  0.00     0.023 A 
ATOM     67  C   UNL A   1      45.081  25.548  26.754  1.00  0.00     0.031 A 
ATOM     68  C   UNL A   1      43.680  23.634  26.851  1.00  0.00     0.131 A 
ATOM     69  C   UNL A   1      45.701  25.013  25.608  1.00  0.00     0.055 A 
ATOM     70  C   UNL A   1      44.269  23.115  25.689  1.00  0.00     0.041 A 
ATOM     71  F   UNL A   1      42.816  22.800  27.433  1.00  0.00    -0.206 F 
ATOM     72  C   UNL A   1      45.279  23.810  25.053  1.00  0.00     0.022 A 
BRANCH  69  73
ATOM     73  S   UNL A   1      47.069  25.918  24.840  1.00  0.00     0.124 S 
ATOM     74  O   UNL A   1      47.928  26.205  25.984  1.00  0.00    -0.237 OA
ATOM     75  O   UNL A   1      47.576  24.950  23.874  1.00  0.00    -0.237 OA
ATOM     76  O   UNL A   1      46.413  27.087  24.253  1.00  0.00    -0.744 OA
ENDBRANCH  69  73
ENDBRANCH  52  66
BRANCH  53  77
ATOM     77  C   UNL A   1      39.412  30.844  33.528  1.00  0.00     0.023 A 
ATOM     78  C   UNL A   1      39.186  32.230  33.677  1.00  0.00     0.031 A 
ATOM     79  C   UNL A   1      38.312  30.033  33.222  1.00  0.00     0.131 A 
ATOM     80  C   UNL A   1      37.961  32.789  33.288  1.00  0.00     0.055 A 
ATOM     81  C   UNL A   1      37.055  30.591  32.943  1.00  0.00     0.041 A 
ATOM     82  F   UNL A   1      38.466  28.714  33.032  1.00  0.00    -0.206 F 
ATOM     83  C   UNL A   1      36.890  31.977  32.915  1.00  0.00     0.022 A 
BRANCH  80  84
ATOM     84  S   UNL A   1      37.923  34.577  32.939  1.00  0.00     0.124 S 
ATOM     85  O   UNL A   1      38.427  35.136  34.187  1.00  0.00    -0.237 OA
ATOM     86  O   UNL A   1      38.808  34.676  31.778  1.00  0.00    -0.237 OA
ATOM     87  O   UNL A   1      36.516  34.841  32.647  1.00  0.00    -0.744 OA
ENDBRANCH  80  84
ENDBRANCH  53  77
BRANCH  65  88
ATOM     88  C   UNL A   1      44.154  25.232  34.046  1.00  0.00     0.023 A 
ATOM     89  C   UNL A   1      45.495  24.826  34.080  1.00  0.00     0.031 A 
ATOM     90  C   UNL A   1      43.254  24.362  34.721  1.00  0.00     0.131 A 
ATOM     91  C   UNL A   1      45.903  23.687  34.808  1.00  0.00     0.055 A 
ATOM     92  C   UNL A   1      43.653  23.212  35.410  1.00  0.00     0.041 A 
ATOM     93  F   UNL A   1      41.933  24.582  34.761  1.00  0.00    -0.206 F 
ATOM     94  C   UNL A   1      44.990  22.875  35.472  1.00  0.00     0.022 A 
BRANCH  91  95
ATOM     95  S   UNL A   1      47.671  23.294  34.877  1.00  0.00     0.124 S 
ATOM     96  O   UNL A   1      47.703  21.918  34.394  1.00  0.00    -0.237 OA
ATOM     97  O   UNL A   1      48.237  24.295  33.977  1.00  0.00    -0.237 OA
ATOM     98  O   UNL A   1      48.010  23.466  36.288  1.00  0.00    -0.744 OA
ENDBRANCH  91  95
ENDBRANCH  65  88
ENDBRANCH  39  40
ENDBRANCH  31  34
ENDBRANCH  29  30
ENDBRANCH  28  29
ENDBRANCH   1  28
TORSDOF 18
ENDMDL
MODEL 3
REMARK VINA RESULT:     -12.3      4.032      9.394
REMARK SMILES COC(=O)c1ccc(C)c(NC(=O)[C@H]2CC=CC[C@H]2C(=O)NCCCCNC(=O)c2ccc(-c3c4nc(c(-c5cc(S(=O)(=O)[O-])ccc5F)c5ccc([nH]5)c(-c5cc(S(=O)(=O)[O-])ccc5F)c5nc(c(-c6cc(S(=O)(=O)[O-])ccc6F)c6ccc3[nH]6)C=C5)C=C4)cc2)c1
REMARK SMILES IDX 24 1 23 2 22 3 20 4 21 5 19 7 14 8 15 9 16 10 18 11 17 12
REMARK SMILES IDX 12 13 11 14 13 16 10 17 5 18 6 19 93 20 7 21 8 22 9 23 3 24
REMARK SMILES IDX 4 25 2 26 1 27 25 28 26 29 27 30 28 31 29 33 30 34 31 35
REMARK SMILES IDX 92 36 32 37 91 38 33 39 34 40 35 41 85 42 36 43 90 44 84 45
REMARK SMILES IDX 86 46 37 47 89 48 83 49 82 50 38 52 70 53 50 54 69 55 51 56
REMARK SMILES IDX 54 57 68 58 87 59 52 60 53 61 67 63 88 64 55 65 39 66 40 67
REMARK SMILES IDX 48 68 41 69 47 70 49 71 46 72 42 73 43 74 44 75 45 76 71 77
REMARK SMILES IDX 72 78 80 79 73 80 79 81 81 82 78 83 74 84 75 85 76 86 77 87
REMARK SMILES IDX 56 88 57 89 65 90 58 91 64 92 66 93 63 94 59 95 60 96 61 97
REMARK SMILES IDX 62 98
REMARK H PARENT 22 6 11 15 27 32 86 51 54 62
REMARK Flexibility Score: inf
ROOT
ATOM      1  C   UNL A   1      37.769  23.469  25.385  1.00  0.00     0.023 C 
ENDROOT
BRANCH   1   2
ATOM      2  C   UNL A   1      36.920  22.198  25.400  1.00  0.00     0.116 C 
BRANCH   2   3
ATOM      3  N   UNL A   1      36.034  22.174  26.557  1.00  0.00    -0.356 N 
ATOM      4  C   UNL A   1      34.828  22.746  26.789  1.00  0.00     0.224 C 
ATOM      5  O   UNL A   1      34.415  22.704  27.958  1.00  0.00    -0.275 OA
ATOM      6  H   UNL A   1      36.374  21.641  27.311  1.00  0.00     0.163 HD
BRANCH   4   7
ATOM      7  C   UNL A   1      33.983  23.457  25.737  1.00  0.00     0.095 C 
ATOM      8  C   UNL A   1      33.218  22.520  24.783  1.00  0.00     0.095 C 
ATOM      9  C   UNL A   1      32.621  23.327  23.607  1.00  0.00     0.041 C 
ATOM     10  C   UNL A   1      32.051  24.663  23.996  1.00  0.00    -0.030 C 
ATOM     11  C   UNL A   1      33.274  24.739  26.184  1.00  0.00     0.041 C 
ATOM     12  C   UNL A   1      32.334  25.283  25.149  1.00  0.00    -0.030 C 
BRANCH   8  13
ATOM     13  C   UNL A   1      32.066  21.722  25.344  1.00  0.00     0.228 C 
ATOM     14  N   UNL A   1      31.783  20.433  25.005  1.00  0.00    -0.326 N 
ATOM     15  H   UNL A   1      30.921  20.146  25.385  1.00  0.00     0.169 HD
ATOM     16  O   UNL A   1      31.291  22.222  26.163  1.00  0.00    -0.274 OA
BRANCH  14  17
ATOM     17  C   UNL A   1      32.382  19.397  24.262  1.00  0.00     0.044 A 
ATOM     18  C   UNL A   1      33.447  17.191  24.536  1.00  0.00     0.062 A 
ATOM     19  C   UNL A   1      33.646  17.106  23.165  1.00  0.00     0.016 A 
ATOM     20  C   UNL A   1      32.830  18.333  25.068  1.00  0.00     0.042 A 
ATOM     21  C   UNL A   1      33.185  18.138  22.347  1.00  0.00     0.006 A 
ATOM     22  C   UNL A   1      32.502  19.263  22.873  1.00  0.00    -0.027 A 
ATOM     23  C   UNL A   1      31.845  20.152  21.860  1.00  0.00     0.046 C 
BRANCH  18  24
ATOM     24  C   UNL A   1      33.758  16.020  25.396  1.00  0.00     0.337 C 
ATOM     25  O   UNL A   1      34.807  15.390  25.356  1.00  0.00    -0.246 OA
BRANCH  24  26
ATOM     26  O   UNL A   1      32.661  15.680  26.109  1.00  0.00    -0.465 OA
ATOM     27  C   UNL A   1      32.040  14.474  25.671  1.00  0.00     0.282 C 
ENDBRANCH  24  26
ENDBRANCH  18  24
ENDBRANCH  14  17
ENDBRANCH   8  13
ENDBRANCH   4   7
ENDBRANCH   2   3
ENDBRANCH   1   2
BRANCH   1  28
ATOM     28  C   UNL A   1      38.688  23.712  26.567  1.00  0.00     0.023 C 
BRANCH  28  29
ATOM     29  C   UNL A   1      40.156  23.577  26.237  1.00  0.00     0.116 C 
BRANCH  29  30
ATOM     30  N   UNL A   1      40.634  22.233  25.934  1.00  0.00    -0.352 N 
ATOM     31  C   UNL A   1      41.909  21.715  26.138  1.00  0.00     0.251 C 
ATOM     32  H   UNL A   1      39.976  21.619  25.537  1.00  0.00     0.163 HD
ATOM     33  O   UNL A   1      42.225  20.605  25.724  1.00  0.00    -0.269 OA
BRANCH  31  34
ATOM     34  C   UNL A   1      42.850  22.477  27.001  1.00  0.00     0.039 A 
ATOM     35  C   UNL A   1      42.648  22.398  28.384  1.00  0.00     0.014 A 
ATOM     36  C   UNL A   1      43.588  23.517  26.458  1.00  0.00     0.014 A 
ATOM     37  C   UNL A   1      42.904  23.518  29.168  1.00  0.00     0.010 A 
ATOM     38  C   UNL A   1      43.659  24.682  27.186  1.00  0.00     0.010 A 
ATOM     39  C   UNL A   1      43.262  24.699  28.528  1.00  0.00    -0.014 A 
BRANCH  39  40
ATOM     40  C   UNL A   1      43.203  26.019  29.142  1.00  0.00     0.031 A 
ATOM     41  C   UNL A   1      41.966  26.811  28.999  1.00  0.00     0.074 A 
ATOM     42  C   UNL A   1      44.203  26.461  29.936  1.00  0.00     0.049 A 
ATOM     43  N   UNL A   1      41.880  28.072  29.237  1.00  0.00    -0.248 NA
ATOM     44  C   UNL A   1      40.717  26.240  28.512  1.00  0.00     0.031 C 
ATOM     45  C   UNL A   1      44.170  27.593  30.860  1.00  0.00     0.029 A 
ATOM     46  N   UNL A   1      45.553  26.118  29.863  1.00  0.00    -0.354 N 
ATOM     47  C   UNL A   1      40.546  28.409  29.247  1.00  0.00     0.074 A 
ATOM     48  C   UNL A   1      39.876  27.256  28.705  1.00  0.00     0.031 C 
ATOM     49  C   UNL A   1      45.421  28.038  31.048  1.00  0.00     0.029 A 
ATOM     50  C   UNL A   1      46.278  27.298  30.144  1.00  0.00     0.049 A 
ATOM     51  H   UNL A   1      45.927  25.231  29.656  1.00  0.00     0.167 HD
ATOM     52  C   UNL A   1      40.181  29.579  29.841  1.00  0.00     0.034 A 
ATOM     53  C   UNL A   1      47.100  27.851  29.205  1.00  0.00     0.034 A 
ATOM     54  C   UNL A   1      41.364  30.392  30.166  1.00  0.00     0.049 A 
ATOM     55  C   UNL A   1      46.693  29.246  28.774  1.00  0.00     0.074 A 
ATOM     56  C   UNL A   1      42.035  30.722  31.332  1.00  0.00     0.029 A 
ATOM     57  N   UNL A   1      42.204  30.776  29.127  1.00  0.00    -0.354 N 
ATOM     58  N   UNL A   1      45.582  29.838  29.125  1.00  0.00    -0.248 NA
ATOM     59  C   UNL A   1      47.486  30.067  27.868  1.00  0.00     0.031 C 
ATOM     60  C   UNL A   1      43.290  31.299  30.976  1.00  0.00     0.029 A 
ATOM     61  C   UNL A   1      43.370  31.349  29.595  1.00  0.00     0.049 A 
ATOM     62  H   UNL A   1      41.994  30.653  28.174  1.00  0.00     0.167 HD
ATOM     63  C   UNL A   1      45.467  31.051  28.485  1.00  0.00     0.074 A 
ATOM     64  C   UNL A   1      46.691  31.140  27.704  1.00  0.00     0.031 C 
ATOM     65  C   UNL A   1      44.357  31.845  28.637  1.00  0.00     0.034 A 
BRANCH  52  66
ATOM     66  C   UNL A   1      38.786  29.894  30.351  1.00  0.00     0.023 A 
ATOM     67  C   UNL A   1      38.019  30.862  29.668  1.00  0.00     0.031 A 
ATOM     68  C   UNL A   1      38.172  29.368  31.507  1.00  0.00     0.131 A 
ATOM     69  C   UNL A   1      36.786  31.322  30.170  1.00  0.00     0.055 A 
ATOM     70  C   UNL A   1      36.964  29.849  32.030  1.00  0.00     0.041 A 
ATOM     71  F   UNL A   1      38.667  28.323  32.174  1.00  0.00    -0.206 F 
ATOM     72  C   UNL A   1      36.268  30.841  31.367  1.00  0.00     0.022 A 
BRANCH  69  73
ATOM     73  S   UNL A   1      35.866  32.574  29.240  1.00  0.00     0.124 S 
ATOM     74  O   UNL A   1      35.786  31.973  27.912  1.00  0.00    -0.237 OA
ATOM     75  O   UNL A   1      34.617  32.661  29.989  1.00  0.00    -0.237 OA
ATOM     76  O   UNL A   1      36.720  33.758  29.329  1.00  0.00    -0.744 OA
ENDBRANCH  69  73
ENDBRANCH  52  66
BRANCH  53  77
ATOM     77  C   UNL A   1      47.767  26.807  28.367  1.00  0.00     0.023 A 
ATOM     78  C   UNL A   1      47.304  26.697  27.036  1.00  0.00     0.031 A 
ATOM     79  C   UNL A   1      49.055  26.334  28.650  1.00  0.00     0.131 A 
ATOM     80  C   UNL A   1      48.194  26.359  26.008  1.00  0.00     0.055 A 
ATOM     81  C   UNL A   1      49.906  25.888  27.626  1.00  0.00     0.041 A 
ATOM     82  F   UNL A   1      49.567  26.442  29.885  1.00  0.00    -0.206 F 
ATOM     83  C   UNL A   1      49.498  25.957  26.293  1.00  0.00     0.022 A 
BRANCH  80  84
ATOM     84  S   UNL A   1      47.721  26.802  24.305  1.00  0.00     0.124 S 
ATOM     85  O   UNL A   1      48.639  27.898  24.015  1.00  0.00    -0.237 OA
ATOM     86  O   UNL A   1      47.958  25.549  23.589  1.00  0.00    -0.237 OA
ATOM     87  O   UNL A   1      46.312  27.170  24.423  1.00  0.00    -0.744 OA
ENDBRANCH  80  84
ENDBRANCH  53  77
BRANCH  65  88
ATOM     88  C   UNL A   1      44.057  33.152  27.903  1.00  0.00     0.023 A 
ATOM     89  C   UNL A   1      43.848  34.380  28.545  1.00  0.00     0.031 A 
ATOM     90  C   UNL A   1      43.936  33.195  26.487  1.00  0.00     0.131 A 
ATOM     91  C   UNL A   1      43.623  35.567  27.813  1.00  0.00     0.055 A 
ATOM     92  C   UNL A   1      43.676  34.364  25.763  1.00  0.00     0.041 A 
ATOM     93  F   UNL A   1      44.075  32.107  25.719  1.00  0.00    -0.206 F 
ATOM     94  C   UNL A   1      43.534  35.567  26.425  1.00  0.00     0.022 A 
BRANCH  91  95
ATOM     95  S   UNL A   1      43.462  37.126  28.724  1.00  0.00     0.124 S 
ATOM     96  O   UNL A   1      43.402  36.671  30.109  1.00  0.00    -0.237 OA
ATOM     97  O   UNL A   1      44.684  37.826  28.340  1.00  0.00    -0.237 OA
ATOM     98  O   UNL A   1      42.225  37.705  28.205  1.00  0.00    -0.744 OA
ENDBRANCH  91  95
ENDBRANCH  65  88
ENDBRANCH  39  40
ENDBRANCH  31  34
ENDBRANCH  29  30
ENDBRANCH  28  29
ENDBRANCH   1  28
TORSDOF 18
ENDMDL
