MODEL 1
REMARK VINA RESULT:     -12.1      0.000      0.000
REMARK SMILES O=C(NCCCCNC(=O)c1sccc1S(=O)(=O)Nc1ccccc1N1CCCCC1)c1ccc(-c2c3nc(c(-c4cc(S(=O)(=O)[O-])ccc4F)c4ccc([nH]4)c(-c4cc(S(=O)(=O)[O-])ccc4F)c4nc(c(-c5cc(S(=O)(=O)[O-])ccc5F)c5ccc2[nH]5)C=C4)C=C3)cc1
REMARK SMILES IDX 6 1 5 2 4 3 3 4 1 5 2 6 32 8 33 9 94 10 34 11 93 12 35 13
REMARK SMILES IDX 36 14 37 15 87 16 38 17 92 18 86 19 88 20 39 21 91 22 85 23
REMARK SMILES IDX 84 24 40 26 72 27 52 28 71 29 53 30 56 31 70 32 89 33 54 34
REMARK SMILES IDX 55 35 69 37 90 38 57 39 41 40 42 41 50 42 43 43 49 44 51 45
REMARK SMILES IDX 48 46 44 47 45 48 46 49 47 50 73 51 74 52 82 53 75 54 81 55
REMARK SMILES IDX 83 56 80 57 76 58 77 59 78 60 79 61 58 62 59 63 67 64 60 65
REMARK SMILES IDX 66 66 68 67 65 68 61 69 62 70 63 71 64 72 7 73 8 74 9 75
REMARK SMILES IDX 10 77 11 78 12 79 15 80 13 81 14 82 16 83 17 84 18 85 19 86
REMARK SMILES IDX 20 88 21 89 25 90 22 91 24 92 23 93 26 94 27 95 31 96 28 97
REMARK SMILES IDX 30 98 29 99
REMARK H PARENT 3 7 88 25 56 36 8 76 19 87
REMARK Flexibility Score: inf
ROOT
ATOM      1  C   UNL A   1      31.490  29.879  26.800  1.00  0.00     0.023 C 
ENDROOT
BRANCH   1   2
ATOM      2  C   UNL A   1      31.711  31.360  26.469  1.00  0.00     0.023 C 
BRANCH   2   3
ATOM      3  C   UNL A   1      32.892  32.017  27.180  1.00  0.00     0.116 C 
BRANCH   3   4
ATOM      4  N   UNL A   1      32.648  33.404  27.528  1.00  0.00    -0.352 N 
ATOM      5  O   UNL A   1      32.797  35.306  28.718  1.00  0.00    -0.269 OA
ATOM      6  C   UNL A   1      33.270  34.205  28.453  1.00  0.00     0.251 C 
ATOM      7  H   UNL A   1      31.924  33.838  27.024  1.00  0.00     0.163 HD
BRANCH   6   8
ATOM      8  C   UNL A   1      34.492  33.743  29.147  1.00  0.00     0.039 A 
ATOM      9  C   UNL A   1      35.737  34.330  28.900  1.00  0.00     0.014 A 
ATOM     10  C   UNL A   1      34.371  32.734  30.105  1.00  0.00     0.014 A 
ATOM     11  C   UNL A   1      36.879  33.832  29.530  1.00  0.00     0.010 A 
ATOM     12  C   UNL A   1      35.505  32.276  30.776  1.00  0.00     0.010 A 
ATOM     13  C   UNL A   1      36.772  32.803  30.476  1.00  0.00    -0.014 A 
BRANCH  13  14
ATOM     14  C   UNL A   1      37.973  32.278  31.174  1.00  0.00     0.031 A 
ATOM     15  C   UNL A   1      38.767  31.155  30.569  1.00  0.00     0.074 A 
ATOM     16  C   UNL A   1      38.312  32.775  32.378  1.00  0.00     0.049 A 
ATOM     17  N   UNL A   1      39.752  30.465  31.083  1.00  0.00    -0.248 NA
ATOM     18  C   UNL A   1      38.386  30.746  29.211  1.00  0.00     0.031 C 
ATOM     19  C   UNL A   1      37.618  33.864  33.066  1.00  0.00     0.029 A 
ATOM     20  N   UNL A   1      39.309  32.411  33.247  1.00  0.00    -0.354 N 
ATOM     21  C   UNL A   1      40.098  29.521  30.121  1.00  0.00     0.074 A 
ATOM     22  C   UNL A   1      39.192  29.713  29.007  1.00  0.00     0.031 C 
ATOM     23  C   UNL A   1      38.200  34.071  34.257  1.00  0.00     0.029 A 
ATOM     24  C   UNL A   1      39.270  33.095  34.438  1.00  0.00     0.049 A 
ATOM     25  H   UNL A   1      39.985  31.726  33.039  1.00  0.00     0.167 HD
ATOM     26  C   UNL A   1      41.082  28.588  30.164  1.00  0.00     0.034 A 
ATOM     27  C   UNL A   1      39.982  32.927  35.569  1.00  0.00     0.034 A 
ATOM     28  C   UNL A   1      41.973  28.411  31.287  1.00  0.00     0.049 A 
ATOM     29  C   UNL A   1      41.035  31.856  35.621  1.00  0.00     0.074 A 
ATOM     30  C   UNL A   1      43.029  27.525  31.422  1.00  0.00     0.029 A 
ATOM     31  N   UNL A   1      41.902  29.124  32.477  1.00  0.00    -0.354 N 
ATOM     32  N   UNL A   1      41.361  30.978  34.701  1.00  0.00    -0.248 NA
ATOM     33  C   UNL A   1      41.816  31.753  36.859  1.00  0.00     0.031 C 
ATOM     34  C   UNL A   1      43.557  27.663  32.712  1.00  0.00     0.029 A 
ATOM     35  C   UNL A   1      42.875  28.680  33.360  1.00  0.00     0.049 A 
ATOM     36  H   UNL A   1      41.255  29.842  32.666  1.00  0.00     0.167 HD
ATOM     37  C   UNL A   1      42.402  30.231  35.243  1.00  0.00     0.074 A 
ATOM     38  C   UNL A   1      42.649  30.762  36.569  1.00  0.00     0.031 C 
ATOM     39  C   UNL A   1      43.098  29.208  34.685  1.00  0.00     0.034 A 
BRANCH  26  40
ATOM     40  C   UNL A   1      41.202  27.659  28.979  1.00  0.00     0.023 A 
ATOM     41  C   UNL A   1      42.187  27.842  27.993  1.00  0.00     0.031 A 
ATOM     42  C   UNL A   1      40.283  26.609  28.802  1.00  0.00     0.131 A 
ATOM     43  C   UNL A   1      42.176  27.050  26.835  1.00  0.00     0.055 A 
ATOM     44  C   UNL A   1      40.328  25.771  27.686  1.00  0.00     0.041 A 
ATOM     45  F   UNL A   1      39.307  26.396  29.700  1.00  0.00    -0.206 F 
ATOM     46  C   UNL A   1      41.266  26.002  26.684  1.00  0.00     0.022 A 
BRANCH  43  47
ATOM     47  S   UNL A   1      43.252  27.524  25.454  1.00  0.00     0.124 S 
ATOM     48  O   UNL A   1      44.272  28.324  26.130  1.00  0.00    -0.237 OA
ATOM     49  O   UNL A   1      43.692  26.232  24.940  1.00  0.00    -0.237 OA
ATOM     50  O   UNL A   1      42.366  28.280  24.571  1.00  0.00    -0.744 OA
ENDBRANCH  43  47
ENDBRANCH  26  40
BRANCH  27  51
ATOM     51  C   UNL A   1      39.675  33.767  36.757  1.00  0.00     0.023 A 
ATOM     52  C   UNL A   1      39.002  33.239  37.868  1.00  0.00     0.031 A 
ATOM     53  C   UNL A   1      40.084  35.112  36.803  1.00  0.00     0.131 A 
ATOM     54  C   UNL A   1      38.743  34.060  38.976  1.00  0.00     0.055 A 
ATOM     55  C   UNL A   1      39.856  35.913  37.921  1.00  0.00     0.041 A 
ATOM     56  F   UNL A   1      40.743  35.655  35.766  1.00  0.00    -0.206 F 
ATOM     57  C   UNL A   1      39.177  35.388  39.016  1.00  0.00     0.022 A 
BRANCH  54  58
ATOM     58  S   UNL A   1      37.812  33.368  40.370  1.00  0.00     0.124 S 
ATOM     59  O   UNL A   1      38.594  32.179  40.689  1.00  0.00    -0.237 OA
ATOM     60  O   UNL A   1      37.867  34.454  41.343  1.00  0.00    -0.237 OA
ATOM     61  O   UNL A   1      36.489  33.113  39.802  1.00  0.00    -0.744 OA
ENDBRANCH  54  58
ENDBRANCH  27  51
BRANCH  39  62
ATOM     62  C   UNL A   1      44.228  28.631  35.497  1.00  0.00     0.023 A 
ATOM     63  C   UNL A   1      44.030  27.564  36.389  1.00  0.00     0.031 A 
ATOM     64  C   UNL A   1      45.524  29.159  35.365  1.00  0.00     0.131 A 
ATOM     65  C   UNL A   1      45.110  27.080  37.144  1.00  0.00     0.055 A 
ATOM     66  C   UNL A   1      46.601  28.646  36.087  1.00  0.00     0.041 A 
ATOM     67  F   UNL A   1      45.763  30.180  34.527  1.00  0.00    -0.206 F 
ATOM     68  C   UNL A   1      46.397  27.605  36.988  1.00  0.00     0.022 A 
BRANCH  65  69
ATOM     69  S   UNL A   1      44.808  25.779  38.372  1.00  0.00     0.124 S 
ATOM     70  O   UNL A   1      46.138  25.198  38.529  1.00  0.00    -0.237 OA
ATOM     71  O   UNL A   1      44.303  26.535  39.514  1.00  0.00    -0.237 OA
ATOM     72  O   UNL A   1      43.825  24.913  37.721  1.00  0.00    -0.744 OA
ENDBRANCH  65  69
ENDBRANCH  39  62
ENDBRANCH  13  14
ENDBRANCH   6   8
ENDBRANCH   3   4
ENDBRANCH   2   3
ENDBRANCH   1   2
BRANCH   1  73
ATOM     73  C   UNL A   1      32.166  28.899  25.847  1.00  0.00     0.116 C 
BRANCH  73  74
ATOM     74  N   UNL A   1      32.243  29.402  24.492  1.00  0.00    -0.351 N 
ATOM     75  C   UNL A   1      31.973  28.738  23.324  1.00  0.00     0.262 C 
ATOM     76  H   UNL A   1      32.527  30.339  24.396  1.00  0.00     0.163 HD
ATOM     77  O   UNL A   1      32.330  29.268  22.271  1.00  0.00    -0.268 OA
BRANCH  75  78
ATOM     78  C   UNL A   1      31.389  27.421  23.376  1.00  0.00     0.112 A 
ATOM     79  S   UNL A   1      29.692  27.393  23.715  1.00  0.00    -0.137 S 
ATOM     80  C   UNL A   1      31.898  26.142  23.266  1.00  0.00     0.111 A 
ATOM     81  C   UNL A   1      29.615  25.698  23.619  1.00  0.00     0.067 A 
ATOM     82  C   UNL A   1      30.847  25.153  23.360  1.00  0.00     0.035 A 
BRANCH  80  83
ATOM     83  S   UNL A   1      33.525  25.602  23.005  1.00  0.00     0.263 S 
ATOM     84  O   UNL A   1      33.856  26.191  21.720  1.00  0.00    -0.201 OA
ATOM     85  O   UNL A   1      34.203  26.114  24.181  1.00  0.00    -0.201 OA
BRANCH  83  86
ATOM     86  N   UNL A   1      33.934  23.991  22.943  1.00  0.00    -0.277 N 
ATOM     87  H   UNL A   1      33.544  23.461  22.210  1.00  0.00     0.180 HD
BRANCH  86  88
ATOM     88  C   UNL A   1      34.792  23.302  23.848  1.00  0.00     0.072 A 
ATOM     89  C   UNL A   1      36.055  22.958  23.334  1.00  0.00     0.029 A 
ATOM     90  C   UNL A   1      34.439  22.914  25.155  1.00  0.00     0.061 A 
ATOM     91  C   UNL A   1      37.015  22.338  24.126  1.00  0.00     0.002 A 
ATOM     92  C   UNL A   1      35.439  22.314  25.947  1.00  0.00     0.028 A 
ATOM     93  C   UNL A   1      36.714  22.037  25.445  1.00  0.00     0.002 A 
BRANCH  90  94
ATOM     94  N   UNL A   1      33.153  22.972  25.685  1.00  0.00    -0.370 N 
ATOM     95  C   UNL A   1      32.299  21.799  25.564  1.00  0.00     0.116 C 
ATOM     96  C   UNL A   1      32.858  24.020  26.659  1.00  0.00     0.116 C 
ATOM     97  C   UNL A   1      30.823  22.177  25.592  1.00  0.00     0.021 C 
ATOM     98  C   UNL A   1      31.368  24.348  26.681  1.00  0.00     0.021 C 
ATOM     99  C   UNL A   1      30.520  23.085  26.778  1.00  0.00     0.004 C 
ENDBRANCH  90  94
ENDBRANCH  86  88
ENDBRANCH  83  86
ENDBRANCH  80  83
ENDBRANCH  75  78
ENDBRANCH  73  74
ENDBRANCH   1  73
TORSDOF 18
ENDMDL
MODEL 2
REMARK VINA RESULT:     -12.0      1.316      1.592
REMARK SMILES O=C(NCCCCNC(=O)c1sccc1S(=O)(=O)Nc1ccccc1N1CCCCC1)c1ccc(-c2c3nc(c(-c4cc(S(=O)(=O)[O-])ccc4F)c4ccc([nH]4)c(-c4cc(S(=O)(=O)[O-])ccc4F)c4nc(c(-c5cc(S(=O)(=O)[O-])ccc5F)c5ccc2[nH]5)C=C4)C=C3)cc1
REMARK SMILES IDX 6 1 5 2 4 3 3 4 1 5 2 6 32 8 33 9 94 10 34 11 93 12 35 13
REMARK SMILES IDX 36 14 37 15 87 16 38 17 92 18 86 19 88 20 39 21 91 22 85 23
REMARK SMILES IDX 84 24 40 26 72 27 52 28 71 29 53 30 56 31 70 32 89 33 54 34
REMARK SMILES IDX 55 35 69 37 90 38 57 39 41 40 42 41 50 42 43 43 49 44 51 45
REMARK SMILES IDX 48 46 44 47 45 48 46 49 47 50 73 51 74 52 82 53 75 54 81 55
REMARK SMILES IDX 83 56 80 57 76 58 77 59 78 60 79 61 58 62 59 63 67 64 60 65
REMARK SMILES IDX 66 66 68 67 65 68 61 69 62 70 63 71 64 72 7 73 8 74 9 75
REMARK SMILES IDX 10 77 11 78 12 79 15 80 13 81 14 82 16 83 17 84 18 85 19 86
REMARK SMILES IDX 20 88 21 89 25 90 22 91 24 92 23 93 26 94 27 95 31 96 28 97
REMARK SMILES IDX 30 98 29 99
REMARK H PARENT 3 7 88 25 56 36 8 76 19 87
REMARK Flexibility Score: inf
ROOT
ATOM      1  C   UNL A   1      31.547  29.797  26.695  1.00  0.00     0.023 C 
ENDROOT
BRANCH   1   2
ATOM      2  C   UNL A   1      31.516  31.313  26.465  1.00  0.00     0.023 C 
BRANCH   2   3
ATOM      3  C   UNL A   1      32.787  32.059  26.865  1.00  0.00     0.116 C 
BRANCH   3   4
ATOM      4  N   UNL A   1      32.532  33.405  27.341  1.00  0.00    -0.352 N 
ATOM      5  O   UNL A   1      32.678  35.196  28.693  1.00  0.00    -0.269 OA
ATOM      6  C   UNL A   1      33.160  34.129  28.323  1.00  0.00     0.251 C 
ATOM      7  H   UNL A   1      31.793  33.873  26.890  1.00  0.00     0.163 HD
BRANCH   6   8
ATOM      8  C   UNL A   1      34.400  33.626  28.951  1.00  0.00     0.039 A 
ATOM      9  C   UNL A   1      35.647  34.189  28.663  1.00  0.00     0.014 A 
ATOM     10  C   UNL A   1      34.298  32.598  29.892  1.00  0.00     0.014 A 
ATOM     11  C   UNL A   1      36.803  33.653  29.231  1.00  0.00     0.010 A 
ATOM     12  C   UNL A   1      35.449  32.099  30.502  1.00  0.00     0.010 A 
ATOM     13  C   UNL A   1      36.714  32.605  30.158  1.00  0.00    -0.014 A 
BRANCH  13  14
ATOM     14  C   UNL A   1      37.932  32.038  30.790  1.00  0.00     0.031 A 
ATOM     15  C   UNL A   1      38.737  30.992  30.073  1.00  0.00     0.074 A 
ATOM     16  C   UNL A   1      38.277  32.424  32.033  1.00  0.00     0.049 A 
ATOM     17  N   UNL A   1      39.741  30.274  30.508  1.00  0.00    -0.248 NA
ATOM     18  C   UNL A   1      38.348  30.707  28.686  1.00  0.00     0.031 C 
ATOM     19  C   UNL A   1      37.573  33.430  32.828  1.00  0.00     0.029 A 
ATOM     20  N   UNL A   1      39.290  31.997  32.852  1.00  0.00    -0.354 N 
ATOM     21  C   UNL A   1      40.091  29.432  29.458  1.00  0.00     0.074 A 
ATOM     22  C   UNL A   1      39.168  29.713  28.376  1.00  0.00     0.031 C 
ATOM     23  C   UNL A   1      38.166  33.533  34.027  1.00  0.00     0.029 A 
ATOM     24  C   UNL A   1      39.254  32.563  34.104  1.00  0.00     0.049 A 
ATOM     25  H   UNL A   1      39.975  31.347  32.573  1.00  0.00     0.167 HD
ATOM     26  C   UNL A   1      41.092  28.517  29.401  1.00  0.00     0.034 A 
ATOM     27  C   UNL A   1      39.982  32.302  35.206  1.00  0.00     0.034 A 
ATOM     28  C   UNL A   1      41.999  28.250  30.493  1.00  0.00     0.049 A 
ATOM     29  C   UNL A   1      41.054  31.250  35.145  1.00  0.00     0.074 A 
ATOM     30  C   UNL A   1      43.071  27.374  30.532  1.00  0.00     0.029 A 
ATOM     31  N   UNL A   1      41.929  28.845  31.746  1.00  0.00    -0.354 N 
ATOM     32  N   UNL A   1      41.384  30.470  34.142  1.00  0.00    -0.248 NA
ATOM     33  C   UNL A   1      41.851  31.043  36.359  1.00  0.00     0.031 C 
ATOM     34  C   UNL A   1      43.612  27.399  31.824  1.00  0.00     0.029 A 
ATOM     35  C   UNL A   1      42.920  28.337  32.573  1.00  0.00     0.049 A 
ATOM     36  H   UNL A   1      41.273  29.530  32.009  1.00  0.00     0.167 HD
ATOM     37  C   UNL A   1      42.444  29.693  34.599  1.00  0.00     0.074 A 
ATOM     38  C   UNL A   1      42.697  30.100  35.968  1.00  0.00     0.031 C 
ATOM     39  C   UNL A   1      43.150  28.740  33.940  1.00  0.00     0.034 A 
BRANCH  26  40
ATOM     40  C   UNL A   1      41.212  27.708  28.132  1.00  0.00     0.023 A 
ATOM     41  C   UNL A   1      40.813  26.360  28.073  1.00  0.00     0.031 A 
ATOM     42  C   UNL A   1      41.786  28.273  26.979  1.00  0.00     0.131 A 
ATOM     43  C   UNL A   1      41.074  25.601  26.922  1.00  0.00     0.055 A 
ATOM     44  C   UNL A   1      41.968  27.534  25.808  1.00  0.00     0.041 A 
ATOM     45  F   UNL A   1      42.205  29.549  26.980  1.00  0.00    -0.206 F 
ATOM     46  C   UNL A   1      41.630  26.185  25.781  1.00  0.00     0.022 A 
BRANCH  43  47
ATOM     47  S   UNL A   1      40.840  23.804  27.002  1.00  0.00     0.124 S 
ATOM     48  O   UNL A   1      41.164  23.522  28.399  1.00  0.00    -0.237 OA
ATOM     49  O   UNL A   1      39.438  23.653  26.629  1.00  0.00    -0.237 OA
ATOM     50  O   UNL A   1      41.805  23.289  26.032  1.00  0.00    -0.744 OA
ENDBRANCH  43  47
ENDBRANCH  26  40
BRANCH  27  51
ATOM     51  C   UNL A   1      39.676  33.019  36.472  1.00  0.00     0.023 A 
ATOM     52  C   UNL A   1      38.749  32.509  37.392  1.00  0.00     0.031 A 
ATOM     53  C   UNL A   1      40.336  34.220  36.788  1.00  0.00     0.131 A 
ATOM     54  C   UNL A   1      38.497  33.208  38.582  1.00  0.00     0.055 A 
ATOM     55  C   UNL A   1      40.109  34.893  37.988  1.00  0.00     0.041 A 
ATOM     56  F   UNL A   1      41.241  34.738  35.941  1.00  0.00    -0.206 F 
ATOM     57  C   UNL A   1      39.179  34.388  38.892  1.00  0.00     0.022 A 
BRANCH  54  58
ATOM     58  S   UNL A   1      37.245  32.559  39.722  1.00  0.00     0.124 S 
ATOM     59  O   UNL A   1      37.177  33.618  40.723  1.00  0.00    -0.237 OA
ATOM     60  O   UNL A   1      36.081  32.423  38.852  1.00  0.00    -0.237 OA
ATOM     61  O   UNL A   1      37.824  31.299  40.183  1.00  0.00    -0.744 OA
ENDBRANCH  54  58
ENDBRANCH  27  51
BRANCH  39  62
ATOM     62  C   UNL A   1      44.299  28.110  34.682  1.00  0.00     0.023 A 
ATOM     63  C   UNL A   1      44.110  27.032  35.564  1.00  0.00     0.031 A 
ATOM     64  C   UNL A   1      45.605  28.595  34.492  1.00  0.00     0.131 A 
ATOM     65  C   UNL A   1      45.209  26.497  36.252  1.00  0.00     0.055 A 
ATOM     66  C   UNL A   1      46.699  28.031  35.147  1.00  0.00     0.041 A 
ATOM     67  F   UNL A   1      45.836  29.624  33.660  1.00  0.00    -0.206 F 
ATOM     68  C   UNL A   1      46.504  26.981  36.039  1.00  0.00     0.022 A 
BRANCH  65  69
ATOM     69  S   UNL A   1      44.925  25.184  37.471  1.00  0.00     0.124 S 
ATOM     70  O   UNL A   1      44.979  25.923  38.729  1.00  0.00    -0.237 OA
ATOM     71  O   UNL A   1      43.612  24.675  37.086  1.00  0.00    -0.237 OA
ATOM     72  O   UNL A   1      46.036  24.259  37.246  1.00  0.00    -0.744 OA
ENDBRANCH  65  69
ENDBRANCH  39  62
ENDBRANCH  13  14
ENDBRANCH   6   8
ENDBRANCH   3   4
ENDBRANCH   2   3
ENDBRANCH   1   2
BRANCH   1  73
ATOM     73  C   UNL A   1      32.494  29.028  25.780  1.00  0.00     0.116 C 
BRANCH  73  74
ATOM     74  N   UNL A   1      32.474  29.515  24.418  1.00  0.00    -0.351 N 
ATOM     75  C   UNL A   1      32.083  28.851  23.285  1.00  0.00     0.262 C 
ATOM     76  H   UNL A   1      32.782  30.440  24.288  1.00  0.00     0.163 HD
ATOM     77  O   UNL A   1      32.367  29.359  22.199  1.00  0.00    -0.268 OA
BRANCH  75  78
ATOM     78  C   UNL A   1      31.458  27.557  23.402  1.00  0.00     0.112 A 
ATOM     79  S   UNL A   1      29.773  27.598  23.791  1.00  0.00    -0.137 S 
ATOM     80  C   UNL A   1      31.923  26.259  23.324  1.00  0.00     0.111 A 
ATOM     81  C   UNL A   1      29.638  25.903  23.759  1.00  0.00     0.067 A 
ATOM     82  C   UNL A   1      30.844  25.309  23.484  1.00  0.00     0.035 A 
BRANCH  80  83
ATOM     83  S   UNL A   1      33.523  25.657  23.036  1.00  0.00     0.263 S 
ATOM     84  O   UNL A   1      33.868  26.260  21.761  1.00  0.00    -0.201 OA
ATOM     85  O   UNL A   1      34.233  26.112  24.216  1.00  0.00    -0.201 OA
BRANCH  83  86
ATOM     86  N   UNL A   1      33.862  24.031  22.933  1.00  0.00    -0.277 N 
ATOM     87  H   UNL A   1      33.421  23.530  22.209  1.00  0.00     0.180 HD
BRANCH  86  88
ATOM     88  C   UNL A   1      34.728  23.294  23.792  1.00  0.00     0.072 A 
ATOM     89  C   UNL A   1      35.971  22.946  23.235  1.00  0.00     0.029 A 
ATOM     90  C   UNL A   1      34.397  22.865  25.092  1.00  0.00     0.061 A 
ATOM     91  C   UNL A   1      36.938  22.279  23.981  1.00  0.00     0.002 A 
ATOM     92  C   UNL A   1      35.403  22.217  25.837  1.00  0.00     0.028 A 
ATOM     93  C   UNL A   1      36.661  21.935  25.295  1.00  0.00     0.002 A 
BRANCH  90  94
ATOM     94  N   UNL A   1      33.126  22.927  25.654  1.00  0.00    -0.370 N 
ATOM     95  C   UNL A   1      32.236  21.786  25.487  1.00  0.00     0.116 C 
ATOM     96  C   UNL A   1      32.882  23.925  26.693  1.00  0.00     0.116 C 
ATOM     97  C   UNL A   1      30.773  22.202  25.571  1.00  0.00     0.021 C 
ATOM     98  C   UNL A   1      31.402  24.291  26.769  1.00  0.00     0.021 C 
ATOM     99  C   UNL A   1      30.521  23.048  26.813  1.00  0.00     0.004 C 
ENDBRANCH  90  94
ENDBRANCH  86  88
ENDBRANCH  83  86
ENDBRANCH  80  83
ENDBRANCH  75  78
ENDBRANCH  73  74
ENDBRANCH   1  73
TORSDOF 18
ENDMDL
MODEL 3
REMARK VINA RESULT:     -11.9      5.417     11.382
REMARK SMILES O=C(NCCCCNC(=O)c1sccc1S(=O)(=O)Nc1ccccc1N1CCCCC1)c1ccc(-c2c3nc(c(-c4cc(S(=O)(=O)[O-])ccc4F)c4ccc([nH]4)c(-c4cc(S(=O)(=O)[O-])ccc4F)c4nc(c(-c5cc(S(=O)(=O)[O-])ccc5F)c5ccc2[nH]5)C=C4)C=C3)cc1
REMARK SMILES IDX 6 1 5 2 4 3 3 4 1 5 2 6 32 8 33 9 94 10 34 11 93 12 35 13
REMARK SMILES IDX 36 14 37 15 87 16 38 17 92 18 86 19 88 20 39 21 91 22 85 23
REMARK SMILES IDX 84 24 40 26 72 27 52 28 71 29 53 30 56 31 70 32 89 33 54 34
REMARK SMILES IDX 55 35 69 37 90 38 57 39 41 40 42 41 50 42 43 43 49 44 51 45
REMARK SMILES IDX 48 46 44 47 45 48 46 49 47 50 73 51 74 52 82 53 75 54 81 55
REMARK SMILES IDX 83 56 80 57 76 58 77 59 78 60 79 61 58 62 59 63 67 64 60 65
REMARK SMILES IDX 66 66 68 67 65 68 61 69 62 70 63 71 64 72 7 73 8 74 9 75
REMARK SMILES IDX 10 77 11 78 12 79 15 80 13 81 14 82 16 83 17 84 18 85 19 86
REMARK SMILES IDX 20 88 21 89 25 90 22 91 24 92 23 93 26 94 27 95 31 96 28 97
REMARK SMILES IDX 30 98 29 99
REMARK H PARENT 3 7 88 25 56 36 8 76 19 87
REMARK Flexibility Score: inf
ROOT
ATOM      1  C   UNL A   1      36.850  21.059  24.528  1.00  0.00     0.023 C 
ENDROOT
BRANCH   1   2
ATOM      2  C   UNL A   1      37.846  19.955  24.903  1.00  0.00     0.023 C 
BRANCH   2   3
ATOM      3  C   UNL A   1      39.066  20.419  25.695  1.00  0.00     0.116 C 
BRANCH   3   4
ATOM      4  N   UNL A   1      40.087  19.397  25.820  1.00  0.00    -0.352 N 
ATOM      5  O   UNL A   1      42.159  18.534  25.971  1.00  0.00    -0.269 OA
ATOM      6  C   UNL A   1      41.430  19.517  26.077  1.00  0.00     0.251 C 
ATOM      7  H   UNL A   1      39.769  18.474  25.701  1.00  0.00     0.163 HD
BRANCH   6   8
ATOM      8  C   UNL A   1      42.009  20.822  26.461  1.00  0.00     0.039 A 
ATOM      9  C   UNL A   1      42.304  21.127  27.794  1.00  0.00     0.014 A 
ATOM     10  C   UNL A   1      42.309  21.739  25.451  1.00  0.00     0.014 A 
ATOM     11  C   UNL A   1      42.797  22.389  28.127  1.00  0.00     0.010 A 
ATOM     12  C   UNL A   1      42.854  22.980  25.780  1.00  0.00     0.010 A 
ATOM     13  C   UNL A   1      43.079  23.326  27.123  1.00  0.00    -0.014 A 
BRANCH  13  14
ATOM     14  C   UNL A   1      43.626  24.664  27.458  1.00  0.00     0.031 A 
ATOM     15  C   UNL A   1      42.711  25.756  27.934  1.00  0.00     0.074 A 
ATOM     16  C   UNL A   1      44.937  24.912  27.277  1.00  0.00     0.049 A 
ATOM     17  N   UNL A   1      42.966  27.023  28.139  1.00  0.00    -0.248 NA
ATOM     18  C   UNL A   1      41.319  25.370  28.200  1.00  0.00     0.031 C 
ATOM     19  C   UNL A   1      45.923  23.932  26.819  1.00  0.00     0.029 A 
ATOM     20  N   UNL A   1      45.658  26.068  27.432  1.00  0.00    -0.354 N 
ATOM     21  C   UNL A   1      41.761  27.595  28.535  1.00  0.00     0.074 A 
ATOM     22  C   UNL A   1      40.771  26.537  28.510  1.00  0.00     0.031 C 
ATOM     23  C   UNL A   1      47.119  24.531  26.715  1.00  0.00     0.029 A 
ATOM     24  C   UNL A   1      46.972  25.946  27.045  1.00  0.00     0.049 A 
ATOM     25  H   UNL A   1      45.274  26.903  27.783  1.00  0.00     0.167 HD
ATOM     26  C   UNL A   1      41.508  28.881  28.890  1.00  0.00     0.034 A 
ATOM     27  C   UNL A   1      47.940  26.874  26.924  1.00  0.00     0.034 A 
ATOM     28  C   UNL A   1      42.509  29.922  28.904  1.00  0.00     0.049 A 
ATOM     29  C   UNL A   1      47.633  28.304  27.271  1.00  0.00     0.074 A 
ATOM     30  C   UNL A   1      42.374  31.247  29.283  1.00  0.00     0.029 A 
ATOM     31  N   UNL A   1      43.830  29.758  28.505  1.00  0.00    -0.354 N 
ATOM     32  N   UNL A   1      46.493  28.830  27.657  1.00  0.00    -0.248 NA
ATOM     33  C   UNL A   1      48.739  29.263  27.171  1.00  0.00     0.031 C 
ATOM     34  C   UNL A   1      43.594  31.895  29.059  1.00  0.00     0.029 A 
ATOM     35  C   UNL A   1      44.512  30.962  28.602  1.00  0.00     0.049 A 
ATOM     36  H   UNL A   1      44.226  28.910  28.199  1.00  0.00     0.167 HD
ATOM     37  C   UNL A   1      46.752  30.180  27.866  1.00  0.00     0.074 A 
ATOM     38  C   UNL A   1      48.155  30.387  27.564  1.00  0.00     0.031 C 
ATOM     39  C   UNL A   1      45.906  31.157  28.283  1.00  0.00     0.034 A 
BRANCH  26  40
ATOM     40  C   UNL A   1      40.081  29.230  29.238  1.00  0.00     0.023 A 
ATOM     41  C   UNL A   1      39.657  29.365  30.571  1.00  0.00     0.031 A 
ATOM     42  C   UNL A   1      39.116  29.375  28.225  1.00  0.00     0.131 A 
ATOM     43  C   UNL A   1      38.296  29.546  30.860  1.00  0.00     0.055 A 
ATOM     44  C   UNL A   1      37.776  29.637  28.515  1.00  0.00     0.041 A 
ATOM     45  F   UNL A   1      39.456  29.238  26.932  1.00  0.00    -0.206 F 
ATOM     46  C   UNL A   1      37.355  29.704  29.840  1.00  0.00     0.022 A 
BRANCH  43  47
ATOM     47  S   UNL A   1      37.751  29.394  32.583  1.00  0.00     0.124 S 
ATOM     48  O   UNL A   1      37.665  27.943  32.743  1.00  0.00    -0.237 OA
ATOM     49  O   UNL A   1      38.827  30.053  33.313  1.00  0.00    -0.237 OA
ATOM     50  O   UNL A   1      36.466  30.089  32.600  1.00  0.00    -0.744 OA
ENDBRANCH  43  47
ENDBRANCH  26  40
BRANCH  27  51
ATOM     51  C   UNL A   1      49.272  26.476  26.398  1.00  0.00     0.023 A 
ATOM     52  C   UNL A   1      49.739  26.949  25.164  1.00  0.00     0.031 A 
ATOM     53  C   UNL A   1      50.111  25.632  27.148  1.00  0.00     0.131 A 
ATOM     54  C   UNL A   1      51.008  26.562  24.707  1.00  0.00     0.055 A 
ATOM     55  C   UNL A   1      51.386  25.279  26.707  1.00  0.00     0.041 A 
ATOM     56  F   UNL A   1      49.709  25.166  28.342  1.00  0.00    -0.206 F 
ATOM     57  C   UNL A   1      51.840  25.742  25.476  1.00  0.00     0.022 A 
BRANCH  54  58
ATOM     58  S   UNL A   1      51.557  27.135  23.077  1.00  0.00     0.124 S 
ATOM     59  O   UNL A   1      51.814  28.549  23.330  1.00  0.00    -0.237 OA
ATOM     60  O   UNL A   1      52.732  26.303  22.839  1.00  0.00    -0.237 OA
ATOM     61  O   UNL A   1      50.412  26.853  22.214  1.00  0.00    -0.744 OA
ENDBRANCH  54  58
ENDBRANCH  27  51
BRANCH  39  62
ATOM     62  C   UNL A   1      46.496  32.528  28.484  1.00  0.00     0.023 A 
ATOM     63  C   UNL A   1      46.714  33.406  27.409  1.00  0.00     0.031 A 
ATOM     64  C   UNL A   1      46.835  32.960  29.778  1.00  0.00     0.131 A 
ATOM     65  C   UNL A   1      47.291  34.663  27.644  1.00  0.00     0.055 A 
ATOM     66  C   UNL A   1      47.369  34.227  30.010  1.00  0.00     0.041 A 
ATOM     67  F   UNL A   1      46.646  32.157  30.837  1.00  0.00    -0.206 F 
ATOM     68  C   UNL A   1      47.608  35.084  28.940  1.00  0.00     0.022 A 
BRANCH  65  69
ATOM     69  S   UNL A   1      47.670  35.733  26.229  1.00  0.00     0.124 S 
ATOM     70  O   UNL A   1      46.596  36.719  26.301  1.00  0.00    -0.237 OA
ATOM     71  O   UNL A   1      49.007  36.220  26.551  1.00  0.00    -0.237 OA
ATOM     72  O   UNL A   1      47.602  34.826  25.084  1.00  0.00    -0.744 OA
ENDBRANCH  65  69
ENDBRANCH  39  62
ENDBRANCH  13  14
ENDBRANCH   6   8
ENDBRANCH   3   4
ENDBRANCH   2   3
ENDBRANCH   1   2
BRANCH   1  73
ATOM     73  C   UNL A   1      36.488  22.011  25.664  1.00  0.00     0.116 C 
BRANCH  73  74
ATOM     74  N   UNL A   1      35.452  21.483  26.526  1.00  0.00    -0.351 N 
ATOM     75  C   UNL A   1      34.095  21.629  26.410  1.00  0.00     0.262 C 
ATOM     76  H   UNL A   1      35.762  20.952  27.294  1.00  0.00     0.163 HD
ATOM     77  O   UNL A   1      33.402  21.307  27.375  1.00  0.00    -0.268 OA
BRANCH  75  78
ATOM     78  C   UNL A   1      33.547  22.242  25.226  1.00  0.00     0.112 A 
ATOM     79  S   UNL A   1      33.052  21.130  23.996  1.00  0.00    -0.137 S 
ATOM     80  C   UNL A   1      33.371  23.551  24.818  1.00  0.00     0.111 A 
ATOM     81  C   UNL A   1      32.517  22.374  22.968  1.00  0.00     0.067 A 
ATOM     82  C   UNL A   1      32.726  23.611  23.525  1.00  0.00     0.035 A 
BRANCH  80  83
ATOM     83  S   UNL A   1      33.762  25.037  25.621  1.00  0.00     0.263 S 
ATOM     84  O   UNL A   1      32.842  25.045  26.744  1.00  0.00    -0.201 OA
ATOM     85  O   UNL A   1      35.175  24.864  25.902  1.00  0.00    -0.201 OA
BRANCH  83  86
ATOM     86  N   UNL A   1      33.653  26.516  24.868  1.00  0.00    -0.277 N 
ATOM     87  H   UNL A   1      33.735  26.522  23.886  1.00  0.00     0.180 HD
BRANCH  86  88
ATOM     88  C   UNL A   1      33.452  27.775  25.505  1.00  0.00     0.072 A 
ATOM     89  C   UNL A   1      34.461  28.160  26.405  1.00  0.00     0.029 A 
ATOM     90  C   UNL A   1      32.318  28.593  25.331  1.00  0.00     0.061 A 
ATOM     91  C   UNL A   1      34.424  29.391  27.051  1.00  0.00     0.002 A 
ATOM     92  C   UNL A   1      32.319  29.847  25.974  1.00  0.00     0.028 A 
ATOM     93  C   UNL A   1      33.361  30.248  26.815  1.00  0.00     0.002 A 
BRANCH  90  94
ATOM     94  N   UNL A   1      31.153  28.212  24.672  1.00  0.00    -0.370 N 
ATOM     95  C   UNL A   1      30.457  27.016  25.126  1.00  0.00     0.116 C 
ATOM     96  C   UNL A   1      30.475  29.208  23.846  1.00  0.00     0.116 C 
ATOM     97  C   UNL A   1      29.636  26.389  24.006  1.00  0.00     0.021 C 
ATOM     98  C   UNL A   1      29.636  28.543  22.758  1.00  0.00     0.021 C 
ATOM     99  C   UNL A   1      28.759  27.436  23.329  1.00  0.00     0.004 C 
ENDBRANCH  90  94
ENDBRANCH  86  88
ENDBRANCH  83  86
ENDBRANCH  80  83
ENDBRANCH  75  78
ENDBRANCH  73  74
ENDBRANCH   1  73
TORSDOF 18
ENDMDL
