MODEL 1
REMARK VINA RESULT:     -12.0      0.000      0.000
REMARK SMILES CCCC[C@H](C(=O)NCCCCNC(=O)c1ccc(-c2c3nc(c(-c4cc(S(=O)(=O)[O-])ccc4F)c4ccc([nH]4)c(-c4cc(S(=O)(=O)[O-])ccc4F)c4nc(c(-c5cc(S(=O)(=O)[O-])ccc5F)c5ccc2[nH]5)C=C4)C=C3)cc1)N1C(=O)/C(=C/c2ccc(C)cc2)SC1=S
REMARK SMILES IDX 10 1 9 2 8 3 6 4 7 5 5 7 4 8 3 9 2 10 1 11 79 12 80 13 92 14
REMARK SMILES IDX 81 15 82 16 91 17 93 18 83 19 84 20 85 21 90 22 86 23 89 24
REMARK SMILES IDX 87 25 88 26 11 27 12 28 13 29 14 30 15 32 16 33 17 34 78 35
REMARK SMILES IDX 18 36 77 37 19 38 20 39 21 40 71 41 22 42 76 43 70 44 72 45
REMARK SMILES IDX 23 46 75 47 69 48 68 49 24 51 56 52 36 53 55 54 37 55 40 56
REMARK SMILES IDX 54 57 73 58 38 59 39 60 53 62 74 63 41 64 25 65 26 66 34 67
REMARK SMILES IDX 27 68 33 69 35 70 32 71 28 72 29 73 30 74 31 75 57 76 58 77
REMARK SMILES IDX 66 78 59 79 65 80 67 81 64 82 60 83 61 84 62 85 63 86 42 87
REMARK SMILES IDX 43 88 51 89 44 90 50 91 52 92 49 93 45 94 46 95 47 96 48 97
REMARK H PARENT 8 6 13 31 72 50 40 61
REMARK Flexibility Score: inf
ROOT
ATOM      1  C   UNL A   1      31.288  30.852  25.804  1.00  0.00     0.023 C 
ENDROOT
BRANCH   1   2
ATOM      2  C   UNL A   1      32.610  30.093  25.866  1.00  0.00     0.116 C 
BRANCH   2   3
ATOM      3  N   UNL A   1      33.173  29.828  24.553  1.00  0.00    -0.354 N 
ATOM      4  C   UNL A   1      32.899  28.845  23.650  1.00  0.00     0.243 C 
ATOM      5  O   UNL A   1      33.564  28.834  22.611  1.00  0.00    -0.273 OA
ATOM      6  H   UNL A   1      33.866  30.466  24.268  1.00  0.00     0.163 HD
BRANCH   4   7
ATOM      7  C   UNL A   1      31.858  27.746  23.947  1.00  0.00     0.181 C 
BRANCH   7   8
ATOM      8  C   UNL A   1      30.586  27.909  23.092  1.00  0.00     0.036 C 
BRANCH   8   9
ATOM      9  C   UNL A   1      30.188  29.357  22.767  1.00  0.00     0.002 C 
BRANCH   9  10
ATOM     10  C   UNL A   1      28.714  29.642  22.497  1.00  0.00    -0.003 C 
ATOM     11  C   UNL A   1      27.762  28.581  23.022  1.00  0.00     0.004 C 
ENDBRANCH   9  10
ENDBRANCH   8   9
ENDBRANCH   7   8
BRANCH   7  12
ATOM     12  N   UNL A   1      32.594  26.462  23.795  1.00  0.00    -0.280 N 
ATOM     13  C   UNL A   1      33.319  26.046  24.908  1.00  0.00     0.266 C 
ATOM     14  C   UNL A   1      32.785  25.712  22.648  1.00  0.00     0.149 C 
ATOM     15  O   UNL A   1      33.335  26.596  26.002  1.00  0.00    -0.268 OA
ATOM     16  C   UNL A   1      34.107  24.826  24.604  1.00  0.00     0.081 C 
ATOM     17  S   UNL A   1      33.701  24.259  23.039  1.00  0.00    -0.054 SA
ATOM     18  S   UNL A   1      32.284  25.959  21.075  1.00  0.00    -0.052 S 
ATOM     19  C   UNL A   1      34.990  24.302  25.467  1.00  0.00     0.029 C 
BRANCH  19  20
ATOM     20  C   UNL A   1      35.757  23.071  25.236  1.00  0.00    -0.024 A 
ATOM     21  C   UNL A   1      37.149  23.145  25.148  1.00  0.00     0.008 A 
ATOM     22  C   UNL A   1      35.133  21.820  25.145  1.00  0.00     0.008 A 
ATOM     23  C   UNL A   1      37.913  21.978  25.058  1.00  0.00     0.004 A 
ATOM     24  C   UNL A   1      35.897  20.654  25.066  1.00  0.00     0.004 A 
ATOM     25  C   UNL A   1      37.293  20.722  25.050  1.00  0.00    -0.051 A 
ATOM     26  C   UNL A   1      38.124  19.475  25.035  1.00  0.00     0.044 C 
ENDBRANCH  19  20
ENDBRANCH   7  12
ENDBRANCH   4   7
ENDBRANCH   2   3
ENDBRANCH   1   2
BRANCH   1  27
ATOM     27  C   UNL A   1      31.252  32.167  26.582  1.00  0.00     0.023 C 
BRANCH  27  28
ATOM     28  C   UNL A   1      32.597  32.666  27.103  1.00  0.00     0.116 C 
BRANCH  28  29
ATOM     29  N   UNL A   1      32.536  34.013  27.651  1.00  0.00    -0.352 N 
ATOM     30  C   UNL A   1      33.308  34.594  28.631  1.00  0.00     0.251 C 
ATOM     31  H   UNL A   1      31.842  34.594  27.263  1.00  0.00     0.163 HD
ATOM     32  O   UNL A   1      33.016  35.713  29.046  1.00  0.00    -0.269 OA
BRANCH  30  33
ATOM     33  C   UNL A   1      34.454  33.858  29.210  1.00  0.00     0.039 A 
ATOM     34  C   UNL A   1      35.743  34.150  28.756  1.00  0.00     0.014 A 
ATOM     35  C   UNL A   1      34.267  32.896  30.207  1.00  0.00     0.014 A 
ATOM     36  C   UNL A   1      36.847  33.541  29.358  1.00  0.00     0.010 A 
ATOM     37  C   UNL A   1      35.370  32.347  30.856  1.00  0.00     0.010 A 
ATOM     38  C   UNL A   1      36.673  32.666  30.444  1.00  0.00    -0.014 A 
BRANCH  38  39
ATOM     39  C   UNL A   1      37.838  32.086  31.167  1.00  0.00     0.031 A 
ATOM     40  C   UNL A   1      38.627  30.963  30.551  1.00  0.00     0.074 A 
ATOM     41  C   UNL A   1      38.136  32.518  32.409  1.00  0.00     0.049 A 
ATOM     42  N   UNL A   1      39.608  30.262  31.059  1.00  0.00    -0.248 NA
ATOM     43  C   UNL A   1      38.236  30.554  29.194  1.00  0.00     0.031 C 
ATOM     44  C   UNL A   1      37.421  33.571  33.133  1.00  0.00     0.029 A 
ATOM     45  N   UNL A   1      39.111  32.117  33.289  1.00  0.00    -0.354 N 
ATOM     46  C   UNL A   1      39.942  29.319  30.093  1.00  0.00     0.074 A 
ATOM     47  C   UNL A   1      39.015  29.502  28.996  1.00  0.00     0.031 C 
ATOM     48  C   UNL A   1      37.992  33.746  34.335  1.00  0.00     0.029 A 
ATOM     49  C   UNL A   1      39.084  32.788  34.490  1.00  0.00     0.049 A 
ATOM     50  H   UNL A   1      39.769  31.414  33.081  1.00  0.00     0.167 HD
ATOM     51  C   UNL A   1      40.942  28.401  30.111  1.00  0.00     0.034 A 
ATOM     52  C   UNL A   1      39.838  32.640  35.597  1.00  0.00     0.034 A 
ATOM     53  C   UNL A   1      41.866  28.241  31.207  1.00  0.00     0.049 A 
ATOM     54  C   UNL A   1      40.931  31.601  35.602  1.00  0.00     0.074 A 
ATOM     55  C   UNL A   1      42.950  27.385  31.305  1.00  0.00     0.029 A 
ATOM     56  N   UNL A   1      41.812  28.946  32.404  1.00  0.00    -0.354 N 
ATOM     57  N   UNL A   1      41.266  30.751  34.660  1.00  0.00    -0.248 NA
ATOM     58  C   UNL A   1      41.753  31.511  36.816  1.00  0.00     0.031 C 
ATOM     59  C   UNL A   1      43.506  27.523  32.581  1.00  0.00     0.029 A 
ATOM     60  C   UNL A   1      42.822  28.522  33.255  1.00  0.00     0.049 A 
ATOM     61  H   UNL A   1      41.152  29.645  32.618  1.00  0.00     0.167 HD
ATOM     62  C   UNL A   1      42.361  30.048  35.158  1.00  0.00     0.074 A 
ATOM     63  C   UNL A   1      42.633  30.581  36.475  1.00  0.00     0.031 C 
ATOM     64  C   UNL A   1      43.078  29.055  34.573  1.00  0.00     0.034 A 
BRANCH  51  65
ATOM     65  C   UNL A   1      41.064  27.487  28.914  1.00  0.00     0.023 A 
ATOM     66  C   UNL A   1      42.052  27.681  27.932  1.00  0.00     0.031 A 
ATOM     67  C   UNL A   1      40.160  26.425  28.733  1.00  0.00     0.131 A 
ATOM     68  C   UNL A   1      42.060  26.885  26.776  1.00  0.00     0.055 A 
ATOM     69  C   UNL A   1      40.228  25.580  27.623  1.00  0.00     0.041 A 
ATOM     70  F   UNL A   1      39.182  26.199  29.624  1.00  0.00    -0.206 F 
ATOM     71  C   UNL A   1      41.171  25.819  26.627  1.00  0.00     0.022 A 
BRANCH  68  72
ATOM     72  S   UNL A   1      43.144  27.365  25.403  1.00  0.00     0.124 S 
ATOM     73  O   UNL A   1      43.513  26.063  24.851  1.00  0.00    -0.237 OA
ATOM     74  O   UNL A   1      42.265  28.183  24.578  1.00  0.00    -0.237 OA
ATOM     75  O   UNL A   1      44.233  28.084  26.061  1.00  0.00    -0.744 OA
ENDBRANCH  68  72
ENDBRANCH  51  65
BRANCH  52  76
ATOM     76  C   UNL A   1      39.587  33.486  36.799  1.00  0.00     0.023 A 
ATOM     77  C   UNL A   1      38.906  32.975  37.915  1.00  0.00     0.031 A 
ATOM     78  C   UNL A   1      39.995  34.832  36.835  1.00  0.00     0.131 A 
ATOM     79  C   UNL A   1      38.614  33.813  39.003  1.00  0.00     0.055 A 
ATOM     80  C   UNL A   1      39.748  35.648  37.940  1.00  0.00     0.041 A 
ATOM     81  F   UNL A   1      40.655  35.369  35.797  1.00  0.00    -0.206 F 
ATOM     82  C   UNL A   1      39.042  35.143  39.028  1.00  0.00     0.022 A 
BRANCH  79  83
ATOM     83  S   UNL A   1      37.597  33.161  40.355  1.00  0.00     0.124 S 
ATOM     84  O   UNL A   1      37.301  34.371  41.113  1.00  0.00    -0.237 OA
ATOM     85  O   UNL A   1      36.478  32.566  39.633  1.00  0.00    -0.237 OA
ATOM     86  O   UNL A   1      38.485  32.209  41.019  1.00  0.00    -0.744 OA
ENDBRANCH  79  83
ENDBRANCH  52  76
BRANCH  64  87
ATOM     87  C   UNL A   1      44.263  28.520  35.341  1.00  0.00     0.023 A 
ATOM     88  C   UNL A   1      44.136  27.471  36.268  1.00  0.00     0.031 A 
ATOM     89  C   UNL A   1      45.539  29.076  35.143  1.00  0.00     0.131 A 
ATOM     90  C   UNL A   1      45.254  27.047  37.003  1.00  0.00     0.055 A 
ATOM     91  C   UNL A   1      46.660  28.611  35.833  1.00  0.00     0.041 A 
ATOM     92  F   UNL A   1      45.719  30.082  34.272  1.00  0.00    -0.206 F 
ATOM     93  C   UNL A   1      46.519  27.599  36.779  1.00  0.00     0.022 A 
BRANCH  90  94
ATOM     94  S   UNL A   1      45.021  25.824  38.321  1.00  0.00     0.124 S 
ATOM     95  O   UNL A   1      46.394  25.582  38.756  1.00  0.00    -0.237 OA
ATOM     96  O   UNL A   1      44.170  26.541  39.265  1.00  0.00    -0.237 OA
ATOM     97  O   UNL A   1      44.380  24.701  37.639  1.00  0.00    -0.744 OA
ENDBRANCH  90  94
ENDBRANCH  64  87
ENDBRANCH  38  39
ENDBRANCH  30  33
ENDBRANCH  28  29
ENDBRANCH  27  28
ENDBRANCH   1  27
TORSDOF 19
ENDMDL
MODEL 2
REMARK VINA RESULT:     -11.8      1.523      7.465
REMARK SMILES CCCC[C@H](C(=O)NCCCCNC(=O)c1ccc(-c2c3nc(c(-c4cc(S(=O)(=O)[O-])ccc4F)c4ccc([nH]4)c(-c4cc(S(=O)(=O)[O-])ccc4F)c4nc(c(-c5cc(S(=O)(=O)[O-])ccc5F)c5ccc2[nH]5)C=C4)C=C3)cc1)N1C(=O)/C(=C/c2ccc(C)cc2)SC1=S
REMARK SMILES IDX 10 1 9 2 8 3 6 4 7 5 5 7 4 8 3 9 2 10 1 11 79 12 80 13 92 14
REMARK SMILES IDX 81 15 82 16 91 17 93 18 83 19 84 20 85 21 90 22 86 23 89 24
REMARK SMILES IDX 87 25 88 26 11 27 12 28 13 29 14 30 15 32 16 33 17 34 78 35
REMARK SMILES IDX 18 36 77 37 19 38 20 39 21 40 71 41 22 42 76 43 70 44 72 45
REMARK SMILES IDX 23 46 75 47 69 48 68 49 24 51 56 52 36 53 55 54 37 55 40 56
REMARK SMILES IDX 54 57 73 58 38 59 39 60 53 62 74 63 41 64 25 65 26 66 34 67
REMARK SMILES IDX 27 68 33 69 35 70 32 71 28 72 29 73 30 74 31 75 57 76 58 77
REMARK SMILES IDX 66 78 59 79 65 80 67 81 64 82 60 83 61 84 62 85 63 86 42 87
REMARK SMILES IDX 43 88 51 89 44 90 50 91 52 92 49 93 45 94 46 95 47 96 48 97
REMARK H PARENT 8 6 13 31 72 50 40 61
REMARK Flexibility Score: inf
ROOT
ATOM      1  C   UNL A   1      31.551  30.789  25.931  1.00  0.00     0.023 C 
ENDROOT
BRANCH   1   2
ATOM      2  C   UNL A   1      32.805  29.921  25.939  1.00  0.00     0.116 C 
BRANCH   2   3
ATOM      3  N   UNL A   1      33.378  29.743  24.615  1.00  0.00    -0.354 N 
ATOM      4  C   UNL A   1      33.080  28.850  23.630  1.00  0.00     0.243 C 
ATOM      5  O   UNL A   1      33.760  28.898  22.602  1.00  0.00    -0.273 OA
ATOM      6  H   UNL A   1      34.101  30.373  24.393  1.00  0.00     0.163 HD
BRANCH   4   7
ATOM      7  C   UNL A   1      31.991  27.774  23.821  1.00  0.00     0.181 C 
BRANCH   7   8
ATOM      8  C   UNL A   1      30.788  27.997  22.883  1.00  0.00     0.036 C 
BRANCH   8   9
ATOM      9  C   UNL A   1      29.807  29.098  23.313  1.00  0.00     0.002 C 
BRANCH   9  10
ATOM     10  C   UNL A   1      28.419  29.098  22.681  1.00  0.00    -0.003 C 
ATOM     11  C   UNL A   1      28.197  30.193  21.653  1.00  0.00     0.004 C 
ENDBRANCH   9  10
ENDBRANCH   8   9
ENDBRANCH   7   8
BRANCH   7  12
ATOM     12  N   UNL A   1      32.700  26.474  23.685  1.00  0.00    -0.280 N 
ATOM     13  C   UNL A   1      33.407  26.051  24.808  1.00  0.00     0.266 C 
ATOM     14  C   UNL A   1      32.884  25.712  22.545  1.00  0.00     0.149 C 
ATOM     15  O   UNL A   1      33.425  26.609  25.897  1.00  0.00    -0.268 OA
ATOM     16  C   UNL A   1      34.171  24.812  24.519  1.00  0.00     0.081 C 
ATOM     17  S   UNL A   1      33.766  24.242  22.955  1.00  0.00    -0.054 SA
ATOM     18  S   UNL A   1      32.402  25.956  20.966  1.00  0.00    -0.052 S 
ATOM     19  C   UNL A   1      35.035  24.276  25.393  1.00  0.00     0.029 C 
BRANCH  19  20
ATOM     20  C   UNL A   1      35.778  23.028  25.179  1.00  0.00    -0.024 A 
ATOM     21  C   UNL A   1      37.172  23.071  25.108  1.00  0.00     0.008 A 
ATOM     22  C   UNL A   1      35.128  21.790  25.086  1.00  0.00     0.008 A 
ATOM     23  C   UNL A   1      37.911  21.886  25.034  1.00  0.00     0.004 A 
ATOM     24  C   UNL A   1      35.867  20.607  25.023  1.00  0.00     0.004 A 
ATOM     25  C   UNL A   1      37.264  20.645  25.024  1.00  0.00    -0.051 A 
ATOM     26  C   UNL A   1      38.068  19.380  25.025  1.00  0.00     0.044 C 
ENDBRANCH  19  20
ENDBRANCH   7  12
ENDBRANCH   4   7
ENDBRANCH   2   3
ENDBRANCH   1   2
BRANCH   1  27
ATOM     27  C   UNL A   1      31.484  31.852  27.026  1.00  0.00     0.023 C 
BRANCH  27  28
ATOM     28  C   UNL A   1      32.790  32.587  27.318  1.00  0.00     0.116 C 
BRANCH  28  29
ATOM     29  N   UNL A   1      32.594  33.979  27.694  1.00  0.00    -0.352 N 
ATOM     30  C   UNL A   1      33.237  34.722  28.657  1.00  0.00     0.251 C 
ATOM     31  H   UNL A   1      31.901  34.458  27.186  1.00  0.00     0.163 HD
ATOM     32  O   UNL A   1      32.839  35.857  28.911  1.00  0.00    -0.269 OA
BRANCH  30  33
ATOM     33  C   UNL A   1      34.374  34.144  29.409  1.00  0.00     0.039 A 
ATOM     34  C   UNL A   1      34.108  33.328  30.512  1.00  0.00     0.014 A 
ATOM     35  C   UNL A   1      35.695  34.387  29.023  1.00  0.00     0.014 A 
ATOM     36  C   UNL A   1      35.161  32.691  31.175  1.00  0.00     0.010 A 
ATOM     37  C   UNL A   1      36.735  33.693  29.636  1.00  0.00     0.010 A 
ATOM     38  C   UNL A   1      36.481  32.833  30.715  1.00  0.00    -0.014 A 
BRANCH  38  39
ATOM     39  C   UNL A   1      37.605  32.083  31.340  1.00  0.00     0.031 A 
ATOM     40  C   UNL A   1      38.152  32.515  32.674  1.00  0.00     0.074 A 
ATOM     41  C   UNL A   1      38.181  31.063  30.673  1.00  0.00     0.049 A 
ATOM     42  N   UNL A   1      39.184  32.056  33.335  1.00  0.00    -0.248 NA
ATOM     43  C   UNL A   1      37.464  33.634  33.334  1.00  0.00     0.031 C 
ATOM     44  C   UNL A   1      37.770  30.575  29.355  1.00  0.00     0.029 A 
ATOM     45  N   UNL A   1      39.244  30.260  31.005  1.00  0.00    -0.354 N 
ATOM     46  C   UNL A   1      39.281  32.839  34.480  1.00  0.00     0.074 A 
ATOM     47  C   UNL A   1      38.238  33.840  34.388  1.00  0.00     0.031 C 
ATOM     48  C   UNL A   1      38.557  29.548  29.000  1.00  0.00     0.029 A 
ATOM     49  C   UNL A   1      39.559  29.331  30.040  1.00  0.00     0.049 A 
ATOM     50  H   UNL A   1      39.737  30.341  31.854  1.00  0.00     0.167 HD
ATOM     51  C   UNL A   1      40.144  32.721  35.521  1.00  0.00     0.034 A 
ATOM     52  C   UNL A   1      40.550  28.418  29.988  1.00  0.00     0.034 A 
ATOM     53  C   UNL A   1      41.169  31.709  35.603  1.00  0.00     0.049 A 
ATOM     54  C   UNL A   1      41.510  28.316  31.147  1.00  0.00     0.074 A 
ATOM     55  C   UNL A   1      42.058  31.462  36.635  1.00  0.00     0.029 A 
ATOM     56  N   UNL A   1      41.452  30.778  34.609  1.00  0.00    -0.354 N 
ATOM     57  N   UNL A   1      41.557  29.033  32.245  1.00  0.00    -0.248 NA
ATOM     58  C   UNL A   1      42.543  27.276  31.061  1.00  0.00     0.031 C 
ATOM     59  C   UNL A   1      42.918  30.432  36.239  1.00  0.00     0.029 A 
ATOM     60  C   UNL A   1      42.519  29.979  34.992  1.00  0.00     0.049 A 
ATOM     61  H   UNL A   1      40.965  30.698  33.757  1.00  0.00     0.167 HD
ATOM     62  C   UNL A   1      42.605  28.505  32.996  1.00  0.00     0.074 A 
ATOM     63  C   UNL A   1      43.153  27.407  32.229  1.00  0.00     0.031 C 
ATOM     64  C   UNL A   1      43.065  28.892  34.213  1.00  0.00     0.034 A 
BRANCH  51  65
ATOM     65  C   UNL A   1      40.026  33.732  36.638  1.00  0.00     0.023 A 
ATOM     66  C   UNL A   1      40.946  34.785  36.783  1.00  0.00     0.031 A 
ATOM     67  C   UNL A   1      38.998  33.624  37.592  1.00  0.00     0.131 A 
ATOM     68  C   UNL A   1      40.875  35.633  37.898  1.00  0.00     0.055 A 
ATOM     69  C   UNL A   1      38.879  34.525  38.652  1.00  0.00     0.041 A 
ATOM     70  F   UNL A   1      38.100  32.630  37.520  1.00  0.00    -0.206 F 
ATOM     71  C   UNL A   1      39.831  35.526  38.820  1.00  0.00     0.022 A 
BRANCH  68  72
ATOM     72  S   UNL A   1      42.251  36.771  38.210  1.00  0.00     0.124 S 
ATOM     73  O   UNL A   1      41.612  37.784  39.047  1.00  0.00    -0.237 OA
ATOM     74  O   UNL A   1      43.225  35.914  38.876  1.00  0.00    -0.237 OA
ATOM     75  O   UNL A   1      42.629  37.227  36.874  1.00  0.00    -0.744 OA
ENDBRANCH  68  72
ENDBRANCH  51  65
BRANCH  52  76
ATOM     76  C   UNL A   1      40.696  27.531  28.798  1.00  0.00     0.023 A 
ATOM     77  C   UNL A   1      41.670  27.786  27.820  1.00  0.00     0.031 A 
ATOM     78  C   UNL A   1      39.839  26.432  28.605  1.00  0.00     0.131 A 
ATOM     79  C   UNL A   1      41.737  26.982  26.672  1.00  0.00     0.055 A 
ATOM     80  C   UNL A   1      39.944  25.604  27.487  1.00  0.00     0.041 A 
ATOM     81  F   UNL A   1      38.895  26.139  29.513  1.00  0.00    -0.206 F 
ATOM     82  C   UNL A   1      40.889  25.884  26.505  1.00  0.00     0.022 A 
BRANCH  79  83
ATOM     83  S   UNL A   1      42.902  27.437  25.358  1.00  0.00     0.124 S 
ATOM     84  O   UNL A   1      43.064  26.170  24.654  1.00  0.00    -0.237 OA
ATOM     85  O   UNL A   1      42.166  28.477  24.648  1.00  0.00    -0.237 OA
ATOM     86  O   UNL A   1      44.078  27.899  26.092  1.00  0.00    -0.744 OA
ENDBRANCH  79  83
ENDBRANCH  52  76
BRANCH  64  87
ATOM     87  C   UNL A   1      44.190  28.082  34.811  1.00  0.00     0.023 A 
ATOM     88  C   UNL A   1      43.961  26.852  35.453  1.00  0.00     0.031 A 
ATOM     89  C   UNL A   1      45.512  28.555  34.742  1.00  0.00     0.131 A 
ATOM     90  C   UNL A   1      45.030  26.164  36.048  1.00  0.00     0.055 A 
ATOM     91  C   UNL A   1      46.580  27.838  35.283  1.00  0.00     0.041 A 
ATOM     92  F   UNL A   1      45.789  29.724  34.143  1.00  0.00    -0.206 F 
ATOM     93  C   UNL A   1      46.341  26.640  35.952  1.00  0.00     0.022 A 
BRANCH  90  94
ATOM     94  S   UNL A   1      44.677  24.678  37.027  1.00  0.00     0.124 S 
ATOM     95  O   UNL A   1      45.921  23.926  36.896  1.00  0.00    -0.237 OA
ATOM     96  O   UNL A   1      44.403  25.234  38.348  1.00  0.00    -0.237 OA
ATOM     97  O   UNL A   1      43.521  24.089  36.353  1.00  0.00    -0.744 OA
ENDBRANCH  90  94
ENDBRANCH  64  87
ENDBRANCH  38  39
ENDBRANCH  30  33
ENDBRANCH  28  29
ENDBRANCH  27  28
ENDBRANCH   1  27
TORSDOF 19
ENDMDL
MODEL 3
REMARK VINA RESULT:     -11.6      1.429      7.536
REMARK SMILES CCCC[C@H](C(=O)NCCCCNC(=O)c1ccc(-c2c3nc(c(-c4cc(S(=O)(=O)[O-])ccc4F)c4ccc([nH]4)c(-c4cc(S(=O)(=O)[O-])ccc4F)c4nc(c(-c5cc(S(=O)(=O)[O-])ccc5F)c5ccc2[nH]5)C=C4)C=C3)cc1)N1C(=O)/C(=C/c2ccc(C)cc2)SC1=S
REMARK SMILES IDX 10 1 9 2 8 3 6 4 7 5 5 7 4 8 3 9 2 10 1 11 79 12 80 13 92 14
REMARK SMILES IDX 81 15 82 16 91 17 93 18 83 19 84 20 85 21 90 22 86 23 89 24
REMARK SMILES IDX 87 25 88 26 11 27 12 28 13 29 14 30 15 32 16 33 17 34 78 35
REMARK SMILES IDX 18 36 77 37 19 38 20 39 21 40 71 41 22 42 76 43 70 44 72 45
REMARK SMILES IDX 23 46 75 47 69 48 68 49 24 51 56 52 36 53 55 54 37 55 40 56
REMARK SMILES IDX 54 57 73 58 38 59 39 60 53 62 74 63 41 64 25 65 26 66 34 67
REMARK SMILES IDX 27 68 33 69 35 70 32 71 28 72 29 73 30 74 31 75 57 76 58 77
REMARK SMILES IDX 66 78 59 79 65 80 67 81 64 82 60 83 61 84 62 85 63 86 42 87
REMARK SMILES IDX 43 88 51 89 44 90 50 91 52 92 49 93 45 94 46 95 47 96 48 97
REMARK H PARENT 8 6 13 31 72 50 40 61
REMARK Flexibility Score: inf
ROOT
ATOM      1  C   UNL A   1      31.267  30.812  26.001  1.00  0.00     0.023 C 
ENDROOT
BRANCH   1   2
ATOM      2  C   UNL A   1      32.547  29.982  25.984  1.00  0.00     0.116 C 
BRANCH   2   3
ATOM      3  N   UNL A   1      33.098  29.820  24.650  1.00  0.00    -0.354 N 
ATOM      4  C   UNL A   1      32.789  28.932  23.663  1.00  0.00     0.243 C 
ATOM      5  O   UNL A   1      33.451  28.994  22.623  1.00  0.00    -0.273 OA
ATOM      6  H   UNL A   1      33.812  30.457  24.420  1.00  0.00     0.163 HD
BRANCH   4   7
ATOM      7  C   UNL A   1      31.712  27.847  23.863  1.00  0.00     0.181 C 
BRANCH   7   8
ATOM      8  C   UNL A   1      30.531  28.018  22.887  1.00  0.00     0.036 C 
BRANCH   8   9
ATOM      9  C   UNL A   1      29.319  28.783  23.440  1.00  0.00     0.002 C 
BRANCH   9  10
ATOM     10  C   UNL A   1      29.170  30.250  23.050  1.00  0.00    -0.003 C 
ATOM     11  C   UNL A   1      27.744  30.677  22.750  1.00  0.00     0.004 C 
ENDBRANCH   9  10
ENDBRANCH   8   9
ENDBRANCH   7   8
BRANCH   7  12
ATOM     12  N   UNL A   1      32.444  26.554  23.792  1.00  0.00    -0.280 N 
ATOM     13  C   UNL A   1      33.114  26.175  24.952  1.00  0.00     0.266 C 
ATOM     14  C   UNL A   1      32.681  25.762  22.683  1.00  0.00     0.149 C 
ATOM     15  O   UNL A   1      33.085  26.765  26.024  1.00  0.00    -0.268 OA
ATOM     16  C   UNL A   1      33.906  24.940  24.728  1.00  0.00     0.081 C 
ATOM     17  S   UNL A   1      33.568  24.319  23.168  1.00  0.00    -0.054 SA
ATOM     18  S   UNL A   1      32.254  25.953  21.081  1.00  0.00    -0.052 S 
ATOM     19  C   UNL A   1      34.745  24.443  25.649  1.00  0.00     0.029 C 
BRANCH  19  20
ATOM     20  C   UNL A   1      35.512  23.200  25.499  1.00  0.00    -0.024 A 
ATOM     21  C   UNL A   1      34.963  22.003  25.965  1.00  0.00     0.008 A 
ATOM     22  C   UNL A   1      36.760  23.176  24.864  1.00  0.00     0.008 A 
ATOM     23  C   UNL A   1      35.610  20.788  25.721  1.00  0.00     0.004 A 
ATOM     24  C   UNL A   1      37.401  21.961  24.611  1.00  0.00     0.004 A 
ATOM     25  C   UNL A   1      36.818  20.756  25.013  1.00  0.00    -0.051 A 
ATOM     26  C   UNL A   1      37.462  19.443  24.688  1.00  0.00     0.044 C 
ENDBRANCH  19  20
ENDBRANCH   7  12
ENDBRANCH   4   7
ENDBRANCH   2   3
ENDBRANCH   1   2
BRANCH   1  27
ATOM     27  C   UNL A   1      31.326  32.088  26.841  1.00  0.00     0.023 C 
BRANCH  27  28
ATOM     28  C   UNL A   1      32.679  32.793  26.881  1.00  0.00     0.116 C 
BRANCH  28  29
ATOM     29  N   UNL A   1      32.651  34.046  27.621  1.00  0.00    -0.352 N 
ATOM     30  C   UNL A   1      33.452  34.465  28.659  1.00  0.00     0.251 C 
ATOM     31  H   UNL A   1      31.960  34.687  27.338  1.00  0.00     0.163 HD
ATOM     32  O   UNL A   1      33.188  35.516  29.240  1.00  0.00    -0.269 OA
BRANCH  30  33
ATOM     33  C   UNL A   1      34.598  33.637  29.098  1.00  0.00     0.039 A 
ATOM     34  C   UNL A   1      35.894  34.124  28.912  1.00  0.00     0.014 A 
ATOM     35  C   UNL A   1      34.400  32.394  29.706  1.00  0.00     0.014 A 
ATOM     36  C   UNL A   1      36.985  33.405  29.408  1.00  0.00     0.010 A 
ATOM     37  C   UNL A   1      35.480  31.717  30.266  1.00  0.00     0.010 A 
ATOM     38  C   UNL A   1      36.784  32.216  30.130  1.00  0.00    -0.014 A 
BRANCH  38  39
ATOM     39  C   UNL A   1      37.922  31.488  30.756  1.00  0.00     0.031 A 
ATOM     40  C   UNL A   1      38.373  31.844  32.147  1.00  0.00     0.074 A 
ATOM     41  C   UNL A   1      38.596  30.561  30.046  1.00  0.00     0.049 A 
ATOM     42  N   UNL A   1      39.398  31.397  32.827  1.00  0.00    -0.248 NA
ATOM     43  C   UNL A   1      37.582  32.863  32.852  1.00  0.00     0.031 C 
ATOM     44  C   UNL A   1      38.283  30.157  28.673  1.00  0.00     0.029 A 
ATOM     45  N   UNL A   1      39.690  29.800  30.373  1.00  0.00    -0.354 N 
ATOM     46  C   UNL A   1      39.386  32.090  34.032  1.00  0.00     0.074 A 
ATOM     47  C   UNL A   1      38.288  33.031  33.960  1.00  0.00     0.031 C 
ATOM     48  C   UNL A   1      39.152  29.210  28.284  1.00  0.00     0.029 A 
ATOM     49  C   UNL A   1      40.112  28.972  29.358  1.00  0.00     0.049 A 
ATOM     50  H   UNL A   1      40.133  29.843  31.251  1.00  0.00     0.167 HD
ATOM     51  C   UNL A   1      40.203  31.942  35.106  1.00  0.00     0.034 A 
ATOM     52  C   UNL A   1      41.161  28.127  29.291  1.00  0.00     0.034 A 
ATOM     53  C   UNL A   1      41.285  30.990  35.167  1.00  0.00     0.049 A 
ATOM     54  C   UNL A   1      42.067  27.992  30.489  1.00  0.00     0.074 A 
ATOM     55  C   UNL A   1      42.135  30.716  36.224  1.00  0.00     0.029 A 
ATOM     56  N   UNL A   1      41.677  30.161  34.122  1.00  0.00    -0.354 N 
ATOM     57  N   UNL A   1      42.012  28.619  31.640  1.00  0.00    -0.248 NA
ATOM     58  C   UNL A   1      43.168  27.026  30.380  1.00  0.00     0.031 C 
ATOM     59  C   UNL A   1      43.079  29.775  35.798  1.00  0.00     0.029 A 
ATOM     60  C   UNL A   1      42.773  29.400  34.500  1.00  0.00     0.049 A 
ATOM     61  H   UNL A   1      41.239  30.120  33.240  1.00  0.00     0.167 HD
ATOM     62  C   UNL A   1      43.053  28.098  32.405  1.00  0.00     0.074 A 
ATOM     63  C   UNL A   1      43.709  27.100  31.587  1.00  0.00     0.031 C 
ATOM     64  C   UNL A   1      43.426  28.413  33.671  1.00  0.00     0.034 A 
BRANCH  51  65
ATOM     65  C   UNL A   1      39.964  32.852  36.289  1.00  0.00     0.023 A 
ATOM     66  C   UNL A   1      39.253  32.419  37.423  1.00  0.00     0.031 A 
ATOM     67  C   UNL A   1      40.422  34.181  36.271  1.00  0.00     0.131 A 
ATOM     68  C   UNL A   1      38.949  33.325  38.450  1.00  0.00     0.055 A 
ATOM     69  C   UNL A   1      40.192  35.054  37.336  1.00  0.00     0.041 A 
ATOM     70  F   UNL A   1      41.089  34.660  35.210  1.00  0.00    -0.206 F 
ATOM     71  C   UNL A   1      39.436  34.634  38.426  1.00  0.00     0.022 A 
BRANCH  68  72
ATOM     72  S   UNL A   1      37.776  32.815  39.736  1.00  0.00     0.124 S 
ATOM     73  O   UNL A   1      37.670  34.032  40.537  1.00  0.00    -0.237 OA
ATOM     74  O   UNL A   1      36.594  32.456  38.960  1.00  0.00    -0.237 OA
ATOM     75  O   UNL A   1      38.454  31.701  40.395  1.00  0.00    -0.744 OA
ENDBRANCH  68  72
ENDBRANCH  51  65
BRANCH  52  76
ATOM     76  C   UNL A   1      41.424  27.349  28.046  1.00  0.00     0.023 A 
ATOM     77  C   UNL A   1      41.164  25.971  27.986  1.00  0.00     0.031 A 
ATOM     78  C   UNL A   1      41.973  27.966  26.908  1.00  0.00     0.131 A 
ATOM     79  C   UNL A   1      41.492  25.246  26.830  1.00  0.00     0.055 A 
ATOM     80  C   UNL A   1      42.250  27.251  25.742  1.00  0.00     0.041 A 
ATOM     81  F   UNL A   1      42.235  29.283  26.911  1.00  0.00    -0.206 F 
ATOM     82  C   UNL A   1      42.021  25.880  25.703  1.00  0.00     0.022 A 
BRANCH  79  83
ATOM     83  S   UNL A   1      41.288  23.444  26.846  1.00  0.00     0.124 S 
ATOM     84  O   UNL A   1      39.847  23.307  26.670  1.00  0.00    -0.237 OA
ATOM     85  O   UNL A   1      42.115  23.036  25.715  1.00  0.00    -0.237 OA
ATOM     86  O   UNL A   1      41.798  23.056  28.159  1.00  0.00    -0.744 OA
ENDBRANCH  79  83
ENDBRANCH  52  76
BRANCH  64  87
ATOM     87  C   UNL A   1      44.570  27.627  34.266  1.00  0.00     0.023 A 
ATOM     88  C   UNL A   1      44.365  26.410  34.939  1.00  0.00     0.031 A 
ATOM     89  C   UNL A   1      45.886  28.111  34.163  1.00  0.00     0.131 A 
ATOM     90  C   UNL A   1      45.451  25.745  35.529  1.00  0.00     0.055 A 
ATOM     91  C   UNL A   1      46.970  27.416  34.700  1.00  0.00     0.041 A 
ATOM     92  F   UNL A   1      46.140  29.270  33.534  1.00  0.00    -0.206 F 
ATOM     93  C   UNL A   1      46.755  26.232  35.399  1.00  0.00     0.022 A 
BRANCH  90  94
ATOM     94  S   UNL A   1      45.130  24.278  36.546  1.00  0.00     0.124 S 
ATOM     95  O   UNL A   1      46.193  23.374  36.118  1.00  0.00    -0.237 OA
ATOM     96  O   UNL A   1      45.250  24.806  37.902  1.00  0.00    -0.237 OA
ATOM     97  O   UNL A   1      43.780  23.878  36.156  1.00  0.00    -0.744 OA
ENDBRANCH  90  94
ENDBRANCH  64  87
ENDBRANCH  38  39
ENDBRANCH  30  33
ENDBRANCH  28  29
ENDBRANCH  27  28
ENDBRANCH   1  27
TORSDOF 19
ENDMDL
