MODEL 1
REMARK VINA RESULT:     -13.1      0.000      0.000
REMARK SMILES Cc1ccc(/C=C(\NC(=O)c2cccc(C)c2)C(=O)NCCCCNC(=O)c2ccc(-c3c4nc(c(-c5cc(S(=O)(=O)[O-])ccc5F)c5ccc([nH]5)c(-c5cc(S(=O)(=O)[O-])ccc5F)c5nc(c(-c6cc(S(=O)(=O)[O-])ccc6F)c6ccc3[nH]6)C=C5)C=C4)cc2)cc1
REMARK SMILES IDX 23 1 22 2 21 3 20 4 18 5 19 6 7 8 6 9 5 10 1 11 2 12 3 13
REMARK SMILES IDX 92 14 4 15 91 16 8 17 9 18 10 20 11 21 12 22 17 23 13 24
REMARK SMILES IDX 15 25 14 26 16 27 24 28 25 29 26 30 27 32 28 33 29 34 90 35
REMARK SMILES IDX 30 36 89 37 31 38 32 39 33 40 83 41 34 42 88 43 82 44 84 45
REMARK SMILES IDX 35 46 87 47 81 48 80 49 36 51 68 52 48 53 67 54 49 55 52 56
REMARK SMILES IDX 66 57 85 58 50 59 51 60 65 62 86 63 53 64 37 65 38 66 46 67
REMARK SMILES IDX 39 68 45 69 47 70 44 71 40 72 41 73 42 74 43 75 69 76 70 77
REMARK SMILES IDX 78 78 71 79 77 80 79 81 76 82 72 83 73 84 74 85 75 86 54 87
REMARK SMILES IDX 55 88 63 89 56 90 62 91 64 92 61 93 57 94 58 95 59 96 60 97
REMARK H PARENT 20 7 8 19 25 31 84 50 52 61
REMARK Flexibility Score: inf
ROOT
ATOM      1  C   UNL A   1      33.194  30.092  26.563  1.00  0.00     0.023 C 
ENDROOT
BRANCH   1   2
ATOM      2  C   UNL A   1      32.044  29.113  26.336  1.00  0.00     0.023 C 
BRANCH   2   3
ATOM      3  C   UNL A   1      32.328  27.649  26.665  1.00  0.00     0.116 C 
BRANCH   3   4
ATOM      4  N   UNL A   1      31.175  26.759  26.659  1.00  0.00    -0.351 N 
ATOM      5  C   UNL A   1      31.058  25.434  26.324  1.00  0.00     0.267 C 
ATOM      6  O   UNL A   1      29.962  24.896  26.515  1.00  0.00    -0.268 OA
ATOM      7  H   UNL A   1      30.332  27.182  26.945  1.00  0.00     0.163 HD
BRANCH   5   8
ATOM      8  C   UNL A   1      32.178  24.660  25.644  1.00  0.00     0.107 C 
ATOM      9  C   UNL A   1      33.249  24.321  26.401  1.00  0.00     0.040 C 
BRANCH   9  10
ATOM     10  C   UNL A   1      34.467  23.534  26.043  1.00  0.00    -0.023 A 
ATOM     11  C   UNL A   1      38.256  21.520  25.365  1.00  0.00     0.044 C 
ATOM     12  C   UNL A   1      36.939  22.216  25.524  1.00  0.00    -0.051 A 
ATOM     13  C   UNL A   1      35.854  21.515  26.041  1.00  0.00     0.004 A 
ATOM     14  C   UNL A   1      36.769  23.564  25.204  1.00  0.00     0.004 A 
ATOM     15  C   UNL A   1      34.629  22.156  26.250  1.00  0.00     0.008 A 
ATOM     16  C   UNL A   1      35.550  24.214  25.463  1.00  0.00     0.008 A 
ENDBRANCH   9  10
BRANCH   8  17
ATOM     17  N   UNL A   1      32.117  24.258  24.337  1.00  0.00    -0.317 N 
ATOM     18  C   UNL A   1      32.461  24.942  23.193  1.00  0.00     0.255 C 
ATOM     19  H   UNL A   1      31.778  23.344  24.194  1.00  0.00     0.170 HD
ATOM     20  O   UNL A   1      32.727  24.291  22.187  1.00  0.00    -0.269 OA
BRANCH  18  21
ATOM     21  C   UNL A   1      32.469  26.411  23.160  1.00  0.00     0.040 A 
ATOM     22  C   UNL A   1      33.722  27.004  23.285  1.00  0.00     0.014 A 
ATOM     23  C   UNL A   1      31.329  27.183  22.903  1.00  0.00     0.017 A 
ATOM     24  C   UNL A   1      33.860  28.345  22.973  1.00  0.00     0.001 A 
ATOM     25  C   UNL A   1      31.463  28.558  22.672  1.00  0.00    -0.050 A 
ATOM     26  C   UNL A   1      32.741  29.124  22.679  1.00  0.00     0.003 A 
ATOM     27  C   UNL A   1      30.271  29.440  22.454  1.00  0.00     0.044 C 
ENDBRANCH  18  21
ENDBRANCH   8  17
ENDBRANCH   5   8
ENDBRANCH   3   4
ENDBRANCH   2   3
ENDBRANCH   1   2
BRANCH   1  28
ATOM     28  C   UNL A   1      33.925  30.005  27.907  1.00  0.00     0.116 C 
BRANCH  28  29
ATOM     29  N   UNL A   1      34.754  31.141  28.248  1.00  0.00    -0.352 N 
ATOM     30  C   UNL A   1      36.075  31.180  28.713  1.00  0.00     0.251 C 
ATOM     31  H   UNL A   1      34.325  32.020  28.136  1.00  0.00     0.163 HD
ATOM     32  O   UNL A   1      36.556  32.240  29.074  1.00  0.00    -0.269 OA
BRANCH  30  33
ATOM     33  C   UNL A   1      36.923  29.956  28.690  1.00  0.00     0.039 A 
ATOM     34  C   UNL A   1      37.061  29.230  29.883  1.00  0.00     0.014 A 
ATOM     35  C   UNL A   1      37.670  29.580  27.581  1.00  0.00     0.014 A 
ATOM     36  C   UNL A   1      38.090  28.292  30.020  1.00  0.00     0.010 A 
ATOM     37  C   UNL A   1      38.751  28.734  27.738  1.00  0.00     0.010 A 
ATOM     38  C   UNL A   1      39.005  28.143  28.979  1.00  0.00    -0.014 A 
BRANCH  38  39
ATOM     39  C   UNL A   1      40.341  27.572  29.142  1.00  0.00     0.031 A 
ATOM     40  C   UNL A   1      40.656  26.199  28.709  1.00  0.00     0.074 A 
ATOM     41  C   UNL A   1      41.344  28.390  29.529  1.00  0.00     0.049 A 
ATOM     42  N   UNL A   1      41.749  25.589  29.013  1.00  0.00    -0.248 NA
ATOM     43  C   UNL A   1      39.725  25.357  27.966  1.00  0.00     0.031 C 
ATOM     44  C   UNL A   1      42.785  28.201  29.360  1.00  0.00     0.029 A 
ATOM     45  N   UNL A   1      41.255  29.547  30.294  1.00  0.00    -0.354 N 
ATOM     46  C   UNL A   1      41.809  24.429  28.281  1.00  0.00     0.074 A 
ATOM     47  C   UNL A   1      40.472  24.265  27.767  1.00  0.00     0.031 C 
ATOM     48  C   UNL A   1      43.432  29.027  30.199  1.00  0.00     0.029 A 
ATOM     49  C   UNL A   1      42.428  29.650  31.042  1.00  0.00     0.049 A 
ATOM     50  H   UNL A   1      40.502  30.180  30.304  1.00  0.00     0.167 HD
ATOM     51  C   UNL A   1      43.021  23.832  28.106  1.00  0.00     0.034 A 
ATOM     52  C   UNL A   1      42.423  29.660  32.404  1.00  0.00     0.034 A 
ATOM     53  C   UNL A   1      44.019  24.398  29.027  1.00  0.00     0.049 A 
ATOM     54  C   UNL A   1      43.167  28.462  32.957  1.00  0.00     0.074 A 
ATOM     55  C   UNL A   1      45.122  25.217  28.859  1.00  0.00     0.029 A 
ATOM     56  N   UNL A   1      43.787  24.336  30.403  1.00  0.00    -0.354 N 
ATOM     57  N   UNL A   1      43.482  27.407  32.251  1.00  0.00    -0.248 NA
ATOM     58  C   UNL A   1      43.611  28.358  34.341  1.00  0.00     0.031 C 
ATOM     59  C   UNL A   1      45.479  25.732  30.140  1.00  0.00     0.029 A 
ATOM     60  C   UNL A   1      44.634  25.184  31.092  1.00  0.00     0.049 A 
ATOM     61  H   UNL A   1      43.107  23.764  30.827  1.00  0.00     0.167 HD
ATOM     62  C   UNL A   1      44.145  26.504  33.035  1.00  0.00     0.074 A 
ATOM     63  C   UNL A   1      44.213  27.155  34.334  1.00  0.00     0.031 C 
ATOM     64  C   UNL A   1      44.568  25.295  32.550  1.00  0.00     0.034 A 
BRANCH  51  65
ATOM     65  C   UNL A   1      43.380  22.868  26.980  1.00  0.00     0.023 A 
ATOM     66  C   UNL A   1      42.788  21.584  26.961  1.00  0.00     0.031 A 
ATOM     67  C   UNL A   1      44.359  23.078  25.981  1.00  0.00     0.131 A 
ATOM     68  C   UNL A   1      43.172  20.603  26.020  1.00  0.00     0.055 A 
ATOM     69  C   UNL A   1      44.701  22.122  25.014  1.00  0.00     0.041 A 
ATOM     70  F   UNL A   1      45.095  24.190  25.904  1.00  0.00    -0.206 F 
ATOM     71  C   UNL A   1      44.114  20.874  25.032  1.00  0.00     0.022 A 
BRANCH  68  72
ATOM     72  S   UNL A   1      42.485  18.927  26.135  1.00  0.00     0.124 S 
ATOM     73  O   UNL A   1      43.360  18.175  25.243  1.00  0.00    -0.237 OA
ATOM     74  O   UNL A   1      42.605  18.639  27.560  1.00  0.00    -0.237 OA
ATOM     75  O   UNL A   1      41.113  19.088  25.656  1.00  0.00    -0.744 OA
ENDBRANCH  68  72
ENDBRANCH  51  65
BRANCH  52  76
ATOM     76  C   UNL A   1      41.203  30.291  32.989  1.00  0.00     0.023 A 
ATOM     77  C   UNL A   1      41.123  31.702  32.935  1.00  0.00     0.031 A 
ATOM     78  C   UNL A   1      40.007  29.572  33.150  1.00  0.00     0.131 A 
ATOM     79  C   UNL A   1      39.873  32.335  32.886  1.00  0.00     0.055 A 
ATOM     80  C   UNL A   1      38.763  30.217  33.150  1.00  0.00     0.041 A 
ATOM     81  F   UNL A   1      40.012  28.231  33.139  1.00  0.00    -0.206 F 
ATOM     82  C   UNL A   1      38.690  31.600  32.979  1.00  0.00     0.022 A 
BRANCH  79  83
ATOM     83  S   UNL A   1      39.747  34.106  32.494  1.00  0.00     0.124 S 
ATOM     84  O   UNL A   1      39.228  34.660  33.741  1.00  0.00    -0.237 OA
ATOM     85  O   UNL A   1      41.115  34.480  32.164  1.00  0.00    -0.237 OA
ATOM     86  O   UNL A   1      38.816  34.099  31.367  1.00  0.00    -0.744 OA
ENDBRANCH  79  83
ENDBRANCH  52  76
BRANCH  64  87
ATOM     87  C   UNL A   1      45.047  24.140  33.408  1.00  0.00     0.023 A 
ATOM     88  C   UNL A   1      46.330  24.082  33.974  1.00  0.00     0.031 A 
ATOM     89  C   UNL A   1      44.182  23.076  33.761  1.00  0.00     0.131 A 
ATOM     90  C   UNL A   1      46.747  22.979  34.739  1.00  0.00     0.055 A 
ATOM     91  C   UNL A   1      44.569  22.022  34.597  1.00  0.00     0.041 A 
ATOM     92  F   UNL A   1      42.916  23.018  33.323  1.00  0.00    -0.206 F 
ATOM     93  C   UNL A   1      45.868  21.956  35.074  1.00  0.00     0.022 A 
BRANCH  90  94
ATOM     94  S   UNL A   1      48.493  22.885  35.215  1.00  0.00     0.124 S 
ATOM     95  O   UNL A   1      48.994  21.849  34.315  1.00  0.00    -0.237 OA
ATOM     96  O   UNL A   1      48.965  24.239  34.946  1.00  0.00    -0.237 OA
ATOM     97  O   UNL A   1      48.447  22.510  36.627  1.00  0.00    -0.744 OA
ENDBRANCH  90  94
ENDBRANCH  64  87
ENDBRANCH  38  39
ENDBRANCH  30  33
ENDBRANCH  28  29
ENDBRANCH   1  28
TORSDOF 17
ENDMDL
MODEL 2
REMARK VINA RESULT:     -13.0      1.183      1.909
REMARK SMILES Cc1ccc(/C=C(\NC(=O)c2cccc(C)c2)C(=O)NCCCCNC(=O)c2ccc(-c3c4nc(c(-c5cc(S(=O)(=O)[O-])ccc5F)c5ccc([nH]5)c(-c5cc(S(=O)(=O)[O-])ccc5F)c5nc(c(-c6cc(S(=O)(=O)[O-])ccc6F)c6ccc3[nH]6)C=C5)C=C4)cc2)cc1
REMARK SMILES IDX 23 1 22 2 21 3 20 4 18 5 19 6 7 8 6 9 5 10 1 11 2 12 3 13
REMARK SMILES IDX 92 14 4 15 91 16 8 17 9 18 10 20 11 21 12 22 17 23 13 24
REMARK SMILES IDX 15 25 14 26 16 27 24 28 25 29 26 30 27 32 28 33 29 34 90 35
REMARK SMILES IDX 30 36 89 37 31 38 32 39 33 40 83 41 34 42 88 43 82 44 84 45
REMARK SMILES IDX 35 46 87 47 81 48 80 49 36 51 68 52 48 53 67 54 49 55 52 56
REMARK SMILES IDX 66 57 85 58 50 59 51 60 65 62 86 63 53 64 37 65 38 66 46 67
REMARK SMILES IDX 39 68 45 69 47 70 44 71 40 72 41 73 42 74 43 75 69 76 70 77
REMARK SMILES IDX 78 78 71 79 77 80 79 81 76 82 72 83 73 84 74 85 75 86 54 87
REMARK SMILES IDX 55 88 63 89 56 90 62 91 64 92 61 93 57 94 58 95 59 96 60 97
REMARK H PARENT 20 7 8 19 25 31 84 50 52 61
REMARK Flexibility Score: inf
ROOT
ATOM      1  C   UNL A   1      33.009  30.727  27.066  1.00  0.00     0.023 C 
ENDROOT
BRANCH   1   2
ATOM      2  C   UNL A   1      31.983  29.620  26.831  1.00  0.00     0.023 C 
BRANCH   2   3
ATOM      3  C   UNL A   1      31.752  29.212  25.377  1.00  0.00     0.116 C 
BRANCH   3   4
ATOM      4  N   UNL A   1      32.828  29.527  24.447  1.00  0.00    -0.351 N 
ATOM      5  C   UNL A   1      33.636  28.715  23.693  1.00  0.00     0.267 C 
ATOM      6  O   UNL A   1      34.408  29.264  22.899  1.00  0.00    -0.268 OA
ATOM      7  H   UNL A   1      33.006  30.490  24.342  1.00  0.00     0.163 HD
BRANCH   5   8
ATOM      8  C   UNL A   1      33.682  27.205  23.877  1.00  0.00     0.107 C 
ATOM      9  C   UNL A   1      33.847  26.737  25.137  1.00  0.00     0.040 C 
BRANCH   9  10
ATOM     10  C   UNL A   1      33.885  25.331  25.641  1.00  0.00    -0.023 A 
ATOM     11  C   UNL A   1      33.654  21.132  26.732  1.00  0.00     0.044 C 
ATOM     12  C   UNL A   1      33.734  22.597  26.429  1.00  0.00    -0.051 A 
ATOM     13  C   UNL A   1      34.918  23.129  25.930  1.00  0.00     0.004 A 
ATOM     14  C   UNL A   1      32.640  23.449  26.597  1.00  0.00     0.004 A 
ATOM     15  C   UNL A   1      35.000  24.483  25.589  1.00  0.00     0.008 A 
ATOM     16  C   UNL A   1      32.715  24.797  26.205  1.00  0.00     0.008 A 
ENDBRANCH   9  10
BRANCH   8  17
ATOM     17  N   UNL A   1      33.513  26.324  22.843  1.00  0.00    -0.317 N 
ATOM     18  C   UNL A   1      32.394  26.070  22.082  1.00  0.00     0.255 C 
ATOM     19  H   UNL A   1      34.310  25.795  22.609  1.00  0.00     0.170 HD
ATOM     20  O   UNL A   1      32.550  25.573  20.971  1.00  0.00    -0.269 OA
BRANCH  18  21
ATOM     21  C   UNL A   1      31.046  26.344  22.599  1.00  0.00     0.040 A 
ATOM     22  C   UNL A   1      30.520  25.368  23.441  1.00  0.00     0.014 A 
ATOM     23  C   UNL A   1      30.362  27.545  22.374  1.00  0.00     0.017 A 
ATOM     24  C   UNL A   1      29.403  25.671  24.198  1.00  0.00     0.001 A 
ATOM     25  C   UNL A   1      29.183  27.811  23.080  1.00  0.00    -0.050 A 
ATOM     26  C   UNL A   1      28.728  26.877  24.015  1.00  0.00     0.003 A 
ATOM     27  C   UNL A   1      28.379  29.053  22.832  1.00  0.00     0.044 C 
ENDBRANCH  18  21
ENDBRANCH   8  17
ENDBRANCH   5   8
ENDBRANCH   3   4
ENDBRANCH   2   3
ENDBRANCH   1   2
BRANCH   1  28
ATOM     28  C   UNL A   1      34.380  30.300  27.601  1.00  0.00     0.116 C 
BRANCH  28  29
ATOM     29  N   UNL A   1      35.188  31.355  28.175  1.00  0.00    -0.352 N 
ATOM     30  C   UNL A   1      36.440  31.287  28.800  1.00  0.00     0.251 C 
ATOM     31  H   UNL A   1      34.798  32.258  28.119  1.00  0.00     0.163 HD
ATOM     32  O   UNL A   1      36.898  32.277  29.342  1.00  0.00    -0.269 OA
BRANCH  30  33
ATOM     33  C   UNL A   1      37.253  30.041  28.733  1.00  0.00     0.039 A 
ATOM     34  C   UNL A   1      37.286  29.216  29.869  1.00  0.00     0.014 A 
ATOM     35  C   UNL A   1      38.065  29.731  27.650  1.00  0.00     0.014 A 
ATOM     36  C   UNL A   1      38.277  28.236  29.997  1.00  0.00     0.010 A 
ATOM     37  C   UNL A   1      39.109  28.838  27.810  1.00  0.00     0.010 A 
ATOM     38  C   UNL A   1      39.258  28.141  29.012  1.00  0.00    -0.014 A 
BRANCH  38  39
ATOM     39  C   UNL A   1      40.563  27.514  29.218  1.00  0.00     0.031 A 
ATOM     40  C   UNL A   1      40.840  26.136  28.774  1.00  0.00     0.074 A 
ATOM     41  C   UNL A   1      41.581  28.285  29.658  1.00  0.00     0.049 A 
ATOM     42  N   UNL A   1      41.895  25.478  29.110  1.00  0.00    -0.248 NA
ATOM     43  C   UNL A   1      39.907  25.344  27.981  1.00  0.00     0.031 C 
ATOM     44  C   UNL A   1      43.019  28.040  29.542  1.00  0.00     0.029 A 
ATOM     45  N   UNL A   1      41.508  29.433  30.438  1.00  0.00    -0.354 N 
ATOM     46  C   UNL A   1      41.938  24.328  28.363  1.00  0.00     0.074 A 
ATOM     47  C   UNL A   1      40.618  24.226  27.793  1.00  0.00     0.031 C 
ATOM     48  C   UNL A   1      43.664  28.827  30.419  1.00  0.00     0.029 A 
ATOM     49  C   UNL A   1      42.653  29.477  31.233  1.00  0.00     0.049 A 
ATOM     50  H   UNL A   1      40.780  30.095  30.429  1.00  0.00     0.167 HD
ATOM     51  C   UNL A   1      43.132  23.685  28.225  1.00  0.00     0.034 A 
ATOM     52  C   UNL A   1      42.594  29.466  32.594  1.00  0.00     0.034 A 
ATOM     53  C   UNL A   1      44.114  24.196  29.193  1.00  0.00     0.049 A 
ATOM     54  C   UNL A   1      43.268  28.231  33.155  1.00  0.00     0.074 A 
ATOM     55  C   UNL A   1      45.254  24.973  29.083  1.00  0.00     0.029 A 
ATOM     56  N   UNL A   1      43.824  24.123  30.558  1.00  0.00    -0.354 N 
ATOM     57  N   UNL A   1      43.568  27.175  32.444  1.00  0.00    -0.248 NA
ATOM     58  C   UNL A   1      43.651  28.088  34.553  1.00  0.00     0.031 C 
ATOM     59  C   UNL A   1      45.580  25.454  30.385  1.00  0.00     0.029 A 
ATOM     60  C   UNL A   1      44.676  24.925  31.294  1.00  0.00     0.049 A 
ATOM     61  H   UNL A   1      43.106  23.572  30.946  1.00  0.00     0.167 HD
ATOM     62  C   UNL A   1      44.163  26.234  33.238  1.00  0.00     0.074 A 
ATOM     63  C   UNL A   1      44.205  26.862  34.550  1.00  0.00     0.031 C 
ATOM     64  C   UNL A   1      44.557  25.017  32.750  1.00  0.00     0.034 A 
BRANCH  51  65
ATOM     65  C   UNL A   1      43.497  22.725  27.098  1.00  0.00     0.023 A 
ATOM     66  C   UNL A   1      42.861  21.463  27.038  1.00  0.00     0.031 A 
ATOM     67  C   UNL A   1      44.518  22.913  26.138  1.00  0.00     0.131 A 
ATOM     68  C   UNL A   1      43.243  20.482  26.096  1.00  0.00     0.055 A 
ATOM     69  C   UNL A   1      44.861  21.960  25.169  1.00  0.00     0.041 A 
ATOM     70  F   UNL A   1      45.295  23.999  26.104  1.00  0.00    -0.206 F 
ATOM     71  C   UNL A   1      44.229  20.733  25.147  1.00  0.00     0.022 A 
BRANCH  68  72
ATOM     72  S   UNL A   1      42.493  18.831  26.161  1.00  0.00     0.124 S 
ATOM     73  O   UNL A   1      41.119  19.102  25.753  1.00  0.00    -0.237 OA
ATOM     74  O   UNL A   1      43.315  18.078  25.221  1.00  0.00    -0.237 OA
ATOM     75  O   UNL A   1      42.651  18.442  27.562  1.00  0.00    -0.744 OA
ENDBRANCH  68  72
ENDBRANCH  51  65
BRANCH  52  76
ATOM     76  C   UNL A   1      41.378  30.137  33.141  1.00  0.00     0.023 A 
ATOM     77  C   UNL A   1      41.356  31.551  33.106  1.00  0.00     0.031 A 
ATOM     78  C   UNL A   1      40.149  29.464  33.243  1.00  0.00     0.131 A 
ATOM     79  C   UNL A   1      40.134  32.234  33.019  1.00  0.00     0.055 A 
ATOM     80  C   UNL A   1      38.932  30.158  33.205  1.00  0.00     0.041 A 
ATOM     81  F   UNL A   1      40.102  28.125  33.211  1.00  0.00    -0.206 F 
ATOM     82  C   UNL A   1      38.921  31.545  33.055  1.00  0.00     0.022 A 
BRANCH  79  83
ATOM     83  S   UNL A   1      40.093  34.014  32.651  1.00  0.00     0.124 S 
ATOM     84  O   UNL A   1      41.433  34.249  32.122  1.00  0.00    -0.237 OA
ATOM     85  O   UNL A   1      39.010  34.137  31.685  1.00  0.00    -0.237 OA
ATOM     86  O   UNL A   1      39.819  34.588  33.967  1.00  0.00    -0.744 OA
ENDBRANCH  79  83
ENDBRANCH  52  76
BRANCH  64  87
ATOM     87  C   UNL A   1      44.955  23.830  33.607  1.00  0.00     0.023 A 
ATOM     88  C   UNL A   1      46.286  23.532  33.937  1.00  0.00     0.031 A 
ATOM     89  C   UNL A   1      43.982  22.991  34.201  1.00  0.00     0.131 A 
ATOM     90  C   UNL A   1      46.617  22.404  34.709  1.00  0.00     0.055 A 
ATOM     91  C   UNL A   1      44.307  21.922  35.043  1.00  0.00     0.041 A 
ATOM     92  F   UNL A   1      42.669  23.178  34.003  1.00  0.00    -0.206 F 
ATOM     93  C   UNL A   1      45.634  21.607  35.285  1.00  0.00     0.022 A 
BRANCH  90  94
ATOM     94  S   UNL A   1      48.368  21.969  34.872  1.00  0.00     0.124 S 
ATOM     95  O   UNL A   1      48.470  20.804  33.997  1.00  0.00    -0.237 OA
ATOM     96  O   UNL A   1      49.037  23.176  34.398  1.00  0.00    -0.237 OA
ATOM     97  O   UNL A   1      48.524  21.689  36.298  1.00  0.00    -0.744 OA
ENDBRANCH  90  94
ENDBRANCH  64  87
ENDBRANCH  38  39
ENDBRANCH  30  33
ENDBRANCH  28  29
ENDBRANCH   1  28
TORSDOF 17
ENDMDL
MODEL 3
REMARK VINA RESULT:     -12.4      1.161      3.789
REMARK SMILES Cc1ccc(/C=C(\NC(=O)c2cccc(C)c2)C(=O)NCCCCNC(=O)c2ccc(-c3c4nc(c(-c5cc(S(=O)(=O)[O-])ccc5F)c5ccc([nH]5)c(-c5cc(S(=O)(=O)[O-])ccc5F)c5nc(c(-c6cc(S(=O)(=O)[O-])ccc6F)c6ccc3[nH]6)C=C5)C=C4)cc2)cc1
REMARK SMILES IDX 23 1 22 2 21 3 20 4 18 5 19 6 7 8 6 9 5 10 1 11 2 12 3 13
REMARK SMILES IDX 92 14 4 15 91 16 8 17 9 18 10 20 11 21 12 22 17 23 13 24
REMARK SMILES IDX 15 25 14 26 16 27 24 28 25 29 26 30 27 32 28 33 29 34 90 35
REMARK SMILES IDX 30 36 89 37 31 38 32 39 33 40 83 41 34 42 88 43 82 44 84 45
REMARK SMILES IDX 35 46 87 47 81 48 80 49 36 51 68 52 48 53 67 54 49 55 52 56
REMARK SMILES IDX 66 57 85 58 50 59 51 60 65 62 86 63 53 64 37 65 38 66 46 67
REMARK SMILES IDX 39 68 45 69 47 70 44 71 40 72 41 73 42 74 43 75 69 76 70 77
REMARK SMILES IDX 78 78 71 79 77 80 79 81 76 82 72 83 73 84 74 85 75 86 54 87
REMARK SMILES IDX 55 88 63 89 56 90 62 91 64 92 61 93 57 94 58 95 59 96 60 97
REMARK H PARENT 20 7 8 19 25 31 84 50 52 61
REMARK Flexibility Score: inf
ROOT
ATOM      1  C   UNL A   1      33.025  30.655  27.163  1.00  0.00     0.023 C 
ENDROOT
BRANCH   1   2
ATOM      2  C   UNL A   1      32.091  29.450  27.266  1.00  0.00     0.023 C 
BRANCH   2   3
ATOM      3  C   UNL A   1      32.729  28.080  27.050  1.00  0.00     0.116 C 
BRANCH   3   4
ATOM      4  N   UNL A   1      31.839  27.029  26.575  1.00  0.00    -0.351 N 
ATOM      5  C   UNL A   1      31.160  26.887  25.392  1.00  0.00     0.267 C 
ATOM      6  O   UNL A   1      30.549  25.828  25.213  1.00  0.00    -0.268 OA
ATOM      7  H   UNL A   1      31.699  26.294  27.216  1.00  0.00     0.163 HD
BRANCH   5   8
ATOM      8  C   UNL A   1      31.056  28.008  24.368  1.00  0.00     0.107 C 
ATOM      9  C   UNL A   1      29.846  28.598  24.213  1.00  0.00     0.040 C 
BRANCH   9  10
ATOM     10  C   UNL A   1      29.440  29.738  23.337  1.00  0.00    -0.023 A 
ATOM     11  C   UNL A   1      27.801  32.813  20.742  1.00  0.00     0.044 C 
ATOM     12  C   UNL A   1      28.431  31.758  21.600  1.00  0.00    -0.051 A 
ATOM     13  C   UNL A   1      28.738  32.048  22.925  1.00  0.00     0.004 A 
ATOM     14  C   UNL A   1      28.690  30.472  21.123  1.00  0.00     0.004 A 
ATOM     15  C   UNL A   1      29.277  31.065  23.760  1.00  0.00     0.008 A 
ATOM     16  C   UNL A   1      29.185  29.475  21.982  1.00  0.00     0.008 A 
ENDBRANCH   9  10
BRANCH   8  17
ATOM     17  N   UNL A   1      32.129  28.464  23.652  1.00  0.00    -0.317 N 
ATOM     18  C   UNL A   1      33.030  27.764  22.881  1.00  0.00     0.255 C 
ATOM     19  H   UNL A   1      32.279  29.437  23.694  1.00  0.00     0.170 HD
ATOM     20  O   UNL A   1      33.645  28.373  22.011  1.00  0.00    -0.269 OA
BRANCH  18  21
ATOM     21  C   UNL A   1      33.286  26.337  23.121  1.00  0.00     0.040 A 
ATOM     22  C   UNL A   1      32.705  25.465  22.204  1.00  0.00     0.014 A 
ATOM     23  C   UNL A   1      34.144  25.863  24.120  1.00  0.00     0.017 A 
ATOM     24  C   UNL A   1      33.128  24.148  22.175  1.00  0.00     0.001 A 
ATOM     25  C   UNL A   1      34.503  24.509  24.140  1.00  0.00    -0.050 A 
ATOM     26  C   UNL A   1      34.010  23.665  23.140  1.00  0.00     0.003 A 
ATOM     27  C   UNL A   1      35.368  23.939  25.222  1.00  0.00     0.044 C 
ENDBRANCH  18  21
ENDBRANCH   8  17
ENDBRANCH   5   8
ENDBRANCH   3   4
ENDBRANCH   2   3
ENDBRANCH   1   2
BRANCH   1  28
ATOM     28  C   UNL A   1      34.524  30.387  27.327  1.00  0.00     0.116 C 
BRANCH  28  29
ATOM     29  N   UNL A   1      35.266  31.388  28.062  1.00  0.00    -0.352 N 
ATOM     30  C   UNL A   1      36.452  31.267  28.797  1.00  0.00     0.251 C 
ATOM     31  H   UNL A   1      34.878  32.294  28.042  1.00  0.00     0.163 HD
ATOM     32  O   UNL A   1      36.849  32.208  29.461  1.00  0.00    -0.269 OA
BRANCH  30  33
ATOM     33  C   UNL A   1      37.275  30.029  28.707  1.00  0.00     0.039 A 
ATOM     34  C   UNL A   1      37.329  29.193  29.834  1.00  0.00     0.014 A 
ATOM     35  C   UNL A   1      38.076  29.737  27.611  1.00  0.00     0.014 A 
ATOM     36  C   UNL A   1      38.330  28.221  29.940  1.00  0.00     0.010 A 
ATOM     37  C   UNL A   1      39.130  28.853  27.749  1.00  0.00     0.010 A 
ATOM     38  C   UNL A   1      39.300  28.144  28.942  1.00  0.00    -0.014 A 
BRANCH  38  39
ATOM     39  C   UNL A   1      40.612  27.527  29.125  1.00  0.00     0.031 A 
ATOM     40  C   UNL A   1      40.889  26.146  28.688  1.00  0.00     0.074 A 
ATOM     41  C   UNL A   1      41.636  28.307  29.535  1.00  0.00     0.049 A 
ATOM     42  N   UNL A   1      41.954  25.497  29.007  1.00  0.00    -0.248 NA
ATOM     43  C   UNL A   1      39.943  25.341  27.922  1.00  0.00     0.031 C 
ATOM     44  C   UNL A   1      43.072  28.070  29.391  1.00  0.00     0.029 A 
ATOM     45  N   UNL A   1      41.572  29.462  30.307  1.00  0.00    -0.354 N 
ATOM     46  C   UNL A   1      41.988  24.341  28.269  1.00  0.00     0.074 A 
ATOM     47  C   UNL A   1      40.656  24.226  27.730  1.00  0.00     0.031 C 
ATOM     48  C   UNL A   1      43.731  28.869  30.247  1.00  0.00     0.029 A 
ATOM     49  C   UNL A   1      42.734  29.521  31.076  1.00  0.00     0.049 A 
ATOM     50  H   UNL A   1      40.841  30.120  30.307  1.00  0.00     0.167 HD
ATOM     51  C   UNL A   1      43.182  23.704  28.111  1.00  0.00     0.034 A 
ATOM     52  C   UNL A   1      42.705  29.522  32.438  1.00  0.00     0.034 A 
ATOM     53  C   UNL A   1      44.182  24.229  29.054  1.00  0.00     0.049 A 
ATOM     54  C   UNL A   1      43.398  28.296  32.996  1.00  0.00     0.074 A 
ATOM     55  C   UNL A   1      45.315  25.012  28.912  1.00  0.00     0.029 A 
ATOM     56  N   UNL A   1      43.923  24.167  30.425  1.00  0.00    -0.354 N 
ATOM     57  N   UNL A   1      43.689  27.235  32.288  1.00  0.00    -0.248 NA
ATOM     58  C   UNL A   1      43.812  28.168  34.386  1.00  0.00     0.031 C 
ATOM     59  C   UNL A   1      45.666  25.506  30.202  1.00  0.00     0.029 A 
ATOM     60  C   UNL A   1      44.785  24.981  31.135  1.00  0.00     0.049 A 
ATOM     61  H   UNL A   1      43.216  23.616  30.833  1.00  0.00     0.167 HD
ATOM     62  C   UNL A   1      44.307  26.305  33.078  1.00  0.00     0.074 A 
ATOM     63  C   UNL A   1      44.374  26.946  34.382  1.00  0.00     0.031 C 
ATOM     64  C   UNL A   1      44.697  25.086  32.592  1.00  0.00     0.034 A 
BRANCH  51  65
ATOM     65  C   UNL A   1      43.528  22.736  26.985  1.00  0.00     0.023 A 
ATOM     66  C   UNL A   1      42.923  21.457  26.969  1.00  0.00     0.031 A 
ATOM     67  C   UNL A   1      44.507  22.934  25.984  1.00  0.00     0.131 A 
ATOM     68  C   UNL A   1      43.294  20.471  26.028  1.00  0.00     0.055 A 
ATOM     69  C   UNL A   1      44.837  21.974  25.017  1.00  0.00     0.041 A 
ATOM     70  F   UNL A   1      45.254  24.038  25.904  1.00  0.00    -0.206 F 
ATOM     71  C   UNL A   1      44.237  20.732  25.038  1.00  0.00     0.022 A 
BRANCH  68  72
ATOM     72  S   UNL A   1      42.591  18.803  26.147  1.00  0.00     0.124 S 
ATOM     73  O   UNL A   1      41.220  19.015  25.695  1.00  0.00    -0.237 OA
ATOM     74  O   UNL A   1      43.458  18.035  25.260  1.00  0.00    -0.237 OA
ATOM     75  O   UNL A   1      42.724  18.478  27.567  1.00  0.00    -0.744 OA
ENDBRANCH  68  72
ENDBRANCH  51  65
BRANCH  52  76
ATOM     76  C   UNL A   1      41.497  30.191  33.005  1.00  0.00     0.023 A 
ATOM     77  C   UNL A   1      41.470  31.605  32.968  1.00  0.00     0.031 A 
ATOM     78  C   UNL A   1      40.272  29.515  33.131  1.00  0.00     0.131 A 
ATOM     79  C   UNL A   1      40.245  32.284  32.901  1.00  0.00     0.055 A 
ATOM     80  C   UNL A   1      39.053  30.206  33.113  1.00  0.00     0.041 A 
ATOM     81  F   UNL A   1      40.228  28.175  33.103  1.00  0.00    -0.206 F 
ATOM     82  C   UNL A   1      39.035  31.592  32.960  1.00  0.00     0.022 A 
BRANCH  79  83
ATOM     83  S   UNL A   1      40.193  34.063  32.529  1.00  0.00     0.124 S 
ATOM     84  O   UNL A   1      39.642  34.078  31.178  1.00  0.00    -0.237 OA
ATOM     85  O   UNL A   1      39.323  34.602  33.566  1.00  0.00    -0.237 OA
ATOM     86  O   UNL A   1      41.602  34.437  32.645  1.00  0.00    -0.744 OA
ENDBRANCH  79  83
ENDBRANCH  52  76
BRANCH  64  87
ATOM     87  C   UNL A   1      45.121  23.909  33.451  1.00  0.00     0.023 A 
ATOM     88  C   UNL A   1      46.425  23.746  33.942  1.00  0.00     0.031 A 
ATOM     89  C   UNL A   1      44.186  22.937  33.882  1.00  0.00     0.131 A 
ATOM     90  C   UNL A   1      46.787  22.625  34.710  1.00  0.00     0.055 A 
ATOM     91  C   UNL A   1      44.527  21.870  34.721  1.00  0.00     0.041 A 
ATOM     92  F   UNL A   1      42.896  22.986  33.520  1.00  0.00    -0.206 F 
ATOM     93  C   UNL A   1      45.840  21.695  35.123  1.00  0.00     0.022 A 
BRANCH  90  94
ATOM     94  S   UNL A   1      48.543  22.381  35.085  1.00  0.00     0.124 S 
ATOM     95  O   UNL A   1      49.186  23.132  34.010  1.00  0.00    -0.237 OA
ATOM     96  O   UNL A   1      48.661  22.960  36.419  1.00  0.00    -0.237 OA
ATOM     97  O   UNL A   1      48.713  20.931  35.018  1.00  0.00    -0.744 OA
ENDBRANCH  90  94
ENDBRANCH  64  87
ENDBRANCH  38  39
ENDBRANCH  30  33
ENDBRANCH  28  29
ENDBRANCH   1  28
TORSDOF 17
ENDMDL
