MODEL 1
REMARK VINA RESULT:     -13.0      0.000      0.000
REMARK SMILES CC(C)(C)c1cc2c(cc1Cl)C=C(C(=O)NCCCCNC(=O)c1ccc(-c3c4nc(c(-c5cc(S(=O)(=O)[O-])ccc5F)c5ccc([nH]5)c(-c5cc(S(=O)(=O)[O-])ccc5F)c5nc(c(-c6cc(S(=O)(=O)[O-])ccc6F)c6ccc3[nH]6)C=C5)C=C4)cc1)[C@@H](C(F)(F)F)O2
REMARK SMILES IDX 19 1 18 2 17 3 16 4 14 5 15 6 13 8 5 9 6 10 10 11 7 12 9 13
REMARK SMILES IDX 11 14 8 15 92 16 12 17 87 18 2 19 1 20 3 21 4 22 88 23 89 24
REMARK SMILES IDX 90 25 91 26 20 27 21 28 22 29 23 31 24 32 25 33 86 34 26 35
REMARK SMILES IDX 85 36 27 37 28 38 29 39 79 40 30 41 84 42 78 43 80 44 31 45
REMARK SMILES IDX 83 46 77 47 76 48 32 50 64 51 44 52 63 53 45 54 48 55 62 56
REMARK SMILES IDX 81 57 46 58 47 59 61 61 82 62 49 63 33 64 34 65 42 66 35 67
REMARK SMILES IDX 41 68 43 69 40 70 36 71 37 72 38 73 39 74 65 75 66 76 74 77
REMARK SMILES IDX 67 78 73 79 75 80 72 81 68 82 69 83 70 84 71 85 50 86 51 87
REMARK SMILES IDX 59 88 52 89 58 90 60 91 57 92 53 93 54 94 55 95 56 96
REMARK H PARENT 16 7 21 30 80 49 48 60
REMARK Flexibility Score: inf
ROOT
ATOM      1  C   UNL A   1      31.798  28.795  26.418  1.00  0.00     0.023 C 
ENDROOT
BRANCH   1   2
ATOM      2  C   UNL A   1      32.541  27.503  26.762  1.00  0.00     0.023 C 
BRANCH   2   3
ATOM      3  C   UNL A   1      33.172  26.795  25.563  1.00  0.00     0.116 C 
BRANCH   3   4
ATOM      4  N   UNL A   1      32.195  26.469  24.538  1.00  0.00    -0.352 N 
ATOM      5  C   UNL A   1      31.706  25.347  23.960  1.00  0.00     0.251 C 
ATOM      6  O   UNL A   1      30.839  25.528  23.098  1.00  0.00    -0.270 OA
ATOM      7  H   UNL A   1      31.778  27.280  24.164  1.00  0.00     0.163 HD
BRANCH   5   8
ATOM      8  C   UNL A   1      32.139  23.954  24.278  1.00  0.00     0.067 C 
ATOM      9  C   UNL A   1      33.339  19.004  23.969  1.00  0.00    -0.020 A 
ATOM     10  C   UNL A   1      33.613  20.077  24.857  1.00  0.00     0.053 A 
ATOM     11  C   UNL A   1      32.535  19.325  22.854  1.00  0.00     0.045 A 
ATOM     12  C   UNL A   1      33.140  21.372  24.648  1.00  0.00     0.128 A 
ATOM     13  C   UNL A   1      32.072  20.643  22.642  1.00  0.00     0.032 A 
ATOM     14  Cl  UNL A   1      32.026  18.211  21.635  1.00  0.00    -0.084 Cl
ATOM     15  C   UNL A   1      32.379  21.670  23.531  1.00  0.00     0.019 A 
ATOM     16  O   UNL A   1      33.511  22.314  25.562  1.00  0.00    -0.475 OA
ATOM     17  C   UNL A   1      31.972  23.049  23.294  1.00  0.00     0.025 C 
ATOM     18  C   UNL A   1      32.697  23.519  25.605  1.00  0.00     0.314 C 
BRANCH   9  19
ATOM     19  C   UNL A   1      33.971  17.638  24.335  1.00  0.00    -0.012 C 
ATOM     20  C   UNL A   1      34.058  16.559  23.237  1.00  0.00     0.016 C 
ATOM     21  C   UNL A   1      33.167  16.997  25.496  1.00  0.00     0.016 C 
ATOM     22  C   UNL A   1      35.431  17.871  24.805  1.00  0.00     0.016 C 
ENDBRANCH   9  19
BRANCH  18  23
ATOM     23  C   UNL A   1      31.604  23.354  26.678  1.00  0.00     0.429 C 
ATOM     24  F   UNL A   1      30.534  22.696  26.166  1.00  0.00    -0.167 F 
ATOM     25  F   UNL A   1      32.025  22.636  27.745  1.00  0.00    -0.167 F 
ATOM     26  F   UNL A   1      31.158  24.540  27.153  1.00  0.00    -0.167 F 
ENDBRANCH  18  23
ENDBRANCH   5   8
ENDBRANCH   3   4
ENDBRANCH   2   3
ENDBRANCH   1   2
BRANCH   1  27
ATOM     27  C   UNL A   1      32.680  29.969  25.996  1.00  0.00     0.116 C 
BRANCH  27  28
ATOM     28  N   UNL A   1      32.301  31.251  26.573  1.00  0.00    -0.352 N 
ATOM     29  C   UNL A   1      33.073  32.069  27.374  1.00  0.00     0.251 C 
ATOM     30  H   UNL A   1      31.392  31.571  26.370  1.00  0.00     0.163 HD
ATOM     31  O   UNL A   1      32.601  33.089  27.866  1.00  0.00    -0.269 OA
BRANCH  29  32
ATOM     32  C   UNL A   1      34.456  31.647  27.677  1.00  0.00     0.039 A 
ATOM     33  C   UNL A   1      34.721  30.318  28.006  1.00  0.00     0.014 A 
ATOM     34  C   UNL A   1      35.463  32.613  27.759  1.00  0.00     0.014 A 
ATOM     35  C   UNL A   1      35.927  29.997  28.613  1.00  0.00     0.010 A 
ATOM     36  C   UNL A   1      36.710  32.264  28.286  1.00  0.00     0.010 A 
ATOM     37  C   UNL A   1      36.927  30.971  28.785  1.00  0.00    -0.014 A 
BRANCH  37  38
ATOM     38  C   UNL A   1      38.167  30.601  29.520  1.00  0.00     0.031 A 
ATOM     39  C   UNL A   1      38.368  31.007  30.957  1.00  0.00     0.074 A 
ATOM     40  C   UNL A   1      39.068  29.802  28.915  1.00  0.00     0.049 A 
ATOM     41  N   UNL A   1      39.320  30.656  31.784  1.00  0.00    -0.248 NA
ATOM     42  C   UNL A   1      37.379  31.925  31.545  1.00  0.00     0.031 C 
ATOM     43  C   UNL A   1      38.976  29.355  27.525  1.00  0.00     0.029 A 
ATOM     44  N   UNL A   1      40.198  29.188  29.390  1.00  0.00    -0.354 N 
ATOM     45  C   UNL A   1      39.057  31.320  32.978  1.00  0.00     0.074 A 
ATOM     46  C   UNL A   1      37.874  32.121  32.759  1.00  0.00     0.031 C 
ATOM     47  C   UNL A   1      39.957  28.476  27.283  1.00  0.00     0.029 A 
ATOM     48  C   UNL A   1      40.786  28.341  28.480  1.00  0.00     0.049 A 
ATOM     49  H   UNL A   1      40.555  29.339  30.295  1.00  0.00     0.167 HD
ATOM     50  C   UNL A   1      39.731  31.253  34.151  1.00  0.00     0.034 A 
ATOM     51  C   UNL A   1      41.860  27.533  28.592  1.00  0.00     0.034 A 
ATOM     52  C   UNL A   1      40.899  30.434  34.361  1.00  0.00     0.049 A 
ATOM     53  C   UNL A   1      42.577  27.457  29.915  1.00  0.00     0.074 A 
ATOM     54  C   UNL A   1      41.653  30.300  35.515  1.00  0.00     0.029 A 
ATOM     55  N   UNL A   1      41.472  29.602  33.412  1.00  0.00    -0.354 N 
ATOM     56  N   UNL A   1      42.292  28.066  31.042  1.00  0.00    -0.248 NA
ATOM     57  C   UNL A   1      43.754  26.582  29.988  1.00  0.00     0.031 C 
ATOM     58  C   UNL A   1      42.704  29.421  35.249  1.00  0.00     0.029 A 
ATOM     59  C   UNL A   1      42.574  28.957  33.950  1.00  0.00     0.049 A 
ATOM     60  H   UNL A   1      41.144  29.485  32.491  1.00  0.00     0.167 HD
ATOM     61  C   UNL A   1      43.242  27.634  31.962  1.00  0.00     0.074 A 
ATOM     62  C   UNL A   1      44.091  26.689  31.267  1.00  0.00     0.031 C 
ATOM     63  C   UNL A   1      43.402  27.998  33.259  1.00  0.00     0.034 A 
BRANCH  50  64
ATOM     64  C   UNL A   1      39.232  32.070  35.318  1.00  0.00     0.023 A 
ATOM     65  C   UNL A   1      39.695  33.386  35.510  1.00  0.00     0.031 A 
ATOM     66  C   UNL A   1      38.394  31.511  36.299  1.00  0.00     0.131 A 
ATOM     67  C   UNL A   1      39.342  34.087  36.670  1.00  0.00     0.055 A 
ATOM     68  C   UNL A   1      38.017  32.227  37.436  1.00  0.00     0.041 A 
ATOM     69  F   UNL A   1      37.922  30.261  36.160  1.00  0.00    -0.206 F 
ATOM     70  C   UNL A   1      38.500  33.516  37.631  1.00  0.00     0.022 A 
BRANCH  67  71
ATOM     71  S   UNL A   1      40.005  35.741  37.007  1.00  0.00     0.124 S 
ATOM     72  O   UNL A   1      41.429  35.464  37.175  1.00  0.00    -0.237 OA
ATOM     73  O   UNL A   1      39.649  36.468  35.791  1.00  0.00    -0.237 OA
ATOM     74  O   UNL A   1      39.306  36.160  38.218  1.00  0.00    -0.744 OA
ENDBRANCH  67  71
ENDBRANCH  50  64
BRANCH  51  75
ATOM     75  C   UNL A   1      42.251  26.685  27.429  1.00  0.00     0.023 A 
ATOM     76  C   UNL A   1      41.839  25.343  27.342  1.00  0.00     0.031 A 
ATOM     77  C   UNL A   1      43.146  27.165  26.458  1.00  0.00     0.131 A 
ATOM     78  C   UNL A   1      42.383  24.509  26.358  1.00  0.00     0.055 A 
ATOM     79  C   UNL A   1      43.627  26.350  25.432  1.00  0.00     0.041 A 
ATOM     80  F   UNL A   1      43.581  28.434  26.507  1.00  0.00    -0.206 F 
ATOM     81  C   UNL A   1      43.262  25.007  25.392  1.00  0.00     0.022 A 
BRANCH  78  82
ATOM     82  S   UNL A   1      42.094  22.717  26.399  1.00  0.00     0.124 S 
ATOM     83  O   UNL A   1      40.656  22.647  26.628  1.00  0.00    -0.237 OA
ATOM     84  O   UNL A   1      42.543  22.311  25.069  1.00  0.00    -0.237 OA
ATOM     85  O   UNL A   1      42.934  22.259  27.502  1.00  0.00    -0.744 OA
ENDBRANCH  78  82
ENDBRANCH  51  75
BRANCH  63  86
ATOM     86  C   UNL A   1      44.530  27.379  34.046  1.00  0.00     0.023 A 
ATOM     87  C   UNL A   1      44.323  26.173  34.744  1.00  0.00     0.031 A 
ATOM     88  C   UNL A   1      45.754  28.048  34.222  1.00  0.00     0.131 A 
ATOM     89  C   UNL A   1      45.314  25.687  35.606  1.00  0.00     0.055 A 
ATOM     90  C   UNL A   1      46.754  27.539  35.051  1.00  0.00     0.041 A 
ATOM     91  F   UNL A   1      45.993  29.208  33.589  1.00  0.00    -0.206 F 
ATOM     92  C   UNL A   1      46.532  26.360  35.758  1.00  0.00     0.022 A 
BRANCH  89  93
ATOM     93  S   UNL A   1      45.029  24.215  36.625  1.00  0.00     0.124 S 
ATOM     94  O   UNL A   1      46.375  23.658  36.732  1.00  0.00    -0.237 OA
ATOM     95  O   UNL A   1      44.493  24.790  37.857  1.00  0.00    -0.237 OA
ATOM     96  O   UNL A   1      44.086  23.421  35.844  1.00  0.00    -0.744 OA
ENDBRANCH  89  93
ENDBRANCH  63  86
ENDBRANCH  37  38
ENDBRANCH  29  32
ENDBRANCH  27  28
ENDBRANCH   1  27
TORSDOF 16
ENDMDL
MODEL 2
REMARK VINA RESULT:     -12.8      4.892     10.170
REMARK SMILES CC(C)(C)c1cc2c(cc1Cl)C=C(C(=O)NCCCCNC(=O)c1ccc(-c3c4nc(c(-c5cc(S(=O)(=O)[O-])ccc5F)c5ccc([nH]5)c(-c5cc(S(=O)(=O)[O-])ccc5F)c5nc(c(-c6cc(S(=O)(=O)[O-])ccc6F)c6ccc3[nH]6)C=C5)C=C4)cc1)[C@@H](C(F)(F)F)O2
REMARK SMILES IDX 19 1 18 2 17 3 16 4 14 5 15 6 13 8 5 9 6 10 10 11 7 12 9 13
REMARK SMILES IDX 11 14 8 15 92 16 12 17 87 18 2 19 1 20 3 21 4 22 88 23 89 24
REMARK SMILES IDX 90 25 91 26 20 27 21 28 22 29 23 31 24 32 25 33 86 34 26 35
REMARK SMILES IDX 85 36 27 37 28 38 29 39 79 40 30 41 84 42 78 43 80 44 31 45
REMARK SMILES IDX 83 46 77 47 76 48 32 50 64 51 44 52 63 53 45 54 48 55 62 56
REMARK SMILES IDX 81 57 46 58 47 59 61 61 82 62 49 63 33 64 34 65 42 66 35 67
REMARK SMILES IDX 41 68 43 69 40 70 36 71 37 72 38 73 39 74 65 75 66 76 74 77
REMARK SMILES IDX 67 78 73 79 75 80 72 81 68 82 69 83 70 84 71 85 50 86 51 87
REMARK SMILES IDX 59 88 52 89 58 90 60 91 57 92 53 93 54 94 55 95 56 96
REMARK H PARENT 16 7 21 30 80 49 48 60
REMARK Flexibility Score: inf
ROOT
ATOM      1  C   UNL A   1      36.707  22.364  24.588  1.00  0.00     0.023 C 
ENDROOT
BRANCH   1   2
ATOM      2  C   UNL A   1      36.298  20.992  24.047  1.00  0.00     0.023 C 
BRANCH   2   3
ATOM      3  C   UNL A   1      35.384  20.191  24.973  1.00  0.00     0.116 C 
BRANCH   3   4
ATOM      4  N   UNL A   1      34.027  20.094  24.462  1.00  0.00    -0.352 N 
ATOM      5  C   UNL A   1      32.921  20.874  24.441  1.00  0.00     0.251 C 
ATOM      6  O   UNL A   1      31.940  20.389  23.868  1.00  0.00    -0.270 OA
ATOM      7  H   UNL A   1      33.870  19.231  24.013  1.00  0.00     0.163 HD
BRANCH   5   8
ATOM      8  C   UNL A   1      32.812  22.232  25.052  1.00  0.00     0.067 C 
ATOM      9  C   UNL A   1      32.740  27.281  25.792  1.00  0.00    -0.020 A 
ATOM     10  C   UNL A   1      32.241  26.133  26.465  1.00  0.00     0.053 A 
ATOM     11  C   UNL A   1      33.442  27.028  24.594  1.00  0.00     0.045 A 
ATOM     12  C   UNL A   1      32.413  24.838  25.978  1.00  0.00     0.128 A 
ATOM     13  C   UNL A   1      33.598  25.714  24.101  1.00  0.00     0.032 A 
ATOM     14  Cl  UNL A   1      34.175  28.232  23.593  1.00  0.00    -0.084 Cl
ATOM     15  C   UNL A   1      33.079  24.617  24.785  1.00  0.00     0.019 A 
ATOM     16  O   UNL A   1      31.850  23.831  26.707  1.00  0.00    -0.475 OA
ATOM     17  C   UNL A   1      33.167  23.262  24.258  1.00  0.00     0.025 C 
ATOM     18  C   UNL A   1      32.377  22.496  26.466  1.00  0.00     0.314 C 
BRANCH   9  19
ATOM     19  C   UNL A   1      32.431  28.646  26.455  1.00  0.00    -0.012 C 
ATOM     20  C   UNL A   1      31.747  29.731  25.600  1.00  0.00     0.016 C 
ATOM     21  C   UNL A   1      33.752  29.278  26.965  1.00  0.00     0.016 C 
ATOM     22  C   UNL A   1      31.487  28.414  27.665  1.00  0.00     0.016 C 
ENDBRANCH   9  19
BRANCH  18  23
ATOM     23  C   UNL A   1      33.488  22.198  27.490  1.00  0.00     0.429 C 
ATOM     24  F   UNL A   1      33.119  22.622  28.725  1.00  0.00    -0.167 F 
ATOM     25  F   UNL A   1      33.756  20.876  27.599  1.00  0.00    -0.167 F 
ATOM     26  F   UNL A   1      34.654  22.813  27.185  1.00  0.00    -0.167 F 
ENDBRANCH  18  23
ENDBRANCH   5   8
ENDBRANCH   3   4
ENDBRANCH   2   3
ENDBRANCH   1   2
BRANCH   1  27
ATOM     27  C   UNL A   1      37.548  22.343  25.864  1.00  0.00     0.116 C 
BRANCH  27  28
ATOM     28  N   UNL A   1      38.692  21.442  25.820  1.00  0.00    -0.352 N 
ATOM     29  C   UNL A   1      39.945  21.656  26.359  1.00  0.00     0.251 C 
ATOM     30  H   UNL A   1      38.557  20.586  25.354  1.00  0.00     0.163 HD
ATOM     31  O   UNL A   1      40.850  20.847  26.178  1.00  0.00    -0.269 OA
BRANCH  29  32
ATOM     32  C   UNL A   1      40.184  22.912  27.099  1.00  0.00     0.039 A 
ATOM     33  C   UNL A   1      39.551  24.087  26.694  1.00  0.00     0.014 A 
ATOM     34  C   UNL A   1      41.142  22.936  28.116  1.00  0.00     0.014 A 
ATOM     35  C   UNL A   1      40.026  25.307  27.157  1.00  0.00     0.010 A 
ATOM     36  C   UNL A   1      41.553  24.163  28.646  1.00  0.00     0.010 A 
ATOM     37  C   UNL A   1      41.050  25.362  28.119  1.00  0.00    -0.014 A 
BRANCH  37  38
ATOM     38  C   UNL A   1      41.586  26.692  28.518  1.00  0.00     0.031 A 
ATOM     39  C   UNL A   1      42.960  27.135  28.087  1.00  0.00     0.074 A 
ATOM     40  C   UNL A   1      40.783  27.543  29.185  1.00  0.00     0.049 A 
ATOM     41  N   UNL A   1      43.526  28.307  28.230  1.00  0.00    -0.248 NA
ATOM     42  C   UNL A   1      43.811  26.143  27.411  1.00  0.00     0.031 C 
ATOM     43  C   UNL A   1      39.437  27.214  29.657  1.00  0.00     0.029 A 
ATOM     44  N   UNL A   1      40.949  28.857  29.538  1.00  0.00    -0.354 N 
ATOM     45  C   UNL A   1      44.800  28.188  27.682  1.00  0.00     0.074 A 
ATOM     46  C   UNL A   1      44.936  26.821  27.232  1.00  0.00     0.031 C 
ATOM     47  C   UNL A   1      38.870  28.317  30.163  1.00  0.00     0.029 A 
ATOM     48  C   UNL A   1      39.830  29.418  30.108  1.00  0.00     0.049 A 
ATOM     49  H   UNL A   1      41.789  29.352  29.397  1.00  0.00     0.167 HD
ATOM     50  C   UNL A   1      45.758  29.137  27.552  1.00  0.00     0.034 A 
ATOM     51  C   UNL A   1      39.591  30.677  30.529  1.00  0.00     0.034 A 
ATOM     52  C   UNL A   1      45.602  30.502  27.987  1.00  0.00     0.049 A 
ATOM     53  C   UNL A   1      40.663  31.719  30.349  1.00  0.00     0.074 A 
ATOM     54  C   UNL A   1      46.516  31.538  27.899  1.00  0.00     0.029 A 
ATOM     55  N   UNL A   1      44.460  31.028  28.572  1.00  0.00    -0.354 N 
ATOM     56  N   UNL A   1      41.847  31.595  29.797  1.00  0.00    -0.248 NA
ATOM     57  C   UNL A   1      40.370  33.072  30.840  1.00  0.00     0.031 C 
ATOM     58  C   UNL A   1      45.944  32.676  28.470  1.00  0.00     0.029 A 
ATOM     59  C   UNL A   1      44.649  32.370  28.859  1.00  0.00     0.049 A 
ATOM     60  H   UNL A   1      43.635  30.522  28.757  1.00  0.00     0.167 HD
ATOM     61  C   UNL A   1      42.432  32.857  29.856  1.00  0.00     0.074 A 
ATOM     62  C   UNL A   1      41.458  33.735  30.471  1.00  0.00     0.031 C 
ATOM     63  C   UNL A   1      43.666  33.246  29.451  1.00  0.00     0.034 A 
BRANCH  50  64
ATOM     64  C   UNL A   1      47.066  28.756  26.902  1.00  0.00     0.023 A 
ATOM     65  C   UNL A   1      47.116  28.475  25.524  1.00  0.00     0.031 A 
ATOM     66  C   UNL A   1      48.232  28.559  27.664  1.00  0.00     0.131 A 
ATOM     67  C   UNL A   1      48.298  27.983  24.955  1.00  0.00     0.055 A 
ATOM     68  C   UNL A   1      49.417  28.102  27.085  1.00  0.00     0.041 A 
ATOM     69  F   UNL A   1      48.237  28.818  28.981  1.00  0.00    -0.206 F 
ATOM     70  C   UNL A   1      49.450  27.801  25.728  1.00  0.00     0.022 A 
BRANCH  67  71
ATOM     71  S   UNL A   1      48.373  27.504  23.207  1.00  0.00     0.124 S 
ATOM     72  O   UNL A   1      48.244  26.051  23.289  1.00  0.00    -0.237 OA
ATOM     73  O   UNL A   1      47.217  28.202  22.649  1.00  0.00    -0.237 OA
ATOM     74  O   UNL A   1      49.676  27.989  22.765  1.00  0.00    -0.744 OA
ENDBRANCH  67  71
ENDBRANCH  50  64
BRANCH  51  75
ATOM     75  C   UNL A   1      38.246  31.010  31.083  1.00  0.00     0.023 A 
ATOM     76  C   UNL A   1      37.253  31.589  30.271  1.00  0.00     0.031 A 
ATOM     77  C   UNL A   1      37.982  30.876  32.456  1.00  0.00     0.131 A 
ATOM     78  C   UNL A   1      36.079  32.084  30.851  1.00  0.00     0.055 A 
ATOM     79  C   UNL A   1      36.776  31.301  33.019  1.00  0.00     0.041 A 
ATOM     80  F   UNL A   1      38.903  30.345  33.274  1.00  0.00    -0.206 F 
ATOM     81  C   UNL A   1      35.827  31.929  32.218  1.00  0.00     0.022 A 
BRANCH  78  82
ATOM     82  S   UNL A   1      34.918  33.086  29.882  1.00  0.00     0.124 S 
ATOM     83  O   UNL A   1      35.810  34.034  29.224  1.00  0.00    -0.237 OA
ATOM     84  O   UNL A   1      34.310  32.082  29.011  1.00  0.00    -0.237 OA
ATOM     85  O   UNL A   1      34.027  33.650  30.891  1.00  0.00    -0.744 OA
ENDBRANCH  78  82
ENDBRANCH  51  75
BRANCH  63  86
ATOM     86  C   UNL A   1      44.063  34.689  29.638  1.00  0.00     0.023 A 
ATOM     87  C   UNL A   1      43.778  35.634  28.633  1.00  0.00     0.031 A 
ATOM     88  C   UNL A   1      44.843  35.098  30.733  1.00  0.00     0.131 A 
ATOM     89  C   UNL A   1      44.292  36.933  28.730  1.00  0.00     0.055 A 
ATOM     90  C   UNL A   1      45.319  36.405  30.847  1.00  0.00     0.041 A 
ATOM     91  F   UNL A   1      45.153  34.230  31.710  1.00  0.00    -0.206 F 
ATOM     92  C   UNL A   1      45.055  37.325  29.836  1.00  0.00     0.022 A 
BRANCH  89  93
ATOM     93  S   UNL A   1      44.063  38.135  27.391  1.00  0.00     0.124 S 
ATOM     94  O   UNL A   1      45.354  38.076  26.711  1.00  0.00    -0.237 OA
ATOM     95  O   UNL A   1      42.940  37.563  26.651  1.00  0.00    -0.237 OA
ATOM     96  O   UNL A   1      43.781  39.387  28.086  1.00  0.00    -0.744 OA
ENDBRANCH  89  93
ENDBRANCH  63  86
ENDBRANCH  37  38
ENDBRANCH  29  32
ENDBRANCH  27  28
ENDBRANCH   1  27
TORSDOF 16
ENDMDL
MODEL 3
REMARK VINA RESULT:     -12.8      1.661      2.163
REMARK SMILES CC(C)(C)c1cc2c(cc1Cl)C=C(C(=O)NCCCCNC(=O)c1ccc(-c3c4nc(c(-c5cc(S(=O)(=O)[O-])ccc5F)c5ccc([nH]5)c(-c5cc(S(=O)(=O)[O-])ccc5F)c5nc(c(-c6cc(S(=O)(=O)[O-])ccc6F)c6ccc3[nH]6)C=C5)C=C4)cc1)[C@@H](C(F)(F)F)O2
REMARK SMILES IDX 19 1 18 2 17 3 16 4 14 5 15 6 13 8 5 9 6 10 10 11 7 12 9 13
REMARK SMILES IDX 11 14 8 15 92 16 12 17 87 18 2 19 1 20 3 21 4 22 88 23 89 24
REMARK SMILES IDX 90 25 91 26 20 27 21 28 22 29 23 31 24 32 25 33 86 34 26 35
REMARK SMILES IDX 85 36 27 37 28 38 29 39 79 40 30 41 84 42 78 43 80 44 31 45
REMARK SMILES IDX 83 46 77 47 76 48 32 50 64 51 44 52 63 53 45 54 48 55 62 56
REMARK SMILES IDX 81 57 46 58 47 59 61 61 82 62 49 63 33 64 34 65 42 66 35 67
REMARK SMILES IDX 41 68 43 69 40 70 36 71 37 72 38 73 39 74 65 75 66 76 74 77
REMARK SMILES IDX 67 78 73 79 75 80 72 81 68 82 69 83 70 84 71 85 50 86 51 87
REMARK SMILES IDX 59 88 52 89 58 90 60 91 57 92 53 93 54 94 55 95 56 96
REMARK H PARENT 16 7 21 30 80 49 48 60
REMARK Flexibility Score: inf
ROOT
ATOM      1  C   UNL A   1      32.132  30.002  25.184  1.00  0.00     0.023 C 
ENDROOT
BRANCH   1   2
ATOM      2  C   UNL A   1      33.441  29.435  24.631  1.00  0.00     0.023 C 
BRANCH   2   3
ATOM      3  C   UNL A   1      33.413  29.115  23.137  1.00  0.00     0.116 C 
BRANCH   3   4
ATOM      4  N   UNL A   1      32.094  28.706  22.684  1.00  0.00    -0.352 N 
ATOM      5  C   UNL A   1      31.308  27.609  22.793  1.00  0.00     0.251 C 
ATOM      6  O   UNL A   1      30.205  27.689  22.241  1.00  0.00    -0.270 OA
ATOM      7  H   UNL A   1      31.656  29.415  22.159  1.00  0.00     0.163 HD
BRANCH   5   8
ATOM      8  C   UNL A   1      31.679  26.349  23.504  1.00  0.00     0.067 C 
ATOM      9  C   UNL A   1      32.944  21.527  24.589  1.00  0.00    -0.020 A 
ATOM     10  C   UNL A   1      33.035  22.787  25.237  1.00  0.00     0.053 A 
ATOM     11  C   UNL A   1      32.369  21.544  23.300  1.00  0.00     0.045 A 
ATOM     12  C   UNL A   1      32.604  23.974  24.646  1.00  0.00     0.128 A 
ATOM     13  C   UNL A   1      31.948  22.754  22.703  1.00  0.00     0.032 A 
ATOM     14  Cl  UNL A   1      32.112  20.156  22.302  1.00  0.00    -0.084 Cl
ATOM     15  C   UNL A   1      32.071  23.971  23.369  1.00  0.00     0.019 A 
ATOM     16  O   UNL A   1      32.786  25.118  25.368  1.00  0.00    -0.475 OA
ATOM     17  C   UNL A   1      31.710  25.237  22.745  1.00  0.00     0.025 C 
ATOM     18  C   UNL A   1      31.972  26.258  24.975  1.00  0.00     0.314 C 
BRANCH   9  19
ATOM     19  C   UNL A   1      33.501  20.314  25.376  1.00  0.00    -0.012 C 
ATOM     20  C   UNL A   1      32.681  19.008  25.375  1.00  0.00     0.016 C 
ATOM     21  C   UNL A   1      33.671  20.706  26.866  1.00  0.00     0.016 C 
ATOM     22  C   UNL A   1      34.889  19.935  24.795  1.00  0.00     0.016 C 
ENDBRANCH   9  19
BRANCH  18  23
ATOM     23  C   UNL A   1      30.694  26.287  25.834  1.00  0.00     0.429 C 
ATOM     24  F   UNL A   1      29.606  26.514  25.055  1.00  0.00    -0.167 F 
ATOM     25  F   UNL A   1      30.471  25.118  26.478  1.00  0.00    -0.167 F 
ATOM     26  F   UNL A   1      30.723  27.257  26.777  1.00  0.00    -0.167 F 
ENDBRANCH  18  23
ENDBRANCH   5   8
ENDBRANCH   3   4
ENDBRANCH   2   3
ENDBRANCH   1   2
BRANCH   1  27
ATOM     27  C   UNL A   1      32.141  30.347  26.672  1.00  0.00     0.116 C 
BRANCH  27  28
ATOM     28  N   UNL A   1      31.938  31.759  26.969  1.00  0.00    -0.352 N 
ATOM     29  C   UNL A   1      32.857  32.643  27.496  1.00  0.00     0.251 C 
ATOM     30  H   UNL A   1      31.044  32.122  26.771  1.00  0.00     0.163 HD
ATOM     31  O   UNL A   1      32.530  33.792  27.776  1.00  0.00    -0.269 OA
BRANCH  29  32
ATOM     32  C   UNL A   1      34.222  32.151  27.776  1.00  0.00     0.039 A 
ATOM     33  C   UNL A   1      34.418  30.818  28.134  1.00  0.00     0.014 A 
ATOM     34  C   UNL A   1      35.283  33.058  27.806  1.00  0.00     0.014 A 
ATOM     35  C   UNL A   1      35.620  30.444  28.719  1.00  0.00     0.010 A 
ATOM     36  C   UNL A   1      36.522  32.652  28.311  1.00  0.00     0.010 A 
ATOM     37  C   UNL A   1      36.678  31.362  28.840  1.00  0.00    -0.014 A 
BRANCH  37  38
ATOM     38  C   UNL A   1      37.914  30.940  29.554  1.00  0.00     0.031 A 
ATOM     39  C   UNL A   1      38.156  31.337  30.987  1.00  0.00     0.074 A 
ATOM     40  C   UNL A   1      38.770  30.105  28.933  1.00  0.00     0.049 A 
ATOM     41  N   UNL A   1      39.107  30.946  31.797  1.00  0.00    -0.248 NA
ATOM     42  C   UNL A   1      37.216  32.294  31.592  1.00  0.00     0.031 C 
ATOM     43  C   UNL A   1      38.636  29.663  27.545  1.00  0.00     0.029 A 
ATOM     44  N   UNL A   1      39.883  29.445  29.388  1.00  0.00    -0.354 N 
ATOM     45  C   UNL A   1      38.893  31.619  32.996  1.00  0.00     0.074 A 
ATOM     46  C   UNL A   1      37.740  32.470  32.797  1.00  0.00     0.031 C 
ATOM     47  C   UNL A   1      39.576  28.745  27.286  1.00  0.00     0.029 A 
ATOM     48  C   UNL A   1      40.419  28.575  28.468  1.00  0.00     0.049 A 
ATOM     49  H   UNL A   1      40.261  29.580  30.287  1.00  0.00     0.167 HD
ATOM     50  C   UNL A   1      39.584  31.524  34.157  1.00  0.00     0.034 A 
ATOM     51  C   UNL A   1      41.460  27.723  28.562  1.00  0.00     0.034 A 
ATOM     52  C   UNL A   1      40.719  30.657  34.347  1.00  0.00     0.049 A 
ATOM     53  C   UNL A   1      42.196  27.616  29.872  1.00  0.00     0.074 A 
ATOM     54  C   UNL A   1      41.487  30.491  35.487  1.00  0.00     0.029 A 
ATOM     55  N   UNL A   1      41.241  29.802  33.388  1.00  0.00    -0.354 N 
ATOM     56  N   UNL A   1      41.956  28.235  31.004  1.00  0.00    -0.248 NA
ATOM     57  C   UNL A   1      43.337  26.693  29.925  1.00  0.00     0.031 C 
ATOM     58  C   UNL A   1      42.496  29.569  35.204  1.00  0.00     0.029 A 
ATOM     59  C   UNL A   1      42.325  29.112  33.907  1.00  0.00     0.049 A 
ATOM     60  H   UNL A   1      40.892  29.700  32.473  1.00  0.00     0.167 HD
ATOM     61  C   UNL A   1      42.903  27.764  31.908  1.00  0.00     0.074 A 
ATOM     62  C   UNL A   1      43.699  26.785  31.198  1.00  0.00     0.031 C 
ATOM     63  C   UNL A   1      43.100  28.120  33.202  1.00  0.00     0.034 A 
BRANCH  50  64
ATOM     64  C   UNL A   1      39.139  32.360  35.332  1.00  0.00     0.023 A 
ATOM     65  C   UNL A   1      39.644  33.663  35.505  1.00  0.00     0.031 A 
ATOM     66  C   UNL A   1      38.310  31.830  36.337  1.00  0.00     0.131 A 
ATOM     67  C   UNL A   1      39.342  34.379  36.670  1.00  0.00     0.055 A 
ATOM     68  C   UNL A   1      37.984  32.561  37.480  1.00  0.00     0.041 A 
ATOM     69  F   UNL A   1      37.799  30.594  36.217  1.00  0.00    -0.206 F 
ATOM     70  C   UNL A   1      38.510  33.837  37.655  1.00  0.00     0.022 A 
BRANCH  67  71
ATOM     71  S   UNL A   1      40.061  36.015  36.982  1.00  0.00     0.124 S 
ATOM     72  O   UNL A   1      39.243  36.494  38.093  1.00  0.00    -0.237 OA
ATOM     73  O   UNL A   1      41.442  35.682  37.322  1.00  0.00    -0.237 OA
ATOM     74  O   UNL A   1      39.877  36.726  35.722  1.00  0.00    -0.744 OA
ENDBRANCH  67  71
ENDBRANCH  50  64
BRANCH  51  75
ATOM     75  C   UNL A   1      41.796  26.860  27.392  1.00  0.00     0.023 A 
ATOM     76  C   UNL A   1      41.428  25.502  27.367  1.00  0.00     0.031 A 
ATOM     77  C   UNL A   1      42.599  27.347  26.347  1.00  0.00     0.131 A 
ATOM     78  C   UNL A   1      41.929  24.663  26.364  1.00  0.00     0.055 A 
ATOM     79  C   UNL A   1      43.033  26.523  25.307  1.00  0.00     0.041 A 
ATOM     80  F   UNL A   1      42.989  28.631  26.335  1.00  0.00    -0.206 F 
ATOM     81  C   UNL A   1      42.716  25.168  25.324  1.00  0.00     0.022 A 
BRANCH  78  82
ATOM     82  S   UNL A   1      41.710  22.865  26.467  1.00  0.00     0.124 S 
ATOM     83  O   UNL A   1      40.258  22.735  26.477  1.00  0.00    -0.237 OA
ATOM     84  O   UNL A   1      42.377  22.412  25.248  1.00  0.00    -0.237 OA
ATOM     85  O   UNL A   1      42.387  22.507  27.710  1.00  0.00    -0.744 OA
ENDBRANCH  78  82
ENDBRANCH  51  75
BRANCH  63  86
ATOM     86  C   UNL A   1      44.215  27.454  33.969  1.00  0.00     0.023 A 
ATOM     87  C   UNL A   1      45.517  27.989  33.927  1.00  0.00     0.031 A 
ATOM     88  C   UNL A   1      44.023  26.223  34.618  1.00  0.00     0.131 A 
ATOM     89  C   UNL A   1      46.581  27.281  34.499  1.00  0.00     0.055 A 
ATOM     90  C   UNL A   1      45.079  25.539  35.223  1.00  0.00     0.041 A 
ATOM     91  F   UNL A   1      42.802  25.664  34.674  1.00  0.00    -0.206 F 
ATOM     92  C   UNL A   1      46.368  26.062  35.153  1.00  0.00     0.022 A 
BRANCH  89  93
ATOM     93  S   UNL A   1      48.290  27.869  34.343  1.00  0.00     0.124 S 
ATOM     94  O   UNL A   1      48.903  27.336  35.556  1.00  0.00    -0.237 OA
ATOM     95  O   UNL A   1      48.721  27.240  33.097  1.00  0.00    -0.237 OA
ATOM     96  O   UNL A   1      48.160  29.322  34.297  1.00  0.00    -0.744 OA
ENDBRANCH  89  93
ENDBRANCH  63  86
ENDBRANCH  37  38
ENDBRANCH  29  32
ENDBRANCH  27  28
ENDBRANCH   1  27
TORSDOF 16
ENDMDL
