MODEL 1
REMARK VINA RESULT:     -12.5      0.000      0.000
REMARK SMILES O=C(NCCCCNC(=O)c1ccccc1C[N@H+]1CCCC[C@@H]1CCn1cccn1)c1ccc(-c2c3nc(c(-c4cc(S(=O)(=O)[O-])ccc4F)c4ccc([nH]4)c(-c4cc(S(=O)(=O)[O-])ccc4F)c4nc(c(-c5cc(S(=O)(=O)[O-])ccc5F)c5ccc2[nH]5)C=C4)C=C3)cc1
REMARK SMILES IDX 6 1 5 2 4 3 3 4 1 5 2 6 31 8 32 9 93 10 33 11 92 12 34 13
REMARK SMILES IDX 35 14 36 15 86 16 37 17 91 18 85 19 87 20 38 21 90 22 84 23
REMARK SMILES IDX 83 24 39 26 71 27 51 28 70 29 52 30 55 31 69 32 88 33 53 34
REMARK SMILES IDX 54 35 68 37 89 38 56 39 40 40 41 41 49 42 42 43 48 44 50 45
REMARK SMILES IDX 47 46 43 47 44 48 45 49 46 50 72 51 73 52 81 53 74 54 80 55
REMARK SMILES IDX 82 56 79 57 75 58 76 59 77 60 78 61 57 62 58 63 66 64 59 65
REMARK SMILES IDX 65 66 67 67 64 68 60 69 61 70 62 71 63 72 7 73 8 74 9 75
REMARK SMILES IDX 10 77 11 78 12 79 16 80 13 81 15 82 14 83 17 84 18 85 19 86
REMARK SMILES IDX 23 87 20 89 22 90 21 91 24 92 25 93 26 94 27 95 30 96 28 97
REMARK SMILES IDX 29 98
REMARK H PARENT 3 7 87 25 55 36 8 76 18 88
REMARK Flexibility Score: inf
ROOT
ATOM      1  C   UNL A   1      32.854  28.512  27.192  1.00  0.00     0.023 C 
ENDROOT
BRANCH   1   2
ATOM      2  C   UNL A   1      32.734  30.034  27.303  1.00  0.00     0.023 C 
BRANCH   2   3
ATOM      3  C   UNL A   1      34.030  30.836  27.171  1.00  0.00     0.116 C 
BRANCH   3   4
ATOM      4  N   UNL A   1      34.316  31.777  28.235  1.00  0.00    -0.352 N 
ATOM      5  O   UNL A   1      35.420  33.125  29.605  1.00  0.00    -0.269 OA
ATOM      6  C   UNL A   1      35.445  32.080  28.950  1.00  0.00     0.251 C 
ATOM      7  H   UNL A   1      33.534  32.312  28.500  1.00  0.00     0.163 HD
BRANCH   6   8
ATOM      8  C   UNL A   1      36.628  31.186  29.064  1.00  0.00     0.039 A 
ATOM      9  C   UNL A   1      36.598  29.792  29.051  1.00  0.00     0.014 A 
ATOM     10  C   UNL A   1      37.865  31.835  29.235  1.00  0.00     0.014 A 
ATOM     11  C   UNL A   1      37.749  29.065  29.349  1.00  0.00     0.010 A 
ATOM     12  C   UNL A   1      39.021  31.113  29.507  1.00  0.00     0.010 A 
ATOM     13  C   UNL A   1      38.953  29.727  29.611  1.00  0.00    -0.014 A 
BRANCH  13  14
ATOM     14  C   UNL A   1      40.173  28.934  29.768  1.00  0.00     0.031 A 
ATOM     15  C   UNL A   1      40.574  28.750  31.192  1.00  0.00     0.074 A 
ATOM     16  C   UNL A   1      40.796  28.283  28.761  1.00  0.00     0.049 A 
ATOM     17  N   UNL A   1      41.640  29.186  31.780  1.00  0.00    -0.248 NA
ATOM     18  C   UNL A   1      39.597  28.147  32.115  1.00  0.00     0.031 C 
ATOM     19  C   UNL A   1      40.365  28.160  27.368  1.00  0.00     0.029 A 
ATOM     20  N   UNL A   1      41.914  27.499  28.797  1.00  0.00    -0.354 N 
ATOM     21  C   UNL A   1      41.579  28.714  33.089  1.00  0.00     0.074 A 
ATOM     22  C   UNL A   1      40.230  28.256  33.283  1.00  0.00     0.031 C 
ATOM     23  C   UNL A   1      41.070  27.174  26.763  1.00  0.00     0.029 A 
ATOM     24  C   UNL A   1      42.086  26.678  27.681  1.00  0.00     0.049 A 
ATOM     25  H   UNL A   1      42.549  27.512  29.550  1.00  0.00     0.167 HD
ATOM     26  C   UNL A   1      42.707  28.529  33.830  1.00  0.00     0.034 A 
ATOM     27  C   UNL A   1      42.955  25.635  27.539  1.00  0.00     0.034 A 
ATOM     28  C   UNL A   1      43.826  29.236  33.254  1.00  0.00     0.049 A 
ATOM     29  C   UNL A   1      44.031  25.833  28.542  1.00  0.00     0.074 A 
ATOM     30  C   UNL A   1      44.098  30.562  32.975  1.00  0.00     0.029 A 
ATOM     31  N   UNL A   1      44.741  28.510  32.526  1.00  0.00    -0.354 N 
ATOM     32  N   UNL A   1      44.876  26.825  28.493  1.00  0.00    -0.248 NA
ATOM     33  C   UNL A   1      43.853  25.235  29.858  1.00  0.00     0.031 C 
ATOM     34  C   UNL A   1      44.785  30.534  31.726  1.00  0.00     0.029 A 
ATOM     35  C   UNL A   1      44.971  29.200  31.361  1.00  0.00     0.049 A 
ATOM     36  H   UNL A   1      45.153  27.656  32.790  1.00  0.00     0.167 HD
ATOM     37  C   UNL A   1      44.985  27.264  29.803  1.00  0.00     0.074 A 
ATOM     38  C   UNL A   1      44.401  26.194  30.611  1.00  0.00     0.031 C 
ATOM     39  C   UNL A   1      45.275  28.567  30.093  1.00  0.00     0.034 A 
BRANCH  26  40
ATOM     40  C   UNL A   1      42.907  27.427  34.848  1.00  0.00     0.023 A 
ATOM     41  C   UNL A   1      43.683  26.318  34.453  1.00  0.00     0.031 A 
ATOM     42  C   UNL A   1      42.147  27.254  36.028  1.00  0.00     0.131 A 
ATOM     43  C   UNL A   1      43.593  25.092  35.132  1.00  0.00     0.055 A 
ATOM     44  C   UNL A   1      42.117  26.051  36.741  1.00  0.00     0.041 A 
ATOM     45  F   UNL A   1      41.321  28.191  36.502  1.00  0.00    -0.206 F 
ATOM     46  C   UNL A   1      42.812  24.950  36.275  1.00  0.00     0.022 A 
BRANCH  43  47
ATOM     47  S   UNL A   1      44.363  23.635  34.379  1.00  0.00     0.124 S 
ATOM     48  O   UNL A   1      45.002  24.217  33.204  1.00  0.00    -0.237 OA
ATOM     49  O   UNL A   1      45.254  23.184  35.442  1.00  0.00    -0.237 OA
ATOM     50  O   UNL A   1      43.228  22.757  34.103  1.00  0.00    -0.744 OA
ENDBRANCH  43  47
ENDBRANCH  26  40
BRANCH  27  51
ATOM     51  C   UNL A   1      42.714  24.324  26.853  1.00  0.00     0.023 A 
ATOM     52  C   UNL A   1      43.655  23.694  26.001  1.00  0.00     0.031 A 
ATOM     53  C   UNL A   1      41.608  23.538  27.247  1.00  0.00     0.131 A 
ATOM     54  C   UNL A   1      43.462  22.350  25.584  1.00  0.00     0.055 A 
ATOM     55  C   UNL A   1      41.424  22.216  26.836  1.00  0.00     0.041 A 
ATOM     56  F   UNL A   1      40.704  24.002  28.124  1.00  0.00    -0.206 F 
ATOM     57  C   UNL A   1      42.355  21.612  26.009  1.00  0.00     0.022 A 
BRANCH  54  58
ATOM     58  S   UNL A   1      44.692  21.494  24.536  1.00  0.00     0.124 S 
ATOM     59  O   UNL A   1      44.151  20.143  24.458  1.00  0.00    -0.237 OA
ATOM     60  O   UNL A   1      44.662  22.279  23.308  1.00  0.00    -0.237 OA
ATOM     61  O   UNL A   1      45.935  21.610  25.302  1.00  0.00    -0.744 OA
ENDBRANCH  54  58
ENDBRANCH  27  51
BRANCH  39  62
ATOM     62  C   UNL A   1      45.759  29.471  28.978  1.00  0.00     0.023 A 
ATOM     63  C   UNL A   1      44.971  30.437  28.309  1.00  0.00     0.031 A 
ATOM     64  C   UNL A   1      47.131  29.424  28.672  1.00  0.00     0.131 A 
ATOM     65  C   UNL A   1      45.567  31.303  27.369  1.00  0.00     0.055 A 
ATOM     66  C   UNL A   1      47.720  30.298  27.761  1.00  0.00     0.041 A 
ATOM     67  F   UNL A   1      47.936  28.546  29.291  1.00  0.00    -0.206 F 
ATOM     68  C   UNL A   1      46.938  31.238  27.101  1.00  0.00     0.022 A 
BRANCH  65  69
ATOM     69  S   UNL A   1      44.567  32.526  26.460  1.00  0.00     0.124 S 
ATOM     70  O   UNL A   1      43.599  31.710  25.737  1.00  0.00    -0.237 OA
ATOM     71  O   UNL A   1      44.028  33.358  27.533  1.00  0.00    -0.237 OA
ATOM     72  O   UNL A   1      45.549  33.202  25.607  1.00  0.00    -0.744 OA
ENDBRANCH  65  69
ENDBRANCH  39  62
ENDBRANCH  13  14
ENDBRANCH   6   8
ENDBRANCH   3   4
ENDBRANCH   2   3
ENDBRANCH   1   2
BRANCH   1  73
ATOM     73  C   UNL A   1      31.733  27.816  26.434  1.00  0.00     0.116 C 
BRANCH  73  74
ATOM     74  N   UNL A   1      31.345  26.534  26.996  1.00  0.00    -0.352 N 
ATOM     75  C   UNL A   1      31.420  25.270  26.457  1.00  0.00     0.251 C 
ATOM     76  H   UNL A   1      30.969  26.576  27.905  1.00  0.00     0.163 HD
ATOM     77  O   UNL A   1      31.052  24.304  27.112  1.00  0.00    -0.269 OA
BRANCH  75  78
ATOM     78  C   UNL A   1      31.894  25.053  25.070  1.00  0.00     0.048 A 
ATOM     79  C   UNL A   1      30.967  25.388  24.062  1.00  0.00     0.014 A 
ATOM     80  C   UNL A   1      33.141  24.489  24.737  1.00  0.00     0.019 A 
ATOM     81  C   UNL A   1      31.284  25.227  22.715  1.00  0.00     0.001 A 
ATOM     82  C   UNL A   1      33.448  24.399  23.369  1.00  0.00     0.010 A 
ATOM     83  C   UNL A   1      32.536  24.746  22.370  1.00  0.00     0.001 A 
BRANCH  80  84
ATOM     84  C   UNL A   1      34.145  24.054  25.791  1.00  0.00     0.300 C 
BRANCH  84  85
ATOM     85  N   UNL A   1      35.276  23.188  25.412  1.00  0.00    -0.329 N 
ATOM     86  C   UNL A   1      36.537  23.764  25.901  1.00  0.00     0.262 C 
ATOM     87  C   UNL A   1      35.148  21.732  25.635  1.00  0.00     0.186 C 
ATOM     88  H   UNL A   1      35.269  23.197  24.392  1.00  0.00     0.348 HD
ATOM     89  C   UNL A   1      37.749  23.068  25.297  1.00  0.00     0.062 C 
ATOM     90  C   UNL A   1      36.368  21.010  25.019  1.00  0.00     0.065 C 
ATOM     91  C   UNL A   1      37.684  21.573  25.550  1.00  0.00     0.012 C 
BRANCH  87  92
ATOM     92  C   UNL A   1      33.839  21.154  25.029  1.00  0.00     0.088 C 
BRANCH  92  93
ATOM     93  C   UNL A   1      33.435  19.764  25.531  1.00  0.00     0.150 C 
BRANCH  93  94
ATOM     94  N   UNL A   1      33.439  18.751  24.490  1.00  0.00    -0.273 N 
ATOM     95  C   UNL A   1      34.363  17.758  24.313  1.00  0.00     0.108 A 
ATOM     96  N   UNL A   1      32.470  18.743  23.556  1.00  0.00    -0.182 NA
ATOM     97  C   UNL A   1      33.984  17.081  23.178  1.00  0.00     0.042 A 
ATOM     98  C   UNL A   1      32.803  17.720  22.762  1.00  0.00     0.135 A 
ENDBRANCH  93  94
ENDBRANCH  92  93
ENDBRANCH  87  92
ENDBRANCH  84  85
ENDBRANCH  80  84
ENDBRANCH  75  78
ENDBRANCH  73  74
ENDBRANCH   1  73
TORSDOF 19
ENDMDL
MODEL 2
REMARK VINA RESULT:     -12.5      2.384      6.894
REMARK SMILES O=C(NCCCCNC(=O)c1ccccc1C[N@H+]1CCCC[C@@H]1CCn1cccn1)c1ccc(-c2c3nc(c(-c4cc(S(=O)(=O)[O-])ccc4F)c4ccc([nH]4)c(-c4cc(S(=O)(=O)[O-])ccc4F)c4nc(c(-c5cc(S(=O)(=O)[O-])ccc5F)c5ccc2[nH]5)C=C4)C=C3)cc1
REMARK SMILES IDX 6 1 5 2 4 3 3 4 1 5 2 6 31 8 32 9 93 10 33 11 92 12 34 13
REMARK SMILES IDX 35 14 36 15 86 16 37 17 91 18 85 19 87 20 38 21 90 22 84 23
REMARK SMILES IDX 83 24 39 26 71 27 51 28 70 29 52 30 55 31 69 32 88 33 53 34
REMARK SMILES IDX 54 35 68 37 89 38 56 39 40 40 41 41 49 42 42 43 48 44 50 45
REMARK SMILES IDX 47 46 43 47 44 48 45 49 46 50 72 51 73 52 81 53 74 54 80 55
REMARK SMILES IDX 82 56 79 57 75 58 76 59 77 60 78 61 57 62 58 63 66 64 59 65
REMARK SMILES IDX 65 66 67 67 64 68 60 69 61 70 62 71 63 72 7 73 8 74 9 75
REMARK SMILES IDX 10 77 11 78 12 79 16 80 13 81 15 82 14 83 17 84 18 85 19 86
REMARK SMILES IDX 23 87 20 89 22 90 21 91 24 92 25 93 26 94 27 95 30 96 28 97
REMARK SMILES IDX 29 98
REMARK H PARENT 3 7 87 25 55 36 8 76 18 88
REMARK Flexibility Score: inf
ROOT
ATOM      1  C   UNL A   1      32.545  29.008  26.763  1.00  0.00     0.023 C 
ENDROOT
BRANCH   1   2
ATOM      2  C   UNL A   1      33.850  29.787  26.580  1.00  0.00     0.023 C 
BRANCH   2   3
ATOM      3  C   UNL A   1      35.093  29.213  27.265  1.00  0.00     0.116 C 
BRANCH   3   4
ATOM      4  N   UNL A   1      35.156  29.355  28.706  1.00  0.00    -0.352 N 
ATOM      5  O   UNL A   1      35.870  29.899  30.732  1.00  0.00    -0.269 OA
ATOM      6  C   UNL A   1      36.184  29.548  29.591  1.00  0.00     0.251 C 
ATOM      7  H   UNL A   1      34.274  29.302  29.141  1.00  0.00     0.163 HD
BRANCH   6   8
ATOM      8  C   UNL A   1      37.611  29.262  29.292  1.00  0.00     0.039 A 
ATOM      9  C   UNL A   1      38.311  29.702  28.169  1.00  0.00     0.014 A 
ATOM     10  C   UNL A   1      38.274  28.441  30.223  1.00  0.00     0.014 A 
ATOM     11  C   UNL A   1      39.591  29.217  27.906  1.00  0.00     0.010 A 
ATOM     12  C   UNL A   1      39.560  27.975  29.978  1.00  0.00     0.010 A 
ATOM     13  C   UNL A   1      40.201  28.326  28.794  1.00  0.00    -0.014 A 
BRANCH  13  14
ATOM     14  C   UNL A   1      41.600  27.957  28.570  1.00  0.00     0.031 A 
ATOM     15  C   UNL A   1      41.757  26.653  27.862  1.00  0.00     0.074 A 
ATOM     16  C   UNL A   1      42.653  28.768  28.814  1.00  0.00     0.049 A 
ATOM     17  N   UNL A   1      42.290  25.565  28.310  1.00  0.00    -0.248 NA
ATOM     18  C   UNL A   1      41.097  26.492  26.555  1.00  0.00     0.031 C 
ATOM     19  C   UNL A   1      42.630  30.162  29.258  1.00  0.00     0.029 A 
ATOM     20  N   UNL A   1      43.986  28.539  28.619  1.00  0.00    -0.354 N 
ATOM     21  C   UNL A   1      42.241  24.650  27.260  1.00  0.00     0.074 A 
ATOM     22  C   UNL A   1      41.337  25.207  26.292  1.00  0.00     0.031 C 
ATOM     23  C   UNL A   1      43.852  30.715  29.071  1.00  0.00     0.029 A 
ATOM     24  C   UNL A   1      44.779  29.688  28.615  1.00  0.00     0.049 A 
ATOM     25  H   UNL A   1      44.358  27.636  28.493  1.00  0.00     0.167 HD
ATOM     26  C   UNL A   1      43.128  23.619  27.176  1.00  0.00     0.034 A 
ATOM     27  C   UNL A   1      46.078  29.803  28.213  1.00  0.00     0.034 A 
ATOM     28  C   UNL A   1      43.782  23.395  28.443  1.00  0.00     0.049 A 
ATOM     29  C   UNL A   1      46.667  28.442  28.272  1.00  0.00     0.074 A 
ATOM     30  C   UNL A   1      43.352  23.062  29.713  1.00  0.00     0.029 A 
ATOM     31  N   UNL A   1      45.062  23.874  28.601  1.00  0.00    -0.354 N 
ATOM     32  N   UNL A   1      46.844  27.790  29.388  1.00  0.00    -0.248 NA
ATOM     33  C   UNL A   1      46.588  27.614  27.077  1.00  0.00     0.031 C 
ATOM     34  C   UNL A   1      44.171  23.835  30.586  1.00  0.00     0.029 A 
ATOM     35  C   UNL A   1      45.107  24.522  29.811  1.00  0.00     0.049 A 
ATOM     36  H   UNL A   1      45.807  23.774  27.965  1.00  0.00     0.167 HD
ATOM     37  C   UNL A   1      46.449  26.491  29.107  1.00  0.00     0.074 A 
ATOM     38  C   UNL A   1      46.384  26.423  27.647  1.00  0.00     0.031 C 
ATOM     39  C   UNL A   1      45.937  25.680  30.079  1.00  0.00     0.034 A 
BRANCH  26  40
ATOM     40  C   UNL A   1      43.686  23.058  25.886  1.00  0.00     0.023 A 
ATOM     41  C   UNL A   1      43.719  21.654  25.756  1.00  0.00     0.031 A 
ATOM     42  C   UNL A   1      44.453  23.778  24.943  1.00  0.00     0.131 A 
ATOM     43  C   UNL A   1      44.566  21.033  24.824  1.00  0.00     0.055 A 
ATOM     44  C   UNL A   1      45.241  23.154  23.970  1.00  0.00     0.041 A 
ATOM     45  F   UNL A   1      44.568  25.110  24.967  1.00  0.00    -0.206 F 
ATOM     46  C   UNL A   1      45.329  21.775  23.929  1.00  0.00     0.022 A 
BRANCH  43  47
ATOM     47  S   UNL A   1      44.797  19.239  24.935  1.00  0.00     0.124 S 
ATOM     48  O   UNL A   1      46.040  19.151  25.694  1.00  0.00    -0.237 OA
ATOM     49  O   UNL A   1      43.584  18.823  25.630  1.00  0.00    -0.237 OA
ATOM     50  O   UNL A   1      44.888  18.822  23.537  1.00  0.00    -0.744 OA
ENDBRANCH  43  47
ENDBRANCH  26  40
BRANCH  27  51
ATOM     51  C   UNL A   1      46.711  30.931  27.454  1.00  0.00     0.023 A 
ATOM     52  C   UNL A   1      45.987  32.020  26.909  1.00  0.00     0.031 A 
ATOM     53  C   UNL A   1      48.117  31.069  27.480  1.00  0.00     0.131 A 
ATOM     54  C   UNL A   1      46.669  33.166  26.421  1.00  0.00     0.055 A 
ATOM     55  C   UNL A   1      48.783  32.200  27.001  1.00  0.00     0.041 A 
ATOM     56  F   UNL A   1      48.895  30.140  28.057  1.00  0.00    -0.206 F 
ATOM     57  C   UNL A   1      48.061  33.258  26.477  1.00  0.00     0.022 A 
BRANCH  54  58
ATOM     58  S   UNL A   1      45.756  34.610  25.770  1.00  0.00     0.124 S 
ATOM     59  O   UNL A   1      44.749  34.834  26.798  1.00  0.00    -0.237 OA
ATOM     60  O   UNL A   1      46.802  35.619  25.652  1.00  0.00    -0.237 OA
ATOM     61  O   UNL A   1      45.226  34.132  24.491  1.00  0.00    -0.744 OA
ENDBRANCH  54  58
ENDBRANCH  27  51
BRANCH  39  62
ATOM     62  C   UNL A   1      46.066  26.106  31.527  1.00  0.00     0.023 A 
ATOM     63  C   UNL A   1      45.020  26.631  32.320  1.00  0.00     0.031 A 
ATOM     64  C   UNL A   1      47.295  25.843  32.159  1.00  0.00     0.131 A 
ATOM     65  C   UNL A   1      45.233  26.879  33.692  1.00  0.00     0.055 A 
ATOM     66  C   UNL A   1      47.493  26.067  33.520  1.00  0.00     0.041 A 
ATOM     67  F   UNL A   1      48.319  25.322  31.466  1.00  0.00    -0.206 F 
ATOM     68  C   UNL A   1      46.464  26.592  34.291  1.00  0.00     0.022 A 
BRANCH  65  69
ATOM     69  S   UNL A   1      43.916  27.598  34.728  1.00  0.00     0.124 S 
ATOM     70  O   UNL A   1      42.997  28.182  33.759  1.00  0.00    -0.237 OA
ATOM     71  O   UNL A   1      43.420  26.438  35.463  1.00  0.00    -0.237 OA
ATOM     72  O   UNL A   1      44.629  28.577  35.554  1.00  0.00    -0.744 OA
ENDBRANCH  65  69
ENDBRANCH  39  62
ENDBRANCH  13  14
ENDBRANCH   6   8
ENDBRANCH   3   4
ENDBRANCH   2   3
ENDBRANCH   1   2
BRANCH   1  73
ATOM     73  C   UNL A   1      32.680  27.493  26.796  1.00  0.00     0.116 C 
BRANCH  73  74
ATOM     74  N   UNL A   1      31.420  26.789  26.965  1.00  0.00    -0.352 N 
ATOM     75  C   UNL A   1      30.617  26.172  26.034  1.00  0.00     0.251 C 
ATOM     76  H   UNL A   1      31.089  26.748  27.892  1.00  0.00     0.163 HD
ATOM     77  O   UNL A   1      29.590  25.611  26.390  1.00  0.00    -0.269 OA
BRANCH  75  78
ATOM     78  C   UNL A   1      30.944  26.214  24.589  1.00  0.00     0.048 A 
ATOM     79  C   UNL A   1      30.518  27.375  23.913  1.00  0.00     0.014 A 
ATOM     80  C   UNL A   1      31.568  25.164  23.887  1.00  0.00     0.019 A 
ATOM     81  C   UNL A   1      30.757  27.538  22.551  1.00  0.00     0.001 A 
ATOM     82  C   UNL A   1      31.846  25.392  22.529  1.00  0.00     0.010 A 
ATOM     83  C   UNL A   1      31.438  26.549  21.861  1.00  0.00     0.001 A 
BRANCH  80  84
ATOM     84  C   UNL A   1      31.986  23.869  24.562  1.00  0.00     0.300 C 
BRANCH  84  85
ATOM     85  N   UNL A   1      33.412  23.501  24.623  1.00  0.00    -0.329 N 
ATOM     86  C   UNL A   1      34.130  24.415  25.523  1.00  0.00     0.262 C 
ATOM     87  C   UNL A   1      33.760  22.076  24.803  1.00  0.00     0.186 C 
ATOM     88  H   UNL A   1      33.746  23.629  23.667  1.00  0.00     0.348 HD
ATOM     89  C   UNL A   1      35.640  24.260  25.400  1.00  0.00     0.062 C 
ATOM     90  C   UNL A   1      35.290  21.900  24.672  1.00  0.00     0.065 C 
ATOM     91  C   UNL A   1      36.047  22.815  25.631  1.00  0.00     0.012 C 
BRANCH  87  92
ATOM     92  C   UNL A   1      33.040  21.157  23.776  1.00  0.00     0.088 C 
BRANCH  92  93
ATOM     93  C   UNL A   1      32.428  19.875  24.350  1.00  0.00     0.150 C 
BRANCH  93  94
ATOM     94  N   UNL A   1      33.166  18.675  23.997  1.00  0.00    -0.273 N 
ATOM     95  C   UNL A   1      32.824  17.748  23.050  1.00  0.00     0.108 A 
ATOM     96  N   UNL A   1      34.305  18.370  24.645  1.00  0.00    -0.182 NA
ATOM     97  C   UNL A   1      33.788  16.770  23.107  1.00  0.00     0.042 A 
ATOM     98  C   UNL A   1      34.684  17.213  24.095  1.00  0.00     0.135 A 
ENDBRANCH  93  94
ENDBRANCH  92  93
ENDBRANCH  87  92
ENDBRANCH  84  85
ENDBRANCH  80  84
ENDBRANCH  75  78
ENDBRANCH  73  74
ENDBRANCH   1  73
TORSDOF 19
ENDMDL
MODEL 3
REMARK VINA RESULT:     -12.3      3.287      9.632
REMARK SMILES O=C(NCCCCNC(=O)c1ccccc1C[N@H+]1CCCC[C@@H]1CCn1cccn1)c1ccc(-c2c3nc(c(-c4cc(S(=O)(=O)[O-])ccc4F)c4ccc([nH]4)c(-c4cc(S(=O)(=O)[O-])ccc4F)c4nc(c(-c5cc(S(=O)(=O)[O-])ccc5F)c5ccc2[nH]5)C=C4)C=C3)cc1
REMARK SMILES IDX 6 1 5 2 4 3 3 4 1 5 2 6 31 8 32 9 93 10 33 11 92 12 34 13
REMARK SMILES IDX 35 14 36 15 86 16 37 17 91 18 85 19 87 20 38 21 90 22 84 23
REMARK SMILES IDX 83 24 39 26 71 27 51 28 70 29 52 30 55 31 69 32 88 33 53 34
REMARK SMILES IDX 54 35 68 37 89 38 56 39 40 40 41 41 49 42 42 43 48 44 50 45
REMARK SMILES IDX 47 46 43 47 44 48 45 49 46 50 72 51 73 52 81 53 74 54 80 55
REMARK SMILES IDX 82 56 79 57 75 58 76 59 77 60 78 61 57 62 58 63 66 64 59 65
REMARK SMILES IDX 65 66 67 67 64 68 60 69 61 70 62 71 63 72 7 73 8 74 9 75
REMARK SMILES IDX 10 77 11 78 12 79 16 80 13 81 15 82 14 83 17 84 18 85 19 86
REMARK SMILES IDX 23 87 20 89 22 90 21 91 24 92 25 93 26 94 27 95 30 96 28 97
REMARK SMILES IDX 29 98
REMARK H PARENT 3 7 87 25 55 36 8 76 18 88
REMARK Flexibility Score: inf
ROOT
ATOM      1  C   UNL A   1      37.407  22.133  24.297  1.00  0.00     0.023 C 
ENDROOT
BRANCH   1   2
ATOM      2  C   UNL A   1      38.015  21.422  25.509  1.00  0.00     0.023 C 
BRANCH   2   3
ATOM      3  C   UNL A   1      38.918  22.262  26.415  1.00  0.00     0.116 C 
BRANCH   3   4
ATOM      4  N   UNL A   1      40.323  22.301  26.066  1.00  0.00    -0.352 N 
ATOM      5  O   UNL A   1      42.499  22.715  26.159  1.00  0.00    -0.269 OA
ATOM      6  C   UNL A   1      41.363  23.119  26.424  1.00  0.00     0.251 C 
ATOM      7  H   UNL A   1      40.588  21.588  25.441  1.00  0.00     0.163 HD
BRANCH   6   8
ATOM      8  C   UNL A   1      41.197  24.479  27.000  1.00  0.00     0.039 A 
ATOM      9  C   UNL A   1      40.394  25.491  26.476  1.00  0.00     0.014 A 
ATOM     10  C   UNL A   1      41.959  24.748  28.152  1.00  0.00     0.014 A 
ATOM     11  C   UNL A   1      40.462  26.781  27.000  1.00  0.00     0.010 A 
ATOM     12  C   UNL A   1      42.011  26.026  28.694  1.00  0.00     0.010 A 
ATOM     13  C   UNL A   1      41.298  27.055  28.088  1.00  0.00    -0.014 A 
BRANCH  13  14
ATOM     14  C   UNL A   1      41.230  28.378  28.710  1.00  0.00     0.031 A 
ATOM     15  C   UNL A   1      42.317  29.295  28.258  1.00  0.00     0.074 A 
ATOM     16  C   UNL A   1      40.210  28.808  29.485  1.00  0.00     0.049 A 
ATOM     17  N   UNL A   1      43.273  29.803  28.964  1.00  0.00    -0.248 NA
ATOM     18  C   UNL A   1      42.450  29.551  26.814  1.00  0.00     0.031 C 
ATOM     19  C   UNL A   1      38.960  28.112  29.793  1.00  0.00     0.029 A 
ATOM     20  N   UNL A   1      40.032  30.020  30.089  1.00  0.00    -0.354 N 
ATOM     21  C   UNL A   1      43.993  30.627  28.102  1.00  0.00     0.074 A 
ATOM     22  C   UNL A   1      43.564  30.283  26.774  1.00  0.00     0.031 C 
ATOM     23  C   UNL A   1      38.072  28.989  30.317  1.00  0.00     0.029 A 
ATOM     24  C   UNL A   1      38.723  30.279  30.500  1.00  0.00     0.049 A 
ATOM     25  H   UNL A   1      40.767  30.660  30.225  1.00  0.00     0.167 HD
ATOM     26  C   UNL A   1      44.716  31.683  28.569  1.00  0.00     0.034 A 
ATOM     27  C   UNL A   1      38.196  31.472  30.905  1.00  0.00     0.034 A 
ATOM     28  C   UNL A   1      44.945  31.566  29.989  1.00  0.00     0.049 A 
ATOM     29  C   UNL A   1      39.336  32.321  31.331  1.00  0.00     0.074 A 
ATOM     30  C   UNL A   1      45.574  30.640  30.799  1.00  0.00     0.029 A 
ATOM     31  N   UNL A   1      44.163  32.323  30.832  1.00  0.00    -0.354 N 
ATOM     32  N   UNL A   1      40.078  32.050  32.370  1.00  0.00    -0.248 NA
ATOM     33  C   UNL A   1      39.961  33.174  30.330  1.00  0.00     0.031 C 
ATOM     34  C   UNL A   1      44.749  30.555  31.959  1.00  0.00     0.029 A 
ATOM     35  C   UNL A   1      43.721  31.491  31.832  1.00  0.00     0.049 A 
ATOM     36  H   UNL A   1      43.957  33.280  30.736  1.00  0.00     0.167 HD
ATOM     37  C   UNL A   1      41.376  32.303  31.955  1.00  0.00     0.074 A 
ATOM     38  C   UNL A   1      41.235  33.075  30.720  1.00  0.00     0.031 C 
ATOM     39  C   UNL A   1      42.436  31.627  32.488  1.00  0.00     0.034 A 
BRANCH  26  40
ATOM     40  C   UNL A   1      44.899  32.999  27.844  1.00  0.00     0.023 A 
ATOM     41  C   UNL A   1      44.076  34.073  28.240  1.00  0.00     0.031 A 
ATOM     42  C   UNL A   1      45.582  33.171  26.618  1.00  0.00     0.131 A 
ATOM     43  C   UNL A   1      43.866  35.174  27.395  1.00  0.00     0.055 A 
ATOM     44  C   UNL A   1      45.424  34.303  25.814  1.00  0.00     0.041 A 
ATOM     45  F   UNL A   1      46.357  32.223  26.080  1.00  0.00    -0.206 F 
ATOM     46  C   UNL A   1      44.535  35.297  26.181  1.00  0.00     0.022 A 
BRANCH  43  47
ATOM     47  S   UNL A   1      42.554  36.348  27.824  1.00  0.00     0.124 S 
ATOM     48  O   UNL A   1      43.126  37.009  28.993  1.00  0.00    -0.237 OA
ATOM     49  O   UNL A   1      42.460  37.151  26.610  1.00  0.00    -0.237 OA
ATOM     50  O   UNL A   1      41.404  35.488  28.093  1.00  0.00    -0.744 OA
ENDBRANCH  43  47
ENDBRANCH  26  40
BRANCH  27  51
ATOM     51  C   UNL A   1      36.836  32.026  30.606  1.00  0.00     0.023 A 
ATOM     52  C   UNL A   1      36.056  32.753  31.540  1.00  0.00     0.031 A 
ATOM     53  C   UNL A   1      36.388  32.053  29.266  1.00  0.00     0.131 A 
ATOM     54  C   UNL A   1      34.895  33.454  31.117  1.00  0.00     0.055 A 
ATOM     55  C   UNL A   1      35.246  32.745  28.855  1.00  0.00     0.041 A 
ATOM     56  F   UNL A   1      37.099  31.476  28.285  1.00  0.00    -0.206 F 
ATOM     57  C   UNL A   1      34.499  33.457  29.778  1.00  0.00     0.022 A 
BRANCH  54  58
ATOM     58  S   UNL A   1      33.907  34.450  32.289  1.00  0.00     0.124 S 
ATOM     59  O   UNL A   1      34.902  35.358  32.844  1.00  0.00    -0.237 OA
ATOM     60  O   UNL A   1      32.894  35.044  31.424  1.00  0.00    -0.237 OA
ATOM     61  O   UNL A   1      33.393  33.457  33.235  1.00  0.00    -0.744 OA
ENDBRANCH  54  58
ENDBRANCH  27  51
BRANCH  39  62
ATOM     62  C   UNL A   1      42.218  30.800  33.738  1.00  0.00     0.023 A 
ATOM     63  C   UNL A   1      41.986  29.404  33.765  1.00  0.00     0.031 A 
ATOM     64  C   UNL A   1      42.380  31.457  34.971  1.00  0.00     0.131 A 
ATOM     65  C   UNL A   1      41.918  28.726  34.999  1.00  0.00     0.055 A 
ATOM     66  C   UNL A   1      42.335  30.778  36.187  1.00  0.00     0.041 A 
ATOM     67  F   UNL A   1      42.626  32.776  35.012  1.00  0.00    -0.206 F 
ATOM     68  C   UNL A   1      42.098  29.410  36.206  1.00  0.00     0.022 A 
BRANCH  65  69
ATOM     69  S   UNL A   1      41.575  26.936  35.065  1.00  0.00     0.124 S 
ATOM     70  O   UNL A   1      42.835  26.330  34.651  1.00  0.00    -0.237 OA
ATOM     71  O   UNL A   1      41.196  26.735  36.461  1.00  0.00    -0.237 OA
ATOM     72  O   UNL A   1      40.477  26.765  34.110  1.00  0.00    -0.744 OA
ENDBRANCH  65  69
ENDBRANCH  39  62
ENDBRANCH  13  14
ENDBRANCH   6   8
ENDBRANCH   3   4
ENDBRANCH   2   3
ENDBRANCH   1   2
BRANCH   1  73
ATOM     73  C   UNL A   1      36.174  22.978  24.579  1.00  0.00     0.116 C 
BRANCH  73  74
ATOM     74  N   UNL A   1      35.392  23.298  23.397  1.00  0.00    -0.352 N 
ATOM     75  C   UNL A   1      34.071  23.659  23.279  1.00  0.00     0.251 C 
ATOM     76  H   UNL A   1      35.886  23.247  22.546  1.00  0.00     0.163 HD
ATOM     77  O   UNL A   1      33.602  23.909  22.177  1.00  0.00    -0.269 OA
BRANCH  75  78
ATOM     78  C   UNL A   1      33.179  23.708  24.462  1.00  0.00     0.048 A 
ATOM     79  C   UNL A   1      32.603  22.474  24.827  1.00  0.00     0.014 A 
ATOM     80  C   UNL A   1      32.845  24.887  25.156  1.00  0.00     0.019 A 
ATOM     81  C   UNL A   1      31.741  22.380  25.917  1.00  0.00     0.001 A 
ATOM     82  C   UNL A   1      32.021  24.742  26.285  1.00  0.00     0.010 A 
ATOM     83  C   UNL A   1      31.463  23.517  26.657  1.00  0.00     0.001 A 
BRANCH  80  84
ATOM     84  C   UNL A   1      33.390  26.248  24.758  1.00  0.00     0.300 C 
BRANCH  84  85
ATOM     85  N   UNL A   1      32.899  27.461  25.436  1.00  0.00    -0.329 N 
ATOM     86  C   UNL A   1      34.006  28.133  26.131  1.00  0.00     0.262 C 
ATOM     87  C   UNL A   1      32.014  28.373  24.682  1.00  0.00     0.186 C 
ATOM     88  H   UNL A   1      32.228  27.112  26.121  1.00  0.00     0.348 HD
ATOM     89  C   UNL A   1      33.507  29.220  27.073  1.00  0.00     0.062 C 
ATOM     90  C   UNL A   1      31.490  29.478  25.628  1.00  0.00     0.065 C 
ATOM     91  C   UNL A   1      32.633  30.211  26.326  1.00  0.00     0.012 C 
BRANCH  87  92
ATOM     92  C   UNL A   1      30.812  27.629  24.034  1.00  0.00     0.088 C 
BRANCH  92  93
ATOM     93  C   UNL A   1      30.554  27.950  22.558  1.00  0.00     0.150 C 
BRANCH  93  94
ATOM     94  N   UNL A   1      29.512  28.942  22.357  1.00  0.00    -0.273 N 
ATOM     95  C   UNL A   1      28.321  29.030  23.024  1.00  0.00     0.108 A 
ATOM     96  N   UNL A   1      29.660  29.891  21.414  1.00  0.00    -0.182 NA
ATOM     97  C   UNL A   1      27.645  30.087  22.461  1.00  0.00     0.042 A 
ATOM     98  C   UNL A   1      28.523  30.590  21.486  1.00  0.00     0.135 A 
ENDBRANCH  93  94
ENDBRANCH  92  93
ENDBRANCH  87  92
ENDBRANCH  84  85
ENDBRANCH  80  84
ENDBRANCH  75  78
ENDBRANCH  73  74
ENDBRANCH   1  73
TORSDOF 19
ENDMDL
