MODEL 1
REMARK VINA RESULT:     -11.0      0.000      0.000
REMARK SMILES CCC(CC)[C@H](C(=O)NCCCCNC(=O)c1ccc(-c2c3nc(c(-c4cc(S(=O)(=O)[O-])ccc4F)c4ccc([nH]4)c(-c4cc(S(=O)(=O)[O-])ccc4F)c4nc(c(-c5cc(S(=O)(=O)[O-])ccc5F)c5ccc2[nH]5)C=C4)C=C3)cc1)c1ccccc1
REMARK SMILES IDX 12 1 11 2 10 3 9 4 7 5 8 6 6 8 3 9 2 10 1 11 4 12 5 13 80 14
REMARK SMILES IDX 81 15 85 16 82 17 84 18 83 19 13 20 14 21 15 22 16 24 17 25
REMARK SMILES IDX 18 26 79 27 19 28 78 29 20 30 21 31 22 32 72 33 23 34 77 35
REMARK SMILES IDX 71 36 73 37 24 38 76 39 70 40 69 41 25 43 57 44 37 45 56 46
REMARK SMILES IDX 38 47 41 48 55 49 74 50 39 51 40 52 54 54 75 55 42 56 26 57
REMARK SMILES IDX 27 58 35 59 28 60 34 61 36 62 33 63 29 64 30 65 31 66 32 67
REMARK SMILES IDX 58 68 59 69 67 70 60 71 66 72 68 73 65 74 61 75 62 76 63 77
REMARK SMILES IDX 64 78 43 79 44 80 52 81 45 82 51 83 53 84 50 85 46 86 47 87
REMARK SMILES IDX 48 88 49 89
REMARK H PARENT 9 7 14 23 73 42 41 53
REMARK Flexibility Score: inf
ROOT
ATOM      1  C   UNL A   1      37.651  21.481  25.727  1.00  0.00     0.023 C 
ENDROOT
BRANCH   1   2
ATOM      2  C   UNL A   1      37.254  21.910  24.317  1.00  0.00     0.023 C 
BRANCH   2   3
ATOM      3  C   UNL A   1      36.488  23.230  24.230  1.00  0.00     0.116 C 
BRANCH   3   4
ATOM      4  N   UNL A   1      35.242  23.097  23.511  1.00  0.00    -0.356 N 
ATOM      5  C   UNL A   1      34.101  22.394  23.699  1.00  0.00     0.227 C 
ATOM      6  O   UNL A   1      33.289  22.519  22.766  1.00  0.00    -0.274 OA
ATOM      7  H   UNL A   1      35.218  23.643  22.693  1.00  0.00     0.163 HD
BRANCH   5   8
ATOM      8  C   UNL A   1      33.715  21.480  24.902  1.00  0.00     0.111 C 
BRANCH   8   9
ATOM      9  C   UNL A   1      32.597  21.767  25.957  1.00  0.00     0.005 C 
BRANCH   9  10
ATOM     10  C   UNL A   1      33.170  22.027  27.372  1.00  0.00     0.001 C 
ATOM     11  C   UNL A   1      34.542  22.676  27.446  1.00  0.00     0.004 C 
ENDBRANCH   9  10
BRANCH   9  12
ATOM     12  C   UNL A   1      31.332  22.536  25.476  1.00  0.00     0.001 C 
ATOM     13  C   UNL A   1      30.249  22.928  26.465  1.00  0.00     0.004 C 
ENDBRANCH   9  12
ENDBRANCH   8   9
BRANCH   8  14
ATOM     14  C   UNL A   1      33.687  19.988  24.505  1.00  0.00    -0.035 A 
ATOM     15  C   UNL A   1      32.535  19.455  23.898  1.00  0.00     0.004 A 
ATOM     16  C   UNL A   1      34.794  19.144  24.679  1.00  0.00     0.004 A 
ATOM     17  C   UNL A   1      32.500  18.130  23.461  1.00  0.00     0.000 A 
ATOM     18  C   UNL A   1      34.754  17.816  24.251  1.00  0.00     0.000 A 
ATOM     19  C   UNL A   1      33.611  17.311  23.636  1.00  0.00     0.000 A 
ENDBRANCH   8  14
ENDBRANCH   5   8
ENDBRANCH   3   4
ENDBRANCH   2   3
ENDBRANCH   1   2
BRANCH   1  20
ATOM     20  C   UNL A   1      39.149  21.483  26.017  1.00  0.00     0.116 C 
BRANCH  20  21
ATOM     21  N   UNL A   1      39.781  20.172  25.943  1.00  0.00    -0.352 N 
ATOM     22  C   UNL A   1      41.118  19.881  26.125  1.00  0.00     0.251 C 
ATOM     23  H   UNL A   1      39.191  19.411  25.741  1.00  0.00     0.163 HD
ATOM     24  O   UNL A   1      41.542  18.743  25.994  1.00  0.00    -0.269 OA
BRANCH  22  25
ATOM     25  C   UNL A   1      42.027  21.006  26.427  1.00  0.00     0.039 A 
ATOM     26  C   UNL A   1      42.508  21.785  25.372  1.00  0.00     0.014 A 
ATOM     27  C   UNL A   1      42.258  21.373  27.755  1.00  0.00     0.014 A 
ATOM     28  C   UNL A   1      43.136  23.000  25.653  1.00  0.00     0.010 A 
ATOM     29  C   UNL A   1      42.825  22.611  28.028  1.00  0.00     0.010 A 
ATOM     30  C   UNL A   1      43.245  23.447  26.978  1.00  0.00    -0.014 A 
BRANCH  30  31
ATOM     31  C   UNL A   1      43.764  24.799  27.307  1.00  0.00     0.031 A 
ATOM     32  C   UNL A   1      42.834  25.832  27.874  1.00  0.00     0.074 A 
ATOM     33  C   UNL A   1      45.031  25.125  26.984  1.00  0.00     0.049 A 
ATOM     34  N   UNL A   1      43.029  27.112  28.059  1.00  0.00    -0.248 NA
ATOM     35  C   UNL A   1      41.488  25.366  28.237  1.00  0.00     0.031 C 
ATOM     36  C   UNL A   1      46.014  24.221  26.379  1.00  0.00     0.029 A 
ATOM     37  N   UNL A   1      45.703  26.316  27.095  1.00  0.00    -0.354 N 
ATOM     38  C   UNL A   1      41.820  27.612  28.527  1.00  0.00     0.074 A 
ATOM     39  C   UNL A   1      40.889  26.503  28.552  1.00  0.00     0.031 C 
ATOM     40  C   UNL A   1      47.163  24.888  26.182  1.00  0.00     0.029 A 
ATOM     41  C   UNL A   1      46.989  26.273  26.606  1.00  0.00     0.049 A 
ATOM     42  H   UNL A   1      45.304  27.125  27.488  1.00  0.00     0.167 HD
ATOM     43  C   UNL A   1      41.519  28.878  28.911  1.00  0.00     0.034 A 
ATOM     44  C   UNL A   1      47.915  27.245  26.494  1.00  0.00     0.034 A 
ATOM     45  C   UNL A   1      42.468  29.963  28.909  1.00  0.00     0.049 A 
ATOM     46  C   UNL A   1      47.571  28.636  26.959  1.00  0.00     0.074 A 
ATOM     47  C   UNL A   1      42.291  31.269  29.333  1.00  0.00     0.029 A 
ATOM     48  N   UNL A   1      43.779  29.866  28.461  1.00  0.00    -0.354 N 
ATOM     49  N   UNL A   1      46.431  29.089  27.428  1.00  0.00    -0.248 NA
ATOM     50  C   UNL A   1      48.637  29.642  26.886  1.00  0.00     0.031 C 
ATOM     51  C   UNL A   1      43.482  31.970  29.106  1.00  0.00     0.029 A 
ATOM     52  C   UNL A   1      44.418  31.089  28.587  1.00  0.00     0.049 A 
ATOM     53  H   UNL A   1      44.195  29.047  28.106  1.00  0.00     0.167 HD
ATOM     54  C   UNL A   1      46.654  30.428  27.730  1.00  0.00     0.074 A 
ATOM     55  C   UNL A   1      48.035  30.708  27.394  1.00  0.00     0.031 C 
ATOM     56  C   UNL A   1      45.795  31.345  28.243  1.00  0.00     0.034 A 
BRANCH  43  57
ATOM     57  C   UNL A   1      40.096  29.144  29.334  1.00  0.00     0.023 A 
ATOM     58  C   UNL A   1      39.729  29.185  30.690  1.00  0.00     0.031 A 
ATOM     59  C   UNL A   1      39.084  29.294  28.371  1.00  0.00     0.131 A 
ATOM     60  C   UNL A   1      38.375  29.276  31.045  1.00  0.00     0.055 A 
ATOM     61  C   UNL A   1      37.746  29.470  28.733  1.00  0.00     0.041 A 
ATOM     62  F   UNL A   1      39.373  29.245  27.061  1.00  0.00    -0.206 F 
ATOM     63  C   UNL A   1      37.383  29.442  30.076  1.00  0.00     0.022 A 
BRANCH  60  64
ATOM     64  S   UNL A   1      37.919  29.012  32.780  1.00  0.00     0.124 S 
ATOM     65  O   UNL A   1      37.816  27.555  32.837  1.00  0.00    -0.237 OA
ATOM     66  O   UNL A   1      39.045  29.600  33.496  1.00  0.00    -0.237 OA
ATOM     67  O   UNL A   1      36.652  29.725  32.915  1.00  0.00    -0.744 OA
ENDBRANCH  60  64
ENDBRANCH  43  57
BRANCH  44  68
ATOM     68  C   UNL A   1      49.251  26.951  25.908  1.00  0.00     0.023 A 
ATOM     69  C   UNL A   1      49.563  27.341  24.598  1.00  0.00     0.031 A 
ATOM     70  C   UNL A   1      50.222  26.248  26.642  1.00  0.00     0.131 A 
ATOM     71  C   UNL A   1      50.804  26.993  24.043  1.00  0.00     0.055 A 
ATOM     72  C   UNL A   1      51.470  25.936  26.098  1.00  0.00     0.041 A 
ATOM     73  F   UNL A   1      49.973  25.865  27.904  1.00  0.00    -0.206 F 
ATOM     74  C   UNL A   1      51.762  26.300  24.786  1.00  0.00     0.022 A 
BRANCH  71  75
ATOM     75  S   UNL A   1      51.125  27.410  22.307  1.00  0.00     0.124 S 
ATOM     76  O   UNL A   1      52.379  26.708  22.059  1.00  0.00    -0.237 OA
ATOM     77  O   UNL A   1      49.944  26.869  21.643  1.00  0.00    -0.237 OA
ATOM     78  O   UNL A   1      51.216  28.869  22.320  1.00  0.00    -0.744 OA
ENDBRANCH  71  75
ENDBRANCH  44  68
BRANCH  56  79
ATOM     79  C   UNL A   1      46.351  32.716  28.516  1.00  0.00     0.023 A 
ATOM     80  C   UNL A   1      46.500  33.668  27.495  1.00  0.00     0.031 A 
ATOM     81  C   UNL A   1      46.742  33.066  29.820  1.00  0.00     0.131 A 
ATOM     82  C   UNL A   1      47.063  34.919  27.789  1.00  0.00     0.055 A 
ATOM     83  C   UNL A   1      47.264  34.326  30.114  1.00  0.00     0.041 A 
ATOM     84  F   UNL A   1      46.619  32.188  30.828  1.00  0.00    -0.206 F 
ATOM     85  C   UNL A   1      47.436  35.257  29.093  1.00  0.00     0.022 A 
BRANCH  82  86
ATOM     86  S   UNL A   1      47.355  36.085  26.431  1.00  0.00     0.124 S 
ATOM     87  O   UNL A   1      47.353  35.204  25.267  1.00  0.00    -0.237 OA
ATOM     88  O   UNL A   1      46.217  36.991  26.545  1.00  0.00    -0.237 OA
ATOM     89  O   UNL A   1      48.651  36.677  26.758  1.00  0.00    -0.744 OA
ENDBRANCH  82  86
ENDBRANCH  56  79
ENDBRANCH  30  31
ENDBRANCH  22  25
ENDBRANCH  20  21
ENDBRANCH   1  20
TORSDOF 18
ENDMDL
MODEL 2
REMARK VINA RESULT:     -11.0      6.229     12.012
REMARK SMILES CCC(CC)[C@H](C(=O)NCCCCNC(=O)c1ccc(-c2c3nc(c(-c4cc(S(=O)(=O)[O-])ccc4F)c4ccc([nH]4)c(-c4cc(S(=O)(=O)[O-])ccc4F)c4nc(c(-c5cc(S(=O)(=O)[O-])ccc5F)c5ccc2[nH]5)C=C4)C=C3)cc1)c1ccccc1
REMARK SMILES IDX 12 1 11 2 10 3 9 4 7 5 8 6 6 8 3 9 2 10 1 11 4 12 5 13 80 14
REMARK SMILES IDX 81 15 85 16 82 17 84 18 83 19 13 20 14 21 15 22 16 24 17 25
REMARK SMILES IDX 18 26 79 27 19 28 78 29 20 30 21 31 22 32 72 33 23 34 77 35
REMARK SMILES IDX 71 36 73 37 24 38 76 39 70 40 69 41 25 43 57 44 37 45 56 46
REMARK SMILES IDX 38 47 41 48 55 49 74 50 39 51 40 52 54 54 75 55 42 56 26 57
REMARK SMILES IDX 27 58 35 59 28 60 34 61 36 62 33 63 29 64 30 65 31 66 32 67
REMARK SMILES IDX 58 68 59 69 67 70 60 71 66 72 68 73 65 74 61 75 62 76 63 77
REMARK SMILES IDX 64 78 43 79 44 80 52 81 45 82 51 83 53 84 50 85 46 86 47 87
REMARK SMILES IDX 48 88 49 89
REMARK H PARENT 9 7 14 23 73 42 41 53
REMARK Flexibility Score: inf
ROOT
ATOM      1  C   UNL A   1      32.723  30.540  26.763  1.00  0.00     0.023 C 
ENDROOT
BRANCH   1   2
ATOM      2  C   UNL A   1      32.818  29.097  27.252  1.00  0.00     0.023 C 
BRANCH   2   3
ATOM      3  C   UNL A   1      31.483  28.434  27.588  1.00  0.00     0.116 C 
BRANCH   3   4
ATOM      4  N   UNL A   1      31.433  27.052  27.170  1.00  0.00    -0.356 N 
ATOM      5  C   UNL A   1      31.496  26.412  25.980  1.00  0.00     0.227 C 
ATOM      6  O   UNL A   1      31.329  25.184  26.075  1.00  0.00    -0.274 OA
ATOM      7  H   UNL A   1      31.328  26.433  27.927  1.00  0.00     0.163 HD
BRANCH   5   8
ATOM      8  C   UNL A   1      31.734  27.021  24.564  1.00  0.00     0.111 C 
BRANCH   8   9
ATOM      9  C   UNL A   1      32.557  26.368  23.406  1.00  0.00     0.005 C 
BRANCH   9  10
ATOM     10  C   UNL A   1      31.780  25.232  22.694  1.00  0.00     0.001 C 
ATOM     11  C   UNL A   1      32.369  23.836  22.793  1.00  0.00     0.004 C 
ENDBRANCH   9  10
BRANCH   9  12
ATOM     12  C   UNL A   1      33.510  27.289  22.591  1.00  0.00     0.001 C 
ATOM     13  C   UNL A   1      34.029  28.583  23.193  1.00  0.00     0.004 C 
ENDBRANCH   9  12
ENDBRANCH   8   9
BRANCH   8  14
ATOM     14  C   UNL A   1      30.454  27.670  23.994  1.00  0.00    -0.035 A 
ATOM     15  C   UNL A   1      29.263  26.923  23.943  1.00  0.00     0.004 A 
ATOM     16  C   UNL A   1      30.416  29.005  23.566  1.00  0.00     0.004 A 
ATOM     17  C   UNL A   1      28.071  27.498  23.501  1.00  0.00     0.000 A 
ATOM     18  C   UNL A   1      29.225  29.578  23.114  1.00  0.00     0.000 A 
ATOM     19  C   UNL A   1      28.052  28.827  23.089  1.00  0.00     0.000 A 
ENDBRANCH   8  14
ENDBRANCH   5   8
ENDBRANCH   3   4
ENDBRANCH   2   3
ENDBRANCH   1   2
BRANCH   1  20
ATOM     20  C   UNL A   1      33.495  31.565  27.587  1.00  0.00     0.116 C 
BRANCH  20  21
ATOM     21  N   UNL A   1      32.899  32.895  27.612  1.00  0.00    -0.352 N 
ATOM     22  C   UNL A   1      33.272  33.960  28.405  1.00  0.00     0.251 C 
ATOM     23  H   UNL A   1      32.147  33.050  26.995  1.00  0.00     0.163 HD
ATOM     24  O   UNL A   1      32.666  35.020  28.369  1.00  0.00    -0.269 OA
BRANCH  22  25
ATOM     25  C   UNL A   1      34.395  33.753  29.343  1.00  0.00     0.039 A 
ATOM     26  C   UNL A   1      34.193  32.957  30.472  1.00  0.00     0.014 A 
ATOM     27  C   UNL A   1      35.672  34.213  29.006  1.00  0.00     0.014 A 
ATOM     28  C   UNL A   1      35.296  32.530  31.212  1.00  0.00     0.010 A 
ATOM     29  C   UNL A   1      36.771  33.734  29.707  1.00  0.00     0.010 A 
ATOM     30  C   UNL A   1      36.595  32.867  30.800  1.00  0.00    -0.014 A 
BRANCH  30  31
ATOM     31  C   UNL A   1      37.798  32.306  31.467  1.00  0.00     0.031 A 
ATOM     32  C   UNL A   1      38.553  31.187  30.813  1.00  0.00     0.074 A 
ATOM     33  C   UNL A   1      38.129  32.722  32.705  1.00  0.00     0.049 A 
ATOM     34  N   UNL A   1      39.509  30.437  31.297  1.00  0.00    -0.248 NA
ATOM     35  C   UNL A   1      38.145  30.839  29.444  1.00  0.00     0.031 C 
ATOM     36  C   UNL A   1      37.437  33.766  33.465  1.00  0.00     0.029 A 
ATOM     37  N   UNL A   1      39.119  32.297  33.555  1.00  0.00    -0.354 N 
ATOM     38  C   UNL A   1      39.792  29.504  30.306  1.00  0.00     0.074 A 
ATOM     39  C   UNL A   1      38.874  29.759  29.215  1.00  0.00     0.031 C 
ATOM     40  C   UNL A   1      38.030  33.906  34.662  1.00  0.00     0.029 A 
ATOM     41  C   UNL A   1      39.114  32.936  34.773  1.00  0.00     0.049 A 
ATOM     42  H   UNL A   1      39.773  31.601  33.315  1.00  0.00     0.167 HD
ATOM     43  C   UNL A   1      40.738  28.532  30.303  1.00  0.00     0.034 A 
ATOM     44  C   UNL A   1      39.885  32.748  35.863  1.00  0.00     0.034 A 
ATOM     45  C   UNL A   1      41.664  28.312  31.386  1.00  0.00     0.049 A 
ATOM     46  C   UNL A   1      40.953  31.687  35.825  1.00  0.00     0.074 A 
ATOM     47  C   UNL A   1      42.701  27.399  31.467  1.00  0.00     0.029 A 
ATOM     48  N   UNL A   1      41.665  29.020  32.582  1.00  0.00    -0.354 N 
ATOM     49  N   UNL A   1      41.230  30.831  34.869  1.00  0.00    -0.248 NA
ATOM     50  C   UNL A   1      41.815  31.572  37.008  1.00  0.00     0.031 C 
ATOM     51  C   UNL A   1      43.304  27.528  32.724  1.00  0.00     0.029 A 
ATOM     52  C   UNL A   1      42.676  28.557  33.408  1.00  0.00     0.049 A 
ATOM     53  H   UNL A   1      41.040  29.746  32.808  1.00  0.00     0.167 HD
ATOM     54  C   UNL A   1      42.316  30.092  35.327  1.00  0.00     0.074 A 
ATOM     55  C   UNL A   1      42.645  30.606  36.642  1.00  0.00     0.031 C 
ATOM     56  C   UNL A   1      42.984  29.083  34.716  1.00  0.00     0.034 A 
BRANCH  43  57
ATOM     57  C   UNL A   1      40.784  27.625  29.099  1.00  0.00     0.023 A 
ATOM     58  C   UNL A   1      41.725  27.817  28.072  1.00  0.00     0.031 A 
ATOM     59  C   UNL A   1      39.837  26.599  28.943  1.00  0.00     0.131 A 
ATOM     60  C   UNL A   1      41.639  27.059  26.896  1.00  0.00     0.055 A 
ATOM     61  C   UNL A   1      39.810  25.791  27.804  1.00  0.00     0.041 A 
ATOM     62  F   UNL A   1      38.903  26.383  29.882  1.00  0.00    -0.206 F 
ATOM     63  C   UNL A   1      40.703  26.031  26.764  1.00  0.00     0.022 A 
BRANCH  60  64
ATOM     64  S   UNL A   1      42.664  27.544  25.480  1.00  0.00     0.124 S 
ATOM     65  O   UNL A   1      41.919  28.688  24.958  1.00  0.00    -0.237 OA
ATOM     66  O   UNL A   1      43.945  27.849  26.107  1.00  0.00    -0.237 OA
ATOM     67  O   UNL A   1      42.653  26.360  24.626  1.00  0.00    -0.744 OA
ENDBRANCH  60  64
ENDBRANCH  43  57
BRANCH  44  68
ATOM     68  C   UNL A   1      39.674  33.568  37.086  1.00  0.00     0.023 A 
ATOM     69  C   UNL A   1      39.071  33.016  38.226  1.00  0.00     0.031 A 
ATOM     70  C   UNL A   1      40.045  34.924  37.121  1.00  0.00     0.131 A 
ATOM     71  C   UNL A   1      38.820  33.827  39.344  1.00  0.00     0.055 A 
ATOM     72  C   UNL A   1      39.827  35.717  38.249  1.00  0.00     0.041 A 
ATOM     73  F   UNL A   1      40.636  35.492  36.058  1.00  0.00    -0.206 F 
ATOM     74  C   UNL A   1      39.201  35.170  39.366  1.00  0.00     0.022 A 
BRANCH  71  75
ATOM     75  S   UNL A   1      37.931  33.109  40.753  1.00  0.00     0.124 S 
ATOM     76  O   UNL A   1      36.555  33.115  40.271  1.00  0.00    -0.237 OA
ATOM     77  O   UNL A   1      38.565  31.800  40.874  1.00  0.00    -0.237 OA
ATOM     78  O   UNL A   1      38.216  34.039  41.844  1.00  0.00    -0.744 OA
ENDBRANCH  71  75
ENDBRANCH  44  68
BRANCH  56  79
ATOM     79  C   UNL A   1      44.167  28.511  35.449  1.00  0.00     0.023 A 
ATOM     80  C   UNL A   1      44.022  27.487  36.399  1.00  0.00     0.031 A 
ATOM     81  C   UNL A   1      45.457  29.009  35.193  1.00  0.00     0.131 A 
ATOM     82  C   UNL A   1      45.148  27.016  37.089  1.00  0.00     0.055 A 
ATOM     83  C   UNL A   1      46.579  28.508  35.853  1.00  0.00     0.041 A 
ATOM     84  F   UNL A   1      45.644  29.988  34.293  1.00  0.00    -0.206 F 
ATOM     85  C   UNL A   1      46.426  27.512  36.814  1.00  0.00     0.022 A 
BRANCH  82  86
ATOM     86  S   UNL A   1      44.917  25.779  38.395  1.00  0.00     0.124 S 
ATOM     87  O   UNL A   1      44.579  24.585  37.627  1.00  0.00    -0.237 OA
ATOM     88  O   UNL A   1      46.220  25.767  39.051  1.00  0.00    -0.237 OA
ATOM     89  O   UNL A   1      43.826  26.328  39.199  1.00  0.00    -0.744 OA
ENDBRANCH  82  86
ENDBRANCH  56  79
ENDBRANCH  30  31
ENDBRANCH  22  25
ENDBRANCH  20  21
ENDBRANCH   1  20
TORSDOF 18
ENDMDL
MODEL 3
REMARK VINA RESULT:     -11.0      2.680      8.687
REMARK SMILES CCC(CC)[C@H](C(=O)NCCCCNC(=O)c1ccc(-c2c3nc(c(-c4cc(S(=O)(=O)[O-])ccc4F)c4ccc([nH]4)c(-c4cc(S(=O)(=O)[O-])ccc4F)c4nc(c(-c5cc(S(=O)(=O)[O-])ccc5F)c5ccc2[nH]5)C=C4)C=C3)cc1)c1ccccc1
REMARK SMILES IDX 12 1 11 2 10 3 9 4 7 5 8 6 6 8 3 9 2 10 1 11 4 12 5 13 80 14
REMARK SMILES IDX 81 15 85 16 82 17 84 18 83 19 13 20 14 21 15 22 16 24 17 25
REMARK SMILES IDX 18 26 79 27 19 28 78 29 20 30 21 31 22 32 72 33 23 34 77 35
REMARK SMILES IDX 71 36 73 37 24 38 76 39 70 40 69 41 25 43 57 44 37 45 56 46
REMARK SMILES IDX 38 47 41 48 55 49 74 50 39 51 40 52 54 54 75 55 42 56 26 57
REMARK SMILES IDX 27 58 35 59 28 60 34 61 36 62 33 63 29 64 30 65 31 66 32 67
REMARK SMILES IDX 58 68 59 69 67 70 60 71 66 72 68 73 65 74 61 75 62 76 63 77
REMARK SMILES IDX 64 78 43 79 44 80 52 81 45 82 51 83 53 84 50 85 46 86 47 87
REMARK SMILES IDX 48 88 49 89
REMARK H PARENT 9 7 14 23 73 42 41 53
REMARK Flexibility Score: inf
ROOT
ATOM      1  C   UNL A   1      35.840  21.016  25.173  1.00  0.00     0.023 C 
ENDROOT
BRANCH   1   2
ATOM      2  C   UNL A   1      34.649  21.968  25.102  1.00  0.00     0.023 C 
BRANCH   2   3
ATOM      3  C   UNL A   1      34.643  23.081  26.149  1.00  0.00     0.116 C 
BRANCH   3   4
ATOM      4  N   UNL A   1      33.322  23.334  26.676  1.00  0.00    -0.356 N 
ATOM      5  C   UNL A   1      32.380  24.285  26.477  1.00  0.00     0.227 C 
ATOM      6  O   UNL A   1      31.391  24.158  27.219  1.00  0.00    -0.274 OA
ATOM      7  H   UNL A   1      33.043  22.658  27.335  1.00  0.00     0.163 HD
BRANCH   5   8
ATOM      8  C   UNL A   1      32.403  25.474  25.469  1.00  0.00     0.111 C 
BRANCH   8   9
ATOM      9  C   UNL A   1      31.484  25.638  24.215  1.00  0.00     0.005 C 
BRANCH   9  10
ATOM     10  C   UNL A   1      29.978  25.632  24.579  1.00  0.00     0.001 C 
ATOM     11  C   UNL A   1      29.104  26.664  23.888  1.00  0.00     0.004 C 
ENDBRANCH   9  10
BRANCH   9  12
ATOM     12  C   UNL A   1      32.001  26.538  23.055  1.00  0.00     0.001 C 
ATOM     13  C   UNL A   1      32.672  25.917  21.842  1.00  0.00     0.004 C 
ENDBRANCH   9  12
ENDBRANCH   8   9
BRANCH   8  14
ATOM     14  C   UNL A   1      32.556  26.833  26.186  1.00  0.00    -0.035 A 
ATOM     15  C   UNL A   1      33.797  27.495  26.156  1.00  0.00     0.004 A 
ATOM     16  C   UNL A   1      31.483  27.467  26.830  1.00  0.00     0.004 A 
ATOM     17  C   UNL A   1      33.953  28.757  26.731  1.00  0.00     0.000 A 
ATOM     18  C   UNL A   1      31.642  28.726  27.413  1.00  0.00     0.000 A 
ATOM     19  C   UNL A   1      32.874  29.374  27.358  1.00  0.00     0.000 A 
ENDBRANCH   8  14
ENDBRANCH   5   8
ENDBRANCH   3   4
ENDBRANCH   2   3
ENDBRANCH   1   2
BRANCH   1  20
ATOM     20  C   UNL A   1      37.175  21.659  25.536  1.00  0.00     0.116 C 
BRANCH  20  21
ATOM     21  N   UNL A   1      38.290  20.726  25.632  1.00  0.00    -0.352 N 
ATOM     22  C   UNL A   1      39.535  20.971  26.175  1.00  0.00     0.251 C 
ATOM     23  H   UNL A   1      38.139  19.823  25.272  1.00  0.00     0.163 HD
ATOM     24  O   UNL A   1      40.411  20.119  26.160  1.00  0.00    -0.269 OA
BRANCH  22  25
ATOM     25  C   UNL A   1      39.790  22.320  26.720  1.00  0.00     0.039 A 
ATOM     26  C   UNL A   1      40.762  22.474  27.711  1.00  0.00     0.014 A 
ATOM     27  C   UNL A   1      39.183  23.432  26.129  1.00  0.00     0.014 A 
ATOM     28  C   UNL A   1      41.205  23.757  28.038  1.00  0.00     0.010 A 
ATOM     29  C   UNL A   1      39.673  24.701  26.411  1.00  0.00     0.010 A 
ATOM     30  C   UNL A   1      40.706  24.873  27.349  1.00  0.00    -0.014 A 
BRANCH  30  31
ATOM     31  C   UNL A   1      41.262  26.234  27.557  1.00  0.00     0.031 A 
ATOM     32  C   UNL A   1      42.627  26.565  27.028  1.00  0.00     0.074 A 
ATOM     33  C   UNL A   1      40.591  27.119  28.319  1.00  0.00     0.049 A 
ATOM     34  N   UNL A   1      43.370  27.618  27.252  1.00  0.00    -0.248 NA
ATOM     35  C   UNL A   1      43.255  25.551  26.169  1.00  0.00     0.031 C 
ATOM     36  C   UNL A   1      39.279  26.892  28.932  1.00  0.00     0.029 A 
ATOM     37  N   UNL A   1      40.934  28.383  28.731  1.00  0.00    -0.354 N 
ATOM     38  C   UNL A   1      44.569  27.378  26.590  1.00  0.00     0.074 A 
ATOM     39  C   UNL A   1      44.465  26.060  25.997  1.00  0.00     0.031 C 
ATOM     40  C   UNL A   1      38.926  27.983  29.632  1.00  0.00     0.029 A 
ATOM     41  C   UNL A   1      39.999  28.968  29.555  1.00  0.00     0.049 A 
ATOM     42  H   UNL A   1      41.768  28.830  28.463  1.00  0.00     0.167 HD
ATOM     43  C   UNL A   1      45.651  28.188  26.479  1.00  0.00     0.034 A 
ATOM     44  C   UNL A   1      40.015  30.156  30.190  1.00  0.00     0.034 A 
ATOM     45  C   UNL A   1      45.726  29.509  27.051  1.00  0.00     0.049 A 
ATOM     46  C   UNL A   1      41.212  31.055  30.024  1.00  0.00     0.074 A 
ATOM     47  C   UNL A   1      46.745  30.440  26.950  1.00  0.00     0.029 A 
ATOM     48  N   UNL A   1      44.734  30.091  27.830  1.00  0.00    -0.354 N 
ATOM     49  N   UNL A   1      42.328  30.828  29.370  1.00  0.00    -0.248 NA
ATOM     50  C   UNL A   1      41.150  32.370  30.674  1.00  0.00     0.031 C 
ATOM     51  C   UNL A   1      46.387  31.568  27.700  1.00  0.00     0.029 A 
ATOM     52  C   UNL A   1      45.122  31.361  28.226  1.00  0.00     0.049 A 
ATOM     53  H   UNL A   1      43.879  29.664  28.066  1.00  0.00     0.167 HD
ATOM     54  C   UNL A   1      43.089  31.984  29.510  1.00  0.00     0.074 A 
ATOM     55  C   UNL A   1      42.305  32.906  30.307  1.00  0.00     0.031 C 
ATOM     56  C   UNL A   1      44.324  32.261  29.022  1.00  0.00     0.034 A 
BRANCH  43  57
ATOM     57  C   UNL A   1      46.842  27.639  25.734  1.00  0.00     0.023 A 
ATOM     58  C   UNL A   1      47.129  28.036  24.416  1.00  0.00     0.031 A 
ATOM     59  C   UNL A   1      47.662  26.662  26.323  1.00  0.00     0.131 A 
ATOM     60  C   UNL A   1      48.146  27.390  23.699  1.00  0.00     0.055 A 
ATOM     61  C   UNL A   1      48.729  26.083  25.630  1.00  0.00     0.041 A 
ATOM     62  F   UNL A   1      47.424  26.231  27.572  1.00  0.00    -0.206 F 
ATOM     63  C   UNL A   1      48.964  26.433  24.304  1.00  0.00     0.022 A 
BRANCH  60  64
ATOM     64  S   UNL A   1      48.279  27.706  21.917  1.00  0.00     0.124 S 
ATOM     65  O   UNL A   1      48.621  26.379  21.410  1.00  0.00    -0.237 OA
ATOM     66  O   UNL A   1      46.947  28.194  21.583  1.00  0.00    -0.237 OA
ATOM     67  O   UNL A   1      49.349  28.696  21.823  1.00  0.00    -0.744 OA
ENDBRANCH  60  64
ENDBRANCH  43  57
BRANCH  44  68
ATOM     68  C   UNL A   1      38.873  30.567  31.051  1.00  0.00     0.023 A 
ATOM     69  C   UNL A   1      37.737  31.173  30.496  1.00  0.00     0.031 A 
ATOM     70  C   UNL A   1      38.916  30.385  32.444  1.00  0.00     0.131 A 
ATOM     71  C   UNL A   1      36.702  31.614  31.335  1.00  0.00     0.055 A 
ATOM     72  C   UNL A   1      37.867  30.791  33.271  1.00  0.00     0.041 A 
ATOM     73  F   UNL A   1      39.978  29.797  33.019  1.00  0.00    -0.206 F 
ATOM     74  C   UNL A   1      36.756  31.420  32.717  1.00  0.00     0.022 A 
BRANCH  71  75
ATOM     75  S   UNL A   1      35.304  32.502  30.594  1.00  0.00     0.124 S 
ATOM     76  O   UNL A   1      35.063  31.722  29.385  1.00  0.00    -0.237 OA
ATOM     77  O   UNL A   1      34.291  32.397  31.639  1.00  0.00    -0.237 OA
ATOM     78  O   UNL A   1      35.833  33.847  30.376  1.00  0.00    -0.744 OA
ENDBRANCH  71  75
ENDBRANCH  44  68
BRANCH  56  79
ATOM     79  C   UNL A   1      44.869  33.636  29.297  1.00  0.00     0.023 A 
ATOM     80  C   UNL A   1      44.707  34.690  28.383  1.00  0.00     0.031 A 
ATOM     81  C   UNL A   1      45.567  33.887  30.491  1.00  0.00     0.131 A 
ATOM     82  C   UNL A   1      45.270  35.944  28.662  1.00  0.00     0.055 A 
ATOM     83  C   UNL A   1      46.091  35.147  30.782  1.00  0.00     0.041 A 
ATOM     84  F   UNL A   1      45.748  32.909  31.394  1.00  0.00    -0.206 F 
ATOM     85  C   UNL A   1      45.951  36.181  29.860  1.00  0.00     0.022 A 
BRANCH  82  86
ATOM     86  S   UNL A   1      45.149  37.252  27.413  1.00  0.00     0.124 S 
ATOM     87  O   UNL A   1      46.071  36.779  26.385  1.00  0.00    -0.237 OA
ATOM     88  O   UNL A   1      43.733  37.221  27.061  1.00  0.00    -0.237 OA
ATOM     89  O   UNL A   1      45.581  38.452  28.128  1.00  0.00    -0.744 OA
ENDBRANCH  82  86
ENDBRANCH  56  79
ENDBRANCH  30  31
ENDBRANCH  22  25
ENDBRANCH  20  21
ENDBRANCH   1  20
TORSDOF 18
ENDMDL
