MODEL 1
REMARK VINA RESULT:     -13.2      0.000      0.000
REMARK SMILES COc1ccc(-c2nn(-c3ccccc3)cc2/C=C2\SC(=S)N(CCC(=O)NCCCCNC(=O)c3ccc(-c4c5nc(c(-c6cc(S(=O)(=O)[O-])ccc6F)c6ccc([nH]6)c(-c6cc(S(=O)(=O)[O-])ccc6F)c6nc(c(-c7cc(S(=O)(=O)[O-])ccc7F)c7ccc4[nH]7)C=C6)C=C5)cc3)C2=O)c(C)c1
REMARK SMILES IDX 29 1 28 2 26 3 27 4 25 6 24 7 23 8 18 9 19 10 20 11 99 12
REMARK SMILES IDX 21 13 100 14 22 15 17 16 7 17 8 18 9 19 16 20 6 21 3 22 4 23
REMARK SMILES IDX 103 24 5 25 101 26 102 27 2 28 1 29 10 30 11 31 15 32 12 33
REMARK SMILES IDX 14 34 13 35 30 36 31 37 32 38 33 39 34 40 35 42 36 43 37 44
REMARK SMILES IDX 98 45 38 46 97 47 39 48 40 49 41 50 91 51 42 52 96 53 90 54
REMARK SMILES IDX 92 55 43 56 95 57 89 58 88 59 44 61 76 62 56 63 75 64 57 65
REMARK SMILES IDX 60 66 74 67 93 68 58 69 59 70 73 72 94 73 61 74 45 75 46 76
REMARK SMILES IDX 54 77 47 78 53 79 55 80 52 81 48 82 49 83 50 84 51 85 77 86
REMARK SMILES IDX 78 87 86 88 79 89 85 90 87 91 84 92 80 93 81 94 82 95 83 96
REMARK SMILES IDX 62 97 63 98 71 99 64 100 70 101 72 102 69 103 65 104 66 105
REMARK SMILES IDX 67 106 68 107
REMARK H PARENT 28 5 33 41 92 60 60 71
REMARK Flexibility Score: inf
ROOT
ATOM      1  C   UNL A   1      34.384  28.658  26.702  1.00  0.00     0.116 C 
ENDROOT
BRANCH   1   2
ATOM      2  N   UNL A   1      34.106  28.925  25.292  1.00  0.00    -0.356 N 
ATOM      3  C   UNL A   1      32.917  28.889  24.622  1.00  0.00     0.221 C 
ATOM      4  O   UNL A   1      32.881  29.265  23.448  1.00  0.00    -0.275 OA
ATOM      5  H   UNL A   1      34.889  29.168  24.747  1.00  0.00     0.163 HD
BRANCH   3   6
ATOM      6  C   UNL A   1      31.655  28.421  25.319  1.00  0.00     0.122 C 
BRANCH   6   7
ATOM      7  C   UNL A   1      31.016  27.212  24.613  1.00  0.00     0.137 C 
BRANCH   7   8
ATOM      8  N   UNL A   1      31.953  26.113  24.328  1.00  0.00    -0.292 N 
ATOM      9  C   UNL A   1      33.649  23.253  25.736  1.00  0.00     0.033 C 
ATOM     10  C   UNL A   1      33.283  24.233  24.883  1.00  0.00     0.081 C 
ATOM     11  S   UNL A   1      33.339  24.280  23.165  1.00  0.00    -0.054 SA
ATOM     12  C   UNL A   1      32.564  25.442  25.376  1.00  0.00     0.266 C 
ATOM     13  C   UNL A   1      32.285  25.682  23.054  1.00  0.00     0.148 C 
ATOM     14  O   UNL A   1      32.538  25.768  26.557  1.00  0.00    -0.268 OA
ATOM     15  S   UNL A   1      31.821  26.354  21.598  1.00  0.00    -0.052 S 
BRANCH   9  16
ATOM     16  C   UNL A   1      34.190  21.953  25.452  1.00  0.00     0.022 A 
ATOM     17  C   UNL A   1      35.553  21.504  25.195  1.00  0.00     0.100 A 
ATOM     18  N   UNL A   1      35.514  20.193  24.837  1.00  0.00    -0.167 NA
ATOM     19  N   UNL A   1      34.253  19.770  25.114  1.00  0.00    -0.240 N 
ATOM     20  C   UNL A   1      33.421  20.817  25.391  1.00  0.00     0.123 A 
BRANCH  17  21
ATOM     21  C   UNL A   1      36.880  22.218  25.422  1.00  0.00     0.006 A 
ATOM     22  C   UNL A   1      39.098  23.522  26.738  1.00  0.00     0.119 A 
ATOM     23  C   UNL A   1      37.926  24.209  26.498  1.00  0.00     0.047 A 
ATOM     24  C   UNL A   1      39.229  22.250  26.186  1.00  0.00     0.050 A 
ATOM     25  C   UNL A   1      36.861  23.576  25.819  1.00  0.00     0.014 A 
ATOM     26  C   UNL A   1      38.141  21.576  25.549  1.00  0.00    -0.038 A 
ATOM     27  C   UNL A   1      38.450  20.163  25.136  1.00  0.00     0.045 C 
BRANCH  22  28
ATOM     28  O   UNL A   1      40.158  24.002  27.457  1.00  0.00    -0.497 OA
ATOM     29  C   UNL A   1      40.281  25.430  27.494  1.00  0.00     0.278 C 
ENDBRANCH  22  28
ENDBRANCH  17  21
BRANCH  19  30
ATOM     30  C   UNL A   1      33.757  18.470  24.839  1.00  0.00     0.065 A 
ATOM     31  C   UNL A   1      34.543  17.573  24.105  1.00  0.00     0.028 A 
ATOM     32  C   UNL A   1      32.651  17.990  25.541  1.00  0.00     0.028 A 
ATOM     33  C   UNL A   1      34.200  16.225  24.005  1.00  0.00     0.002 A 
ATOM     34  C   UNL A   1      32.347  16.622  25.495  1.00  0.00     0.002 A 
ATOM     35  C   UNL A   1      33.109  15.743  24.718  1.00  0.00     0.000 A 
ENDBRANCH  19  30
ENDBRANCH   9  16
ENDBRANCH   7   8
ENDBRANCH   6   7
ENDBRANCH   3   6
ENDBRANCH   1   2
BRANCH   1  36
ATOM     36  C   UNL A   1      34.866  29.892  27.461  1.00  0.00     0.023 C 
BRANCH  36  37
ATOM     37  C   UNL A   1      33.873  31.046  27.510  1.00  0.00     0.023 C 
BRANCH  37  38
ATOM     38  C   UNL A   1      34.449  32.435  27.823  1.00  0.00     0.116 C 
BRANCH  38  39
ATOM     39  N   UNL A   1      34.477  32.784  29.251  1.00  0.00    -0.352 N 
ATOM     40  C   UNL A   1      35.506  33.306  30.022  1.00  0.00     0.251 C 
ATOM     41  H   UNL A   1      33.635  32.622  29.736  1.00  0.00     0.163 HD
ATOM     42  O   UNL A   1      35.265  33.908  31.064  1.00  0.00    -0.269 OA
BRANCH  40  43
ATOM     43  C   UNL A   1      36.927  33.271  29.611  1.00  0.00     0.039 A 
ATOM     44  C   UNL A   1      37.644  32.073  29.689  1.00  0.00     0.014 A 
ATOM     45  C   UNL A   1      37.609  34.427  29.299  1.00  0.00     0.014 A 
ATOM     46  C   UNL A   1      39.026  32.130  29.905  1.00  0.00     0.010 A 
ATOM     47  C   UNL A   1      38.985  34.479  29.396  1.00  0.00     0.010 A 
ATOM     48  C   UNL A   1      39.631  33.392  29.977  1.00  0.00    -0.014 A 
BRANCH  48  49
ATOM     49  C   UNL A   1      40.349  33.824  31.202  1.00  0.00     0.031 A 
ATOM     50  C   UNL A   1      39.712  34.294  32.447  1.00  0.00     0.074 A 
ATOM     51  C   UNL A   1      41.624  33.363  31.327  1.00  0.00     0.049 A 
ATOM     52  N   UNL A   1      40.350  34.966  33.348  1.00  0.00    -0.248 NA
ATOM     53  C   UNL A   1      38.336  34.014  32.820  1.00  0.00     0.031 C 
ATOM     54  C   UNL A   1      42.401  33.198  32.552  1.00  0.00     0.029 A 
ATOM     55  N   UNL A   1      42.529  33.000  30.331  1.00  0.00    -0.354 N 
ATOM     56  C   UNL A   1      39.641  34.873  34.528  1.00  0.00     0.074 A 
ATOM     57  C   UNL A   1      38.334  34.423  34.097  1.00  0.00     0.031 C 
ATOM     58  C   UNL A   1      43.694  33.055  32.233  1.00  0.00     0.029 A 
ATOM     59  C   UNL A   1      43.824  33.210  30.799  1.00  0.00     0.049 A 
ATOM     60  H   UNL A   1      42.291  32.652  29.441  1.00  0.00     0.167 HD
ATOM     61  C   UNL A   1      40.296  35.050  35.722  1.00  0.00     0.034 A 
ATOM     62  C   UNL A   1      44.707  34.015  30.148  1.00  0.00     0.034 A 
ATOM     63  C   UNL A   1      41.731  35.349  35.523  1.00  0.00     0.049 A 
ATOM     64  C   UNL A   1      44.942  35.303  30.893  1.00  0.00     0.074 A 
ATOM     65  C   UNL A   1      42.911  34.717  35.887  1.00  0.00     0.029 A 
ATOM     66  N   UNL A   1      42.110  36.394  34.686  1.00  0.00    -0.354 N 
ATOM     67  N   UNL A   1      44.625  35.494  32.144  1.00  0.00    -0.248 NA
ATOM     68  C   UNL A   1      45.481  36.507  30.270  1.00  0.00     0.031 C 
ATOM     69  C   UNL A   1      43.987  35.353  35.205  1.00  0.00     0.029 A 
ATOM     70  C   UNL A   1      43.471  36.387  34.442  1.00  0.00     0.049 A 
ATOM     71  H   UNL A   1      41.486  37.058  34.314  1.00  0.00     0.167 HD
ATOM     72  C   UNL A   1      44.668  36.838  32.418  1.00  0.00     0.074 A 
ATOM     73  C   UNL A   1      45.345  37.401  31.263  1.00  0.00     0.031 C 
ATOM     74  C   UNL A   1      44.044  37.368  33.518  1.00  0.00     0.034 A 
BRANCH  61  75
ATOM     75  C   UNL A   1      39.750  34.816  37.136  1.00  0.00     0.023 A 
ATOM     76  C   UNL A   1      38.949  33.670  37.383  1.00  0.00     0.031 A 
ATOM     77  C   UNL A   1      39.936  35.640  38.265  1.00  0.00     0.131 A 
ATOM     78  C   UNL A   1      38.377  33.406  38.648  1.00  0.00     0.055 A 
ATOM     79  C   UNL A   1      39.396  35.362  39.531  1.00  0.00     0.041 A 
ATOM     80  F   UNL A   1      40.638  36.771  38.226  1.00  0.00    -0.206 F 
ATOM     81  C   UNL A   1      38.608  34.244  39.730  1.00  0.00     0.022 A 
BRANCH  78  82
ATOM     82  S   UNL A   1      37.305  31.956  38.869  1.00  0.00     0.124 S 
ATOM     83  O   UNL A   1      37.807  31.394  40.119  1.00  0.00    -0.237 OA
ATOM     84  O   UNL A   1      35.975  32.552  38.912  1.00  0.00    -0.237 OA
ATOM     85  O   UNL A   1      37.578  31.149  37.680  1.00  0.00    -0.744 OA
ENDBRANCH  78  82
ENDBRANCH  61  75
BRANCH  62  86
ATOM     86  C   UNL A   1      44.746  33.791  28.682  1.00  0.00     0.023 A 
ATOM     87  C   UNL A   1      45.372  32.595  28.288  1.00  0.00     0.031 A 
ATOM     88  C   UNL A   1      43.908  34.428  27.758  1.00  0.00     0.131 A 
ATOM     89  C   UNL A   1      45.050  31.985  27.071  1.00  0.00     0.055 A 
ATOM     90  C   UNL A   1      43.630  33.847  26.512  1.00  0.00     0.041 A 
ATOM     91  F   UNL A   1      43.214  35.522  28.111  1.00  0.00    -0.206 F 
ATOM     92  C   UNL A   1      44.168  32.598  26.182  1.00  0.00     0.022 A 
BRANCH  89  93
ATOM     93  S   UNL A   1      45.612  30.278  26.788  1.00  0.00     0.124 S 
ATOM     94  O   UNL A   1      44.357  29.586  26.519  1.00  0.00    -0.237 OA
ATOM     95  O   UNL A   1      46.507  30.416  25.642  1.00  0.00    -0.237 OA
ATOM     96  O   UNL A   1      46.295  29.923  28.027  1.00  0.00    -0.744 OA
ENDBRANCH  89  93
ENDBRANCH  62  86
BRANCH  74  97
ATOM     97  C   UNL A   1      43.891  38.853  33.815  1.00  0.00     0.023 A 
ATOM     98  C   UNL A   1      43.214  39.751  32.979  1.00  0.00     0.031 A 
ATOM     99  C   UNL A   1      44.418  39.418  35.003  1.00  0.00     0.131 A 
ATOM    100  C   UNL A   1      43.178  41.131  33.254  1.00  0.00     0.055 A 
ATOM    101  C   UNL A   1      44.294  40.775  35.327  1.00  0.00     0.041 A 
ATOM    102  F   UNL A   1      45.079  38.678  35.905  1.00  0.00    -0.206 F 
ATOM    103  C   UNL A   1      43.695  41.649  34.435  1.00  0.00     0.022 A 
BRANCH 100 104
ATOM    104  S   UNL A   1      42.536  42.236  31.969  1.00  0.00     0.124 S 
ATOM    105  O   UNL A   1      42.232  43.443  32.734  1.00  0.00    -0.237 OA
ATOM    106  O   UNL A   1      43.665  42.339  31.051  1.00  0.00    -0.237 OA
ATOM    107  O   UNL A   1      41.371  41.522  31.449  1.00  0.00    -0.744 OA
ENDBRANCH 100 104
ENDBRANCH  74  97
ENDBRANCH  48  49
ENDBRANCH  40  43
ENDBRANCH  38  39
ENDBRANCH  37  38
ENDBRANCH  36  37
ENDBRANCH   1  36
TORSDOF 20
ENDMDL
MODEL 2
REMARK VINA RESULT:     -12.3      3.814      8.881
REMARK SMILES COc1ccc(-c2nn(-c3ccccc3)cc2/C=C2\SC(=S)N(CCC(=O)NCCCCNC(=O)c3ccc(-c4c5nc(c(-c6cc(S(=O)(=O)[O-])ccc6F)c6ccc([nH]6)c(-c6cc(S(=O)(=O)[O-])ccc6F)c6nc(c(-c7cc(S(=O)(=O)[O-])ccc7F)c7ccc4[nH]7)C=C6)C=C5)cc3)C2=O)c(C)c1
REMARK SMILES IDX 29 1 28 2 26 3 27 4 25 6 24 7 23 8 18 9 19 10 20 11 99 12
REMARK SMILES IDX 21 13 100 14 22 15 17 16 7 17 8 18 9 19 16 20 6 21 3 22 4 23
REMARK SMILES IDX 103 24 5 25 101 26 102 27 2 28 1 29 10 30 11 31 15 32 12 33
REMARK SMILES IDX 14 34 13 35 30 36 31 37 32 38 33 39 34 40 35 42 36 43 37 44
REMARK SMILES IDX 98 45 38 46 97 47 39 48 40 49 41 50 91 51 42 52 96 53 90 54
REMARK SMILES IDX 92 55 43 56 95 57 89 58 88 59 44 61 76 62 56 63 75 64 57 65
REMARK SMILES IDX 60 66 74 67 93 68 58 69 59 70 73 72 94 73 61 74 45 75 46 76
REMARK SMILES IDX 54 77 47 78 53 79 55 80 52 81 48 82 49 83 50 84 51 85 77 86
REMARK SMILES IDX 78 87 86 88 79 89 85 90 87 91 84 92 80 93 81 94 82 95 83 96
REMARK SMILES IDX 62 97 63 98 71 99 64 100 70 101 72 102 69 103 65 104 66 105
REMARK SMILES IDX 67 106 68 107
REMARK H PARENT 28 5 33 41 92 60 60 71
REMARK Flexibility Score: inf
ROOT
ATOM      1  C   UNL A   1      34.473  29.053  27.171  1.00  0.00     0.116 C 
ENDROOT
BRANCH   1   2
ATOM      2  N   UNL A   1      34.432  29.223  25.720  1.00  0.00    -0.356 N 
ATOM      3  C   UNL A   1      33.456  28.868  24.833  1.00  0.00     0.221 C 
ATOM      4  O   UNL A   1      33.568  29.210  23.653  1.00  0.00    -0.275 OA
ATOM      5  H   UNL A   1      35.223  29.658  25.324  1.00  0.00     0.163 HD
BRANCH   3   6
ATOM      6  C   UNL A   1      32.240  28.093  25.298  1.00  0.00     0.122 C 
BRANCH   6   7
ATOM      7  C   UNL A   1      31.607  27.270  24.161  1.00  0.00     0.137 C 
BRANCH   7   8
ATOM      8  N   UNL A   1      31.817  25.817  24.277  1.00  0.00    -0.292 N 
ATOM      9  C   UNL A   1      34.159  23.128  23.706  1.00  0.00     0.033 C 
ATOM     10  C   UNL A   1      33.023  23.797  23.998  1.00  0.00     0.081 C 
ATOM     11  S   UNL A   1      31.706  23.350  25.008  1.00  0.00    -0.054 SA
ATOM     12  C   UNL A   1      32.840  25.212  23.564  1.00  0.00     0.266 C 
ATOM     13  C   UNL A   1      31.048  24.979  25.067  1.00  0.00     0.148 C 
ATOM     14  O   UNL A   1      33.523  25.736  22.692  1.00  0.00    -0.268 OA
ATOM     15  S   UNL A   1      29.681  25.373  25.941  1.00  0.00    -0.052 S 
BRANCH   9  16
ATOM     16  C   UNL A   1      34.600  21.841  24.164  1.00  0.00     0.022 A 
ATOM     17  C   UNL A   1      35.891  21.377  24.660  1.00  0.00     0.100 A 
ATOM     18  N   UNL A   1      35.829  20.030  24.828  1.00  0.00    -0.167 NA
ATOM     19  N   UNL A   1      34.516  19.701  24.710  1.00  0.00    -0.240 N 
ATOM     20  C   UNL A   1      33.779  20.742  24.223  1.00  0.00     0.123 A 
BRANCH  17  21
ATOM     21  C   UNL A   1      37.108  22.172  25.120  1.00  0.00     0.006 A 
ATOM     22  C   UNL A   1      38.944  23.642  26.799  1.00  0.00     0.119 A 
ATOM     23  C   UNL A   1      37.815  24.253  26.295  1.00  0.00     0.047 A 
ATOM     24  C   UNL A   1      39.246  22.361  26.342  1.00  0.00     0.050 A 
ATOM     25  C   UNL A   1      36.943  23.539  25.443  1.00  0.00     0.014 A 
ATOM     26  C   UNL A   1      38.345  21.605  25.529  1.00  0.00    -0.038 A 
ATOM     27  C   UNL A   1      38.798  20.198  25.251  1.00  0.00     0.045 C 
BRANCH  22  28
ATOM     28  O   UNL A   1      39.810  24.204  27.695  1.00  0.00    -0.497 OA
ATOM     29  C   UNL A   1      39.298  25.327  28.424  1.00  0.00     0.278 C 
ENDBRANCH  22  28
ENDBRANCH  17  21
BRANCH  19  30
ATOM     30  C   UNL A   1      34.005  18.379  24.759  1.00  0.00     0.065 A 
ATOM     31  C   UNL A   1      34.883  17.295  24.637  1.00  0.00     0.028 A 
ATOM     32  C   UNL A   1      32.709  18.157  25.226  1.00  0.00     0.028 A 
ATOM     33  C   UNL A   1      34.465  15.992  24.905  1.00  0.00     0.002 A 
ATOM     34  C   UNL A   1      32.311  16.854  25.558  1.00  0.00     0.002 A 
ATOM     35  C   UNL A   1      33.180  15.772  25.385  1.00  0.00     0.000 A 
ENDBRANCH  19  30
ENDBRANCH   9  16
ENDBRANCH   7   8
ENDBRANCH   6   7
ENDBRANCH   3   6
ENDBRANCH   1   2
BRANCH   1  36
ATOM     36  C   UNL A   1      35.697  29.701  27.814  1.00  0.00     0.023 C 
BRANCH  36  37
ATOM     37  C   UNL A   1      35.715  31.224  27.772  1.00  0.00     0.023 C 
BRANCH  37  38
ATOM     38  C   UNL A   1      36.086  31.943  29.078  1.00  0.00     0.116 C 
BRANCH  38  39
ATOM     39  N   UNL A   1      35.089  31.824  30.152  1.00  0.00    -0.352 N 
ATOM     40  C   UNL A   1      35.072  32.389  31.420  1.00  0.00     0.251 C 
ATOM     41  H   UNL A   1      34.314  31.257  29.939  1.00  0.00     0.163 HD
ATOM     42  O   UNL A   1      34.016  32.529  32.028  1.00  0.00    -0.269 OA
BRANCH  40  43
ATOM     43  C   UNL A   1      36.275  32.946  32.077  1.00  0.00     0.039 A 
ATOM     44  C   UNL A   1      37.037  33.918  31.422  1.00  0.00     0.014 A 
ATOM     45  C   UNL A   1      36.752  32.420  33.257  1.00  0.00     0.014 A 
ATOM     46  C   UNL A   1      38.408  33.996  31.699  1.00  0.00     0.010 A 
ATOM     47  C   UNL A   1      38.078  32.577  33.611  1.00  0.00     0.010 A 
ATOM     48  C   UNL A   1      38.936  33.128  32.664  1.00  0.00    -0.014 A 
BRANCH  48  49
ATOM     49  C   UNL A   1      39.998  32.153  32.313  1.00  0.00     0.031 A 
ATOM     50  C   UNL A   1      39.857  31.044  31.350  1.00  0.00     0.074 A 
ATOM     51  C   UNL A   1      41.273  32.558  32.566  1.00  0.00     0.049 A 
ATOM     52  N   UNL A   1      40.666  30.036  31.321  1.00  0.00    -0.248 NA
ATOM     53  C   UNL A   1      38.844  30.985  30.310  1.00  0.00     0.031 C 
ATOM     54  C   UNL A   1      42.503  32.088  31.937  1.00  0.00     0.029 A 
ATOM     55  N   UNL A   1      41.734  33.461  33.521  1.00  0.00    -0.354 N 
ATOM     56  C   UNL A   1      40.544  29.430  30.088  1.00  0.00     0.074 A 
ATOM     57  C   UNL A   1      39.292  29.951  29.582  1.00  0.00     0.031 C 
ATOM     58  C   UNL A   1      43.548  32.467  32.686  1.00  0.00     0.029 A 
ATOM     59  C   UNL A   1      43.038  33.119  33.874  1.00  0.00     0.049 A 
ATOM     60  H   UNL A   1      41.222  34.218  33.888  1.00  0.00     0.167 HD
ATOM     61  C   UNL A   1      41.587  28.680  29.601  1.00  0.00     0.034 A 
ATOM     62  C   UNL A   1      43.394  32.855  35.159  1.00  0.00     0.034 A 
ATOM     63  C   UNL A   1      42.721  28.633  30.550  1.00  0.00     0.049 A 
ATOM     64  C   UNL A   1      43.660  31.388  35.375  1.00  0.00     0.074 A 
ATOM     65  C   UNL A   1      44.044  29.047  30.498  1.00  0.00     0.029 A 
ATOM     66  N   UNL A   1      42.506  28.234  31.865  1.00  0.00    -0.354 N 
ATOM     67  N   UNL A   1      43.861  30.530  34.412  1.00  0.00    -0.248 NA
ATOM     68  C   UNL A   1      43.645  30.751  36.687  1.00  0.00     0.031 C 
ATOM     69  C   UNL A   1      44.592  28.954  31.809  1.00  0.00     0.029 A 
ATOM     70  C   UNL A   1      43.615  28.463  32.658  1.00  0.00     0.049 A 
ATOM     71  H   UNL A   1      41.667  27.836  32.191  1.00  0.00     0.167 HD
ATOM     72  C   UNL A   1      43.750  29.258  34.913  1.00  0.00     0.074 A 
ATOM     73  C   UNL A   1      43.762  29.455  36.352  1.00  0.00     0.031 C 
ATOM     74  C   UNL A   1      43.548  28.178  34.093  1.00  0.00     0.034 A 
BRANCH  61  75
ATOM     75  C   UNL A   1      41.735  28.076  28.198  1.00  0.00     0.023 A 
ATOM     76  C   UNL A   1      42.330  26.795  28.059  1.00  0.00     0.031 A 
ATOM     77  C   UNL A   1      41.352  28.667  26.976  1.00  0.00     0.131 A 
ATOM     78  C   UNL A   1      42.537  26.190  26.799  1.00  0.00     0.055 A 
ATOM     79  C   UNL A   1      41.527  28.053  25.725  1.00  0.00     0.041 A 
ATOM     80  F   UNL A   1      40.798  29.876  26.900  1.00  0.00    -0.206 F 
ATOM     81  C   UNL A   1      42.125  26.811  25.628  1.00  0.00     0.022 A 
BRANCH  78  82
ATOM     82  S   UNL A   1      43.370  24.579  26.697  1.00  0.00     0.124 S 
ATOM     83  O   UNL A   1      42.609  23.908  25.648  1.00  0.00    -0.237 OA
ATOM     84  O   UNL A   1      44.740  24.954  26.368  1.00  0.00    -0.237 OA
ATOM     85  O   UNL A   1      43.191  24.020  28.038  1.00  0.00    -0.744 OA
ENDBRANCH  78  82
ENDBRANCH  61  75
BRANCH  62  86
ATOM     86  C   UNL A   1      42.865  33.837  36.137  1.00  0.00     0.023 A 
ATOM     87  C   UNL A   1      41.679  33.442  36.781  1.00  0.00     0.031 A 
ATOM     88  C   UNL A   1      43.620  34.862  36.723  1.00  0.00     0.131 A 
ATOM     89  C   UNL A   1      41.344  33.950  38.041  1.00  0.00     0.055 A 
ATOM     90  C   UNL A   1      43.253  35.415  37.959  1.00  0.00     0.041 A 
ATOM     91  F   UNL A   1      44.804  35.216  36.201  1.00  0.00    -0.206 F 
ATOM     92  C   UNL A   1      42.134  34.928  38.643  1.00  0.00     0.022 A 
BRANCH  89  93
ATOM     93  S   UNL A   1      40.008  33.138  38.969  1.00  0.00     0.124 S 
ATOM     94  O   UNL A   1      39.246  34.279  39.466  1.00  0.00    -0.237 OA
ATOM     95  O   UNL A   1      39.338  32.340  37.946  1.00  0.00    -0.237 OA
ATOM     96  O   UNL A   1      40.709  32.342  39.970  1.00  0.00    -0.744 OA
ENDBRANCH  89  93
ENDBRANCH  62  86
BRANCH  74  97
ATOM     97  C   UNL A   1      43.245  26.761  34.560  1.00  0.00     0.023 A 
ATOM     98  C   UNL A   1      44.076  25.661  34.307  1.00  0.00     0.031 A 
ATOM     99  C   UNL A   1      42.084  26.475  35.321  1.00  0.00     0.131 A 
ATOM    100  C   UNL A   1      43.707  24.356  34.683  1.00  0.00     0.055 A 
ATOM    101  C   UNL A   1      41.768  25.191  35.783  1.00  0.00     0.041 A 
ATOM    102  F   UNL A   1      41.203  27.430  35.652  1.00  0.00    -0.206 F 
ATOM    103  C   UNL A   1      42.567  24.113  35.439  1.00  0.00     0.022 A 
BRANCH 100 104
ATOM    104  S   UNL A   1      44.703  22.978  34.054  1.00  0.00     0.124 S 
ATOM    105  O   UNL A   1      44.129  22.772  32.727  1.00  0.00    -0.237 OA
ATOM    106  O   UNL A   1      46.053  23.532  34.078  1.00  0.00    -0.237 OA
ATOM    107  O   UNL A   1      44.451  21.904  35.013  1.00  0.00    -0.744 OA
ENDBRANCH 100 104
ENDBRANCH  74  97
ENDBRANCH  48  49
ENDBRANCH  40  43
ENDBRANCH  38  39
ENDBRANCH  37  38
ENDBRANCH  36  37
ENDBRANCH   1  36
TORSDOF 20
ENDMDL
MODEL 3
REMARK VINA RESULT:     -12.2      5.978     10.125
REMARK SMILES COc1ccc(-c2nn(-c3ccccc3)cc2/C=C2\SC(=S)N(CCC(=O)NCCCCNC(=O)c3ccc(-c4c5nc(c(-c6cc(S(=O)(=O)[O-])ccc6F)c6ccc([nH]6)c(-c6cc(S(=O)(=O)[O-])ccc6F)c6nc(c(-c7cc(S(=O)(=O)[O-])ccc7F)c7ccc4[nH]7)C=C6)C=C5)cc3)C2=O)c(C)c1
REMARK SMILES IDX 29 1 28 2 26 3 27 4 25 6 24 7 23 8 18 9 19 10 20 11 99 12
REMARK SMILES IDX 21 13 100 14 22 15 17 16 7 17 8 18 9 19 16 20 6 21 3 22 4 23
REMARK SMILES IDX 103 24 5 25 101 26 102 27 2 28 1 29 10 30 11 31 15 32 12 33
REMARK SMILES IDX 14 34 13 35 30 36 31 37 32 38 33 39 34 40 35 42 36 43 37 44
REMARK SMILES IDX 98 45 38 46 97 47 39 48 40 49 41 50 91 51 42 52 96 53 90 54
REMARK SMILES IDX 92 55 43 56 95 57 89 58 88 59 44 61 76 62 56 63 75 64 57 65
REMARK SMILES IDX 60 66 74 67 93 68 58 69 59 70 73 72 94 73 61 74 45 75 46 76
REMARK SMILES IDX 54 77 47 78 53 79 55 80 52 81 48 82 49 83 50 84 51 85 77 86
REMARK SMILES IDX 78 87 86 88 79 89 85 90 87 91 84 92 80 93 81 94 82 95 83 96
REMARK SMILES IDX 62 97 63 98 71 99 64 100 70 101 72 102 69 103 65 104 66 105
REMARK SMILES IDX 67 106 68 107
REMARK H PARENT 28 5 33 41 92 60 60 71
REMARK Flexibility Score: inf
ROOT
ATOM      1  C   UNL A   1      51.238  29.744  29.014  1.00  0.00     0.116 C 
ENDROOT
BRANCH   1   2
ATOM      2  N   UNL A   1      51.326  28.307  29.262  1.00  0.00    -0.356 N 
ATOM      3  C   UNL A   1      51.060  27.265  28.420  1.00  0.00     0.221 C 
ATOM      4  O   UNL A   1      51.313  26.116  28.793  1.00  0.00    -0.275 OA
ATOM      5  H   UNL A   1      51.621  28.052  30.167  1.00  0.00     0.163 HD
BRANCH   3   6
ATOM      6  C   UNL A   1      50.493  27.518  27.038  1.00  0.00     0.122 C 
BRANCH   6   7
ATOM      7  C   UNL A   1      50.232  26.211  26.269  1.00  0.00     0.137 C 
BRANCH   7   8
ATOM      8  N   UNL A   1      48.816  25.973  25.943  1.00  0.00    -0.292 N 
ATOM      9  C   UNL A   1      45.601  25.045  27.301  1.00  0.00     0.033 C 
ATOM     10  C   UNL A   1      46.583  25.344  26.424  1.00  0.00     0.081 C 
ATOM     11  S   UNL A   1      46.487  26.015  24.844  1.00  0.00    -0.054 SA
ATOM     12  C   UNL A   1      48.015  25.272  26.832  1.00  0.00     0.266 C 
ATOM     13  C   UNL A   1      48.200  26.406  24.781  1.00  0.00     0.148 C 
ATOM     14  O   UNL A   1      48.396  24.667  27.827  1.00  0.00    -0.268 OA
ATOM     15  S   UNL A   1      48.910  27.159  23.471  1.00  0.00    -0.052 S 
BRANCH   9  16
ATOM     16  C   UNL A   1      44.180  25.208  27.167  1.00  0.00     0.022 A 
ATOM     17  C   UNL A   1      43.184  24.456  26.413  1.00  0.00     0.100 A 
ATOM     18  N   UNL A   1      41.994  25.106  26.506  1.00  0.00    -0.167 NA
ATOM     19  N   UNL A   1      42.160  26.048  27.470  1.00  0.00    -0.240 N 
ATOM     20  C   UNL A   1      43.474  26.193  27.811  1.00  0.00     0.123 A 
BRANCH  17  21
ATOM     21  C   UNL A   1      43.283  23.086  25.751  1.00  0.00     0.006 A 
ATOM     22  C   UNL A   1      44.306  20.516  24.917  1.00  0.00     0.119 A 
ATOM     23  C   UNL A   1      44.714  21.670  24.281  1.00  0.00     0.047 A 
ATOM     24  C   UNL A   1      43.277  20.618  25.850  1.00  0.00     0.050 A 
ATOM     25  C   UNL A   1      44.179  22.919  24.670  1.00  0.00     0.014 A 
ATOM     26  C   UNL A   1      42.769  21.879  26.294  1.00  0.00    -0.038 A 
ATOM     27  C   UNL A   1      41.752  21.778  27.398  1.00  0.00     0.045 C 
BRANCH  22  28
ATOM     28  O   UNL A   1      44.814  19.268  24.685  1.00  0.00    -0.497 OA
ATOM     29  C   UNL A   1      46.069  18.987  25.319  1.00  0.00     0.278 C 
ENDBRANCH  22  28
ENDBRANCH  17  21
BRANCH  19  30
ATOM     30  C   UNL A   1      41.177  26.998  27.851  1.00  0.00     0.065 A 
ATOM     31  C   UNL A   1      40.986  28.144  27.069  1.00  0.00     0.028 A 
ATOM     32  C   UNL A   1      40.215  26.653  28.801  1.00  0.00     0.028 A 
ATOM     33  C   UNL A   1      39.890  28.983  27.273  1.00  0.00     0.002 A 
ATOM     34  C   UNL A   1      39.080  27.461  28.957  1.00  0.00     0.002 A 
ATOM     35  C   UNL A   1      38.924  28.631  28.206  1.00  0.00     0.000 A 
ENDBRANCH  19  30
ENDBRANCH   9  16
ENDBRANCH   7   8
ENDBRANCH   6   7
ENDBRANCH   3   6
ENDBRANCH   1   2
BRANCH   1  36
ATOM     36  C   UNL A   1      49.977  30.375  29.600  1.00  0.00     0.023 C 
BRANCH  36  37
ATOM     37  C   UNL A   1      49.214  31.289  28.649  1.00  0.00     0.023 C 
BRANCH  37  38
ATOM     38  C   UNL A   1      48.142  30.625  27.771  1.00  0.00     0.116 C 
BRANCH  38  39
ATOM     39  N   UNL A   1      47.258  29.687  28.480  1.00  0.00    -0.352 N 
ATOM     40  C   UNL A   1      45.948  29.848  28.908  1.00  0.00     0.251 C 
ATOM     41  H   UNL A   1      47.658  28.811  28.681  1.00  0.00     0.163 HD
ATOM     42  O   UNL A   1      45.232  28.872  29.109  1.00  0.00    -0.269 OA
BRANCH  40  43
ATOM     43  C   UNL A   1      45.296  31.167  29.053  1.00  0.00     0.039 A 
ATOM     44  C   UNL A   1      45.585  31.968  30.161  1.00  0.00     0.014 A 
ATOM     45  C   UNL A   1      44.290  31.564  28.199  1.00  0.00     0.014 A 
ATOM     46  C   UNL A   1      44.604  32.851  30.628  1.00  0.00     0.010 A 
ATOM     47  C   UNL A   1      43.371  32.518  28.591  1.00  0.00     0.010 A 
ATOM     48  C   UNL A   1      43.396  32.927  29.921  1.00  0.00    -0.014 A 
BRANCH  48  49
ATOM     49  C   UNL A   1      42.106  32.599  30.578  1.00  0.00     0.031 A 
ATOM     50  C   UNL A   1      40.876  33.408  30.499  1.00  0.00     0.074 A 
ATOM     51  C   UNL A   1      41.933  31.289  30.908  1.00  0.00     0.049 A 
ATOM     52  N   UNL A   1      39.897  33.278  31.335  1.00  0.00    -0.248 NA
ATOM     53  C   UNL A   1      40.604  34.388  29.461  1.00  0.00     0.031 C 
ATOM     54  C   UNL A   1      40.677  30.575  31.106  1.00  0.00     0.029 A 
ATOM     55  N   UNL A   1      42.893  30.324  31.204  1.00  0.00    -0.354 N 
ATOM     56  C   UNL A   1      38.771  33.826  30.759  1.00  0.00     0.074 A 
ATOM     57  C   UNL A   1      39.306  34.641  29.688  1.00  0.00     0.031 C 
ATOM     58  C   UNL A   1      40.926  29.424  31.747  1.00  0.00     0.029 A 
ATOM     59  C   UNL A   1      42.337  29.384  32.068  1.00  0.00     0.049 A 
ATOM     60  H   UNL A   1      43.815  30.309  30.859  1.00  0.00     0.167 HD
ATOM     61  C   UNL A   1      37.531  33.405  31.173  1.00  0.00     0.034 A 
ATOM     62  C   UNL A   1      42.883  29.104  33.282  1.00  0.00     0.034 A 
ATOM     63  C   UNL A   1      37.625  32.390  32.245  1.00  0.00     0.049 A 
ATOM     64  C   UNL A   1      42.048  29.652  34.410  1.00  0.00     0.074 A 
ATOM     65  C   UNL A   1      37.230  31.065  32.361  1.00  0.00     0.029 A 
ATOM     66  N   UNL A   1      38.372  32.658  33.388  1.00  0.00    -0.354 N 
ATOM     67  N   UNL A   1      40.808  30.039  34.283  1.00  0.00    -0.248 NA
ATOM     68  C   UNL A   1      42.563  29.881  35.755  1.00  0.00     0.031 C 
ATOM     69  C   UNL A   1      37.806  30.530  33.548  1.00  0.00     0.029 A 
ATOM     70  C   UNL A   1      38.533  31.530  34.170  1.00  0.00     0.049 A 
ATOM     71  H   UNL A   1      38.739  33.543  33.612  1.00  0.00     0.167 HD
ATOM     72  C   UNL A   1      40.451  30.770  35.387  1.00  0.00     0.074 A 
ATOM     73  C   UNL A   1      41.526  30.515  36.329  1.00  0.00     0.031 C 
ATOM     74  C   UNL A   1      39.360  31.601  35.377  1.00  0.00     0.034 A 
BRANCH  61  75
ATOM     75  C   UNL A   1      36.169  33.743  30.553  1.00  0.00     0.023 A 
ATOM     76  C   UNL A   1      35.280  34.592  31.264  1.00  0.00     0.031 A 
ATOM     77  C   UNL A   1      35.660  33.283  29.321  1.00  0.00     0.131 A 
ATOM     78  C   UNL A   1      33.994  34.917  30.777  1.00  0.00     0.055 A 
ATOM     79  C   UNL A   1      34.395  33.632  28.821  1.00  0.00     0.041 A 
ATOM     80  F   UNL A   1      36.337  32.459  28.522  1.00  0.00    -0.206 F 
ATOM     81  C   UNL A   1      33.551  34.449  29.549  1.00  0.00     0.022 A 
BRANCH  78  82
ATOM     82  S   UNL A   1      32.887  35.954  31.777  1.00  0.00     0.124 S 
ATOM     83  O   UNL A   1      32.239  36.776  30.761  1.00  0.00    -0.237 OA
ATOM     84  O   UNL A   1      32.048  34.964  32.444  1.00  0.00    -0.237 OA
ATOM     85  O   UNL A   1      33.803  36.676  32.659  1.00  0.00    -0.744 OA
ENDBRANCH  78  82
ENDBRANCH  61  75
BRANCH  62  86
ATOM     86  C   UNL A   1      44.355  28.922  33.244  1.00  0.00     0.023 A 
ATOM     87  C   UNL A   1      44.779  27.653  32.814  1.00  0.00     0.031 A 
ATOM     88  C   UNL A   1      45.284  29.971  33.210  1.00  0.00     0.131 A 
ATOM     89  C   UNL A   1      46.039  27.477  32.232  1.00  0.00     0.055 A 
ATOM     90  C   UNL A   1      46.569  29.782  32.680  1.00  0.00     0.041 A 
ATOM     91  F   UNL A   1      44.909  31.221  33.522  1.00  0.00    -0.206 F 
ATOM     92  C   UNL A   1      46.935  28.541  32.149  1.00  0.00     0.022 A 
BRANCH  89  93
ATOM     93  S   UNL A   1      46.380  25.908  31.376  1.00  0.00     0.124 S 
ATOM     94  O   UNL A   1      47.472  26.281  30.483  1.00  0.00    -0.237 OA
ATOM     95  O   UNL A   1      46.746  25.013  32.470  1.00  0.00    -0.237 OA
ATOM     96  O   UNL A   1      45.111  25.571  30.741  1.00  0.00    -0.744 OA
ENDBRANCH  89  93
ENDBRANCH  62  86
BRANCH  74  97
ATOM     97  C   UNL A   1      38.982  32.573  36.486  1.00  0.00     0.023 A 
ATOM     98  C   UNL A   1      39.449  33.893  36.560  1.00  0.00     0.031 A 
ATOM     99  C   UNL A   1      38.089  32.193  37.518  1.00  0.00     0.131 A 
ATOM    100  C   UNL A   1      39.141  34.724  37.654  1.00  0.00     0.055 A 
ATOM    101  C   UNL A   1      37.702  33.054  38.553  1.00  0.00     0.041 A 
ATOM    102  F   UNL A   1      37.550  30.966  37.570  1.00  0.00    -0.206 F 
ATOM    103  C   UNL A   1      38.252  34.322  38.643  1.00  0.00     0.022 A 
BRANCH 100 104
ATOM    104  S   UNL A   1      40.027  36.299  37.798  1.00  0.00     0.124 S 
ATOM    105  O   UNL A   1      39.158  37.050  38.701  1.00  0.00    -0.237 OA
ATOM    106  O   UNL A   1      41.310  35.886  38.356  1.00  0.00    -0.237 OA
ATOM    107  O   UNL A   1      40.074  36.797  36.425  1.00  0.00    -0.744 OA
ENDBRANCH 100 104
ENDBRANCH  74  97
ENDBRANCH  48  49
ENDBRANCH  40  43
ENDBRANCH  38  39
ENDBRANCH  37  38
ENDBRANCH  36  37
ENDBRANCH   1  36
TORSDOF 20
ENDMDL
