MODEL 1
REMARK VINA RESULT:     -10.8      0.000      0.000
REMARK SMILES Cc1c(C(=O)NCCCCNC(=O)c2ccc(-c3c4nc(c(-c5cc(S(=O)(=O)[O-])ccc5F)c5ccc([nH]5)c(-c5cc(S(=O)(=O)[O-])ccc5F)c5nc(c(-c6cc(S(=O)(=O)[O-])ccc6F)c6ccc3[nH]6)C=C5)C=C4)cc2)sc2nc3n(c(=O)c12)CC/C3=C\c1ccc(OC(F)F)cc1
REMARK SMILES IDX 8 1 7 2 6 3 4 4 5 5 3 7 1 8 2 9 84 10 77 11 78 12 82 13
REMARK SMILES IDX 79 14 81 15 83 16 80 17 85 18 87 19 86 20 88 21 89 22 90 23
REMARK SMILES IDX 98 24 91 25 97 26 92 27 93 28 94 29 95 30 96 31 9 32 10 33
REMARK SMILES IDX 11 34 12 35 13 37 14 38 15 39 76 40 16 41 75 42 17 43 18 44
REMARK SMILES IDX 19 45 69 46 20 47 74 48 68 49 70 50 21 51 73 52 67 53 66 54
REMARK SMILES IDX 22 56 54 57 34 58 53 59 35 60 38 61 52 62 71 63 36 64 37 65
REMARK SMILES IDX 51 67 72 68 39 69 23 70 24 71 32 72 25 73 31 74 33 75 30 76
REMARK SMILES IDX 26 77 27 78 28 79 29 80 55 81 56 82 64 83 57 84 63 85 65 86
REMARK SMILES IDX 62 87 58 88 59 89 60 90 61 91 40 92 41 93 49 94 42 95 48 96
REMARK SMILES IDX 50 97 47 98 43 99 44 100 45 101 46 102
REMARK H PARENT 6 6 11 36 70 55 38 66
REMARK Flexibility Score: inf
ROOT
ATOM      1  C   UNL A   1      35.602  34.355  33.186  1.00  0.00     0.023 C 
ENDROOT
BRANCH   1   2
ATOM      2  C   UNL A   1      35.548  34.591  34.706  1.00  0.00     0.116 C 
BRANCH   2   3
ATOM      3  N   UNL A   1      36.132  33.480  35.442  1.00  0.00    -0.351 N 
ATOM      4  C   UNL A   1      37.398  32.946  35.560  1.00  0.00     0.261 C 
ATOM      5  O   UNL A   1      37.458  32.016  36.374  1.00  0.00    -0.268 OA
ATOM      6  H   UNL A   1      35.467  32.995  35.983  1.00  0.00     0.163 HD
BRANCH   4   7
ATOM      7  C   UNL A   1      38.583  33.419  34.825  1.00  0.00     0.098 A 
ATOM      8  C   UNL A   1      39.428  35.650  35.871  1.00  0.00     0.047 C 
ATOM      9  C   UNL A   1      39.482  34.471  34.970  1.00  0.00    -0.012 A 
ATOM     10  C   UNL A   1      40.551  34.384  34.021  1.00  0.00     0.081 A 
ATOM     11  S   UNL A   1      38.928  32.588  33.311  1.00  0.00    -0.110 S 
ATOM     12  C   UNL A   1      40.288  33.554  32.956  1.00  0.00     0.132 A 
ATOM     13  C   UNL A   1      41.734  35.207  33.976  1.00  0.00     0.262 A 
ATOM     14  N   UNL A   1      40.978  33.513  31.768  1.00  0.00    -0.219 NA
ATOM     15  N   UNL A   1      42.302  35.233  32.736  1.00  0.00    -0.292 N 
ATOM     16  O   UNL A   1      42.176  35.832  34.939  1.00  0.00    -0.269 OA
ATOM     17  C   UNL A   1      41.932  34.386  31.696  1.00  0.00     0.140 A 
ATOM     18  C   UNL A   1      43.370  36.132  32.444  1.00  0.00     0.132 C 
ATOM     19  C   UNL A   1      42.864  34.717  30.580  1.00  0.00    -0.002 C 
ATOM     20  C   UNL A   1      43.776  35.838  31.027  1.00  0.00     0.061 C 
ATOM     21  C   UNL A   1      42.908  34.122  29.377  1.00  0.00     0.015 C 
BRANCH  21  22
ATOM     22  C   UNL A   1      43.952  34.538  28.429  1.00  0.00    -0.025 A 
ATOM     23  C   UNL A   1      43.627  35.097  27.191  1.00  0.00     0.012 A 
ATOM     24  C   UNL A   1      45.290  34.561  28.851  1.00  0.00     0.012 A 
ATOM     25  C   UNL A   1      44.620  35.723  26.425  1.00  0.00     0.047 A 
ATOM     26  C   UNL A   1      46.270  35.215  28.101  1.00  0.00     0.047 A 
ATOM     27  C   UNL A   1      45.938  35.815  26.890  1.00  0.00     0.126 A 
BRANCH  27  28
ATOM     28  O   UNL A   1      46.787  36.516  26.081  1.00  0.00    -0.435 OA
BRANCH  28  29
ATOM     29  C   UNL A   1      47.008  37.891  26.373  1.00  0.00     0.542 C 
ATOM     30  F   UNL A   1      48.136  38.324  25.759  1.00  0.00    -0.167 F 
ATOM     31  F   UNL A   1      45.967  38.636  25.931  1.00  0.00    -0.167 F 
ENDBRANCH  28  29
ENDBRANCH  27  28
ENDBRANCH  21  22
ENDBRANCH   4   7
ENDBRANCH   2   3
ENDBRANCH   1   2
BRANCH   1  32
ATOM     32  C   UNL A   1      34.606  33.365  32.581  1.00  0.00     0.023 C 
BRANCH  32  33
ATOM     33  C   UNL A   1      35.225  32.376  31.606  1.00  0.00     0.116 C 
BRANCH  33  34
ATOM     34  N   UNL A   1      34.396  32.121  30.426  1.00  0.00    -0.352 N 
ATOM     35  C   UNL A   1      34.848  31.901  29.134  1.00  0.00     0.251 C 
ATOM     36  H   UNL A   1      33.420  32.106  30.563  1.00  0.00     0.163 HD
ATOM     37  O   UNL A   1      34.128  32.109  28.165  1.00  0.00    -0.269 OA
BRANCH  35  38
ATOM     38  C   UNL A   1      36.221  31.394  28.973  1.00  0.00     0.039 A 
ATOM     39  C   UNL A   1      37.338  32.205  29.188  1.00  0.00     0.014 A 
ATOM     40  C   UNL A   1      36.357  30.034  28.703  1.00  0.00     0.014 A 
ATOM     41  C   UNL A   1      38.599  31.608  29.226  1.00  0.00     0.010 A 
ATOM     42  C   UNL A   1      37.579  29.432  28.876  1.00  0.00     0.010 A 
ATOM     43  C   UNL A   1      38.711  30.212  29.101  1.00  0.00    -0.014 A 
BRANCH  43  44
ATOM     44  C   UNL A   1      39.976  29.527  29.382  1.00  0.00     0.031 A 
ATOM     45  C   UNL A   1      40.284  29.392  30.838  1.00  0.00     0.074 A 
ATOM     46  C   UNL A   1      40.669  28.856  28.431  1.00  0.00     0.049 A 
ATOM     47  N   UNL A   1      41.275  29.903  31.490  1.00  0.00    -0.248 NA
ATOM     48  C   UNL A   1      39.290  28.732  31.709  1.00  0.00     0.031 C 
ATOM     49  C   UNL A   1      40.314  28.681  27.016  1.00  0.00     0.029 A 
ATOM     50  N   UNL A   1      41.785  28.081  28.542  1.00  0.00    -0.354 N 
ATOM     51  C   UNL A   1      41.168  29.427  32.794  1.00  0.00     0.074 A 
ATOM     52  C   UNL A   1      39.838  28.889  32.916  1.00  0.00     0.031 C 
ATOM     53  C   UNL A   1      41.040  27.675  26.479  1.00  0.00     0.029 A 
ATOM     54  C   UNL A   1      42.032  27.246  27.447  1.00  0.00     0.049 A 
ATOM     55  H   UNL A   1      42.372  28.107  29.333  1.00  0.00     0.167 HD
ATOM     56  C   UNL A   1      42.266  29.282  33.588  1.00  0.00     0.034 A 
ATOM     57  C   UNL A   1      42.979  26.271  27.341  1.00  0.00     0.034 A 
ATOM     58  C   UNL A   1      43.387  30.021  33.063  1.00  0.00     0.049 A 
ATOM     59  C   UNL A   1      44.017  26.604  28.343  1.00  0.00     0.074 A 
ATOM     60  C   UNL A   1      43.638  31.354  32.805  1.00  0.00     0.029 A 
ATOM     61  N   UNL A   1      44.312  29.318  32.329  1.00  0.00    -0.354 N 
ATOM     62  N   UNL A   1      44.739  27.690  28.298  1.00  0.00    -0.248 NA
ATOM     63  C   UNL A   1      43.920  25.971  29.647  1.00  0.00     0.031 C 
ATOM     64  C   UNL A   1      44.360  31.360  31.574  1.00  0.00     0.029 A 
ATOM     65  C   UNL A   1      44.589  30.036  31.192  1.00  0.00     0.049 A 
ATOM     66  H   UNL A   1      44.706  28.450  32.574  1.00  0.00     0.167 HD
ATOM     67  C   UNL A   1      44.812  28.119  29.613  1.00  0.00     0.074 A 
ATOM     68  C   UNL A   1      44.376  26.969  30.408  1.00  0.00     0.031 C 
ATOM     69  C   UNL A   1      44.944  29.444  29.914  1.00  0.00     0.034 A 
BRANCH  56  70
ATOM     70  C   UNL A   1      42.435  28.191  34.621  1.00  0.00     0.023 A 
ATOM     71  C   UNL A   1      43.120  27.016  34.253  1.00  0.00     0.031 A 
ATOM     72  C   UNL A   1      41.726  28.135  35.844  1.00  0.00     0.131 A 
ATOM     73  C   UNL A   1      43.049  25.859  35.054  1.00  0.00     0.055 A 
ATOM     74  C   UNL A   1      41.707  27.004  36.663  1.00  0.00     0.041 A 
ATOM     75  F   UNL A   1      40.937  29.132  36.262  1.00  0.00    -0.206 F 
ATOM     76  C   UNL A   1      42.353  25.849  36.261  1.00  0.00     0.022 A 
BRANCH  73  77
ATOM     77  S   UNL A   1      43.781  24.320  34.437  1.00  0.00     0.124 S 
ATOM     78  O   UNL A   1      42.666  23.389  34.558  1.00  0.00    -0.237 OA
ATOM     79  O   UNL A   1      44.168  24.692  33.080  1.00  0.00    -0.237 OA
ATOM     80  O   UNL A   1      44.895  24.082  35.354  1.00  0.00    -0.744 OA
ENDBRANCH  73  77
ENDBRANCH  56  70
BRANCH  57  81
ATOM     81  C   UNL A   1      42.888  24.926  26.693  1.00  0.00     0.023 A 
ATOM     82  C   UNL A   1      43.896  24.438  25.826  1.00  0.00     0.031 A 
ATOM     83  C   UNL A   1      41.945  23.980  27.149  1.00  0.00     0.131 A 
ATOM     84  C   UNL A   1      43.943  23.067  25.474  1.00  0.00     0.055 A 
ATOM     85  C   UNL A   1      41.998  22.627  26.798  1.00  0.00     0.041 A 
ATOM     86  F   UNL A   1      40.990  24.318  28.029  1.00  0.00    -0.206 F 
ATOM     87  C   UNL A   1      43.006  22.161  25.971  1.00  0.00     0.022 A 
BRANCH  84  88
ATOM     88  S   UNL A   1      45.311  22.406  24.460  1.00  0.00     0.124 S 
ATOM     89  O   UNL A   1      46.121  21.712  25.455  1.00  0.00    -0.237 OA
ATOM     90  O   UNL A   1      44.616  21.568  23.490  1.00  0.00    -0.237 OA
ATOM     91  O   UNL A   1      45.926  23.609  23.896  1.00  0.00    -0.744 OA
ENDBRANCH  84  88
ENDBRANCH  57  81
BRANCH  69  92
ATOM     92  C   UNL A   1      45.336  30.400  28.801  1.00  0.00     0.023 A 
ATOM     93  C   UNL A   1      46.652  30.825  28.499  1.00  0.00     0.031 A 
ATOM     94  C   UNL A   1      44.308  30.788  27.924  1.00  0.00     0.131 A 
ATOM     95  C   UNL A   1      46.890  31.609  27.348  1.00  0.00     0.055 A 
ATOM     96  C   UNL A   1      44.551  31.543  26.780  1.00  0.00     0.041 A 
ATOM     97  F   UNL A   1      43.042  30.395  28.148  1.00  0.00    -0.206 F 
ATOM     98  C   UNL A   1      45.843  31.958  26.487  1.00  0.00     0.022 A 
BRANCH  95  99
ATOM     99  S   UNL A   1      48.573  32.181  26.930  1.00  0.00     0.124 S 
ATOM    100  O   UNL A   1      49.060  32.740  28.187  1.00  0.00    -0.237 OA
ATOM    101  O   UNL A   1      49.228  30.958  26.476  1.00  0.00    -0.237 OA
ATOM    102  O   UNL A   1      48.348  33.172  25.875  1.00  0.00    -0.744 OA
ENDBRANCH  95  99
ENDBRANCH  69  92
ENDBRANCH  43  44
ENDBRANCH  35  38
ENDBRANCH  33  34
ENDBRANCH  32  33
ENDBRANCH   1  32
TORSDOF 17
ENDMDL
MODEL 2
REMARK VINA RESULT:     -10.4      4.520      8.605
REMARK SMILES Cc1c(C(=O)NCCCCNC(=O)c2ccc(-c3c4nc(c(-c5cc(S(=O)(=O)[O-])ccc5F)c5ccc([nH]5)c(-c5cc(S(=O)(=O)[O-])ccc5F)c5nc(c(-c6cc(S(=O)(=O)[O-])ccc6F)c6ccc3[nH]6)C=C5)C=C4)cc2)sc2nc3n(c(=O)c12)CC/C3=C\c1ccc(OC(F)F)cc1
REMARK SMILES IDX 8 1 7 2 6 3 4 4 5 5 3 7 1 8 2 9 84 10 77 11 78 12 82 13
REMARK SMILES IDX 79 14 81 15 83 16 80 17 85 18 87 19 86 20 88 21 89 22 90 23
REMARK SMILES IDX 98 24 91 25 97 26 92 27 93 28 94 29 95 30 96 31 9 32 10 33
REMARK SMILES IDX 11 34 12 35 13 37 14 38 15 39 76 40 16 41 75 42 17 43 18 44
REMARK SMILES IDX 19 45 69 46 20 47 74 48 68 49 70 50 21 51 73 52 67 53 66 54
REMARK SMILES IDX 22 56 54 57 34 58 53 59 35 60 38 61 52 62 71 63 36 64 37 65
REMARK SMILES IDX 51 67 72 68 39 69 23 70 24 71 32 72 25 73 31 74 33 75 30 76
REMARK SMILES IDX 26 77 27 78 28 79 29 80 55 81 56 82 64 83 57 84 63 85 65 86
REMARK SMILES IDX 62 87 58 88 59 89 60 90 61 91 40 92 41 93 49 94 42 95 48 96
REMARK SMILES IDX 50 97 47 98 43 99 44 100 45 101 46 102
REMARK H PARENT 6 6 11 36 70 55 38 66
REMARK Flexibility Score: inf
ROOT
ATOM      1  C   UNL A   1      34.878  33.790  31.528  1.00  0.00     0.023 C 
ENDROOT
BRANCH   1   2
ATOM      2  C   UNL A   1      33.847  34.916  31.332  1.00  0.00     0.116 C 
BRANCH   2   3
ATOM      3  N   UNL A   1      34.031  35.596  30.059  1.00  0.00    -0.351 N 
ATOM      4  C   UNL A   1      34.074  35.199  28.738  1.00  0.00     0.261 C 
ATOM      5  O   UNL A   1      34.183  36.147  27.951  1.00  0.00    -0.268 OA
ATOM      6  H   UNL A   1      34.152  36.567  30.164  1.00  0.00     0.163 HD
BRANCH   4   7
ATOM      7  C   UNL A   1      33.984  33.804  28.275  1.00  0.00     0.098 A 
ATOM      8  C   UNL A   1      36.376  32.789  28.089  1.00  0.00     0.047 C 
ATOM      9  C   UNL A   1      34.891  32.769  28.075  1.00  0.00    -0.012 A 
ATOM     10  C   UNL A   1      34.228  31.549  27.725  1.00  0.00     0.081 A 
ATOM     11  S   UNL A   1      32.405  33.292  27.684  1.00  0.00    -0.110 S 
ATOM     12  C   UNL A   1      32.933  31.719  27.291  1.00  0.00     0.132 A 
ATOM     13  C   UNL A   1      34.830  30.245  27.596  1.00  0.00     0.262 A 
ATOM     14  N   UNL A   1      32.174  30.795  26.615  1.00  0.00    -0.219 NA
ATOM     15  N   UNL A   1      34.096  29.411  26.803  1.00  0.00    -0.292 N 
ATOM     16  O   UNL A   1      35.894  29.922  28.121  1.00  0.00    -0.269 OA
ATOM     17  C   UNL A   1      32.807  29.692  26.365  1.00  0.00     0.140 A 
ATOM     18  C   UNL A   1      34.616  28.143  26.405  1.00  0.00     0.132 C 
ATOM     19  C   UNL A   1      32.383  28.478  25.610  1.00  0.00    -0.002 C 
ATOM     20  C   UNL A   1      33.524  27.486  25.607  1.00  0.00     0.061 C 
ATOM     21  C   UNL A   1      31.187  28.277  25.033  1.00  0.00     0.015 C 
BRANCH  21  22
ATOM     22  C   UNL A   1      30.928  26.978  24.394  1.00  0.00    -0.025 A 
ATOM     23  C   UNL A   1      31.447  26.674  23.134  1.00  0.00     0.012 A 
ATOM     24  C   UNL A   1      30.323  25.957  25.142  1.00  0.00     0.012 A 
ATOM     25  C   UNL A   1      31.413  25.354  22.665  1.00  0.00     0.047 A 
ATOM     26  C   UNL A   1      30.322  24.636  24.686  1.00  0.00     0.047 A 
ATOM     27  C   UNL A   1      30.881  24.323  23.451  1.00  0.00     0.126 A 
BRANCH  27  28
ATOM     28  O   UNL A   1      30.979  23.074  22.906  1.00  0.00    -0.435 OA
BRANCH  28  29
ATOM     29  C   UNL A   1      32.256  22.447  22.894  1.00  0.00     0.542 C 
ATOM     30  F   UNL A   1      32.782  22.432  24.142  1.00  0.00    -0.167 F 
ATOM     31  F   UNL A   1      32.146  21.169  22.460  1.00  0.00    -0.167 F 
ENDBRANCH  28  29
ENDBRANCH  27  28
ENDBRANCH  21  22
ENDBRANCH   4   7
ENDBRANCH   2   3
ENDBRANCH   1   2
BRANCH   1  32
ATOM     32  C   UNL A   1      36.073  34.067  32.440  1.00  0.00     0.023 C 
BRANCH  32  33
ATOM     33  C   UNL A   1      37.363  33.391  32.002  1.00  0.00     0.116 C 
BRANCH  33  34
ATOM     34  N   UNL A   1      37.934  33.958  30.778  1.00  0.00    -0.352 N 
ATOM     35  C   UNL A   1      39.092  33.542  30.141  1.00  0.00     0.251 C 
ATOM     36  H   UNL A   1      37.447  34.710  30.368  1.00  0.00     0.163 HD
ATOM     37  O   UNL A   1      39.715  34.293  29.401  1.00  0.00    -0.269 OA
BRANCH  35  38
ATOM     38  C   UNL A   1      39.536  32.157  30.376  1.00  0.00     0.039 A 
ATOM     39  C   UNL A   1      38.747  31.059  30.027  1.00  0.00     0.014 A 
ATOM     40  C   UNL A   1      40.831  31.991  30.864  1.00  0.00     0.014 A 
ATOM     41  C   UNL A   1      39.315  29.786  30.082  1.00  0.00     0.010 A 
ATOM     42  C   UNL A   1      41.426  30.757  30.785  1.00  0.00     0.010 A 
ATOM     43  C   UNL A   1      40.669  29.643  30.432  1.00  0.00    -0.014 A 
BRANCH  43  44
ATOM     44  C   UNL A   1      41.364  28.364  30.260  1.00  0.00     0.031 A 
ATOM     45  C   UNL A   1      42.058  27.879  31.492  1.00  0.00     0.074 A 
ATOM     46  C   UNL A   1      41.181  27.574  29.175  1.00  0.00     0.049 A 
ATOM     47  N   UNL A   1      43.324  27.693  31.668  1.00  0.00    -0.248 NA
ATOM     48  C   UNL A   1      41.267  27.721  32.729  1.00  0.00     0.031 C 
ATOM     49  C   UNL A   1      40.300  27.817  28.025  1.00  0.00     0.029 A 
ATOM     50  N   UNL A   1      41.652  26.322  28.913  1.00  0.00    -0.354 N 
ATOM     51  C   UNL A   1      43.464  27.162  32.947  1.00  0.00     0.074 A 
ATOM     52  C   UNL A   1      42.209  27.391  33.616  1.00  0.00     0.031 C 
ATOM     53  C   UNL A   1      40.113  26.669  27.335  1.00  0.00     0.029 A 
ATOM     54  C   UNL A   1      40.990  25.649  27.880  1.00  0.00     0.049 A 
ATOM     55  H   UNL A   1      42.401  25.921  29.412  1.00  0.00     0.167 HD
ATOM     56  C   UNL A   1      44.510  26.350  33.268  1.00  0.00     0.034 A 
ATOM     57  C   UNL A   1      41.146  24.350  27.499  1.00  0.00     0.034 A 
ATOM     58  C   UNL A   1      45.567  26.457  32.292  1.00  0.00     0.049 A 
ATOM     59  C   UNL A   1      42.480  23.939  27.993  1.00  0.00     0.074 A 
ATOM     60  C   UNL A   1      46.381  27.481  31.848  1.00  0.00     0.029 A 
ATOM     61  N   UNL A   1      45.622  25.487  31.320  1.00  0.00    -0.354 N 
ATOM     62  N   UNL A   1      43.595  24.478  27.585  1.00  0.00    -0.248 NA
ATOM     63  C   UNL A   1      42.543  23.272  29.282  1.00  0.00     0.031 C 
ATOM     64  C   UNL A   1      46.481  27.284  30.439  1.00  0.00     0.029 A 
ATOM     65  C   UNL A   1      45.803  26.108  30.109  1.00  0.00     0.049 A 
ATOM     66  H   UNL A   1      45.544  24.516  31.466  1.00  0.00     0.167 HD
ATOM     67  C   UNL A   1      44.363  24.610  28.730  1.00  0.00     0.074 A 
ATOM     68  C   UNL A   1      43.705  23.760  29.724  1.00  0.00     0.031 C 
ATOM     69  C   UNL A   1      45.286  25.609  28.847  1.00  0.00     0.034 A 
BRANCH  56  70
ATOM     70  C   UNL A   1      44.429  25.197  34.242  1.00  0.00     0.023 A 
ATOM     71  C   UNL A   1      45.086  25.317  35.483  1.00  0.00     0.031 A 
ATOM     72  C   UNL A   1      43.980  23.899  33.905  1.00  0.00     0.131 A 
ATOM     73  C   UNL A   1      45.303  24.188  36.296  1.00  0.00     0.055 A 
ATOM     74  C   UNL A   1      44.147  22.793  34.741  1.00  0.00     0.041 A 
ATOM     75  F   UNL A   1      43.447  23.611  32.711  1.00  0.00    -0.206 F 
ATOM     76  C   UNL A   1      44.831  22.927  35.936  1.00  0.00     0.022 A 
BRANCH  73  77
ATOM     77  S   UNL A   1      46.324  24.362  37.784  1.00  0.00     0.124 S 
ATOM     78  O   UNL A   1      47.312  23.307  37.594  1.00  0.00    -0.237 OA
ATOM     79  O   UNL A   1      46.810  25.732  37.657  1.00  0.00    -0.237 OA
ATOM     80  O   UNL A   1      45.376  24.141  38.874  1.00  0.00    -0.744 OA
ENDBRANCH  73  77
ENDBRANCH  56  70
BRANCH  57  81
ATOM     81  C   UNL A   1      40.116  23.363  27.049  1.00  0.00     0.023 A 
ATOM     82  C   UNL A   1      38.765  23.730  26.830  1.00  0.00     0.031 A 
ATOM     83  C   UNL A   1      40.509  22.103  26.548  1.00  0.00     0.131 A 
ATOM     84  C   UNL A   1      37.889  22.871  26.122  1.00  0.00     0.055 A 
ATOM     85  C   UNL A   1      39.639  21.261  25.848  1.00  0.00     0.041 A 
ATOM     86  F   UNL A   1      41.781  21.686  26.636  1.00  0.00    -0.206 F 
ATOM     87  C   UNL A   1      38.329  21.647  25.618  1.00  0.00     0.022 A 
BRANCH  84  88
ATOM     88  S   UNL A   1      36.184  23.392  25.726  1.00  0.00     0.124 S 
ATOM     89  O   UNL A   1      35.443  22.924  26.893  1.00  0.00    -0.237 OA
ATOM     90  O   UNL A   1      36.316  24.836  25.579  1.00  0.00    -0.237 OA
ATOM     91  O   UNL A   1      35.891  22.676  24.484  1.00  0.00    -0.744 OA
ENDBRANCH  84  88
ENDBRANCH  57  81
BRANCH  69  92
ATOM     92  C   UNL A   1      45.691  26.365  27.594  1.00  0.00     0.023 A 
ATOM     93  C   UNL A   1      46.649  25.940  26.642  1.00  0.00     0.031 A 
ATOM     94  C   UNL A   1      44.951  27.524  27.301  1.00  0.00     0.131 A 
ATOM     95  C   UNL A   1      46.828  26.676  25.449  1.00  0.00     0.055 A 
ATOM     96  C   UNL A   1      45.117  28.234  26.114  1.00  0.00     0.041 A 
ATOM     97  F   UNL A   1      44.013  27.963  28.156  1.00  0.00    -0.206 F 
ATOM     98  C   UNL A   1      46.058  27.813  25.184  1.00  0.00     0.022 A 
BRANCH  95  99
ATOM     99  S   UNL A   1      48.059  26.161  24.202  1.00  0.00     0.124 S 
ATOM    100  O   UNL A   1      49.321  26.217  24.931  1.00  0.00    -0.237 OA
ATOM    101  O   UNL A   1      47.597  24.829  23.821  1.00  0.00    -0.237 OA
ATOM    102  O   UNL A   1      47.924  27.169  23.148  1.00  0.00    -0.744 OA
ENDBRANCH  95  99
ENDBRANCH  69  92
ENDBRANCH  43  44
ENDBRANCH  35  38
ENDBRANCH  33  34
ENDBRANCH  32  33
ENDBRANCH   1  32
TORSDOF 17
ENDMDL
MODEL 3
REMARK VINA RESULT:     -10.0      3.740      9.033
REMARK SMILES Cc1c(C(=O)NCCCCNC(=O)c2ccc(-c3c4nc(c(-c5cc(S(=O)(=O)[O-])ccc5F)c5ccc([nH]5)c(-c5cc(S(=O)(=O)[O-])ccc5F)c5nc(c(-c6cc(S(=O)(=O)[O-])ccc6F)c6ccc3[nH]6)C=C5)C=C4)cc2)sc2nc3n(c(=O)c12)CC/C3=C\c1ccc(OC(F)F)cc1
REMARK SMILES IDX 8 1 7 2 6 3 4 4 5 5 3 7 1 8 2 9 84 10 77 11 78 12 82 13
REMARK SMILES IDX 79 14 81 15 83 16 80 17 85 18 87 19 86 20 88 21 89 22 90 23
REMARK SMILES IDX 98 24 91 25 97 26 92 27 93 28 94 29 95 30 96 31 9 32 10 33
REMARK SMILES IDX 11 34 12 35 13 37 14 38 15 39 76 40 16 41 75 42 17 43 18 44
REMARK SMILES IDX 19 45 69 46 20 47 74 48 68 49 70 50 21 51 73 52 67 53 66 54
REMARK SMILES IDX 22 56 54 57 34 58 53 59 35 60 38 61 52 62 71 63 36 64 37 65
REMARK SMILES IDX 51 67 72 68 39 69 23 70 24 71 32 72 25 73 31 74 33 75 30 76
REMARK SMILES IDX 26 77 27 78 28 79 29 80 55 81 56 82 64 83 57 84 63 85 65 86
REMARK SMILES IDX 62 87 58 88 59 89 60 90 61 91 40 92 41 93 49 94 42 95 48 96
REMARK SMILES IDX 50 97 47 98 43 99 44 100 45 101 46 102
REMARK H PARENT 6 6 11 36 70 55 38 66
REMARK Flexibility Score: inf
ROOT
ATOM      1  C   UNL A   1      47.584  25.977  36.328  1.00  0.00     0.023 C 
ENDROOT
BRANCH   1   2
ATOM      2  C   UNL A   1      46.749  27.260  36.490  1.00  0.00     0.116 C 
BRANCH   2   3
ATOM      3  N   UNL A   1      45.727  27.109  37.514  1.00  0.00    -0.351 N 
ATOM      4  C   UNL A   1      44.414  27.509  37.647  1.00  0.00     0.261 C 
ATOM      5  O   UNL A   1      43.884  27.092  38.685  1.00  0.00    -0.268 OA
ATOM      6  H   UNL A   1      46.048  26.604  38.296  1.00  0.00     0.163 HD
BRANCH   4   7
ATOM      7  C   UNL A   1      43.681  28.330  36.670  1.00  0.00     0.098 A 
ATOM      8  C   UNL A   1      44.976  30.551  36.247  1.00  0.00     0.047 C 
ATOM      9  C   UNL A   1      43.916  29.536  36.018  1.00  0.00    -0.012 A 
ATOM     10  C   UNL A   1      42.900  29.817  35.049  1.00  0.00     0.081 A 
ATOM     11  S   UNL A   1      42.045  27.796  36.292  1.00  0.00    -0.110 S 
ATOM     12  C   UNL A   1      41.746  29.087  35.219  1.00  0.00     0.132 A 
ATOM     13  C   UNL A   1      42.897  30.891  34.087  1.00  0.00     0.262 A 
ATOM     14  N   UNL A   1      40.524  29.354  34.651  1.00  0.00    -0.219 NA
ATOM     15  N   UNL A   1      41.640  31.201  33.657  1.00  0.00    -0.292 N 
ATOM     16  O   UNL A   1      43.909  31.478  33.706  1.00  0.00    -0.269 OA
ATOM     17  C   UNL A   1      40.516  30.426  33.925  1.00  0.00     0.140 A 
ATOM     18  C   UNL A   1      41.411  32.353  32.847  1.00  0.00     0.132 C 
ATOM     19  C   UNL A   1      39.402  31.099  33.198  1.00  0.00    -0.002 C 
ATOM     20  C   UNL A   1      39.945  32.337  32.519  1.00  0.00     0.061 C 
ATOM     21  C   UNL A   1      38.126  30.683  33.135  1.00  0.00     0.015 C 
BRANCH  21  22
ATOM     22  C   UNL A   1      37.183  31.444  32.302  1.00  0.00    -0.025 A 
ATOM     23  C   UNL A   1      37.032  31.169  30.942  1.00  0.00     0.012 A 
ATOM     24  C   UNL A   1      36.280  32.322  32.920  1.00  0.00     0.012 A 
ATOM     25  C   UNL A   1      35.954  31.717  30.234  1.00  0.00     0.047 A 
ATOM     26  C   UNL A   1      35.187  32.839  32.220  1.00  0.00     0.047 A 
ATOM     27  C   UNL A   1      35.007  32.527  30.875  1.00  0.00     0.126 A 
BRANCH  27  28
ATOM     28  O   UNL A   1      33.967  32.932  30.089  1.00  0.00    -0.435 OA
BRANCH  28  29
ATOM     29  C   UNL A   1      33.883  34.312  29.749  1.00  0.00     0.542 C 
ATOM     30  F   UNL A   1      35.042  34.725  29.182  1.00  0.00    -0.167 F 
ATOM     31  F   UNL A   1      32.877  34.516  28.865  1.00  0.00    -0.167 F 
ENDBRANCH  28  29
ENDBRANCH  27  28
ENDBRANCH  21  22
ENDBRANCH   4   7
ENDBRANCH   2   3
ENDBRANCH   1   2
BRANCH   1  32
ATOM     32  C   UNL A   1      47.386  24.862  37.355  1.00  0.00     0.023 C 
BRANCH  32  33
ATOM     33  C   UNL A   1      46.729  23.609  36.797  1.00  0.00     0.116 C 
BRANCH  33  34
ATOM     34  N   UNL A   1      45.272  23.600  36.937  1.00  0.00    -0.352 N 
ATOM     35  C   UNL A   1      44.361  24.224  36.100  1.00  0.00     0.251 C 
ATOM     36  H   UNL A   1      44.902  23.102  37.703  1.00  0.00     0.163 HD
ATOM     37  O   UNL A   1      43.239  24.522  36.491  1.00  0.00    -0.269 OA
BRANCH  35  38
ATOM     38  C   UNL A   1      44.788  24.500  34.718  1.00  0.00     0.039 A 
ATOM     39  C   UNL A   1      45.382  23.521  33.918  1.00  0.00     0.014 A 
ATOM     40  C   UNL A   1      44.470  25.757  34.206  1.00  0.00     0.014 A 
ATOM     41  C   UNL A   1      45.565  23.789  32.561  1.00  0.00     0.010 A 
ATOM     42  C   UNL A   1      44.526  25.965  32.850  1.00  0.00     0.010 A 
ATOM     43  C   UNL A   1      45.104  25.004  32.024  1.00  0.00    -0.014 A 
BRANCH  43  44
ATOM     44  C   UNL A   1      45.051  25.219  30.575  1.00  0.00     0.031 A 
ATOM     45  C   UNL A   1      46.191  26.023  30.037  1.00  0.00     0.074 A 
ATOM     46  C   UNL A   1      44.199  24.542  29.768  1.00  0.00     0.049 A 
ATOM     47  N   UNL A   1      46.145  27.177  29.460  1.00  0.00    -0.248 NA
ATOM     48  C   UNL A   1      47.567  25.558  30.304  1.00  0.00     0.031 C 
ATOM     49  C   UNL A   1      43.222  23.515  30.153  1.00  0.00     0.029 A 
ATOM     50  N   UNL A   1      44.097  24.537  28.409  1.00  0.00    -0.354 N 
ATOM     51  C   UNL A   1      47.449  27.468  29.071  1.00  0.00     0.074 A 
ATOM     52  C   UNL A   1      48.295  26.550  29.786  1.00  0.00     0.031 C 
ATOM     53  C   UNL A   1      42.820  22.827  29.060  1.00  0.00     0.029 A 
ATOM     54  C   UNL A   1      43.368  23.467  27.878  1.00  0.00     0.049 A 
ATOM     55  H   UNL A   1      44.506  25.232  27.843  1.00  0.00     0.167 HD
ATOM     56  C   UNL A   1      47.707  28.270  27.999  1.00  0.00     0.034 A 
ATOM     57  C   UNL A   1      43.224  23.127  26.566  1.00  0.00     0.034 A 
ATOM     58  C   UNL A   1      46.539  29.030  27.627  1.00  0.00     0.049 A 
ATOM     59  C   UNL A   1      43.514  24.357  25.794  1.00  0.00     0.074 A 
ATOM     60  C   UNL A   1      45.751  29.974  28.257  1.00  0.00     0.029 A 
ATOM     61  N   UNL A   1      45.784  28.548  26.585  1.00  0.00    -0.354 N 
ATOM     62  N   UNL A   1      42.795  25.442  25.874  1.00  0.00    -0.248 NA
ATOM     63  C   UNL A   1      44.870  24.539  25.305  1.00  0.00     0.031 C 
ATOM     64  C   UNL A   1      44.416  29.654  27.870  1.00  0.00     0.029 A 
ATOM     65  C   UNL A   1      44.463  28.596  26.959  1.00  0.00     0.049 A 
ATOM     66  H   UNL A   1      46.128  28.223  25.722  1.00  0.00     0.167 HD
ATOM     67  C   UNL A   1      43.717  26.476  25.878  1.00  0.00     0.074 A 
ATOM     68  C   UNL A   1      44.968  25.865  25.424  1.00  0.00     0.031 C 
ATOM     69  C   UNL A   1      43.451  27.654  26.515  1.00  0.00     0.034 A 
BRANCH  56  70
ATOM     70  C   UNL A   1      48.883  28.096  27.066  1.00  0.00     0.023 A 
ATOM     71  C   UNL A   1      49.838  29.130  26.986  1.00  0.00     0.031 A 
ATOM     72  C   UNL A   1      48.965  27.102  26.063  1.00  0.00     0.131 A 
ATOM     73  C   UNL A   1      50.775  29.166  25.935  1.00  0.00     0.055 A 
ATOM     74  C   UNL A   1      49.932  27.112  25.056  1.00  0.00     0.041 A 
ATOM     75  F   UNL A   1      48.055  26.127  25.943  1.00  0.00    -0.206 F 
ATOM     76  C   UNL A   1      50.833  28.159  24.974  1.00  0.00     0.022 A 
BRANCH  73  77
ATOM     77  S   UNL A   1      51.847  30.618  25.767  1.00  0.00     0.124 S 
ATOM     78  O   UNL A   1      52.504  30.657  27.068  1.00  0.00    -0.237 OA
ATOM     79  O   UNL A   1      52.685  30.245  24.632  1.00  0.00    -0.237 OA
ATOM     80  O   UNL A   1      50.906  31.707  25.510  1.00  0.00    -0.744 OA
ENDBRANCH  73  77
ENDBRANCH  56  70
BRANCH  57  81
ATOM     81  C   UNL A   1      43.190  21.771  25.936  1.00  0.00     0.023 A 
ATOM     82  C   UNL A   1      44.349  21.162  25.395  1.00  0.00     0.031 A 
ATOM     83  C   UNL A   1      42.071  20.930  26.118  1.00  0.00     0.131 A 
ATOM     84  C   UNL A   1      44.361  19.779  25.087  1.00  0.00     0.055 A 
ATOM     85  C   UNL A   1      42.090  19.565  25.814  1.00  0.00     0.041 A 
ATOM     86  F   UNL A   1      40.945  21.384  26.690  1.00  0.00    -0.206 F 
ATOM     87  C   UNL A   1      43.240  18.980  25.311  1.00  0.00     0.022 A 
BRANCH  84  88
ATOM     88  S   UNL A   1      45.888  18.962  24.508  1.00  0.00     0.124 S 
ATOM     89  O   UNL A   1      45.604  18.749  23.093  1.00  0.00    -0.237 OA
ATOM     90  O   UNL A   1      46.917  19.946  24.822  1.00  0.00    -0.237 OA
ATOM     91  O   UNL A   1      45.945  17.742  25.314  1.00  0.00    -0.744 OA
ENDBRANCH  84  88
ENDBRANCH  57  81
BRANCH  69  92
ATOM     92  C   UNL A   1      42.019  27.937  26.935  1.00  0.00     0.023 A 
ATOM     93  C   UNL A   1      41.433  27.579  28.173  1.00  0.00     0.031 A 
ATOM     94  C   UNL A   1      41.261  28.735  26.061  1.00  0.00     0.131 A 
ATOM     95  C   UNL A   1      40.130  28.027  28.488  1.00  0.00     0.055 A 
ATOM     96  C   UNL A   1      39.986  29.192  26.385  1.00  0.00     0.041 A 
ATOM     97  F   UNL A   1      41.774  29.125  24.882  1.00  0.00    -0.206 F 
ATOM     98  C   UNL A   1      39.414  28.838  27.600  1.00  0.00     0.022 A 
BRANCH  95  99
ATOM     99  S   UNL A   1      39.339  27.580  30.073  1.00  0.00     0.124 S 
ATOM    100  O   UNL A   1      40.327  27.983  31.067  1.00  0.00    -0.237 OA
ATOM    101  O   UNL A   1      38.102  28.355  30.047  1.00  0.00    -0.237 OA
ATOM    102  O   UNL A   1      39.145  26.132  29.964  1.00  0.00    -0.744 OA
ENDBRANCH  95  99
ENDBRANCH  69  92
ENDBRANCH  43  44
ENDBRANCH  35  38
ENDBRANCH  33  34
ENDBRANCH  32  33
ENDBRANCH   1  32
TORSDOF 17
ENDMDL
