MODEL 1
REMARK VINA RESULT:     -11.1      0.000      0.000
REMARK SMILES O=C(COc1ccc(/C=C/C(=O)c2ccc(F)cc2F)cc1[N+](=O)[O-])NCCCCNC(=O)c1ccc(-c2c3nc(c(-c4cc(S(=O)(=O)[O-])ccc4F)c4ccc([nH]4)c(-c4cc(S(=O)(=O)[O-])ccc4F)c4nc(c(-c5cc(S(=O)(=O)[O-])ccc5F)c5ccc2[nH]5)C=C4)C=C3)cc1
REMARK SMILES IDX 27 1 26 2 1 3 2 4 3 6 4 7 5 8 6 9 22 10 7 11 21 12 8 13
REMARK SMILES IDX 23 14 24 15 25 16 9 17 10 18 11 19 12 20 13 21 14 22 19 23
REMARK SMILES IDX 15 24 18 25 20 26 16 27 17 28 28 29 29 30 30 31 31 32 32 33
REMARK SMILES IDX 33 35 34 36 35 37 96 38 36 39 95 40 37 41 38 42 39 43 89 44
REMARK SMILES IDX 40 45 94 46 88 47 90 48 41 49 93 50 87 51 86 52 42 54 74 55
REMARK SMILES IDX 54 56 73 57 55 58 58 59 72 60 91 61 56 62 57 63 71 65 92 66
REMARK SMILES IDX 59 67 43 68 44 69 52 70 45 71 51 72 53 73 50 74 46 75 47 76
REMARK SMILES IDX 48 77 49 78 75 79 76 80 84 81 77 82 83 83 85 84 82 85 78 86
REMARK SMILES IDX 79 87 80 88 81 89 60 90 61 91 69 92 62 93 68 94 70 95 67 96
REMARK SMILES IDX 63 97 64 98 65 99 66 100
REMARK H PARENT 26 5 31 34 90 53 58 64
REMARK Flexibility Score: inf
ROOT
ATOM      1  C   UNL A   1      33.501  22.320  25.915  1.00  0.00     0.116 C 
ENDROOT
BRANCH   1   2
ATOM      2  N   UNL A   1      32.334  23.098  25.522  1.00  0.00    -0.353 N 
ATOM      3  O   UNL A   1      31.458  23.375  27.637  1.00  0.00    -0.271 OA
ATOM      4  C   UNL A   1      31.484  23.675  26.446  1.00  0.00     0.257 C 
ATOM      5  H   UNL A   1      32.144  23.216  24.563  1.00  0.00     0.163 HD
BRANCH   4   6
ATOM      6  C   UNL A   1      30.556  24.757  25.869  1.00  0.00     0.329 C 
BRANCH   6   7
ATOM      7  O   UNL A   1      31.206  25.700  25.008  1.00  0.00    -0.477 OA
BRANCH   7   8
ATOM      8  C   UNL A   1      31.959  26.629  25.676  1.00  0.00     0.197 A 
ATOM      9  C   UNL A   1      31.419  27.231  26.817  1.00  0.00     0.054 A 
ATOM     10  C   UNL A   1      33.173  27.122  25.202  1.00  0.00     0.311 A 
ATOM     11  C   UNL A   1      32.104  28.278  27.472  1.00  0.00     0.012 A 
ATOM     12  C   UNL A   1      33.889  28.116  25.873  1.00  0.00     0.098 A 
ATOM     13  C   UNL A   1      33.347  28.724  27.005  1.00  0.00    -0.018 A 
BRANCH  10  14
ATOM     14  N   UNL A   1      33.670  26.779  23.896  1.00  0.00     0.066 N 
ATOM     15  O   UNL A   1      34.149  25.645  23.757  1.00  0.00    -0.258 OA
ATOM     16  O   UNL A   1      33.646  27.669  23.035  1.00  0.00    -0.258 OA
ENDBRANCH  10  14
BRANCH  13  17
ATOM     17  C   UNL A   1      34.143  29.815  27.579  1.00  0.00     0.012 C 
ATOM     18  C   UNL A   1      33.775  31.101  27.657  1.00  0.00     0.053 C 
BRANCH  18  19
ATOM     19  C   UNL A   1      34.706  32.169  28.120  1.00  0.00     0.188 C 
ATOM     20  O   UNL A   1      35.886  32.137  27.780  1.00  0.00    -0.289 OA
BRANCH  19  21
ATOM     21  C   UNL A   1      34.223  33.288  28.966  1.00  0.00     0.058 A 
ATOM     22  C   UNL A   1      34.703  33.385  30.279  1.00  0.00     0.018 A 
ATOM     23  C   UNL A   1      33.284  34.219  28.511  1.00  0.00     0.137 A 
ATOM     24  C   UNL A   1      34.277  34.431  31.103  1.00  0.00     0.040 A 
ATOM     25  C   UNL A   1      32.855  35.262  29.329  1.00  0.00     0.079 A 
ATOM     26  F   UNL A   1      32.767  34.129  27.277  1.00  0.00    -0.206 F 
ATOM     27  C   UNL A   1      33.361  35.361  30.618  1.00  0.00     0.126 A 
ATOM     28  F   UNL A   1      32.959  36.362  31.410  1.00  0.00    -0.207 F 
ENDBRANCH  19  21
ENDBRANCH  18  19
ENDBRANCH  13  17
ENDBRANCH   7   8
ENDBRANCH   6   7
ENDBRANCH   4   6
ENDBRANCH   1   2
BRANCH   1  29
ATOM     29  C   UNL A   1      34.825  23.069  25.826  1.00  0.00     0.023 C 
BRANCH  29  30
ATOM     30  C   UNL A   1      35.804  22.575  24.759  1.00  0.00     0.023 C 
BRANCH  30  31
ATOM     31  C   UNL A   1      37.279  22.902  24.986  1.00  0.00     0.116 C 
BRANCH  31  32
ATOM     32  N   UNL A   1      38.020  21.816  25.608  1.00  0.00    -0.352 N 
ATOM     33  C   UNL A   1      39.176  21.838  26.357  1.00  0.00     0.251 C 
ATOM     34  H   UNL A   1      37.632  20.921  25.471  1.00  0.00     0.163 HD
ATOM     35  O   UNL A   1      39.712  20.779  26.663  1.00  0.00    -0.269 OA
BRANCH  33  36
ATOM     36  C   UNL A   1      39.797  23.123  26.763  1.00  0.00     0.039 A 
ATOM     37  C   UNL A   1      40.808  23.105  27.729  1.00  0.00     0.014 A 
ATOM     38  C   UNL A   1      39.382  24.343  26.224  1.00  0.00     0.014 A 
ATOM     39  C   UNL A   1      41.457  24.292  28.088  1.00  0.00     0.010 A 
ATOM     40  C   UNL A   1      40.081  25.515  26.526  1.00  0.00     0.010 A 
ATOM     41  C   UNL A   1      41.132  25.503  27.454  1.00  0.00    -0.014 A 
BRANCH  41  42
ATOM     42  C   UNL A   1      41.891  26.754  27.741  1.00  0.00     0.031 A 
ATOM     43  C   UNL A   1      43.319  26.903  27.289  1.00  0.00     0.074 A 
ATOM     44  C   UNL A   1      41.312  27.738  28.463  1.00  0.00     0.049 A 
ATOM     45  N   UNL A   1      44.162  27.881  27.512  1.00  0.00    -0.248 NA
ATOM     46  C   UNL A   1      43.882  25.794  26.506  1.00  0.00     0.031 C 
ATOM     47  C   UNL A   1      39.946  27.705  28.988  1.00  0.00     0.029 A 
ATOM     48  N   UNL A   1      41.799  28.951  28.887  1.00  0.00    -0.354 N 
ATOM     49  C   UNL A   1      45.355  27.503  26.904  1.00  0.00     0.074 A 
ATOM     50  C   UNL A   1      45.142  26.178  26.360  1.00  0.00     0.031 C 
ATOM     51  C   UNL A   1      39.696  28.851  29.641  1.00  0.00     0.029 A 
ATOM     52  C   UNL A   1      40.898  29.680  29.631  1.00  0.00     0.049 A 
ATOM     53  H   UNL A   1      42.707  29.268  28.680  1.00  0.00     0.167 HD
ATOM     54  C   UNL A   1      46.513  28.202  26.791  1.00  0.00     0.034 A 
ATOM     55  C   UNL A   1      41.026  30.871  30.250  1.00  0.00     0.034 A 
ATOM     56  C   UNL A   1      46.712  29.524  27.337  1.00  0.00     0.049 A 
ATOM     57  C   UNL A   1      42.338  31.610  30.151  1.00  0.00     0.074 A 
ATOM     58  C   UNL A   1      47.828  30.338  27.238  1.00  0.00     0.029 A 
ATOM     59  N   UNL A   1      45.781  30.225  28.094  1.00  0.00    -0.354 N 
ATOM     60  N   UNL A   1      43.441  31.256  29.532  1.00  0.00    -0.248 NA
ATOM     61  C   UNL A   1      42.418  32.913  30.824  1.00  0.00     0.031 C 
ATOM     62  C   UNL A   1      47.603  31.490  27.998  1.00  0.00     0.029 A 
ATOM     63  C   UNL A   1      46.311  31.442  28.499  1.00  0.00     0.049 A 
ATOM     64  H   UNL A   1      44.876  29.905  28.312  1.00  0.00     0.167 HD
ATOM     65  C   UNL A   1      44.333  32.311  29.714  1.00  0.00     0.074 A 
ATOM     66  C   UNL A   1      43.633  33.316  30.487  1.00  0.00     0.031 C 
ATOM     67  C   UNL A   1      45.612  32.437  29.278  1.00  0.00     0.034 A 
BRANCH  54  68
ATOM     68  C   UNL A   1      47.663  27.535  26.072  1.00  0.00     0.023 A 
ATOM     69  C   UNL A   1      48.684  26.866  26.770  1.00  0.00     0.031 A 
ATOM     70  C   UNL A   1      47.751  27.581  24.669  1.00  0.00     0.131 A 
ATOM     71  C   UNL A   1      49.785  26.343  26.074  1.00  0.00     0.055 A 
ATOM     72  C   UNL A   1      48.804  26.981  23.975  1.00  0.00     0.041 A 
ATOM     73  F   UNL A   1      46.818  28.221  23.946  1.00  0.00    -0.206 F 
ATOM     74  C   UNL A   1      49.839  26.372  24.679  1.00  0.00     0.022 A 
BRANCH  71  75
ATOM     75  S   UNL A   1      51.215  25.763  27.026  1.00  0.00     0.124 S 
ATOM     76  O   UNL A   1      52.048  26.963  27.067  1.00  0.00    -0.237 OA
ATOM     77  O   UNL A   1      50.611  25.361  28.290  1.00  0.00    -0.237 OA
ATOM     78  O   UNL A   1      51.749  24.673  26.213  1.00  0.00    -0.744 OA
ENDBRANCH  71  75
ENDBRANCH  54  68
BRANCH  55  79
ATOM     79  C   UNL A   1      39.894  31.440  31.040  1.00  0.00     0.023 A 
ATOM     80  C   UNL A   1      39.797  31.231  32.425  1.00  0.00     0.031 A 
ATOM     81  C   UNL A   1      38.861  32.159  30.410  1.00  0.00     0.131 A 
ATOM     82  C   UNL A   1      38.672  31.691  33.127  1.00  0.00     0.055 A 
ATOM     83  C   UNL A   1      37.775  32.668  31.123  1.00  0.00     0.041 A 
ATOM     84  F   UNL A   1      38.900  32.388  29.088  1.00  0.00    -0.206 F 
ATOM     85  C   UNL A   1      37.667  32.422  32.488  1.00  0.00     0.022 A 
BRANCH  82  86
ATOM     86  S   UNL A   1      38.490  31.235  34.873  1.00  0.00     0.124 S 
ATOM     87  O   UNL A   1      39.816  31.540  35.398  1.00  0.00    -0.237 OA
ATOM     88  O   UNL A   1      37.409  32.114  35.306  1.00  0.00    -0.237 OA
ATOM     89  O   UNL A   1      38.152  29.814  34.819  1.00  0.00    -0.744 OA
ENDBRANCH  82  86
ENDBRANCH  55  79
BRANCH  67  90
ATOM     90  C   UNL A   1      46.322  33.736  29.584  1.00  0.00     0.023 A 
ATOM     91  C   UNL A   1      46.317  34.817  28.685  1.00  0.00     0.031 A 
ATOM     92  C   UNL A   1      47.024  33.888  30.794  1.00  0.00     0.131 A 
ATOM     93  C   UNL A   1      47.047  35.978  28.982  1.00  0.00     0.055 A 
ATOM     94  C   UNL A   1      47.693  35.071  31.114  1.00  0.00     0.041 A 
ATOM     95  F   UNL A   1      47.069  32.889  31.689  1.00  0.00    -0.206 F 
ATOM     96  C   UNL A   1      47.718  36.120  30.199  1.00  0.00     0.022 A 
BRANCH  93  97
ATOM     97  S   UNL A   1      47.191  37.266  27.713  1.00  0.00     0.124 S 
ATOM     98  O   UNL A   1      46.221  38.255  28.171  1.00  0.00    -0.237 OA
ATOM     99  O   UNL A   1      48.595  37.653  27.819  1.00  0.00    -0.237 OA
ATOM    100  O   UNL A   1      46.834  36.572  26.476  1.00  0.00    -0.744 OA
ENDBRANCH  93  97
ENDBRANCH  67  90
ENDBRANCH  41  42
ENDBRANCH  33  36
ENDBRANCH  31  32
ENDBRANCH  30  31
ENDBRANCH  29  30
ENDBRANCH   1  29
TORSDOF 20
ENDMDL
MODEL 2
REMARK VINA RESULT:     -11.0      2.047      7.509
REMARK SMILES O=C(COc1ccc(/C=C/C(=O)c2ccc(F)cc2F)cc1[N+](=O)[O-])NCCCCNC(=O)c1ccc(-c2c3nc(c(-c4cc(S(=O)(=O)[O-])ccc4F)c4ccc([nH]4)c(-c4cc(S(=O)(=O)[O-])ccc4F)c4nc(c(-c5cc(S(=O)(=O)[O-])ccc5F)c5ccc2[nH]5)C=C4)C=C3)cc1
REMARK SMILES IDX 27 1 26 2 1 3 2 4 3 6 4 7 5 8 6 9 22 10 7 11 21 12 8 13
REMARK SMILES IDX 23 14 24 15 25 16 9 17 10 18 11 19 12 20 13 21 14 22 19 23
REMARK SMILES IDX 15 24 18 25 20 26 16 27 17 28 28 29 29 30 30 31 31 32 32 33
REMARK SMILES IDX 33 35 34 36 35 37 96 38 36 39 95 40 37 41 38 42 39 43 89 44
REMARK SMILES IDX 40 45 94 46 88 47 90 48 41 49 93 50 87 51 86 52 42 54 74 55
REMARK SMILES IDX 54 56 73 57 55 58 58 59 72 60 91 61 56 62 57 63 71 65 92 66
REMARK SMILES IDX 59 67 43 68 44 69 52 70 45 71 51 72 53 73 50 74 46 75 47 76
REMARK SMILES IDX 48 77 49 78 75 79 76 80 84 81 77 82 83 83 85 84 82 85 78 86
REMARK SMILES IDX 79 87 80 88 81 89 60 90 61 91 69 92 62 93 68 94 70 95 67 96
REMARK SMILES IDX 63 97 64 98 65 99 66 100
REMARK H PARENT 26 5 31 34 90 53 58 64
REMARK Flexibility Score: inf
ROOT
ATOM      1  C   UNL A   1      33.099  22.818  25.211  1.00  0.00     0.116 C 
ENDROOT
BRANCH   1   2
ATOM      2  N   UNL A   1      31.966  23.718  25.050  1.00  0.00    -0.353 N 
ATOM      3  O   UNL A   1      31.370  23.819  27.275  1.00  0.00    -0.271 OA
ATOM      4  C   UNL A   1      31.282  24.248  26.128  1.00  0.00     0.257 C 
ATOM      5  H   UNL A   1      31.676  23.957  24.140  1.00  0.00     0.163 HD
BRANCH   4   6
ATOM      6  C   UNL A   1      30.391  25.453  25.786  1.00  0.00     0.329 C 
BRANCH   6   7
ATOM      7  O   UNL A   1      31.000  26.416  24.917  1.00  0.00    -0.477 OA
BRANCH   7   8
ATOM      8  C   UNL A   1      31.818  27.304  25.564  1.00  0.00     0.197 A 
ATOM      9  C   UNL A   1      31.490  27.685  26.869  1.00  0.00     0.054 A 
ATOM     10  C   UNL A   1      32.876  27.969  24.947  1.00  0.00     0.311 A 
ATOM     11  C   UNL A   1      32.231  28.684  27.536  1.00  0.00     0.012 A 
ATOM     12  C   UNL A   1      33.654  28.916  25.615  1.00  0.00     0.098 A 
ATOM     13  C   UNL A   1      33.322  29.303  26.913  1.00  0.00    -0.018 A 
BRANCH  10  14
ATOM     14  N   UNL A   1      33.112  27.863  23.532  1.00  0.00     0.066 N 
ATOM     15  O   UNL A   1      33.798  26.907  23.146  1.00  0.00    -0.258 OA
ATOM     16  O   UNL A   1      32.673  28.777  22.820  1.00  0.00    -0.258 OA
ENDBRANCH  10  14
BRANCH  13  17
ATOM     17  C   UNL A   1      34.153  30.369  27.487  1.00  0.00     0.012 C 
ATOM     18  C   UNL A   1      33.758  31.623  27.744  1.00  0.00     0.053 C 
BRANCH  18  19
ATOM     19  C   UNL A   1      34.708  32.682  28.189  1.00  0.00     0.188 C 
ATOM     20  O   UNL A   1      35.902  32.582  27.915  1.00  0.00    -0.289 OA
BRANCH  19  21
ATOM     21  C   UNL A   1      34.230  33.872  28.934  1.00  0.00     0.058 A 
ATOM     22  C   UNL A   1      33.888  35.020  28.207  1.00  0.00     0.018 A 
ATOM     23  C   UNL A   1      34.147  33.897  30.330  1.00  0.00     0.137 A 
ATOM     24  C   UNL A   1      33.426  36.158  28.874  1.00  0.00     0.040 A 
ATOM     25  C   UNL A   1      33.689  35.030  30.999  1.00  0.00     0.079 A 
ATOM     26  F   UNL A   1      34.511  32.834  31.061  1.00  0.00    -0.206 F 
ATOM     27  C   UNL A   1      33.327  36.150  30.263  1.00  0.00     0.126 A 
ATOM     28  F   UNL A   1      32.880  37.241  30.896  1.00  0.00    -0.207 F 
ENDBRANCH  19  21
ENDBRANCH  18  19
ENDBRANCH  13  17
ENDBRANCH   7   8
ENDBRANCH   6   7
ENDBRANCH   4   6
ENDBRANCH   1   2
BRANCH   1  29
ATOM     29  C   UNL A   1      34.452  23.510  25.324  1.00  0.00     0.023 C 
BRANCH  29  30
ATOM     30  C   UNL A   1      35.486  23.136  24.260  1.00  0.00     0.023 C 
BRANCH  30  31
ATOM     31  C   UNL A   1      36.954  23.287  24.656  1.00  0.00     0.116 C 
BRANCH  31  32
ATOM     32  N   UNL A   1      37.507  22.094  25.278  1.00  0.00    -0.352 N 
ATOM     33  C   UNL A   1      38.610  21.939  26.089  1.00  0.00     0.251 C 
ATOM     34  H   UNL A   1      37.013  21.264  25.088  1.00  0.00     0.163 HD
ATOM     35  O   UNL A   1      38.982  20.809  26.385  1.00  0.00    -0.269 OA
BRANCH  33  36
ATOM     36  C   UNL A   1      39.371  23.117  26.575  1.00  0.00     0.039 A 
ATOM     37  C   UNL A   1      40.654  22.920  27.095  1.00  0.00     0.014 A 
ATOM     38  C   UNL A   1      38.829  24.404  26.546  1.00  0.00     0.014 A 
ATOM     39  C   UNL A   1      41.421  24.018  27.503  1.00  0.00     0.010 A 
ATOM     40  C   UNL A   1      39.623  25.504  26.882  1.00  0.00     0.010 A 
ATOM     41  C   UNL A   1      40.931  25.327  27.356  1.00  0.00    -0.014 A 
BRANCH  41  42
ATOM     42  C   UNL A   1      41.778  26.511  27.678  1.00  0.00     0.031 A 
ATOM     43  C   UNL A   1      41.236  27.632  28.523  1.00  0.00     0.074 A 
ATOM     44  C   UNL A   1      43.021  26.605  27.159  1.00  0.00     0.049 A 
ATOM     45  N   UNL A   1      41.793  28.773  28.843  1.00  0.00    -0.248 NA
ATOM     46  C   UNL A   1      39.877  27.458  29.055  1.00  0.00     0.031 C 
ATOM     47  C   UNL A   1      43.654  25.603  26.299  1.00  0.00     0.029 A 
ATOM     48  N   UNL A   1      43.972  27.591  27.270  1.00  0.00    -0.354 N 
ATOM     49  C   UNL A   1      40.852  29.456  29.608  1.00  0.00     0.074 A 
ATOM     50  C   UNL A   1      39.667  28.625  29.646  1.00  0.00     0.031 C 
ATOM     51  C   UNL A   1      44.893  26.013  25.982  1.00  0.00     0.029 A 
ATOM     52  C   UNL A   1      45.127  27.329  26.567  1.00  0.00     0.049 A 
ATOM     53  H   UNL A   1      43.839  28.408  27.802  1.00  0.00     0.167 HD
ATOM     54  C   UNL A   1      40.972  30.653  30.236  1.00  0.00     0.034 A 
ATOM     55  C   UNL A   1      46.242  28.069  26.397  1.00  0.00     0.034 A 
ATOM     56  C   UNL A   1      42.161  31.471  30.192  1.00  0.00     0.049 A 
ATOM     57  C   UNL A   1      46.335  29.418  27.067  1.00  0.00     0.074 A 
ATOM     58  C   UNL A   1      42.403  32.676  30.830  1.00  0.00     0.029 A 
ATOM     59  N   UNL A   1      43.306  31.179  29.460  1.00  0.00    -0.354 N 
ATOM     60  N   UNL A   1      45.451  30.027  27.824  1.00  0.00    -0.248 NA
ATOM     61  C   UNL A   1      47.578  30.173  26.867  1.00  0.00     0.031 C 
ATOM     62  C   UNL A   1      43.655  33.148  30.424  1.00  0.00     0.029 A 
ATOM     63  C   UNL A   1      44.238  32.197  29.602  1.00  0.00     0.049 A 
ATOM     64  H   UNL A   1      43.436  30.367  28.919  1.00  0.00     0.167 HD
ATOM     65  C   UNL A   1      46.049  31.222  28.218  1.00  0.00     0.074 A 
ATOM     66  C   UNL A   1      47.371  31.238  27.627  1.00  0.00     0.031 C 
ATOM     67  C   UNL A   1      45.551  32.213  29.001  1.00  0.00     0.034 A 
BRANCH  54  68
ATOM     68  C   UNL A   1      39.772  31.161  31.003  1.00  0.00     0.023 A 
ATOM     69  C   UNL A   1      39.734  31.150  32.409  1.00  0.00     0.031 A 
ATOM     70  C   UNL A   1      38.641  31.646  30.321  1.00  0.00     0.131 A 
ATOM     71  C   UNL A   1      38.566  31.538  33.083  1.00  0.00     0.055 A 
ATOM     72  C   UNL A   1      37.514  32.114  31.001  1.00  0.00     0.041 A 
ATOM     73  F   UNL A   1      38.607  31.663  28.979  1.00  0.00    -0.206 F 
ATOM     74  C   UNL A   1      37.465  32.046  32.389  1.00  0.00     0.022 A 
BRANCH  71  75
ATOM     75  S   UNL A   1      38.450  31.225  34.865  1.00  0.00     0.124 S 
ATOM     76  O   UNL A   1      38.035  29.824  34.892  1.00  0.00    -0.237 OA
ATOM     77  O   UNL A   1      39.807  31.499  35.322  1.00  0.00    -0.237 OA
ATOM     78  O   UNL A   1      37.434  32.175  35.315  1.00  0.00    -0.744 OA
ENDBRANCH  71  75
ENDBRANCH  54  68
BRANCH  55  79
ATOM     79  C   UNL A   1      47.358  27.570  25.540  1.00  0.00     0.023 A 
ATOM     80  C   UNL A   1      47.465  27.948  24.192  1.00  0.00     0.031 A 
ATOM     81  C   UNL A   1      48.309  26.664  26.046  1.00  0.00     0.131 A 
ATOM     82  C   UNL A   1      48.465  27.386  23.383  1.00  0.00     0.055 A 
ATOM     83  C   UNL A   1      49.339  26.156  25.253  1.00  0.00     0.041 A 
ATOM     84  F   UNL A   1      48.255  26.267  27.327  1.00  0.00    -0.206 F 
ATOM     85  C   UNL A   1      49.413  26.504  23.909  1.00  0.00     0.022 A 
BRANCH  82  86
ATOM     86  S   UNL A   1      48.451  27.748  21.606  1.00  0.00     0.124 S 
ATOM     87  O   UNL A   1      47.106  28.282  21.423  1.00  0.00    -0.237 OA
ATOM     88  O   UNL A   1      49.545  28.705  21.483  1.00  0.00    -0.237 OA
ATOM     89  O   UNL A   1      48.693  26.444  20.992  1.00  0.00    -0.744 OA
ENDBRANCH  82  86
ENDBRANCH  55  79
BRANCH  67  90
ATOM     90  C   UNL A   1      46.465  33.377  29.307  1.00  0.00     0.023 A 
ATOM     91  C   UNL A   1      47.322  33.378  30.422  1.00  0.00     0.031 A 
ATOM     92  C   UNL A   1      46.469  34.509  28.472  1.00  0.00     0.131 A 
ATOM     93  C   UNL A   1      48.103  34.510  30.704  1.00  0.00     0.055 A 
ATOM     94  C   UNL A   1      47.297  35.605  28.720  1.00  0.00     0.041 A 
ATOM     95  F   UNL A   1      45.668  34.569  27.396  1.00  0.00    -0.206 F 
ATOM     96  C   UNL A   1      48.110  35.616  29.850  1.00  0.00     0.022 A 
BRANCH  93  97
ATOM     97  S   UNL A   1      49.035  34.561  32.259  1.00  0.00     0.124 S 
ATOM     98  O   UNL A   1      49.182  35.997  32.477  1.00  0.00    -0.237 OA
ATOM     99  O   UNL A   1      48.144  33.864  33.180  1.00  0.00    -0.237 OA
ATOM    100  O   UNL A   1      50.273  33.851  31.941  1.00  0.00    -0.744 OA
ENDBRANCH  93  97
ENDBRANCH  67  90
ENDBRANCH  41  42
ENDBRANCH  33  36
ENDBRANCH  31  32
ENDBRANCH  30  31
ENDBRANCH  29  30
ENDBRANCH   1  29
TORSDOF 20
ENDMDL
MODEL 3
REMARK VINA RESULT:     -11.0      5.961      9.588
REMARK SMILES O=C(COc1ccc(/C=C/C(=O)c2ccc(F)cc2F)cc1[N+](=O)[O-])NCCCCNC(=O)c1ccc(-c2c3nc(c(-c4cc(S(=O)(=O)[O-])ccc4F)c4ccc([nH]4)c(-c4cc(S(=O)(=O)[O-])ccc4F)c4nc(c(-c5cc(S(=O)(=O)[O-])ccc5F)c5ccc2[nH]5)C=C4)C=C3)cc1
REMARK SMILES IDX 27 1 26 2 1 3 2 4 3 6 4 7 5 8 6 9 22 10 7 11 21 12 8 13
REMARK SMILES IDX 23 14 24 15 25 16 9 17 10 18 11 19 12 20 13 21 14 22 19 23
REMARK SMILES IDX 15 24 18 25 20 26 16 27 17 28 28 29 29 30 30 31 31 32 32 33
REMARK SMILES IDX 33 35 34 36 35 37 96 38 36 39 95 40 37 41 38 42 39 43 89 44
REMARK SMILES IDX 40 45 94 46 88 47 90 48 41 49 93 50 87 51 86 52 42 54 74 55
REMARK SMILES IDX 54 56 73 57 55 58 58 59 72 60 91 61 56 62 57 63 71 65 92 66
REMARK SMILES IDX 59 67 43 68 44 69 52 70 45 71 51 72 53 73 50 74 46 75 47 76
REMARK SMILES IDX 48 77 49 78 75 79 76 80 84 81 77 82 83 83 85 84 82 85 78 86
REMARK SMILES IDX 79 87 80 88 81 89 60 90 61 91 69 92 62 93 68 94 70 95 67 96
REMARK SMILES IDX 63 97 64 98 65 99 66 100
REMARK H PARENT 26 5 31 34 90 53 58 64
REMARK Flexibility Score: inf
ROOT
ATOM      1  C   UNL A   1      33.905  30.818  27.324  1.00  0.00     0.116 C 
ENDROOT
BRANCH   1   2
ATOM      2  N   UNL A   1      33.886  29.914  26.183  1.00  0.00    -0.353 N 
ATOM      3  O   UNL A   1      31.612  29.982  25.809  1.00  0.00    -0.271 OA
ATOM      4  C   UNL A   1      32.744  29.684  25.439  1.00  0.00     0.257 C 
ATOM      5  H   UNL A   1      34.717  29.449  25.932  1.00  0.00     0.163 HD
BRANCH   4   6
ATOM      6  C   UNL A   1      32.996  29.026  24.072  1.00  0.00     0.329 C 
BRANCH   6   7
ATOM      7  O   UNL A   1      32.117  27.936  23.765  1.00  0.00    -0.477 OA
BRANCH   7   8
ATOM      8  C   UNL A   1      32.662  26.703  24.010  1.00  0.00     0.197 A 
ATOM      9  C   UNL A   1      32.760  26.268  25.335  1.00  0.00     0.054 A 
ATOM     10  C   UNL A   1      33.263  25.917  23.029  1.00  0.00     0.311 A 
ATOM     11  C   UNL A   1      33.419  25.060  25.650  1.00  0.00     0.012 A 
ATOM     12  C   UNL A   1      33.867  24.692  23.319  1.00  0.00     0.098 A 
ATOM     13  C   UNL A   1      33.973  24.262  24.641  1.00  0.00    -0.018 A 
BRANCH  10  14
ATOM     14  N   UNL A   1      33.471  26.406  21.692  1.00  0.00     0.066 N 
ATOM     15  O   UNL A   1      33.054  25.699  20.764  1.00  0.00    -0.258 OA
ATOM     16  O   UNL A   1      34.113  27.457  21.572  1.00  0.00    -0.258 OA
ENDBRANCH  10  14
BRANCH  13  17
ATOM     17  C   UNL A   1      34.703  23.004  24.840  1.00  0.00     0.012 C 
ATOM     18  C   UNL A   1      34.272  21.781  24.501  1.00  0.00     0.053 C 
BRANCH  18  19
ATOM     19  C   UNL A   1      35.014  20.543  24.875  1.00  0.00     0.188 C 
ATOM     20  O   UNL A   1      36.174  20.626  25.270  1.00  0.00    -0.289 OA
BRANCH  19  21
ATOM     21  C   UNL A   1      34.363  19.213  24.803  1.00  0.00     0.058 A 
ATOM     22  C   UNL A   1      35.146  18.107  24.443  1.00  0.00     0.018 A 
ATOM     23  C   UNL A   1      32.997  19.033  25.043  1.00  0.00     0.137 A 
ATOM     24  C   UNL A   1      34.570  16.837  24.372  1.00  0.00     0.040 A 
ATOM     25  C   UNL A   1      32.418  17.769  24.972  1.00  0.00     0.079 A 
ATOM     26  F   UNL A   1      32.208  20.075  25.343  1.00  0.00    -0.206 F 
ATOM     27  C   UNL A   1      33.213  16.679  24.642  1.00  0.00     0.126 A 
ATOM     28  F   UNL A   1      32.666  15.459  24.577  1.00  0.00    -0.207 F 
ENDBRANCH  19  21
ENDBRANCH  18  19
ENDBRANCH  13  17
ENDBRANCH   7   8
ENDBRANCH   6   7
ENDBRANCH   4   6
ENDBRANCH   1   2
BRANCH   1  29
ATOM     29  C   UNL A   1      35.276  31.014  27.959  1.00  0.00     0.023 C 
BRANCH  29  30
ATOM     30  C   UNL A   1      36.246  29.837  27.834  1.00  0.00     0.023 C 
BRANCH  30  31
ATOM     31  C   UNL A   1      36.932  29.382  29.122  1.00  0.00     0.116 C 
BRANCH  31  32
ATOM     32  N   UNL A   1      36.337  29.950  30.321  1.00  0.00    -0.352 N 
ATOM     33  C   UNL A   1      36.819  30.018  31.610  1.00  0.00     0.251 C 
ATOM     34  H   UNL A   1      35.446  30.348  30.190  1.00  0.00     0.163 HD
ATOM     35  O   UNL A   1      36.081  30.414  32.505  1.00  0.00    -0.269 OA
BRANCH  33  36
ATOM     36  C   UNL A   1      38.202  29.586  31.931  1.00  0.00     0.039 A 
ATOM     37  C   UNL A   1      38.441  28.232  32.184  1.00  0.00     0.014 A 
ATOM     38  C   UNL A   1      39.257  30.498  32.009  1.00  0.00     0.014 A 
ATOM     39  C   UNL A   1      39.745  27.783  32.428  1.00  0.00     0.010 A 
ATOM     40  C   UNL A   1      40.567  30.039  32.176  1.00  0.00     0.010 A 
ATOM     41  C   UNL A   1      40.828  28.676  32.379  1.00  0.00    -0.014 A 
BRANCH  41  42
ATOM     42  C   UNL A   1      42.233  28.196  32.522  1.00  0.00     0.031 A 
ATOM     43  C   UNL A   1      43.046  27.836  31.308  1.00  0.00     0.074 A 
ATOM     44  C   UNL A   1      42.760  28.028  33.754  1.00  0.00     0.049 A 
ATOM     45  N   UNL A   1      44.252  27.330  31.237  1.00  0.00    -0.248 NA
ATOM     46  C   UNL A   1      42.408  28.049  30.001  1.00  0.00     0.031 C 
ATOM     47  C   UNL A   1      42.068  28.309  35.013  1.00  0.00     0.029 A 
ATOM     48  N   UNL A   1      43.994  27.573  34.151  1.00  0.00    -0.354 N 
ATOM     49  C   UNL A   1      44.514  27.157  29.881  1.00  0.00     0.074 A 
ATOM     50  C   UNL A   1      43.315  27.553  29.173  1.00  0.00     0.031 C 
ATOM     51  C   UNL A   1      42.893  28.045  36.039  1.00  0.00     0.029 A 
ATOM     52  C   UNL A   1      44.153  27.524  35.518  1.00  0.00     0.049 A 
ATOM     53  H   UNL A   1      44.699  27.306  33.518  1.00  0.00     0.167 HD
ATOM     54  C   UNL A   1      45.655  26.728  29.282  1.00  0.00     0.034 A 
ATOM     55  C   UNL A   1      45.186  27.093  36.271  1.00  0.00     0.034 A 
ATOM     56  C   UNL A   1      46.845  26.339  30.001  1.00  0.00     0.049 A 
ATOM     57  C   UNL A   1      46.427  26.577  35.584  1.00  0.00     0.074 A 
ATOM     58  C   UNL A   1      48.067  25.935  29.490  1.00  0.00     0.029 A 
ATOM     59  N   UNL A   1      46.963  26.291  31.385  1.00  0.00    -0.354 N 
ATOM     60  N   UNL A   1      46.673  26.463  34.299  1.00  0.00    -0.248 NA
ATOM     61  C   UNL A   1      47.530  26.141  36.449  1.00  0.00     0.031 C 
ATOM     62  C   UNL A   1      48.893  25.569  30.557  1.00  0.00     0.029 A 
ATOM     63  C   UNL A   1      48.223  25.829  31.742  1.00  0.00     0.049 A 
ATOM     64  H   UNL A   1      46.256  26.547  32.020  1.00  0.00     0.167 HD
ATOM     65  C   UNL A   1      47.974  25.975  34.205  1.00  0.00     0.074 A 
ATOM     66  C   UNL A   1      48.462  25.831  35.561  1.00  0.00     0.031 C 
ATOM     67  C   UNL A   1      48.700  25.677  33.097  1.00  0.00     0.034 A 
BRANCH  54  68
ATOM     68  C   UNL A   1      45.656  26.633  27.774  1.00  0.00     0.023 A 
ATOM     69  C   UNL A   1      45.537  25.399  27.110  1.00  0.00     0.031 A 
ATOM     70  C   UNL A   1      45.794  27.789  26.985  1.00  0.00     0.131 A 
ATOM     71  C   UNL A   1      45.640  25.340  25.712  1.00  0.00     0.055 A 
ATOM     72  C   UNL A   1      45.807  27.734  25.590  1.00  0.00     0.041 A 
ATOM     73  F   UNL A   1      45.932  28.996  27.558  1.00  0.00    -0.206 F 
ATOM     74  C   UNL A   1      45.747  26.502  24.945  1.00  0.00     0.022 A 
BRANCH  71  75
ATOM     75  S   UNL A   1      45.787  23.714  24.922  1.00  0.00     0.124 S 
ATOM     76  O   UNL A   1      44.412  23.473  24.488  1.00  0.00    -0.237 OA
ATOM     77  O   UNL A   1      46.756  23.965  23.863  1.00  0.00    -0.237 OA
ATOM     78  O   UNL A   1      46.251  22.848  26.003  1.00  0.00    -0.744 OA
ENDBRANCH  71  75
ENDBRANCH  54  68
BRANCH  55  79
ATOM     79  C   UNL A   1      45.095  27.107  37.761  1.00  0.00     0.023 A 
ATOM     80  C   UNL A   1      45.511  28.223  38.504  1.00  0.00     0.031 A 
ATOM     81  C   UNL A   1      44.636  25.980  38.469  1.00  0.00     0.131 A 
ATOM     82  C   UNL A   1      45.508  28.173  39.907  1.00  0.00     0.055 A 
ATOM     83  C   UNL A   1      44.577  25.958  39.863  1.00  0.00     0.041 A 
ATOM     84  F   UNL A   1      44.226  24.885  37.811  1.00  0.00    -0.206 F 
ATOM     85  C   UNL A   1      45.029  27.053  40.592  1.00  0.00     0.022 A 
BRANCH  82  86
ATOM     86  S   UNL A   1      46.234  29.557  40.828  1.00  0.00     0.124 S 
ATOM     87  O   UNL A   1      47.474  29.783  40.094  1.00  0.00    -0.237 OA
ATOM     88  O   UNL A   1      45.207  30.584  40.689  1.00  0.00    -0.237 OA
ATOM     89  O   UNL A   1      46.397  29.019  42.177  1.00  0.00    -0.744 OA
ENDBRANCH  82  86
ENDBRANCH  55  79
BRANCH  67  90
ATOM     90  C   UNL A   1      50.123  25.214  33.307  1.00  0.00     0.023 A 
ATOM     91  C   UNL A   1      50.493  23.863  33.184  1.00  0.00     0.031 A 
ATOM     92  C   UNL A   1      51.124  26.143  33.647  1.00  0.00     0.131 A 
ATOM     93  C   UNL A   1      51.813  23.470  33.456  1.00  0.00     0.055 A 
ATOM     94  C   UNL A   1      52.450  25.756  33.851  1.00  0.00     0.041 A 
ATOM     95  F   UNL A   1      50.831  27.446  33.784  1.00  0.00    -0.206 F 
ATOM     96  C   UNL A   1      52.798  24.410  33.769  1.00  0.00     0.022 A 
BRANCH  93  97
ATOM     97  S   UNL A   1      52.206  21.700  33.494  1.00  0.00     0.124 S 
ATOM     98  O   UNL A   1      51.999  21.313  32.102  1.00  0.00    -0.237 OA
ATOM     99  O   UNL A   1      53.590  21.698  33.958  1.00  0.00    -0.237 OA
ATOM    100  O   UNL A   1      51.236  21.153  34.441  1.00  0.00    -0.744 OA
ENDBRANCH  93  97
ENDBRANCH  67  90
ENDBRANCH  41  42
ENDBRANCH  33  36
ENDBRANCH  31  32
ENDBRANCH  30  31
ENDBRANCH  29  30
ENDBRANCH   1  29
TORSDOF 20
ENDMDL
