MODEL 1
REMARK VINA RESULT:     -12.6      0.000      0.000
REMARK SMILES O=C(NCCCCNC(=O)[C@@H]1[C@H](C(=O)Nc2cccc(Cl)c2F)[C@@H]2C=C[C@H]1C2)c1ccc(-c2c3nc(c(-c4cc(S(=O)(=O)[O-])ccc4F)c4ccc([nH]4)c(-c4cc(S(=O)(=O)[O-])ccc4F)c4nc(c(-c5cc(S(=O)(=O)[O-])ccc5F)c5ccc2[nH]5)C=C4)C=C3)cc1
REMARK SMILES IDX 5 1 4 2 3 3 1 4 2 5 29 7 30 8 91 9 31 10 90 11 32 12 33 13
REMARK SMILES IDX 34 14 84 15 35 16 89 17 83 18 85 19 36 20 88 21 82 22 81 23
REMARK SMILES IDX 37 25 69 26 49 27 68 28 50 29 53 30 67 31 86 32 51 33 52 34
REMARK SMILES IDX 66 36 87 37 54 38 38 39 39 40 47 41 40 42 46 43 48 44 45 45
REMARK SMILES IDX 41 46 42 47 43 48 44 49 70 50 71 51 79 52 72 53 78 54 80 55
REMARK SMILES IDX 77 56 73 57 74 58 75 59 76 60 55 61 56 62 64 63 57 64 63 65
REMARK SMILES IDX 65 66 62 67 58 68 59 69 60 70 61 71 6 72 7 73 8 74 9 75
REMARK SMILES IDX 10 77 11 78 12 79 27 80 24 81 26 82 28 83 25 84 13 85 14 86
REMARK SMILES IDX 15 87 16 89 17 90 22 91 18 92 20 93 23 94 19 95 21 96
REMARK H PARENT 3 6 85 24 53 35 8 76 15 88
REMARK Flexibility Score: inf
ROOT
ATOM      1  C   UNL A   1      36.632  22.258  23.873  1.00  0.00     0.023 C 
ENDROOT
BRANCH   1   2
ATOM      2  C   UNL A   1      36.899  21.935  25.337  1.00  0.00     0.116 C 
BRANCH   2   3
ATOM      3  N   UNL A   1      37.848  20.847  25.544  1.00  0.00    -0.352 N 
ATOM      4  O   UNL A   1      39.808  19.885  26.128  1.00  0.00    -0.269 OA
ATOM      5  C   UNL A   1      39.118  20.899  26.074  1.00  0.00     0.251 C 
ATOM      6  H   UNL A   1      37.537  19.955  25.268  1.00  0.00     0.163 HD
BRANCH   5   7
ATOM      7  C   UNL A   1      39.652  22.195  26.539  1.00  0.00     0.039 A 
ATOM      8  C   UNL A   1      39.099  23.390  26.076  1.00  0.00     0.014 A 
ATOM      9  C   UNL A   1      40.755  22.212  27.399  1.00  0.00     0.014 A 
ATOM     10  C   UNL A   1      39.752  24.589  26.332  1.00  0.00     0.010 A 
ATOM     11  C   UNL A   1      41.351  23.430  27.733  1.00  0.00     0.010 A 
ATOM     12  C   UNL A   1      40.877  24.627  27.174  1.00  0.00    -0.014 A 
BRANCH  12  13
ATOM     13  C   UNL A   1      41.492  25.940  27.496  1.00  0.00     0.031 A 
ATOM     14  C   UNL A   1      42.842  26.328  26.956  1.00  0.00     0.074 A 
ATOM     15  C   UNL A   1      40.788  26.802  28.257  1.00  0.00     0.049 A 
ATOM     16  N   UNL A   1      43.517  27.434  27.145  1.00  0.00    -0.248 NA
ATOM     17  C   UNL A   1      43.529  25.347  26.102  1.00  0.00     0.031 C 
ATOM     18  C   UNL A   1      39.469  26.526  28.834  1.00  0.00     0.029 A 
ATOM     19  N   UNL A   1      41.062  28.083  28.658  1.00  0.00    -0.354 N 
ATOM     20  C   UNL A   1      44.713  27.280  26.450  1.00  0.00     0.074 A 
ATOM     21  C   UNL A   1      44.680  25.959  25.857  1.00  0.00     0.031 C 
ATOM     22  C   UNL A   1      39.027  27.620  29.468  1.00  0.00     0.029 A 
ATOM     23  C   UNL A   1      40.061  28.646  29.415  1.00  0.00     0.049 A 
ATOM     24  H   UNL A   1      41.894  28.555  28.427  1.00  0.00     0.167 HD
ATOM     25  C   UNL A   1      45.735  28.163  26.318  1.00  0.00     0.034 A 
ATOM     26  C   UNL A   1      39.990  29.844  30.024  1.00  0.00     0.034 A 
ATOM     27  C   UNL A   1      45.741  29.480  26.915  1.00  0.00     0.049 A 
ATOM     28  C   UNL A   1      41.151  30.789  29.885  1.00  0.00     0.074 A 
ATOM     29  C   UNL A   1      46.716  30.461  26.831  1.00  0.00     0.029 A 
ATOM     30  N   UNL A   1      44.728  30.002  27.709  1.00  0.00    -0.354 N 
ATOM     31  N   UNL A   1      42.274  30.623  29.224  1.00  0.00    -0.248 NA
ATOM     32  C   UNL A   1      41.035  32.079  30.572  1.00  0.00     0.031 C 
ATOM     33  C   UNL A   1      46.321  31.546  27.621  1.00  0.00     0.029 A 
ATOM     34  C   UNL A   1      45.067  31.276  28.143  1.00  0.00     0.049 A 
ATOM     35  H   UNL A   1      43.891  29.535  27.932  1.00  0.00     0.167 HD
ATOM     36  C   UNL A   1      42.995  31.797  29.410  1.00  0.00     0.074 A 
ATOM     37  C   UNL A   1      42.164  32.672  30.213  1.00  0.00     0.031 C 
ATOM     38  C   UNL A   1      44.235  32.123  28.966  1.00  0.00     0.034 A 
BRANCH  25  39
ATOM     39  C   UNL A   1      46.950  27.722  25.537  1.00  0.00     0.023 A 
ATOM     40  C   UNL A   1      47.105  28.016  24.172  1.00  0.00     0.031 A 
ATOM     41  C   UNL A   1      47.978  27.003  26.175  1.00  0.00     0.131 A 
ATOM     42  C   UNL A   1      48.235  27.552  23.477  1.00  0.00     0.055 A 
ATOM     43  C   UNL A   1      49.132  26.604  25.496  1.00  0.00     0.041 A 
ATOM     44  F   UNL A   1      47.879  26.677  27.474  1.00  0.00    -0.206 F 
ATOM     45  C   UNL A   1      49.260  26.870  24.137  1.00  0.00     0.022 A 
BRANCH  42  46
ATOM     46  S   UNL A   1      48.298  27.762  21.677  1.00  0.00     0.124 S 
ATOM     47  O   UNL A   1      49.365  28.748  21.532  1.00  0.00    -0.237 OA
ATOM     48  O   UNL A   1      48.606  26.414  21.213  1.00  0.00    -0.237 OA
ATOM     49  O   UNL A   1      46.961  28.247  21.341  1.00  0.00    -0.744 OA
ENDBRANCH  42  46
ENDBRANCH  25  39
BRANCH  26  50
ATOM     50  C   UNL A   1      38.804  30.196  30.855  1.00  0.00     0.023 A 
ATOM     51  C   UNL A   1      37.728  30.916  30.317  1.00  0.00     0.031 A 
ATOM     52  C   UNL A   1      38.747  29.842  32.216  1.00  0.00     0.131 A 
ATOM     53  C   UNL A   1      36.661  31.299  31.144  1.00  0.00     0.055 A 
ATOM     54  C   UNL A   1      37.656  30.172  33.019  1.00  0.00     0.041 A 
ATOM     55  F   UNL A   1      39.748  29.149  32.781  1.00  0.00    -0.206 F 
ATOM     56  C   UNL A   1      36.612  30.920  32.487  1.00  0.00     0.022 A 
BRANCH  53  57
ATOM     57  S   UNL A   1      35.380  32.385  30.460  1.00  0.00     0.124 S 
ATOM     58  O   UNL A   1      35.051  31.710  29.211  1.00  0.00    -0.237 OA
ATOM     59  O   UNL A   1      34.360  32.339  31.504  1.00  0.00    -0.237 OA
ATOM     60  O   UNL A   1      36.064  33.669  30.318  1.00  0.00    -0.744 OA
ENDBRANCH  53  57
ENDBRANCH  26  50
BRANCH  38  61
ATOM     61  C   UNL A   1      44.738  33.496  29.332  1.00  0.00     0.023 A 
ATOM     62  C   UNL A   1      44.521  34.603  28.493  1.00  0.00     0.031 A 
ATOM     63  C   UNL A   1      45.489  33.690  30.504  1.00  0.00     0.131 A 
ATOM     64  C   UNL A   1      45.111  35.838  28.799  1.00  0.00     0.055 A 
ATOM     65  C   UNL A   1      46.020  34.937  30.837  1.00  0.00     0.041 A 
ATOM     66  F   UNL A   1      45.729  32.666  31.339  1.00  0.00    -0.206 F 
ATOM     67  C   UNL A   1      45.847  36.015  29.973  1.00  0.00     0.022 A 
BRANCH  64  68
ATOM     68  S   UNL A   1      44.999  37.180  27.584  1.00  0.00     0.124 S 
ATOM     69  O   UNL A   1      45.192  38.362  28.418  1.00  0.00    -0.237 OA
ATOM     70  O   UNL A   1      46.089  36.862  26.668  1.00  0.00    -0.237 OA
ATOM     71  O   UNL A   1      43.658  37.026  27.027  1.00  0.00    -0.744 OA
ENDBRANCH  64  68
ENDBRANCH  38  61
ENDBRANCH  12  13
ENDBRANCH   5   7
ENDBRANCH   2   3
ENDBRANCH   1   2
BRANCH   1  72
ATOM     72  C   UNL A   1      35.212  22.707  23.553  1.00  0.00     0.023 C 
BRANCH  72  73
ATOM     73  C   UNL A   1      35.028  24.205  23.330  1.00  0.00     0.116 C 
BRANCH  73  74
ATOM     74  N   UNL A   1      33.652  24.596  23.115  1.00  0.00    -0.356 N 
ATOM     75  C   UNL A   1      32.876  25.517  23.744  1.00  0.00     0.224 C 
ATOM     76  H   UNL A   1      33.199  24.111  22.388  1.00  0.00     0.163 HD
ATOM     77  O   UNL A   1      31.681  25.552  23.431  1.00  0.00    -0.275 OA
BRANCH  75  78
ATOM     78  C   UNL A   1      33.340  26.368  24.906  1.00  0.00     0.098 C 
ATOM     79  C   UNL A   1      32.498  26.258  26.221  1.00  0.00     0.099 C 
ATOM     80  C   UNL A   1      33.644  27.881  24.848  1.00  0.00     0.025 C 
ATOM     81  C   UNL A   1      32.474  27.721  26.752  1.00  0.00     0.025 C 
ATOM     82  C   UNL A   1      32.388  28.690  24.666  1.00  0.00    -0.027 C 
ATOM     83  C   UNL A   1      33.877  28.178  26.344  1.00  0.00     0.017 C 
ATOM     84  C   UNL A   1      31.715  28.634  25.823  1.00  0.00    -0.027 C 
BRANCH  79  85
ATOM     85  C   UNL A   1      31.196  25.465  26.440  1.00  0.00     0.228 C 
ATOM     86  O   UNL A   1      30.153  26.106  26.650  1.00  0.00    -0.274 OA
ATOM     87  N   UNL A   1      31.025  24.146  26.142  1.00  0.00    -0.323 N 
ATOM     88  H   UNL A   1      30.150  23.939  25.743  1.00  0.00     0.170 HD
BRANCH  87  89
ATOM     89  C   UNL A   1      31.856  23.029  26.297  1.00  0.00     0.078 A 
ATOM     90  C   UNL A   1      32.707  22.995  27.407  1.00  0.00     0.029 A 
ATOM     91  C   UNL A   1      32.017  22.064  25.303  1.00  0.00     0.165 A 
ATOM     92  C   UNL A   1      33.588  21.925  27.593  1.00  0.00     0.004 A 
ATOM     93  C   UNL A   1      32.911  21.007  25.472  1.00  0.00     0.078 A 
ATOM     94  F   UNL A   1      31.433  22.236  24.112  1.00  0.00    -0.203 F 
ATOM     95  C   UNL A   1      33.677  20.918  26.631  1.00  0.00     0.024 A 
ATOM     96  Cl  UNL A   1      33.123  19.838  24.228  1.00  0.00    -0.081 Cl
ENDBRANCH  87  89
ENDBRANCH  79  85
ENDBRANCH  75  78
ENDBRANCH  73  74
ENDBRANCH  72  73
ENDBRANCH   1  72
TORSDOF 16
ENDMDL
MODEL 2
REMARK VINA RESULT:     -12.5      5.111      7.869
REMARK SMILES O=C(NCCCCNC(=O)[C@@H]1[C@H](C(=O)Nc2cccc(Cl)c2F)[C@@H]2C=C[C@H]1C2)c1ccc(-c2c3nc(c(-c4cc(S(=O)(=O)[O-])ccc4F)c4ccc([nH]4)c(-c4cc(S(=O)(=O)[O-])ccc4F)c4nc(c(-c5cc(S(=O)(=O)[O-])ccc5F)c5ccc2[nH]5)C=C4)C=C3)cc1
REMARK SMILES IDX 5 1 4 2 3 3 1 4 2 5 29 7 30 8 91 9 31 10 90 11 32 12 33 13
REMARK SMILES IDX 34 14 84 15 35 16 89 17 83 18 85 19 36 20 88 21 82 22 81 23
REMARK SMILES IDX 37 25 69 26 49 27 68 28 50 29 53 30 67 31 86 32 51 33 52 34
REMARK SMILES IDX 66 36 87 37 54 38 38 39 39 40 47 41 40 42 46 43 48 44 45 45
REMARK SMILES IDX 41 46 42 47 43 48 44 49 70 50 71 51 79 52 72 53 78 54 80 55
REMARK SMILES IDX 77 56 73 57 74 58 75 59 76 60 55 61 56 62 64 63 57 64 63 65
REMARK SMILES IDX 65 66 62 67 58 68 59 69 60 70 61 71 6 72 7 73 8 74 9 75
REMARK SMILES IDX 10 77 11 78 12 79 27 80 24 81 26 82 28 83 25 84 13 85 14 86
REMARK SMILES IDX 15 87 16 89 17 90 22 91 18 92 20 93 23 94 19 95 21 96
REMARK H PARENT 3 6 85 24 53 35 8 76 15 88
REMARK Flexibility Score: inf
ROOT
ATOM      1  C   UNL A   1      31.693  28.815  27.115  1.00  0.00     0.023 C 
ENDROOT
BRANCH   1   2
ATOM      2  C   UNL A   1      32.524  29.730  26.226  1.00  0.00     0.116 C 
BRANCH   2   3
ATOM      3  N   UNL A   1      32.306  31.152  26.464  1.00  0.00    -0.352 N 
ATOM      4  O   UNL A   1      32.722  33.200  27.325  1.00  0.00    -0.269 OA
ATOM      5  C   UNL A   1      33.083  32.036  27.178  1.00  0.00     0.251 C 
ATOM      6  H   UNL A   1      31.493  31.531  26.059  1.00  0.00     0.163 HD
BRANCH   5   7
ATOM      7  C   UNL A   1      34.337  31.557  27.796  1.00  0.00     0.039 A 
ATOM      8  C   UNL A   1      34.472  30.218  28.163  1.00  0.00     0.014 A 
ATOM      9  C   UNL A   1      35.361  32.471  28.064  1.00  0.00     0.014 A 
ATOM     10  C   UNL A   1      35.550  29.830  28.949  1.00  0.00     0.010 A 
ATOM     11  C   UNL A   1      36.491  32.054  28.772  1.00  0.00     0.010 A 
ATOM     12  C   UNL A   1      36.579  30.738  29.251  1.00  0.00    -0.014 A 
BRANCH  12  13
ATOM     13  C   UNL A   1      37.759  30.261  30.017  1.00  0.00     0.031 A 
ATOM     14  C   UNL A   1      38.796  29.370  29.388  1.00  0.00     0.074 A 
ATOM     15  C   UNL A   1      37.903  30.682  31.290  1.00  0.00     0.049 A 
ATOM     16  N   UNL A   1      39.880  28.867  29.920  1.00  0.00    -0.248 NA
ATOM     17  C   UNL A   1      38.585  28.986  27.984  1.00  0.00     0.031 C 
ATOM     18  C   UNL A   1      36.955  31.547  31.999  1.00  0.00     0.029 A 
ATOM     19  N   UNL A   1      38.900  30.466  32.205  1.00  0.00    -0.354 N 
ATOM     20  C   UNL A   1      40.476  28.095  28.927  1.00  0.00     0.074 A 
ATOM     21  C   UNL A   1      39.614  28.177  27.766  1.00  0.00     0.031 C 
ATOM     22  C   UNL A   1      37.440  31.830  33.215  1.00  0.00     0.029 A 
ATOM     23  C   UNL A   1      38.689  31.104  33.405  1.00  0.00     0.049 A 
ATOM     24  H   UNL A   1      39.690  29.909  32.021  1.00  0.00     0.167 HD
ATOM     25  C   UNL A   1      41.636  27.391  28.983  1.00  0.00     0.034 A 
ATOM     26  C   UNL A   1      39.405  31.087  34.545  1.00  0.00     0.034 A 
ATOM     27  C   UNL A   1      42.484  27.331  30.152  1.00  0.00     0.049 A 
ATOM     28  C   UNL A   1      40.669  30.274  34.585  1.00  0.00     0.074 A 
ATOM     29  C   UNL A   1      43.687  26.664  30.311  1.00  0.00     0.029 A 
ATOM     30  N   UNL A   1      42.219  27.956  31.364  1.00  0.00    -0.354 N 
ATOM     31  N   UNL A   1      41.214  29.549  33.634  1.00  0.00    -0.248 NA
ATOM     32  C   UNL A   1      41.413  30.277  35.849  1.00  0.00     0.031 C 
ATOM     33  C   UNL A   1      44.117  26.834  31.632  1.00  0.00     0.029 A 
ATOM     34  C   UNL A   1      43.220  27.667  32.281  1.00  0.00     0.049 A 
ATOM     35  H   UNL A   1      41.434  28.522  31.546  1.00  0.00     0.167 HD
ATOM     36  C   UNL A   1      42.374  29.017  34.186  1.00  0.00     0.074 A 
ATOM     37  C   UNL A   1      42.465  29.534  35.538  1.00  0.00     0.031 C 
ATOM     38  C   UNL A   1      43.279  28.171  33.633  1.00  0.00     0.034 A 
BRANCH  25  39
ATOM     39  C   UNL A   1      42.034  26.595  27.763  1.00  0.00     0.023 A 
ATOM     40  C   UNL A   1      41.729  25.229  27.632  1.00  0.00     0.031 A 
ATOM     41  C   UNL A   1      42.722  27.218  26.704  1.00  0.00     0.131 A 
ATOM     42  C   UNL A   1      42.153  24.521  26.496  1.00  0.00     0.055 A 
ATOM     43  C   UNL A   1      43.080  26.525  25.546  1.00  0.00     0.041 A 
ATOM     44  F   UNL A   1      43.057  28.517  26.779  1.00  0.00    -0.206 F 
ATOM     45  C   UNL A   1      42.805  25.166  25.441  1.00  0.00     0.022 A 
BRANCH  42  46
ATOM     46  S   UNL A   1      41.933  22.721  26.459  1.00  0.00     0.124 S 
ATOM     47  O   UNL A   1      42.571  22.372  25.193  1.00  0.00    -0.237 OA
ATOM     48  O   UNL A   1      42.631  22.293  27.666  1.00  0.00    -0.237 OA
ATOM     49  O   UNL A   1      40.481  22.552  26.485  1.00  0.00    -0.744 OA
ENDBRANCH  42  46
ENDBRANCH  25  39
BRANCH  26  50
ATOM     50  C   UNL A   1      38.921  31.821  35.747  1.00  0.00     0.023 A 
ATOM     51  C   UNL A   1      38.278  31.151  36.798  1.00  0.00     0.031 A 
ATOM     52  C   UNL A   1      39.067  33.218  35.846  1.00  0.00     0.131 A 
ATOM     53  C   UNL A   1      37.765  31.881  37.880  1.00  0.00     0.055 A 
ATOM     54  C   UNL A   1      38.608  33.932  36.952  1.00  0.00     0.041 A 
ATOM     55  F   UNL A   1      39.678  33.909  34.870  1.00  0.00    -0.206 F 
ATOM     56  C   UNL A   1      37.938  33.264  37.971  1.00  0.00     0.022 A 
BRANCH  53  57
ATOM     57  S   UNL A   1      36.780  31.007  39.127  1.00  0.00     0.124 S 
ATOM     58  O   UNL A   1      36.591  29.704  38.499  1.00  0.00    -0.237 OA
ATOM     59  O   UNL A   1      37.666  31.039  40.286  1.00  0.00    -0.237 OA
ATOM     60  O   UNL A   1      35.575  31.826  39.243  1.00  0.00    -0.744 OA
ENDBRANCH  53  57
ENDBRANCH  26  50
BRANCH  38  61
ATOM     61  C   UNL A   1      44.450  27.783  34.500  1.00  0.00     0.023 A 
ATOM     62  C   UNL A   1      44.412  26.635  35.310  1.00  0.00     0.031 A 
ATOM     63  C   UNL A   1      45.592  28.599  34.558  1.00  0.00     0.131 A 
ATOM     64  C   UNL A   1      45.465  26.373  36.199  1.00  0.00     0.055 A 
ATOM     65  C   UNL A   1      46.666  28.299  35.398  1.00  0.00     0.041 A 
ATOM     66  F   UNL A   1      45.679  29.710  33.809  1.00  0.00    -0.206 F 
ATOM     67  C   UNL A   1      46.598  27.190  36.238  1.00  0.00     0.022 A 
BRANCH  64  68
ATOM     68  S   UNL A   1      45.282  25.014  37.387  1.00  0.00     0.124 S 
ATOM     69  O   UNL A   1      44.174  25.481  38.214  1.00  0.00    -0.237 OA
ATOM     70  O   UNL A   1      44.993  23.879  36.518  1.00  0.00    -0.237 OA
ATOM     71  O   UNL A   1      46.580  24.967  38.056  1.00  0.00    -0.744 OA
ENDBRANCH  64  68
ENDBRANCH  38  61
ENDBRANCH  12  13
ENDBRANCH   5   7
ENDBRANCH   2   3
ENDBRANCH   1   2
BRANCH   1  72
ATOM     72  C   UNL A   1      31.389  27.440  26.533  1.00  0.00     0.023 C 
BRANCH  72  73
ATOM     73  C   UNL A   1      32.601  26.556  26.259  1.00  0.00     0.116 C 
BRANCH  73  74
ATOM     74  N   UNL A   1      32.306  25.140  26.284  1.00  0.00    -0.356 N 
ATOM     75  C   UNL A   1      33.076  24.061  25.985  1.00  0.00     0.224 C 
ATOM     76  H   UNL A   1      31.389  24.921  26.565  1.00  0.00     0.163 HD
ATOM     77  O   UNL A   1      32.517  22.959  25.973  1.00  0.00    -0.275 OA
BRANCH  75  78
ATOM     78  C   UNL A   1      34.509  24.146  25.508  1.00  0.00     0.098 C 
ATOM     79  C   UNL A   1      34.723  24.103  23.957  1.00  0.00     0.099 C 
ATOM     80  C   UNL A   1      35.679  23.276  26.015  1.00  0.00     0.025 C 
ATOM     81  C   UNL A   1      36.013  23.246  23.801  1.00  0.00     0.025 C 
ATOM     82  C   UNL A   1      35.541  21.846  25.565  1.00  0.00    -0.027 C 
ATOM     83  C   UNL A   1      36.793  23.703  25.036  1.00  0.00     0.017 C 
ATOM     84  C   UNL A   1      35.791  21.825  24.249  1.00  0.00    -0.027 C 
BRANCH  79  85
ATOM     85  C   UNL A   1      33.659  23.882  22.867  1.00  0.00     0.228 C 
ATOM     86  O   UNL A   1      33.588  22.759  22.342  1.00  0.00    -0.274 OA
ATOM     87  N   UNL A   1      32.602  24.710  22.627  1.00  0.00    -0.323 N 
ATOM     88  H   UNL A   1      31.764  24.237  22.427  1.00  0.00     0.170 HD
BRANCH  87  89
ATOM     89  C   UNL A   1      32.483  26.106  22.610  1.00  0.00     0.078 A 
ATOM     90  C   UNL A   1      33.653  26.861  22.469  1.00  0.00     0.029 A 
ATOM     91  C   UNL A   1      31.297  26.767  22.928  1.00  0.00     0.165 A 
ATOM     92  C   UNL A   1      33.602  28.258  22.484  1.00  0.00     0.004 A 
ATOM     93  C   UNL A   1      31.245  28.160  22.969  1.00  0.00     0.078 A 
ATOM     94  F   UNL A   1      30.242  26.065  23.354  1.00  0.00    -0.203 F 
ATOM     95  C   UNL A   1      32.391  28.910  22.718  1.00  0.00     0.024 A 
ATOM     96  Cl  UNL A   1      29.783  28.965  23.389  1.00  0.00    -0.081 Cl
ENDBRANCH  87  89
ENDBRANCH  79  85
ENDBRANCH  75  78
ENDBRANCH  73  74
ENDBRANCH  72  73
ENDBRANCH   1  72
TORSDOF 16
ENDMDL
MODEL 3
REMARK VINA RESULT:     -12.5      5.022     10.118
REMARK SMILES O=C(NCCCCNC(=O)[C@@H]1[C@H](C(=O)Nc2cccc(Cl)c2F)[C@@H]2C=C[C@H]1C2)c1ccc(-c2c3nc(c(-c4cc(S(=O)(=O)[O-])ccc4F)c4ccc([nH]4)c(-c4cc(S(=O)(=O)[O-])ccc4F)c4nc(c(-c5cc(S(=O)(=O)[O-])ccc5F)c5ccc2[nH]5)C=C4)C=C3)cc1
REMARK SMILES IDX 5 1 4 2 3 3 1 4 2 5 29 7 30 8 91 9 31 10 90 11 32 12 33 13
REMARK SMILES IDX 34 14 84 15 35 16 89 17 83 18 85 19 36 20 88 21 82 22 81 23
REMARK SMILES IDX 37 25 69 26 49 27 68 28 50 29 53 30 67 31 86 32 51 33 52 34
REMARK SMILES IDX 66 36 87 37 54 38 38 39 39 40 47 41 40 42 46 43 48 44 45 45
REMARK SMILES IDX 41 46 42 47 43 48 44 49 70 50 71 51 79 52 72 53 78 54 80 55
REMARK SMILES IDX 77 56 73 57 74 58 75 59 76 60 55 61 56 62 64 63 57 64 63 65
REMARK SMILES IDX 65 66 62 67 58 68 59 69 60 70 61 71 6 72 7 73 8 74 9 75
REMARK SMILES IDX 10 77 11 78 12 79 27 80 24 81 26 82 28 83 25 84 13 85 14 86
REMARK SMILES IDX 15 87 16 89 17 90 22 91 18 92 20 93 23 94 19 95 21 96
REMARK H PARENT 3 6 85 24 53 35 8 76 15 88
REMARK Flexibility Score: inf
ROOT
ATOM      1  C   UNL A   1      31.782  28.829  27.324  1.00  0.00     0.023 C 
ENDROOT
BRANCH   1   2
ATOM      2  C   UNL A   1      32.733  29.726  26.544  1.00  0.00     0.116 C 
BRANCH   2   3
ATOM      3  N   UNL A   1      32.551  31.151  26.798  1.00  0.00    -0.352 N 
ATOM      4  O   UNL A   1      33.055  33.193  27.624  1.00  0.00    -0.269 OA
ATOM      5  C   UNL A   1      33.390  32.025  27.451  1.00  0.00     0.251 C 
ATOM      6  H   UNL A   1      31.714  31.540  26.454  1.00  0.00     0.163 HD
BRANCH   5   7
ATOM      7  C   UNL A   1      34.680  31.530  27.974  1.00  0.00     0.039 A 
ATOM      8  C   UNL A   1      34.780  30.237  28.488  1.00  0.00     0.014 A 
ATOM      9  C   UNL A   1      35.782  32.391  28.005  1.00  0.00     0.014 A 
ATOM     10  C   UNL A   1      35.922  29.865  29.186  1.00  0.00     0.010 A 
ATOM     11  C   UNL A   1      36.965  31.977  28.623  1.00  0.00     0.010 A 
ATOM     12  C   UNL A   1      37.033  30.723  29.251  1.00  0.00    -0.014 A 
BRANCH  12  13
ATOM     13  C   UNL A   1      38.269  30.253  29.928  1.00  0.00     0.031 A 
ATOM     14  C   UNL A   1      38.629  30.717  31.314  1.00  0.00     0.074 A 
ATOM     15  C   UNL A   1      39.047  29.362  29.284  1.00  0.00     0.049 A 
ATOM     16  N   UNL A   1      39.670  30.402  32.042  1.00  0.00    -0.248 NA
ATOM     17  C   UNL A   1      37.708  31.661  31.965  1.00  0.00     0.031 C 
ATOM     18  C   UNL A   1      38.791  28.847  27.935  1.00  0.00     0.029 A 
ATOM     19  N   UNL A   1      40.189  28.712  29.672  1.00  0.00    -0.354 N 
ATOM     20  C   UNL A   1      39.544  31.119  33.228  1.00  0.00     0.074 A 
ATOM     21  C   UNL A   1      38.333  31.905  33.109  1.00  0.00     0.031 C 
ATOM     22  C   UNL A   1      39.715  27.926  27.631  1.00  0.00     0.029 A 
ATOM     23  C   UNL A   1      40.675  27.842  28.724  1.00  0.00     0.049 A 
ATOM     24  H   UNL A   1      40.620  28.855  30.546  1.00  0.00     0.167 HD
ATOM     25  C   UNL A   1      40.359  31.111  34.313  1.00  0.00     0.034 A 
ATOM     26  C   UNL A   1      41.785  27.081  28.719  1.00  0.00     0.034 A 
ATOM     27  C   UNL A   1      41.559  30.311  34.411  1.00  0.00     0.049 A 
ATOM     28  C   UNL A   1      42.685  27.118  29.923  1.00  0.00     0.074 A 
ATOM     29  C   UNL A   1      42.448  30.215  35.469  1.00  0.00     0.029 A 
ATOM     30  N   UNL A   1      42.043  29.472  33.415  1.00  0.00    -0.354 N 
ATOM     31  N   UNL A   1      42.547  27.804  31.035  1.00  0.00    -0.248 NA
ATOM     32  C   UNL A   1      43.887  26.280  29.872  1.00  0.00     0.031 C 
ATOM     33  C   UNL A   1      43.497  29.369  35.091  1.00  0.00     0.029 A 
ATOM     34  C   UNL A   1      43.229  28.878  33.823  1.00  0.00     0.049 A 
ATOM     35  H   UNL A   1      41.607  29.321  32.546  1.00  0.00     0.167 HD
ATOM     36  C   UNL A   1      43.644  27.470  31.820  1.00  0.00     0.074 A 
ATOM     37  C   UNL A   1      44.411  26.496  31.069  1.00  0.00     0.031 C 
ATOM     38  C   UNL A   1      43.994  27.930  33.048  1.00  0.00     0.034 A 
BRANCH  25  39
ATOM     39  C   UNL A   1      40.009  32.027  35.463  1.00  0.00     0.023 A 
ATOM     40  C   UNL A   1      39.062  31.668  36.438  1.00  0.00     0.031 A 
ATOM     41  C   UNL A   1      40.644  33.276  35.591  1.00  0.00     0.131 A 
ATOM     42  C   UNL A   1      38.741  32.568  37.468  1.00  0.00     0.055 A 
ATOM     43  C   UNL A   1      40.371  34.137  36.656  1.00  0.00     0.041 A 
ATOM     44  F   UNL A   1      41.544  33.681  34.681  1.00  0.00    -0.206 F 
ATOM     45  C   UNL A   1      39.408  33.789  37.597  1.00  0.00     0.022 A 
BRANCH  42  46
ATOM     46  S   UNL A   1      37.366  32.165  38.580  1.00  0.00     0.124 S 
ATOM     47  O   UNL A   1      37.206  30.733  38.345  1.00  0.00    -0.237 OA
ATOM     48  O   UNL A   1      37.894  32.544  39.886  1.00  0.00    -0.237 OA
ATOM     49  O   UNL A   1      36.270  32.998  38.085  1.00  0.00    -0.744 OA
ENDBRANCH  42  46
ENDBRANCH  25  39
BRANCH  26  50
ATOM     50  C   UNL A   1      42.129  26.262  27.523  1.00  0.00     0.023 A 
ATOM     51  C   UNL A   1      41.746  24.916  27.430  1.00  0.00     0.031 A 
ATOM     52  C   UNL A   1      42.879  26.810  26.466  1.00  0.00     0.131 A 
ATOM     53  C   UNL A   1      42.151  24.150  26.327  1.00  0.00     0.055 A 
ATOM     54  C   UNL A   1      43.228  26.061  25.343  1.00  0.00     0.041 A 
ATOM     55  F   UNL A   1      43.268  28.094  26.502  1.00  0.00    -0.206 F 
ATOM     56  C   UNL A   1      42.877  24.717  25.276  1.00  0.00     0.022 A 
BRANCH  53  57
ATOM     57  S   UNL A   1      41.798  22.372  26.329  1.00  0.00     0.124 S 
ATOM     58  O   UNL A   1      42.591  21.908  25.196  1.00  0.00    -0.237 OA
ATOM     59  O   UNL A   1      42.272  21.973  27.651  1.00  0.00    -0.237 OA
ATOM     60  O   UNL A   1      40.349  22.313  26.145  1.00  0.00    -0.744 OA
ENDBRANCH  53  57
ENDBRANCH  26  50
BRANCH  38  61
ATOM     61  C   UNL A   1      45.253  27.354  33.644  1.00  0.00     0.023 A 
ATOM     62  C   UNL A   1      45.226  26.181  34.418  1.00  0.00     0.031 A 
ATOM     63  C   UNL A   1      46.483  28.016  33.485  1.00  0.00     0.131 A 
ATOM     64  C   UNL A   1      46.393  25.743  35.064  1.00  0.00     0.055 A 
ATOM     65  C   UNL A   1      47.654  27.540  34.078  1.00  0.00     0.041 A 
ATOM     66  F   UNL A   1      46.564  29.142  32.760  1.00  0.00    -0.206 F 
ATOM     67  C   UNL A   1      47.608  26.408  34.887  1.00  0.00     0.022 A 
BRANCH  64  68
ATOM     68  S   UNL A   1      46.272  24.360  36.231  1.00  0.00     0.124 S 
ATOM     69  O   UNL A   1      47.084  23.339  35.576  1.00  0.00    -0.237 OA
ATOM     70  O   UNL A   1      46.832  24.933  37.451  1.00  0.00    -0.237 OA
ATOM     71  O   UNL A   1      44.840  24.077  36.280  1.00  0.00    -0.744 OA
ENDBRANCH  64  68
ENDBRANCH  38  61
ENDBRANCH  12  13
ENDBRANCH   5   7
ENDBRANCH   2   3
ENDBRANCH   1   2
BRANCH   1  72
ATOM     72  C   UNL A   1      31.411  27.520  26.639  1.00  0.00     0.023 C 
BRANCH  72  73
ATOM     73  C   UNL A   1      32.582  26.629  26.238  1.00  0.00     0.116 C 
BRANCH  73  74
ATOM     74  N   UNL A   1      32.286  25.215  26.305  1.00  0.00    -0.356 N 
ATOM     75  C   UNL A   1      33.059  24.127  26.049  1.00  0.00     0.224 C 
ATOM     76  H   UNL A   1      31.365  25.004  26.582  1.00  0.00     0.163 HD
ATOM     77  O   UNL A   1      32.500  23.025  26.066  1.00  0.00    -0.275 OA
BRANCH  75  78
ATOM     78  C   UNL A   1      34.498  24.197  25.586  1.00  0.00     0.098 C 
ATOM     79  C   UNL A   1      34.727  24.137  24.038  1.00  0.00     0.099 C 
ATOM     80  C   UNL A   1      35.656  23.323  26.114  1.00  0.00     0.025 C 
ATOM     81  C   UNL A   1      36.013  23.269  23.903  1.00  0.00     0.025 C 
ATOM     82  C   UNL A   1      35.512  21.890  25.676  1.00  0.00    -0.027 C 
ATOM     83  C   UNL A   1      36.783  23.733  25.142  1.00  0.00     0.017 C 
ATOM     84  C   UNL A   1      35.775  21.854  24.363  1.00  0.00    -0.027 C 
BRANCH  79  85
ATOM     85  C   UNL A   1      33.672  23.914  22.939  1.00  0.00     0.228 C 
ATOM     86  O   UNL A   1      33.599  22.787  22.423  1.00  0.00    -0.274 OA
ATOM     87  N   UNL A   1      32.624  24.746  22.682  1.00  0.00    -0.323 N 
ATOM     88  H   UNL A   1      31.784  24.276  22.477  1.00  0.00     0.170 HD
BRANCH  87  89
ATOM     89  C   UNL A   1      32.514  26.143  22.652  1.00  0.00     0.078 A 
ATOM     90  C   UNL A   1      33.686  26.888  22.482  1.00  0.00     0.029 A 
ATOM     91  C   UNL A   1      31.338  26.815  22.983  1.00  0.00     0.165 A 
ATOM     92  C   UNL A   1      33.644  28.285  22.483  1.00  0.00     0.004 A 
ATOM     93  C   UNL A   1      31.296  28.208  23.010  1.00  0.00     0.078 A 
ATOM     94  F   UNL A   1      30.285  26.125  23.435  1.00  0.00    -0.203 F 
ATOM     95  C   UNL A   1      32.442  28.948  22.730  1.00  0.00     0.024 A 
ATOM     96  Cl  UNL A   1      29.848  29.028  23.447  1.00  0.00    -0.081 Cl
ENDBRANCH  87  89
ENDBRANCH  79  85
ENDBRANCH  75  78
ENDBRANCH  73  74
ENDBRANCH  72  73
ENDBRANCH   1  72
TORSDOF 16
ENDMDL
