MODEL 1
REMARK VINA RESULT:     -12.5      0.000      0.000
REMARK SMILES C[C@@H]1CCC[C@@H]([C@@H](Cc2ccc(Cl)cc2)C(=O)NCCCCNC(=O)c2ccc(-c3c4nc(c(-c5cc(S(=O)(=O)[O-])ccc5F)c5ccc([nH]5)c(-c5cc(S(=O)(=O)[O-])ccc5F)c5nc(c(-c6cc(S(=O)(=O)[O-])ccc6F)c6ccc3[nH]6)C=C5)C=C4)cc2)C1
REMARK SMILES IDX 21 1 20 2 19 3 18 4 16 5 17 6 7 8 6 9 1 10 2 11 3 12 89 13
REMARK SMILES IDX 4 14 5 15 8 16 9 17 10 18 15 19 11 20 14 21 12 22 13 23
REMARK SMILES IDX 22 24 23 25 24 26 25 28 26 29 27 30 88 31 28 32 87 33 29 34
REMARK SMILES IDX 30 35 31 36 81 37 32 38 86 39 80 40 82 41 33 42 85 43 79 44
REMARK SMILES IDX 78 45 34 47 66 48 46 49 65 50 47 51 50 52 64 53 83 54 48 55
REMARK SMILES IDX 49 56 63 58 84 59 51 60 35 61 36 62 44 63 37 64 43 65 45 66
REMARK SMILES IDX 42 67 38 68 39 69 40 70 41 71 67 72 68 73 76 74 69 75 75 76
REMARK SMILES IDX 77 77 74 78 70 79 71 80 72 81 73 82 52 83 53 84 61 85 54 86
REMARK SMILES IDX 60 87 62 88 59 89 55 90 56 91 57 92 58 93
REMARK H PARENT 18 7 23 27 82 46 50 57
REMARK Flexibility Score: inf
ROOT
ATOM      1  C   UNL A   1      31.762  30.330  25.735  1.00  0.00     0.023 C 
ENDROOT
BRANCH   1   2
ATOM      2  C   UNL A   1      31.892  28.827  25.537  1.00  0.00     0.023 C 
BRANCH   2   3
ATOM      3  C   UNL A   1      32.048  28.006  26.811  1.00  0.00     0.116 C 
BRANCH   3   4
ATOM      4  N   UNL A   1      31.145  26.875  26.920  1.00  0.00    -0.356 N 
ATOM      5  C   UNL A   1      31.024  25.762  26.138  1.00  0.00     0.223 C 
ATOM      6  O   UNL A   1      30.373  24.816  26.593  1.00  0.00    -0.275 OA
ATOM      7  H   UNL A   1      30.519  26.917  27.678  1.00  0.00     0.163 HD
BRANCH   5   8
ATOM      8  C   UNL A   1      31.652  25.647  24.739  1.00  0.00     0.086 C 
BRANCH   8   9
ATOM      9  C   UNL A   1      32.859  24.671  24.701  1.00  0.00     0.002 C 
ATOM     10  C   UNL A   1      33.903  21.759  24.240  1.00  0.00     0.007 C 
ATOM     11  C   UNL A   1      34.293  22.999  23.424  1.00  0.00    -0.014 C 
ATOM     12  C   UNL A   1      35.566  23.655  23.979  1.00  0.00     0.003 C 
ATOM     13  C   UNL A   1      33.135  24.016  23.339  1.00  0.00     0.007 C 
ATOM     14  C   UNL A   1      35.335  24.430  25.272  1.00  0.00     0.001 C 
ATOM     15  C   UNL A   1      34.150  25.387  25.167  1.00  0.00     0.004 C 
ENDBRANCH   8   9
BRANCH   8  16
ATOM     16  C   UNL A   1      30.573  25.566  23.625  1.00  0.00     0.049 C 
BRANCH  16  17
ATOM     17  C   UNL A   1      29.842  26.828  23.229  1.00  0.00    -0.047 A 
ATOM     18  C   UNL A   1      28.519  27.056  23.631  1.00  0.00     0.005 A 
ATOM     19  C   UNL A   1      30.507  27.825  22.493  1.00  0.00     0.005 A 
ATOM     20  C   UNL A   1      27.899  28.281  23.364  1.00  0.00     0.021 A 
ATOM     21  C   UNL A   1      29.891  29.051  22.234  1.00  0.00     0.021 A 
ATOM     22  C   UNL A   1      28.594  29.279  22.684  1.00  0.00     0.041 A 
ATOM     23  Cl  UNL A   1      27.853  30.808  22.419  1.00  0.00    -0.084 Cl
ENDBRANCH  16  17
ENDBRANCH   8  16
ENDBRANCH   5   8
ENDBRANCH   3   4
ENDBRANCH   2   3
ENDBRANCH   1   2
BRANCH   1  24
ATOM     24  C   UNL A   1      32.183  30.851  27.103  1.00  0.00     0.116 C 
BRANCH  24  25
ATOM     25  N   UNL A   1      32.239  32.304  27.208  1.00  0.00    -0.352 N 
ATOM     26  C   UNL A   1      33.317  33.080  27.580  1.00  0.00     0.251 C 
ATOM     27  H   UNL A   1      31.411  32.787  26.986  1.00  0.00     0.163 HD
ATOM     28  O   UNL A   1      33.207  34.291  27.686  1.00  0.00    -0.269 OA
BRANCH  26  29
ATOM     29  C   UNL A   1      34.584  32.395  27.919  1.00  0.00     0.039 A 
ATOM     30  C   UNL A   1      35.752  33.154  27.988  1.00  0.00     0.014 A 
ATOM     31  C   UNL A   1      34.581  31.050  28.297  1.00  0.00     0.014 A 
ATOM     32  C   UNL A   1      36.899  32.587  28.540  1.00  0.00     0.010 A 
ATOM     33  C   UNL A   1      35.701  30.515  28.924  1.00  0.00     0.010 A 
ATOM     34  C   UNL A   1      36.864  31.284  29.066  1.00  0.00    -0.014 A 
BRANCH  34  35
ATOM     35  C   UNL A   1      38.027  30.738  29.811  1.00  0.00     0.031 A 
ATOM     36  C   UNL A   1      38.280  31.151  31.231  1.00  0.00     0.074 A 
ATOM     37  C   UNL A   1      38.885  29.914  29.175  1.00  0.00     0.049 A 
ATOM     38  N   UNL A   1      39.239  30.781  32.041  1.00  0.00    -0.248 NA
ATOM     39  C   UNL A   1      37.352  32.135  31.807  1.00  0.00     0.031 C 
ATOM     40  C   UNL A   1      38.782  29.507  27.771  1.00  0.00     0.029 A 
ATOM     41  N   UNL A   1      40.010  29.269  29.623  1.00  0.00    -0.354 N 
ATOM     42  C   UNL A   1      39.032  31.489  33.219  1.00  0.00     0.074 A 
ATOM     43  C   UNL A   1      37.901  32.363  32.990  1.00  0.00     0.031 C 
ATOM     44  C   UNL A   1      39.779  28.653  27.484  1.00  0.00     0.029 A 
ATOM     45  C   UNL A   1      40.610  28.476  28.671  1.00  0.00     0.049 A 
ATOM     46  H   UNL A   1      40.357  29.364  30.539  1.00  0.00     0.167 HD
ATOM     47  C   UNL A   1      39.706  31.396  34.393  1.00  0.00     0.034 A 
ATOM     48  C   UNL A   1      41.702  27.691  28.748  1.00  0.00     0.034 A 
ATOM     49  C   UNL A   1      40.827  30.513  34.601  1.00  0.00     0.049 A 
ATOM     50  C   UNL A   1      42.429  27.596  30.064  1.00  0.00     0.074 A 
ATOM     51  C   UNL A   1      41.546  30.288  35.762  1.00  0.00     0.029 A 
ATOM     52  N   UNL A   1      41.403  29.715  33.618  1.00  0.00    -0.354 N 
ATOM     53  N   UNL A   1      42.172  28.210  31.197  1.00  0.00    -0.248 NA
ATOM     54  C   UNL A   1      43.581  26.688  30.117  1.00  0.00     0.031 C 
ATOM     55  C   UNL A   1      42.591  29.404  35.467  1.00  0.00     0.029 A 
ATOM     56  C   UNL A   1      42.484  29.020  34.139  1.00  0.00     0.049 A 
ATOM     57  H   UNL A   1      41.088  29.651  32.688  1.00  0.00     0.167 HD
ATOM     58  C   UNL A   1      43.120  27.746  32.103  1.00  0.00     0.074 A 
ATOM     59  C   UNL A   1      43.936  26.784  31.390  1.00  0.00     0.031 C 
ATOM     60  C   UNL A   1      43.301  28.082  33.405  1.00  0.00     0.034 A 
BRANCH  47  61
ATOM     61  C   UNL A   1      39.249  32.288  35.523  1.00  0.00     0.023 A 
ATOM     62  C   UNL A   1      39.664  33.630  35.616  1.00  0.00     0.031 A 
ATOM     63  C   UNL A   1      38.421  31.786  36.541  1.00  0.00     0.131 A 
ATOM     64  C   UNL A   1      39.325  34.393  36.742  1.00  0.00     0.055 A 
ATOM     65  C   UNL A   1      38.016  32.577  37.619  1.00  0.00     0.041 A 
ATOM     66  F   UNL A   1      38.008  30.509  36.520  1.00  0.00    -0.206 F 
ATOM     67  C   UNL A   1      38.482  33.885  37.733  1.00  0.00     0.022 A 
BRANCH  64  68
ATOM     68  S   UNL A   1      40.121  36.008  36.964  1.00  0.00     0.124 S 
ATOM     69  O   UNL A   1      39.376  36.549  38.098  1.00  0.00    -0.237 OA
ATOM     70  O   UNL A   1      41.508  35.642  37.226  1.00  0.00    -0.237 OA
ATOM     71  O   UNL A   1      39.883  36.685  35.691  1.00  0.00    -0.744 OA
ENDBRANCH  64  68
ENDBRANCH  47  61
BRANCH  48  72
ATOM     72  C   UNL A   1      42.171  26.928  27.557  1.00  0.00     0.023 A 
ATOM     73  C   UNL A   1      41.906  25.555  27.427  1.00  0.00     0.031 A 
ATOM     74  C   UNL A   1      42.919  27.554  26.545  1.00  0.00     0.131 A 
ATOM     75  C   UNL A   1      42.422  24.844  26.332  1.00  0.00     0.055 A 
ATOM     76  C   UNL A   1      43.390  26.852  25.433  1.00  0.00     0.041 A 
ATOM     77  F   UNL A   1      43.191  28.867  26.615  1.00  0.00    -0.206 F 
ATOM     78  C   UNL A   1      43.152  25.485  25.329  1.00  0.00     0.022 A 
BRANCH  75  79
ATOM     79  S   UNL A   1      42.183  23.046  26.273  1.00  0.00     0.124 S 
ATOM     80  O   UNL A   1      42.982  22.602  27.410  1.00  0.00    -0.237 OA
ATOM     81  O   UNL A   1      40.736  22.929  26.419  1.00  0.00    -0.237 OA
ATOM     82  O   UNL A   1      42.706  22.677  24.960  1.00  0.00    -0.744 OA
ENDBRANCH  75  79
ENDBRANCH  48  72
BRANCH  60  83
ATOM     83  C   UNL A   1      44.415  27.375  34.138  1.00  0.00     0.023 A 
ATOM     84  C   UNL A   1      44.191  26.175  34.834  1.00  0.00     0.031 A 
ATOM     85  C   UNL A   1      45.708  27.926  34.163  1.00  0.00     0.131 A 
ATOM     86  C   UNL A   1      45.228  25.596  35.581  1.00  0.00     0.055 A 
ATOM     87  C   UNL A   1      46.752  27.312  34.856  1.00  0.00     0.041 A 
ATOM     88  F   UNL A   1      45.978  29.071  33.517  1.00  0.00    -0.206 F 
ATOM     89  C   UNL A   1      46.511  26.149  35.583  1.00  0.00     0.022 A 
BRANCH  86  90
ATOM     90  S   UNL A   1      44.850  24.167  36.631  1.00  0.00     0.124 S 
ATOM     91  O   UNL A   1      46.183  23.679  36.971  1.00  0.00    -0.237 OA
ATOM     92  O   UNL A   1      44.096  24.774  37.723  1.00  0.00    -0.237 OA
ATOM     93  O   UNL A   1      44.073  23.293  35.755  1.00  0.00    -0.744 OA
ENDBRANCH  86  90
ENDBRANCH  60  83
ENDBRANCH  34  35
ENDBRANCH  26  29
ENDBRANCH  24  25
ENDBRANCH   1  24
TORSDOF 17
ENDMDL
MODEL 2
REMARK VINA RESULT:     -12.4      4.935     10.066
REMARK SMILES C[C@@H]1CCC[C@@H]([C@@H](Cc2ccc(Cl)cc2)C(=O)NCCCCNC(=O)c2ccc(-c3c4nc(c(-c5cc(S(=O)(=O)[O-])ccc5F)c5ccc([nH]5)c(-c5cc(S(=O)(=O)[O-])ccc5F)c5nc(c(-c6cc(S(=O)(=O)[O-])ccc6F)c6ccc3[nH]6)C=C5)C=C4)cc2)C1
REMARK SMILES IDX 21 1 20 2 19 3 18 4 16 5 17 6 7 8 6 9 1 10 2 11 3 12 89 13
REMARK SMILES IDX 4 14 5 15 8 16 9 17 10 18 15 19 11 20 14 21 12 22 13 23
REMARK SMILES IDX 22 24 23 25 24 26 25 28 26 29 27 30 88 31 28 32 87 33 29 34
REMARK SMILES IDX 30 35 31 36 81 37 32 38 86 39 80 40 82 41 33 42 85 43 79 44
REMARK SMILES IDX 78 45 34 47 66 48 46 49 65 50 47 51 50 52 64 53 83 54 48 55
REMARK SMILES IDX 49 56 63 58 84 59 51 60 35 61 36 62 44 63 37 64 43 65 45 66
REMARK SMILES IDX 42 67 38 68 39 69 40 70 41 71 67 72 68 73 76 74 69 75 75 76
REMARK SMILES IDX 77 77 74 78 70 79 71 80 72 81 73 82 52 83 53 84 61 85 54 86
REMARK SMILES IDX 60 87 62 88 59 89 55 90 56 91 57 92 58 93
REMARK H PARENT 18 7 23 27 82 46 50 57
REMARK Flexibility Score: inf
ROOT
ATOM      1  C   UNL A   1      35.491  21.665  25.091  1.00  0.00     0.023 C 
ENDROOT
BRANCH   1   2
ATOM      2  C   UNL A   1      34.708  21.428  26.374  1.00  0.00     0.023 C 
BRANCH   2   3
ATOM      3  C   UNL A   1      34.369  22.677  27.178  1.00  0.00     0.116 C 
BRANCH   3   4
ATOM      4  N   UNL A   1      32.971  22.800  27.548  1.00  0.00    -0.356 N 
ATOM      5  C   UNL A   1      31.987  23.594  27.035  1.00  0.00     0.223 C 
ATOM      6  O   UNL A   1      30.820  23.319  27.333  1.00  0.00    -0.275 OA
ATOM      7  H   UNL A   1      32.686  22.216  28.288  1.00  0.00     0.163 HD
BRANCH   5   8
ATOM      8  C   UNL A   1      32.271  24.800  26.122  1.00  0.00     0.086 C 
BRANCH   8   9
ATOM      9  C   UNL A   1      32.320  24.416  24.619  1.00  0.00     0.002 C 
ATOM     10  C   UNL A   1      32.721  25.337  21.657  1.00  0.00     0.007 C 
ATOM     11  C   UNL A   1      33.592  24.326  22.415  1.00  0.00    -0.014 C 
ATOM     12  C   UNL A   1      33.106  22.887  22.185  1.00  0.00     0.003 C 
ATOM     13  C   UNL A   1      33.668  24.652  23.922  1.00  0.00     0.007 C 
ATOM     14  C   UNL A   1      31.833  22.547  22.950  1.00  0.00     0.001 C 
ATOM     15  C   UNL A   1      31.926  22.931  24.425  1.00  0.00     0.004 C 
ENDBRANCH   8   9
BRANCH   8  16
ATOM     16  C   UNL A   1      31.476  26.059  26.561  1.00  0.00     0.049 C 
BRANCH  16  17
ATOM     17  C   UNL A   1      32.204  27.379  26.665  1.00  0.00    -0.047 A 
ATOM     18  C   UNL A   1      31.543  28.539  27.089  1.00  0.00     0.005 A 
ATOM     19  C   UNL A   1      33.582  27.446  26.390  1.00  0.00     0.005 A 
ATOM     20  C   UNL A   1      32.257  29.723  27.301  1.00  0.00     0.021 A 
ATOM     21  C   UNL A   1      34.296  28.626  26.610  1.00  0.00     0.021 A 
ATOM     22  C   UNL A   1      33.632  29.756  27.079  1.00  0.00     0.041 A 
ATOM     23  Cl  UNL A   1      34.518  31.193  27.408  1.00  0.00    -0.084 Cl
ENDBRANCH  16  17
ENDBRANCH   8  16
ENDBRANCH   5   8
ENDBRANCH   3   4
ENDBRANCH   2   3
ENDBRANCH   1   2
BRANCH   1  24
ATOM     24  C   UNL A   1      36.912  22.183  25.274  1.00  0.00     0.116 C 
BRANCH  24  25
ATOM     25  N   UNL A   1      37.929  21.144  25.373  1.00  0.00    -0.352 N 
ATOM     26  C   UNL A   1      39.156  21.223  25.998  1.00  0.00     0.251 C 
ATOM     27  H   UNL A   1      37.714  20.284  24.943  1.00  0.00     0.163 HD
ATOM     28  O   UNL A   1      39.942  20.290  25.952  1.00  0.00    -0.269 OA
BRANCH  26  29
ATOM     29  C   UNL A   1      39.518  22.496  26.659  1.00  0.00     0.039 A 
ATOM     30  C   UNL A   1      40.564  22.491  27.583  1.00  0.00     0.014 A 
ATOM     31  C   UNL A   1      38.921  23.694  26.263  1.00  0.00     0.014 A 
ATOM     32  C   UNL A   1      41.082  23.705  28.029  1.00  0.00     0.010 A 
ATOM     33  C   UNL A   1      39.494  24.903  26.643  1.00  0.00     0.010 A 
ATOM     34  C   UNL A   1      40.591  24.918  27.517  1.00  0.00    -0.014 A 
BRANCH  34  35
ATOM     35  C   UNL A   1      41.251  26.204  27.854  1.00  0.00     0.031 A 
ATOM     36  C   UNL A   1      42.650  26.484  27.384  1.00  0.00     0.074 A 
ATOM     37  C   UNL A   1      40.602  27.091  28.635  1.00  0.00     0.049 A 
ATOM     38  N   UNL A   1      43.389  27.546  27.577  1.00  0.00    -0.248 NA
ATOM     39  C   UNL A   1      43.318  25.414  26.628  1.00  0.00     0.031 C 
ATOM     40  C   UNL A   1      39.270  26.891  29.214  1.00  0.00     0.029 A 
ATOM     41  N   UNL A   1      40.970  28.336  29.078  1.00  0.00    -0.354 N 
ATOM     42  C   UNL A   1      44.609  27.272  26.969  1.00  0.00     0.074 A 
ATOM     43  C   UNL A   1      44.532  25.916  26.468  1.00  0.00     0.031 C 
ATOM     44  C   UNL A   1      38.919  27.990  29.902  1.00  0.00     0.029 A 
ATOM     45  C   UNL A   1      40.009  28.957  29.842  1.00  0.00     0.049 A 
ATOM     46  H   UNL A   1      41.840  28.747  28.869  1.00  0.00     0.167 HD
ATOM     47  C   UNL A   1      45.682  28.088  26.818  1.00  0.00     0.034 A 
ATOM     48  C   UNL A   1      40.005  30.173  30.424  1.00  0.00     0.034 A 
ATOM     49  C   UNL A   1      45.734  29.439  27.322  1.00  0.00     0.049 A 
ATOM     50  C   UNL A   1      41.204  31.066  30.236  1.00  0.00     0.074 A 
ATOM     51  C   UNL A   1      46.740  30.377  27.175  1.00  0.00     0.029 A 
ATOM     52  N   UNL A   1      44.738  30.042  28.083  1.00  0.00    -0.354 N 
ATOM     53  N   UNL A   1      42.320  30.824  29.586  1.00  0.00    -0.248 NA
ATOM     54  C   UNL A   1      41.134  32.401  30.841  1.00  0.00     0.031 C 
ATOM     55  C   UNL A   1      46.381  31.522  27.896  1.00  0.00     0.029 A 
ATOM     56  C   UNL A   1      45.120  31.328  28.437  1.00  0.00     0.049 A 
ATOM     57  H   UNL A   1      43.886  29.618  28.333  1.00  0.00     0.167 HD
ATOM     58  C   UNL A   1      43.078  31.986  29.689  1.00  0.00     0.074 A 
ATOM     59  C   UNL A   1      42.279  32.934  30.441  1.00  0.00     0.031 C 
ATOM     60  C   UNL A   1      44.318  32.249  29.208  1.00  0.00     0.034 A 
BRANCH  47  61
ATOM     61  C   UNL A   1      46.882  27.522  26.096  1.00  0.00     0.023 A 
ATOM     62  C   UNL A   1      47.201  27.910  24.782  1.00  0.00     0.031 A 
ATOM     63  C   UNL A   1      47.695  26.554  26.710  1.00  0.00     0.131 A 
ATOM     64  C   UNL A   1      48.245  27.274  24.096  1.00  0.00     0.055 A 
ATOM     65  C   UNL A   1      48.786  25.983  26.050  1.00  0.00     0.041 A 
ATOM     66  F   UNL A   1      47.429  26.127  27.954  1.00  0.00    -0.206 F 
ATOM     67  C   UNL A   1      49.056  26.330  24.729  1.00  0.00     0.022 A 
BRANCH  64  68
ATOM     68  S   UNL A   1      48.432  27.589  22.319  1.00  0.00     0.124 S 
ATOM     69  O   UNL A   1      49.689  28.333  22.283  1.00  0.00    -0.237 OA
ATOM     70  O   UNL A   1      48.469  26.242  21.762  1.00  0.00    -0.237 OA
ATOM     71  O   UNL A   1      47.244  28.372  21.984  1.00  0.00    -0.744 OA
ENDBRANCH  64  68
ENDBRANCH  47  61
BRANCH  48  72
ATOM     72  C   UNL A   1      38.833  30.624  31.228  1.00  0.00     0.023 A 
ATOM     73  C   UNL A   1      37.873  31.491  30.683  1.00  0.00     0.031 A 
ATOM     74  C   UNL A   1      38.673  30.217  32.564  1.00  0.00     0.131 A 
ATOM     75  C   UNL A   1      36.819  31.959  31.483  1.00  0.00     0.055 A 
ATOM     76  C   UNL A   1      37.597  30.648  33.342  1.00  0.00     0.041 A 
ATOM     77  F   UNL A   1      39.558  29.381  33.130  1.00  0.00    -0.206 F 
ATOM     78  C   UNL A   1      36.668  31.535  32.805  1.00  0.00     0.022 A 
BRANCH  75  79
ATOM     79  S   UNL A   1      35.682  33.191  30.790  1.00  0.00     0.124 S 
ATOM     80  O   UNL A   1      35.910  34.334  31.666  1.00  0.00    -0.237 OA
ATOM     81  O   UNL A   1      36.174  33.321  29.422  1.00  0.00    -0.237 OA
ATOM     82  O   UNL A   1      34.372  32.555  30.919  1.00  0.00    -0.744 OA
ENDBRANCH  75  79
ENDBRANCH  48  72
BRANCH  60  83
ATOM     83  C   UNL A   1      44.866  33.632  29.466  1.00  0.00     0.023 A 
ATOM     84  C   UNL A   1      44.543  34.717  28.633  1.00  0.00     0.031 A 
ATOM     85  C   UNL A   1      45.743  33.858  30.541  1.00  0.00     0.131 A 
ATOM     86  C   UNL A   1      45.144  35.966  28.849  1.00  0.00     0.055 A 
ATOM     87  C   UNL A   1      46.290  35.117  30.788  1.00  0.00     0.041 A 
ATOM     88  F   UNL A   1      46.086  32.856  31.367  1.00  0.00    -0.206 F 
ATOM     89  C   UNL A   1      46.003  36.177  29.931  1.00  0.00     0.022 A 
BRANCH  86  90
ATOM     90  S   UNL A   1      44.868  37.285  27.636  1.00  0.00     0.124 S 
ATOM     91  O   UNL A   1      46.171  37.377  26.985  1.00  0.00    -0.237 OA
ATOM     92  O   UNL A   1      43.786  36.740  26.823  1.00  0.00    -0.237 OA
ATOM     93  O   UNL A   1      44.503  38.437  28.459  1.00  0.00    -0.744 OA
ENDBRANCH  86  90
ENDBRANCH  60  83
ENDBRANCH  34  35
ENDBRANCH  26  29
ENDBRANCH  24  25
ENDBRANCH   1  24
TORSDOF 17
ENDMDL
MODEL 3
REMARK VINA RESULT:     -12.3      2.421      3.708
REMARK SMILES C[C@@H]1CCC[C@@H]([C@@H](Cc2ccc(Cl)cc2)C(=O)NCCCCNC(=O)c2ccc(-c3c4nc(c(-c5cc(S(=O)(=O)[O-])ccc5F)c5ccc([nH]5)c(-c5cc(S(=O)(=O)[O-])ccc5F)c5nc(c(-c6cc(S(=O)(=O)[O-])ccc6F)c6ccc3[nH]6)C=C5)C=C4)cc2)C1
REMARK SMILES IDX 21 1 20 2 19 3 18 4 16 5 17 6 7 8 6 9 1 10 2 11 3 12 89 13
REMARK SMILES IDX 4 14 5 15 8 16 9 17 10 18 15 19 11 20 14 21 12 22 13 23
REMARK SMILES IDX 22 24 23 25 24 26 25 28 26 29 27 30 88 31 28 32 87 33 29 34
REMARK SMILES IDX 30 35 31 36 81 37 32 38 86 39 80 40 82 41 33 42 85 43 79 44
REMARK SMILES IDX 78 45 34 47 66 48 46 49 65 50 47 51 50 52 64 53 83 54 48 55
REMARK SMILES IDX 49 56 63 58 84 59 51 60 35 61 36 62 44 63 37 64 43 65 45 66
REMARK SMILES IDX 42 67 38 68 39 69 40 70 41 71 67 72 68 73 76 74 69 75 75 76
REMARK SMILES IDX 77 77 74 78 70 79 71 80 72 81 73 82 52 83 53 84 61 85 54 86
REMARK SMILES IDX 60 87 62 88 59 89 55 90 56 91 57 92 58 93
REMARK H PARENT 18 7 23 27 82 46 50 57
REMARK Flexibility Score: inf
ROOT
ATOM      1  C   UNL A   1      31.749  29.249  26.911  1.00  0.00     0.023 C 
ENDROOT
BRANCH   1   2
ATOM      2  C   UNL A   1      32.041  27.756  26.859  1.00  0.00     0.023 C 
BRANCH   2   3
ATOM      3  C   UNL A   1      31.014  26.911  26.116  1.00  0.00     0.116 C 
BRANCH   3   4
ATOM      4  N   UNL A   1      30.787  25.594  26.682  1.00  0.00    -0.356 N 
ATOM      5  C   UNL A   1      31.541  24.459  26.609  1.00  0.00     0.223 C 
ATOM      6  O   UNL A   1      31.276  23.548  27.401  1.00  0.00    -0.275 OA
ATOM      7  H   UNL A   1      29.955  25.505  27.201  1.00  0.00     0.163 HD
BRANCH   5   8
ATOM      8  C   UNL A   1      32.684  24.273  25.596  1.00  0.00     0.086 C 
BRANCH   8   9
ATOM      9  C   UNL A   1      32.543  25.197  24.356  1.00  0.00     0.002 C 
ATOM     10  C   UNL A   1      32.772  28.074  23.153  1.00  0.00     0.007 C 
ATOM     11  C   UNL A   1      33.580  26.844  22.716  1.00  0.00    -0.014 C 
ATOM     12  C   UNL A   1      32.901  26.117  21.545  1.00  0.00     0.003 C 
ATOM     13  C   UNL A   1      33.838  25.881  23.893  1.00  0.00     0.007 C 
ATOM     14  C   UNL A   1      31.673  25.314  21.960  1.00  0.00     0.001 C 
ATOM     15  C   UNL A   1      31.952  24.412  23.159  1.00  0.00     0.004 C 
ENDBRANCH   8   9
BRANCH   8  16
ATOM     16  C   UNL A   1      34.063  24.143  26.296  1.00  0.00     0.049 C 
BRANCH  16  17
ATOM     17  C   UNL A   1      35.031  23.091  25.806  1.00  0.00    -0.047 A 
ATOM     18  C   UNL A   1      36.409  23.340  25.760  1.00  0.00     0.005 A 
ATOM     19  C   UNL A   1      34.560  21.817  25.442  1.00  0.00     0.005 A 
ATOM     20  C   UNL A   1      37.302  22.316  25.425  1.00  0.00     0.021 A 
ATOM     21  C   UNL A   1      35.452  20.793  25.116  1.00  0.00     0.021 A 
ATOM     22  C   UNL A   1      36.821  21.044  25.123  1.00  0.00     0.041 A 
ATOM     23  Cl  UNL A   1      37.925  19.771  24.781  1.00  0.00    -0.084 Cl
ENDBRANCH  16  17
ENDBRANCH   8  16
ENDBRANCH   5   8
ENDBRANCH   3   4
ENDBRANCH   2   3
ENDBRANCH   1   2
BRANCH   1  24
ATOM     24  C   UNL A   1      32.906  30.159  26.521  1.00  0.00     0.116 C 
BRANCH  24  25
ATOM     25  N   UNL A   1      32.790  31.529  27.004  1.00  0.00    -0.352 N 
ATOM     26  C   UNL A   1      33.732  32.261  27.697  1.00  0.00     0.251 C 
ATOM     27  H   UNL A   1      31.938  31.986  26.813  1.00  0.00     0.163 HD
ATOM     28  O   UNL A   1      33.478  33.386  28.097  1.00  0.00    -0.269 OA
BRANCH  26  29
ATOM     29  C   UNL A   1      35.027  31.614  28.002  1.00  0.00     0.039 A 
ATOM     30  C   UNL A   1      36.173  32.408  28.043  1.00  0.00     0.014 A 
ATOM     31  C   UNL A   1      35.075  30.270  28.378  1.00  0.00     0.014 A 
ATOM     32  C   UNL A   1      37.350  31.876  28.566  1.00  0.00     0.010 A 
ATOM     33  C   UNL A   1      36.225  29.768  28.977  1.00  0.00     0.010 A 
ATOM     34  C   UNL A   1      37.368  30.573  29.091  1.00  0.00    -0.014 A 
BRANCH  34  35
ATOM     35  C   UNL A   1      38.565  30.062  29.805  1.00  0.00     0.031 A 
ATOM     36  C   UNL A   1      38.881  30.539  31.193  1.00  0.00     0.074 A 
ATOM     37  C   UNL A   1      39.396  29.210  29.169  1.00  0.00     0.049 A 
ATOM     38  N   UNL A   1      39.878  30.207  31.974  1.00  0.00    -0.248 NA
ATOM     39  C   UNL A   1      37.978  31.548  31.765  1.00  0.00     0.031 C 
ATOM     40  C   UNL A   1      39.230  28.740  27.790  1.00  0.00     0.029 A 
ATOM     41  N   UNL A   1      40.542  28.588  29.593  1.00  0.00    -0.354 N 
ATOM     42  C   UNL A   1      39.722  30.968  33.127  1.00  0.00     0.074 A 
ATOM     43  C   UNL A   1      38.580  31.829  32.910  1.00  0.00     0.031 C 
ATOM     44  C   UNL A   1      40.215  27.875  27.498  1.00  0.00     0.029 A 
ATOM     45  C   UNL A   1      41.100  27.754  28.652  1.00  0.00     0.049 A 
ATOM     46  H   UNL A   1      40.930  28.725  30.488  1.00  0.00     0.167 HD
ATOM     47  C   UNL A   1      40.449  30.928  34.272  1.00  0.00     0.034 A 
ATOM     48  C   UNL A   1      42.197  26.974  28.715  1.00  0.00     0.034 A 
ATOM     49  C   UNL A   1      41.582  30.057  34.468  1.00  0.00     0.049 A 
ATOM     50  C   UNL A   1      42.984  26.939  29.998  1.00  0.00     0.074 A 
ATOM     51  C   UNL A   1      42.353  29.885  35.604  1.00  0.00     0.029 A 
ATOM     52  N   UNL A   1      42.114  29.215  33.497  1.00  0.00    -0.354 N 
ATOM     53  N   UNL A   1      42.777  27.604  31.113  1.00  0.00    -0.248 NA
ATOM     54  C   UNL A   1      44.140  26.035  30.040  1.00  0.00     0.031 C 
ATOM     55  C   UNL A   1      43.386  28.990  35.301  1.00  0.00     0.029 A 
ATOM     56  C   UNL A   1      43.221  28.546  33.999  1.00  0.00     0.049 A 
ATOM     57  H   UNL A   1      41.757  29.109  32.586  1.00  0.00     0.167 HD
ATOM     58  C   UNL A   1      43.766  27.181  31.995  1.00  0.00     0.074 A 
ATOM     59  C   UNL A   1      44.552  26.189  31.290  1.00  0.00     0.031 C 
ATOM     60  C   UNL A   1      44.006  27.576  33.271  1.00  0.00     0.034 A 
BRANCH  47  61
ATOM     61  C   UNL A   1      40.042  31.870  35.379  1.00  0.00     0.023 A 
ATOM     62  C   UNL A   1      39.191  31.458  36.422  1.00  0.00     0.031 A 
ATOM     63  C   UNL A   1      40.474  33.208  35.376  1.00  0.00     0.131 A 
ATOM     64  C   UNL A   1      38.732  32.390  37.363  1.00  0.00     0.055 A 
ATOM     65  C   UNL A   1      40.079  34.112  36.365  1.00  0.00     0.041 A 
ATOM     66  F   UNL A   1      41.269  33.667  34.397  1.00  0.00    -0.206 F 
ATOM     67  C   UNL A   1      39.189  33.709  37.357  1.00  0.00     0.022 A 
BRANCH  64  68
ATOM     68  S   UNL A   1      37.413  31.890  38.504  1.00  0.00     0.124 S 
ATOM     69  O   UNL A   1      38.075  32.029  39.798  1.00  0.00    -0.237 OA
ATOM     70  O   UNL A   1      36.362  32.858  38.215  1.00  0.00    -0.237 OA
ATOM     71  O   UNL A   1      37.121  30.513  38.107  1.00  0.00    -0.744 OA
ENDBRANCH  64  68
ENDBRANCH  47  61
BRANCH  48  72
ATOM     72  C   UNL A   1      42.614  26.157  27.539  1.00  0.00     0.023 A 
ATOM     73  C   UNL A   1      42.178  24.831  27.387  1.00  0.00     0.031 A 
ATOM     74  C   UNL A   1      43.479  26.683  26.564  1.00  0.00     0.131 A 
ATOM     75  C   UNL A   1      42.643  24.061  26.311  1.00  0.00     0.055 A 
ATOM     76  C   UNL A   1      43.902  25.927  25.468  1.00  0.00     0.041 A 
ATOM     77  F   UNL A   1      43.917  27.949  26.655  1.00  0.00    -0.206 F 
ATOM     78  C   UNL A   1      43.493  24.603  25.344  1.00  0.00     0.022 A 
BRANCH  75  79
ATOM     79  S   UNL A   1      42.176  22.310  26.229  1.00  0.00     0.124 S 
ATOM     80  O   UNL A   1      40.720  22.392  26.175  1.00  0.00    -0.237 OA
ATOM     81  O   UNL A   1      42.840  21.876  25.005  1.00  0.00    -0.237 OA
ATOM     82  O   UNL A   1      42.725  21.753  27.464  1.00  0.00    -0.744 OA
ENDBRANCH  75  79
ENDBRANCH  48  72
BRANCH  60  83
ATOM     83  C   UNL A   1      45.154  26.904  33.983  1.00  0.00     0.023 A 
ATOM     84  C   UNL A   1      44.977  25.704  34.693  1.00  0.00     0.031 A 
ATOM     85  C   UNL A   1      46.432  27.488  33.975  1.00  0.00     0.131 A 
ATOM     86  C   UNL A   1      46.046  25.158  35.420  1.00  0.00     0.055 A 
ATOM     87  C   UNL A   1      47.508  26.908  34.649  1.00  0.00     0.041 A 
ATOM     88  F   UNL A   1      46.657  28.635  33.315  1.00  0.00    -0.206 F 
ATOM     89  C   UNL A   1      47.314  25.744  35.389  1.00  0.00     0.022 A 
BRANCH  86  90
ATOM     90  S   UNL A   1      45.729  23.728  36.489  1.00  0.00     0.124 S 
ATOM     91  O   UNL A   1      45.454  24.363  37.773  1.00  0.00    -0.237 OA
ATOM     92  O   UNL A   1      44.589  23.095  35.833  1.00  0.00    -0.237 OA
ATOM     93  O   UNL A   1      46.978  22.970  36.426  1.00  0.00    -0.744 OA
ENDBRANCH  86  90
ENDBRANCH  60  83
ENDBRANCH  34  35
ENDBRANCH  26  29
ENDBRANCH  24  25
ENDBRANCH   1  24
TORSDOF 17
ENDMDL
