MODEL 1
REMARK VINA RESULT:     -12.9      0.000      0.000
REMARK SMILES Cc1ccc(C)c(N2C(=O)S[C@H](CC(=O)Nc3ccc(C(=O)NCCCCNC(=O)c4ccc(-c5c6nc(c(-c7cc(S(=O)(=O)[O-])ccc7F)c7ccc([nH]7)c(-c7cc(S(=O)(=O)[O-])ccc7F)c7nc(c(-c8cc(S(=O)(=O)[O-])ccc8F)c8ccc5[nH]8)C=C7)C=C6)cc4)c(O)c3)C2=O)c1
REMARK SMILES IDX 25 1 24 2 23 3 21 4 22 5 20 7 17 8 18 9 96 10 19 11 94 12
REMARK SMILES IDX 16 13 14 14 15 15 13 17 12 18 8 19 9 20 97 21 10 22 11 23
REMARK SMILES IDX 98 24 7 25 1 26 2 27 3 28 99 29 4 30 5 31 6 32 95 33 26 35
REMARK SMILES IDX 27 36 28 37 29 38 30 40 31 41 32 42 93 43 33 44 92 45 34 46
REMARK SMILES IDX 35 47 36 48 86 49 37 50 91 51 85 52 87 53 38 54 90 55 84 56
REMARK SMILES IDX 83 57 39 59 71 60 51 61 70 62 52 63 55 64 69 65 88 66 53 67
REMARK SMILES IDX 54 68 68 70 89 71 56 72 40 73 41 74 49 75 42 76 48 77 50 78
REMARK SMILES IDX 47 79 43 80 44 81 45 82 46 83 72 84 73 85 81 86 74 87 80 88
REMARK SMILES IDX 82 89 79 90 75 91 76 92 77 93 78 94 57 95 58 96 66 97 59 98
REMARK SMILES IDX 65 99 67 100 64 101 60 102 61 103 62 104 63 105
REMARK H PARENT 23 6 16 16 95 34 28 39 87 58 55 69
REMARK Flexibility Score: inf
ROOT
ATOM      1  C   UNL A   1      33.321  29.894  26.235  1.00  0.00     0.023 C 
ENDROOT
BRANCH   1   2
ATOM      2  C   UNL A   1      33.298  29.697  24.721  1.00  0.00     0.116 C 
BRANCH   2   3
ATOM      3  N   UNL A   1      32.035  29.881  24.041  1.00  0.00    -0.352 N 
ATOM      4  C   UNL A   1      30.915  29.071  24.004  1.00  0.00     0.255 C 
ATOM      5  O   UNL A   1      29.937  29.525  23.408  1.00  0.00    -0.269 OA
ATOM      6  H   UNL A   1      31.961  30.715  23.524  1.00  0.00     0.163 HD
BRANCH   4   7
ATOM      7  C   UNL A   1      30.873  27.656  24.502  1.00  0.00     0.081 A 
ATOM      8  C   UNL A   1      30.142  25.232  25.748  1.00  0.00     0.044 A 
ATOM      9  C   UNL A   1      30.683  26.277  26.479  1.00  0.00     0.027 A 
ATOM     10  C   UNL A   1      30.260  25.287  24.368  1.00  0.00     0.073 A 
ATOM     11  C   UNL A   1      30.982  27.500  25.885  1.00  0.00     0.020 A 
ATOM     12  C   UNL A   1      30.694  26.480  23.764  1.00  0.00     0.130 A 
BRANCH   8  13
ATOM     13  N   UNL A   1      29.572  24.126  26.404  1.00  0.00    -0.326 N 
ATOM     14  C   UNL A   1      30.179  22.913  26.670  1.00  0.00     0.226 C 
ATOM     15  O   UNL A   1      29.499  21.920  26.935  1.00  0.00    -0.275 OA
ATOM     16  H   UNL A   1      28.641  24.225  26.706  1.00  0.00     0.169 HD
BRANCH  14  17
ATOM     17  C   UNL A   1      31.693  22.886  26.871  1.00  0.00     0.125 C 
BRANCH  17  18
ATOM     18  C   UNL A   1      32.460  21.765  26.169  1.00  0.00     0.156 C 
ATOM     19  N   UNL A   1      34.705  22.536  25.816  1.00  0.00    -0.240 N 
ATOM     20  C   UNL A   1      34.164  22.876  24.598  1.00  0.00     0.293 C 
ATOM     21  C   UNL A   1      33.904  21.786  26.661  1.00  0.00     0.248 C 
ATOM     22  O   UNL A   1      34.615  23.619  23.753  1.00  0.00    -0.261 OA
ATOM     23  S   UNL A   1      32.659  21.995  24.381  1.00  0.00    -0.050 SA
ATOM     24  O   UNL A   1      34.259  21.215  27.690  1.00  0.00    -0.273 OA
BRANCH  19  25
ATOM     25  C   UNL A   1      36.105  22.622  25.983  1.00  0.00     0.056 A 
ATOM     26  C   UNL A   1      38.724  25.176  27.105  1.00  0.00     0.044 C 
ATOM     27  C   UNL A   1      38.074  23.926  26.584  1.00  0.00    -0.049 A 
ATOM     28  C   UNL A   1      38.886  22.881  26.130  1.00  0.00     0.004 A 
ATOM     29  C   UNL A   1      36.678  23.787  26.521  1.00  0.00     0.030 A 
ATOM     30  C   UNL A   1      38.320  21.727  25.593  1.00  0.00     0.006 A 
ATOM     31  C   UNL A   1      36.930  21.586  25.497  1.00  0.00    -0.027 A 
ATOM     32  C   UNL A   1      36.400  20.338  24.845  1.00  0.00     0.046 C 
ENDBRANCH  19  25
ENDBRANCH  17  18
ENDBRANCH  14  17
ENDBRANCH   8  13
BRANCH  12  33
ATOM     33  O   UNL A   1      31.018  26.380  22.439  1.00  0.00    -0.507 OA
ATOM     34  H   UNL A   1      30.705  25.655  21.934  1.00  0.00     0.293 HD
ENDBRANCH  12  33
ENDBRANCH   4   7
ENDBRANCH   2   3
ENDBRANCH   1   2
BRANCH   1  35
ATOM     35  C   UNL A   1      34.137  28.975  27.149  1.00  0.00     0.023 C 
BRANCH  35  36
ATOM     36  C   UNL A   1      35.557  29.378  27.520  1.00  0.00     0.116 C 
BRANCH  36  37
ATOM     37  N   UNL A   1      35.780  29.671  28.941  1.00  0.00    -0.352 N 
ATOM     38  C   UNL A   1      36.815  29.272  29.785  1.00  0.00     0.251 C 
ATOM     39  H   UNL A   1      35.093  30.237  29.362  1.00  0.00     0.163 HD
ATOM     40  O   UNL A   1      36.619  29.225  30.997  1.00  0.00    -0.269 OA
BRANCH  38  41
ATOM     41  C   UNL A   1      38.137  28.897  29.225  1.00  0.00     0.039 A 
ATOM     42  C   UNL A   1      38.707  29.476  28.090  1.00  0.00     0.014 A 
ATOM     43  C   UNL A   1      38.844  27.912  29.888  1.00  0.00     0.014 A 
ATOM     44  C   UNL A   1      39.985  29.052  27.702  1.00  0.00     0.010 A 
ATOM     45  C   UNL A   1      40.192  27.815  29.756  1.00  0.00     0.010 A 
ATOM     46  C   UNL A   1      40.728  28.218  28.562  1.00  0.00    -0.014 A 
BRANCH  46  47
ATOM     47  C   UNL A   1      42.108  27.819  28.331  1.00  0.00     0.031 A 
ATOM     48  C   UNL A   1      42.199  26.583  27.548  1.00  0.00     0.074 A 
ATOM     49  C   UNL A   1      43.205  28.572  28.580  1.00  0.00     0.049 A 
ATOM     50  N   UNL A   1      42.331  25.394  28.025  1.00  0.00    -0.248 NA
ATOM     51  C   UNL A   1      41.857  26.627  26.120  1.00  0.00     0.031 C 
ATOM     52  C   UNL A   1      43.279  29.957  29.066  1.00  0.00     0.029 A 
ATOM     53  N   UNL A   1      44.519  28.265  28.369  1.00  0.00    -0.354 N 
ATOM     54  C   UNL A   1      42.419  24.575  26.916  1.00  0.00     0.074 A 
ATOM     55  C   UNL A   1      41.835  25.323  25.836  1.00  0.00     0.031 C 
ATOM     56  C   UNL A   1      44.544  30.424  28.942  1.00  0.00     0.029 A 
ATOM     57  C   UNL A   1      45.406  29.331  28.526  1.00  0.00     0.049 A 
ATOM     58  H   UNL A   1      44.818  27.359  28.126  1.00  0.00     0.167 HD
ATOM     59  C   UNL A   1      43.257  23.505  26.934  1.00  0.00     0.034 A 
ATOM     60  C   UNL A   1      46.756  29.314  28.351  1.00  0.00     0.034 A 
ATOM     61  C   UNL A   1      43.715  23.237  28.289  1.00  0.00     0.049 A 
ATOM     62  C   UNL A   1      47.185  27.912  28.569  1.00  0.00     0.074 A 
ATOM     63  C   UNL A   1      43.087  22.978  29.494  1.00  0.00     0.029 A 
ATOM     64  N   UNL A   1      44.991  23.643  28.618  1.00  0.00    -0.354 N 
ATOM     65  N   UNL A   1      47.081  27.305  29.718  1.00  0.00    -0.248 NA
ATOM     66  C   UNL A   1      47.311  27.033  27.418  1.00  0.00     0.031 C 
ATOM     67  C   UNL A   1      43.853  23.675  30.477  1.00  0.00     0.029 A 
ATOM     68  C   UNL A   1      44.958  24.253  29.849  1.00  0.00     0.049 A 
ATOM     69  H   UNL A   1      45.794  23.517  28.062  1.00  0.00     0.167 HD
ATOM     70  C   UNL A   1      46.660  26.023  29.405  1.00  0.00     0.074 A 
ATOM     71  C   UNL A   1      46.955  25.874  27.982  1.00  0.00     0.031 C 
ATOM     72  C   UNL A   1      45.858  25.322  30.260  1.00  0.00     0.034 A 
BRANCH  59  73
ATOM     73  C   UNL A   1      43.990  22.973  25.722  1.00  0.00     0.023 A 
ATOM     74  C   UNL A   1      43.843  21.600  25.455  1.00  0.00     0.031 A 
ATOM     75  C   UNL A   1      45.008  23.632  24.994  1.00  0.00     0.131 A 
ATOM     76  C   UNL A   1      44.740  20.928  24.611  1.00  0.00     0.055 A 
ATOM     77  C   UNL A   1      45.854  22.971  24.101  1.00  0.00     0.041 A 
ATOM     78  F   UNL A   1      45.310  24.924  25.159  1.00  0.00    -0.206 F 
ATOM     79  C   UNL A   1      45.747  21.605  23.930  1.00  0.00     0.022 A 
BRANCH  76  80
ATOM     80  S   UNL A   1      44.671  19.122  24.567  1.00  0.00     0.124 S 
ATOM     81  O   UNL A   1      44.949  18.856  23.159  1.00  0.00    -0.237 OA
ATOM     82  O   UNL A   1      45.721  18.762  25.513  1.00  0.00    -0.237 OA
ATOM     83  O   UNL A   1      43.308  18.827  25.002  1.00  0.00    -0.744 OA
ENDBRANCH  76  80
ENDBRANCH  59  73
BRANCH  60  84
ATOM     84  C   UNL A   1      47.650  30.359  27.780  1.00  0.00     0.023 A 
ATOM     85  C   UNL A   1      47.162  31.511  27.119  1.00  0.00     0.031 A 
ATOM     86  C   UNL A   1      49.015  30.369  28.137  1.00  0.00     0.131 A 
ATOM     87  C   UNL A   1      48.020  32.609  26.864  1.00  0.00     0.055 A 
ATOM     88  C   UNL A   1      49.858  31.455  27.882  1.00  0.00     0.041 A 
ATOM     89  F   UNL A   1      49.554  29.360  28.840  1.00  0.00    -0.206 F 
ATOM     90  C   UNL A   1      49.360  32.587  27.257  1.00  0.00     0.022 A 
BRANCH  87  91
ATOM     91  S   UNL A   1      47.374  34.144  26.116  1.00  0.00     0.124 S 
ATOM     92  O   UNL A   1      48.316  34.383  25.029  1.00  0.00    -0.237 OA
ATOM     93  O   UNL A   1      46.020  33.763  25.730  1.00  0.00    -0.237 OA
ATOM     94  O   UNL A   1      47.442  35.114  27.211  1.00  0.00    -0.744 OA
ENDBRANCH  87  91
ENDBRANCH  60  84
BRANCH  72  95
ATOM     95  C   UNL A   1      45.770  25.803  31.700  1.00  0.00     0.023 A 
ATOM     96  C   UNL A   1      46.727  25.550  32.713  1.00  0.00     0.031 A 
ATOM     97  C   UNL A   1      44.676  26.621  32.036  1.00  0.00     0.131 A 
ATOM     98  C   UNL A   1      46.555  26.094  34.004  1.00  0.00     0.055 A 
ATOM     99  C   UNL A   1      44.520  27.175  33.306  1.00  0.00     0.041 A 
ATOM    100  F   UNL A   1      43.740  26.917  31.118  1.00  0.00    -0.206 F 
ATOM    101  C   UNL A   1      45.455  26.906  34.298  1.00  0.00     0.022 A 
BRANCH  98 102
ATOM    102  S   UNL A   1      47.746  25.732  35.338  1.00  0.00     0.124 S 
ATOM    103  O   UNL A   1      49.038  26.034  34.735  1.00  0.00    -0.237 OA
ATOM    104  O   UNL A   1      47.314  26.631  36.405  1.00  0.00    -0.237 OA
ATOM    105  O   UNL A   1      47.524  24.312  35.617  1.00  0.00    -0.744 OA
ENDBRANCH  98 102
ENDBRANCH  72  95
ENDBRANCH  46  47
ENDBRANCH  38  41
ENDBRANCH  36  37
ENDBRANCH  35  36
ENDBRANCH   1  35
TORSDOF 19
ENDMDL
MODEL 2
REMARK VINA RESULT:     -12.3      3.991      9.530
REMARK SMILES Cc1ccc(C)c(N2C(=O)S[C@H](CC(=O)Nc3ccc(C(=O)NCCCCNC(=O)c4ccc(-c5c6nc(c(-c7cc(S(=O)(=O)[O-])ccc7F)c7ccc([nH]7)c(-c7cc(S(=O)(=O)[O-])ccc7F)c7nc(c(-c8cc(S(=O)(=O)[O-])ccc8F)c8ccc5[nH]8)C=C7)C=C6)cc4)c(O)c3)C2=O)c1
REMARK SMILES IDX 25 1 24 2 23 3 21 4 22 5 20 7 17 8 18 9 96 10 19 11 94 12
REMARK SMILES IDX 16 13 14 14 15 15 13 17 12 18 8 19 9 20 97 21 10 22 11 23
REMARK SMILES IDX 98 24 7 25 1 26 2 27 3 28 99 29 4 30 5 31 6 32 95 33 26 35
REMARK SMILES IDX 27 36 28 37 29 38 30 40 31 41 32 42 93 43 33 44 92 45 34 46
REMARK SMILES IDX 35 47 36 48 86 49 37 50 91 51 85 52 87 53 38 54 90 55 84 56
REMARK SMILES IDX 83 57 39 59 71 60 51 61 70 62 52 63 55 64 69 65 88 66 53 67
REMARK SMILES IDX 54 68 68 70 89 71 56 72 40 73 41 74 49 75 42 76 48 77 50 78
REMARK SMILES IDX 47 79 43 80 44 81 45 82 46 83 72 84 73 85 81 86 74 87 80 88
REMARK SMILES IDX 82 89 79 90 75 91 76 92 77 93 78 94 57 95 58 96 66 97 59 98
REMARK SMILES IDX 65 99 67 100 64 101 60 102 61 103 62 104 63 105
REMARK H PARENT 23 6 16 16 95 34 28 39 87 58 55 69
REMARK Flexibility Score: inf
ROOT
ATOM      1  C   UNL A   1      40.182  20.731  26.076  1.00  0.00     0.023 C 
ENDROOT
BRANCH   1   2
ATOM      2  C   UNL A   1      38.831  21.285  25.629  1.00  0.00     0.116 C 
BRANCH   2   3
ATOM      3  N   UNL A   1      38.553  22.677  25.907  1.00  0.00    -0.352 N 
ATOM      4  C   UNL A   1      37.395  23.410  25.727  1.00  0.00     0.255 C 
ATOM      5  O   UNL A   1      37.419  24.571  26.139  1.00  0.00    -0.269 OA
ATOM      6  H   UNL A   1      39.309  23.182  26.285  1.00  0.00     0.163 HD
BRANCH   4   7
ATOM      7  C   UNL A   1      36.201  22.935  24.951  1.00  0.00     0.081 A 
ATOM      8  C   UNL A   1      33.615  22.602  23.874  1.00  0.00     0.044 A 
ATOM      9  C   UNL A   1      33.926  22.140  25.143  1.00  0.00     0.027 A 
ATOM     10  C   UNL A   1      34.667  22.941  23.040  1.00  0.00     0.073 A 
ATOM     11  C   UNL A   1      35.179  22.361  25.709  1.00  0.00     0.020 A 
ATOM     12  C   UNL A   1      35.965  23.035  23.575  1.00  0.00     0.130 A 
BRANCH   8  13
ATOM     13  N   UNL A   1      32.277  22.638  23.440  1.00  0.00    -0.326 N 
ATOM     14  C   UNL A   1      31.474  23.756  23.311  1.00  0.00     0.226 C 
ATOM     15  O   UNL A   1      30.249  23.639  23.254  1.00  0.00    -0.275 OA
ATOM     16  H   UNL A   1      31.869  21.775  23.202  1.00  0.00     0.169 HD
BRANCH  14  17
ATOM     17  C   UNL A   1      32.136  25.096  22.996  1.00  0.00     0.125 C 
BRANCH  17  18
ATOM     18  C   UNL A   1      32.307  26.069  24.161  1.00  0.00     0.156 C 
ATOM     19  N   UNL A   1      31.394  28.181  23.478  1.00  0.00    -0.240 N 
ATOM     20  C   UNL A   1      32.713  28.399  23.154  1.00  0.00     0.293 C 
ATOM     21  C   UNL A   1      31.112  27.018  24.176  1.00  0.00     0.248 C 
ATOM     22  O   UNL A   1      33.183  29.268  22.450  1.00  0.00    -0.261 OA
ATOM     23  S   UNL A   1      33.705  27.212  23.988  1.00  0.00    -0.050 SA
ATOM     24  O   UNL A   1      30.052  26.737  24.730  1.00  0.00    -0.273 OA
BRANCH  19  25
ATOM     25  C   UNL A   1      30.497  29.271  23.436  1.00  0.00     0.056 A 
ATOM     26  C   UNL A   1      27.947  30.816  21.037  1.00  0.00     0.044 C 
ATOM     27  C   UNL A   1      28.832  30.579  22.227  1.00  0.00    -0.049 A 
ATOM     28  C   UNL A   1      28.863  31.534  23.248  1.00  0.00     0.004 A 
ATOM     29  C   UNL A   1      29.644  29.437  22.331  1.00  0.00     0.030 A 
ATOM     30  C   UNL A   1      29.710  31.373  24.343  1.00  0.00     0.006 A 
ATOM     31  C   UNL A   1      30.547  30.254  24.446  1.00  0.00    -0.027 A 
ATOM     32  C   UNL A   1      31.478  30.189  25.625  1.00  0.00     0.046 C 
ENDBRANCH  19  25
ENDBRANCH  17  18
ENDBRANCH  14  17
ENDBRANCH   8  13
BRANCH  12  33
ATOM     33  O   UNL A   1      36.971  23.129  22.655  1.00  0.00    -0.507 OA
ATOM     34  H   UNL A   1      37.374  22.351  22.320  1.00  0.00     0.293 HD
ENDBRANCH  12  33
ENDBRANCH   4   7
ENDBRANCH   2   3
ENDBRANCH   1   2
BRANCH   1  35
ATOM     35  C   UNL A   1      40.838  21.182  27.384  1.00  0.00     0.023 C 
BRANCH  35  36
ATOM     36  C   UNL A   1      42.155  21.943  27.323  1.00  0.00     0.116 C 
BRANCH  36  37
ATOM     37  N   UNL A   1      42.972  21.892  28.541  1.00  0.00    -0.352 N 
ATOM     38  C   UNL A   1      43.594  22.922  29.245  1.00  0.00     0.251 C 
ATOM     39  H   UNL A   1      43.100  20.992  28.919  1.00  0.00     0.163 HD
ATOM     40  O   UNL A   1      44.571  22.667  29.945  1.00  0.00    -0.269 OA
BRANCH  38  41
ATOM     41  C   UNL A   1      43.089  24.313  29.141  1.00  0.00     0.039 A 
ATOM     42  C   UNL A   1      41.893  24.675  28.520  1.00  0.00     0.014 A 
ATOM     43  C   UNL A   1      43.864  25.307  29.709  1.00  0.00     0.014 A 
ATOM     44  C   UNL A   1      41.520  26.026  28.537  1.00  0.00     0.010 A 
ATOM     45  C   UNL A   1      43.314  26.494  30.072  1.00  0.00     0.010 A 
ATOM     46  C   UNL A   1      42.245  26.933  29.335  1.00  0.00    -0.014 A 
BRANCH  46  47
ATOM     47  C   UNL A   1      41.878  28.327  29.536  1.00  0.00     0.031 A 
ATOM     48  C   UNL A   1      42.757  29.238  28.797  1.00  0.00     0.074 A 
ATOM     49  C   UNL A   1      40.746  28.773  30.129  1.00  0.00     0.049 A 
ATOM     50  N   UNL A   1      43.796  29.835  29.268  1.00  0.00    -0.248 NA
ATOM     51  C   UNL A   1      42.633  29.301  27.333  1.00  0.00     0.031 C 
ATOM     52  C   UNL A   1      39.608  27.996  30.640  1.00  0.00     0.029 A 
ATOM     53  N   UNL A   1      40.336  30.060  30.330  1.00  0.00    -0.354 N 
ATOM     54  C   UNL A   1      44.261  30.613  28.225  1.00  0.00     0.074 A 
ATOM     55  C   UNL A   1      43.712  30.028  27.032  1.00  0.00     0.031 C 
ATOM     56  C   UNL A   1      38.574  28.823  30.924  1.00  0.00     0.029 A 
ATOM     57  C   UNL A   1      39.021  30.197  30.775  1.00  0.00     0.049 A 
ATOM     58  H   UNL A   1      40.925  30.833  30.173  1.00  0.00     0.167 HD
ATOM     59  C   UNL A   1      44.775  31.845  28.481  1.00  0.00     0.034 A 
ATOM     60  C   UNL A   1      38.351  31.355  31.027  1.00  0.00     0.034 A 
ATOM     61  C   UNL A   1      45.022  32.010  29.906  1.00  0.00     0.049 A 
ATOM     62  C   UNL A   1      39.383  32.371  31.339  1.00  0.00     0.074 A 
ATOM     63  C   UNL A   1      45.759  31.320  30.851  1.00  0.00     0.029 A 
ATOM     64  N   UNL A   1      44.113  32.761  30.622  1.00  0.00    -0.354 N 
ATOM     65  N   UNL A   1      40.156  32.304  32.388  1.00  0.00    -0.248 NA
ATOM     66  C   UNL A   1      39.874  33.222  30.267  1.00  0.00     0.031 C 
ATOM     67  C   UNL A   1      44.964  31.336  32.036  1.00  0.00     0.029 A 
ATOM     68  C   UNL A   1      43.822  32.104  31.794  1.00  0.00     0.049 A 
ATOM     69  H   UNL A   1      43.735  33.625  30.340  1.00  0.00     0.167 HD
ATOM     70  C   UNL A   1      41.403  32.700  31.934  1.00  0.00     0.074 A 
ATOM     71  C   UNL A   1      41.139  33.383  30.670  1.00  0.00     0.031 C 
ATOM     72  C   UNL A   1      42.543  32.185  32.484  1.00  0.00     0.034 A 
BRANCH  59  73
ATOM     73  C   UNL A   1      44.664  33.029  27.546  1.00  0.00     0.023 A 
ATOM     74  C   UNL A   1      43.904  34.119  28.006  1.00  0.00     0.031 A 
ATOM     75  C   UNL A   1      45.005  33.057  26.173  1.00  0.00     0.131 A 
ATOM     76  C   UNL A   1      43.425  35.093  27.116  1.00  0.00     0.055 A 
ATOM     77  C   UNL A   1      44.583  34.066  25.305  1.00  0.00     0.041 A 
ATOM     78  F   UNL A   1      45.684  32.079  25.566  1.00  0.00    -0.206 F 
ATOM     79  C   UNL A   1      43.759  35.074  25.766  1.00  0.00     0.022 A 
BRANCH  76  80
ATOM     80  S   UNL A   1      42.207  36.278  27.732  1.00  0.00     0.124 S 
ATOM     81  O   UNL A   1      40.985  35.481  27.700  1.00  0.00    -0.237 OA
ATOM     82  O   UNL A   1      42.739  36.592  29.053  1.00  0.00    -0.237 OA
ATOM     83  O   UNL A   1      42.272  37.364  26.757  1.00  0.00    -0.744 OA
ENDBRANCH  76  80
ENDBRANCH  59  73
BRANCH  60  84
ATOM     84  C   UNL A   1      36.922  31.696  30.782  1.00  0.00     0.023 A 
ATOM     85  C   UNL A   1      36.145  32.451  31.691  1.00  0.00     0.031 A 
ATOM     86  C   UNL A   1      36.382  31.516  29.490  1.00  0.00     0.131 A 
ATOM     87  C   UNL A   1      34.904  33.003  31.288  1.00  0.00     0.055 A 
ATOM     88  C   UNL A   1      35.156  32.062  29.098  1.00  0.00     0.041 A 
ATOM     89  F   UNL A   1      37.078  30.887  28.531  1.00  0.00    -0.206 F 
ATOM     90  C   UNL A   1      34.418  32.821  29.992  1.00  0.00     0.022 A 
BRANCH  87  91
ATOM     91  S   UNL A   1      33.949  34.074  32.417  1.00  0.00     0.124 S 
ATOM     92  O   UNL A   1      34.999  34.748  33.173  1.00  0.00    -0.237 OA
ATOM     93  O   UNL A   1      33.180  34.902  31.495  1.00  0.00    -0.237 OA
ATOM     94  O   UNL A   1      33.147  33.125  33.193  1.00  0.00    -0.744 OA
ENDBRANCH  87  91
ENDBRANCH  60  84
BRANCH  72  95
ATOM     95  C   UNL A   1      42.426  31.496  33.835  1.00  0.00     0.023 A 
ATOM     96  C   UNL A   1      42.220  30.109  34.037  1.00  0.00     0.031 A 
ATOM     97  C   UNL A   1      42.601  32.295  34.979  1.00  0.00     0.131 A 
ATOM     98  C   UNL A   1      42.177  29.581  35.345  1.00  0.00     0.055 A 
ATOM     99  C   UNL A   1      42.581  31.767  36.270  1.00  0.00     0.041 A 
ATOM    100  F   UNL A   1      42.820  33.616  34.860  1.00  0.00    -0.206 F 
ATOM    101  C   UNL A   1      42.360  30.408  36.458  1.00  0.00     0.022 A 
BRANCH  98 102
ATOM    102  S   UNL A   1      41.856  27.808  35.628  1.00  0.00     0.124 S 
ATOM    103  O   UNL A   1      41.109  27.401  34.444  1.00  0.00    -0.237 OA
ATOM    104  O   UNL A   1      43.201  27.254  35.755  1.00  0.00    -0.237 OA
ATOM    105  O   UNL A   1      41.078  27.796  36.869  1.00  0.00    -0.744 OA
ENDBRANCH  98 102
ENDBRANCH  72  95
ENDBRANCH  46  47
ENDBRANCH  38  41
ENDBRANCH  36  37
ENDBRANCH  35  36
ENDBRANCH   1  35
TORSDOF 19
ENDMDL
MODEL 3
REMARK VINA RESULT:     -12.2      4.415      7.138
REMARK SMILES Cc1ccc(C)c(N2C(=O)S[C@H](CC(=O)Nc3ccc(C(=O)NCCCCNC(=O)c4ccc(-c5c6nc(c(-c7cc(S(=O)(=O)[O-])ccc7F)c7ccc([nH]7)c(-c7cc(S(=O)(=O)[O-])ccc7F)c7nc(c(-c8cc(S(=O)(=O)[O-])ccc8F)c8ccc5[nH]8)C=C7)C=C6)cc4)c(O)c3)C2=O)c1
REMARK SMILES IDX 25 1 24 2 23 3 21 4 22 5 20 7 17 8 18 9 96 10 19 11 94 12
REMARK SMILES IDX 16 13 14 14 15 15 13 17 12 18 8 19 9 20 97 21 10 22 11 23
REMARK SMILES IDX 98 24 7 25 1 26 2 27 3 28 99 29 4 30 5 31 6 32 95 33 26 35
REMARK SMILES IDX 27 36 28 37 29 38 30 40 31 41 32 42 93 43 33 44 92 45 34 46
REMARK SMILES IDX 35 47 36 48 86 49 37 50 91 51 85 52 87 53 38 54 90 55 84 56
REMARK SMILES IDX 83 57 39 59 71 60 51 61 70 62 52 63 55 64 69 65 88 66 53 67
REMARK SMILES IDX 54 68 68 70 89 71 56 72 40 73 41 74 49 75 42 76 48 77 50 78
REMARK SMILES IDX 47 79 43 80 44 81 45 82 46 83 72 84 73 85 81 86 74 87 80 88
REMARK SMILES IDX 82 89 79 90 75 91 76 92 77 93 78 94 57 95 58 96 66 97 59 98
REMARK SMILES IDX 65 99 67 100 64 101 60 102 61 103 62 104 63 105
REMARK H PARENT 23 6 16 16 95 34 28 39 87 58 55 69
REMARK Flexibility Score: inf
ROOT
ATOM      1  C   UNL A   1      36.059  33.543  27.991  1.00  0.00     0.023 C 
ENDROOT
BRANCH   1   2
ATOM      2  C   UNL A   1      34.661  33.008  28.300  1.00  0.00     0.116 C 
BRANCH   2   3
ATOM      3  N   UNL A   1      33.649  33.966  28.684  1.00  0.00    -0.352 N 
ATOM      4  C   UNL A   1      33.476  34.655  29.870  1.00  0.00     0.255 C 
ATOM      5  O   UNL A   1      32.564  35.484  29.888  1.00  0.00    -0.269 OA
ATOM      6  H   UNL A   1      32.976  34.158  27.992  1.00  0.00     0.163 HD
BRANCH   4   7
ATOM      7  C   UNL A   1      34.215  34.356  31.142  1.00  0.00     0.081 A 
ATOM      8  C   UNL A   1      34.979  34.089  33.845  1.00  0.00     0.044 A 
ATOM      9  C   UNL A   1      35.048  35.313  33.199  1.00  0.00     0.027 A 
ATOM     10  C   UNL A   1      34.831  32.958  33.059  1.00  0.00     0.073 A 
ATOM     11  C   UNL A   1      34.608  35.468  31.888  1.00  0.00     0.020 A 
ATOM     12  C   UNL A   1      34.519  33.106  31.695  1.00  0.00     0.130 A 
BRANCH   8  13
ATOM     13  N   UNL A   1      35.140  34.012  35.240  1.00  0.00    -0.326 N 
ATOM     14  C   UNL A   1      36.309  33.752  35.930  1.00  0.00     0.226 C 
ATOM     15  O   UNL A   1      36.271  33.376  37.103  1.00  0.00    -0.275 OA
ATOM     16  H   UNL A   1      34.333  34.159  35.785  1.00  0.00     0.169 HD
BRANCH  14  17
ATOM     17  C   UNL A   1      37.635  34.171  35.298  1.00  0.00     0.125 C 
BRANCH  17  18
ATOM     18  C   UNL A   1      38.746  33.122  35.272  1.00  0.00     0.156 C 
ATOM     19  N   UNL A   1      39.624  33.052  33.040  1.00  0.00    -0.240 N 
ATOM     20  C   UNL A   1      38.709  32.029  32.946  1.00  0.00     0.293 C 
ATOM     21  C   UNL A   1      39.828  33.587  34.301  1.00  0.00     0.248 C 
ATOM     22  O   UNL A   1      38.276  31.493  31.948  1.00  0.00    -0.261 OA
ATOM     23  S   UNL A   1      38.256  31.525  34.567  1.00  0.00    -0.050 SA
ATOM     24  O   UNL A   1      40.729  34.352  34.634  1.00  0.00    -0.273 OA
BRANCH  19  25
ATOM     25  C   UNL A   1      40.546  33.235  31.985  1.00  0.00     0.056 A 
ATOM     26  C   UNL A   1      40.922  35.350  28.818  1.00  0.00     0.044 C 
ATOM     27  C   UNL A   1      41.165  34.338  29.902  1.00  0.00    -0.049 A 
ATOM     28  C   UNL A   1      42.256  33.471  29.785  1.00  0.00     0.004 A 
ATOM     29  C   UNL A   1      40.316  34.226  31.015  1.00  0.00     0.030 A 
ATOM     30  C   UNL A   1      42.484  32.486  30.744  1.00  0.00     0.006 A 
ATOM     31  C   UNL A   1      41.629  32.343  31.844  1.00  0.00    -0.027 A 
ATOM     32  C   UNL A   1      41.907  31.214  32.799  1.00  0.00     0.046 C 
ENDBRANCH  19  25
ENDBRANCH  17  18
ENDBRANCH  14  17
ENDBRANCH   8  13
BRANCH  12  33
ATOM     33  O   UNL A   1      34.631  31.970  30.944  1.00  0.00    -0.507 OA
ATOM     34  H   UNL A   1      34.066  31.240  31.110  1.00  0.00     0.293 HD
ENDBRANCH  12  33
ENDBRANCH   4   7
ENDBRANCH   2   3
ENDBRANCH   1   2
BRANCH   1  35
ATOM     35  C   UNL A   1      37.217  33.371  28.977  1.00  0.00     0.023 C 
BRANCH  35  36
ATOM     36  C   UNL A   1      37.807  31.984  29.184  1.00  0.00     0.116 C 
BRANCH  36  37
ATOM     37  N   UNL A   1      36.867  30.867  29.033  1.00  0.00    -0.352 N 
ATOM     38  C   UNL A   1      37.007  29.666  28.339  1.00  0.00     0.251 C 
ATOM     39  H   UNL A   1      36.004  30.984  29.494  1.00  0.00     0.163 HD
ATOM     40  O   UNL A   1      36.002  29.075  27.952  1.00  0.00    -0.269 OA
BRANCH  38  41
ATOM     41  C   UNL A   1      38.356  29.115  28.060  1.00  0.00     0.039 A 
ATOM     42  C   UNL A   1      39.121  29.428  26.936  1.00  0.00     0.014 A 
ATOM     43  C   UNL A   1      38.881  28.237  28.990  1.00  0.00     0.014 A 
ATOM     44  C   UNL A   1      40.399  28.864  26.826  1.00  0.00     0.010 A 
ATOM     45  C   UNL A   1      40.221  28.039  29.080  1.00  0.00     0.010 A 
ATOM     46  C   UNL A   1      40.945  28.171  27.925  1.00  0.00    -0.014 A 
BRANCH  46  47
ATOM     47  C   UNL A   1      42.305  27.657  27.979  1.00  0.00     0.031 A 
ATOM     48  C   UNL A   1      42.463  26.438  27.180  1.00  0.00     0.074 A 
ATOM     49  C   UNL A   1      43.380  28.302  28.491  1.00  0.00     0.049 A 
ATOM     50  N   UNL A   1      42.390  25.230  27.620  1.00  0.00    -0.248 NA
ATOM     51  C   UNL A   1      42.445  26.549  25.714  1.00  0.00     0.031 C 
ATOM     52  C   UNL A   1      43.459  29.662  29.043  1.00  0.00     0.029 A 
ATOM     53  N   UNL A   1      44.679  27.884  28.554  1.00  0.00    -0.354 N 
ATOM     54  C   UNL A   1      42.650  24.435  26.521  1.00  0.00     0.074 A 
ATOM     55  C   UNL A   1      42.379  25.260  25.375  1.00  0.00     0.031 C 
ATOM     56  C   UNL A   1      44.754  30.016  29.215  1.00  0.00     0.029 A 
ATOM     57  C   UNL A   1      45.594  28.861  28.945  1.00  0.00     0.049 A 
ATOM     58  H   UNL A   1      44.947  26.961  28.341  1.00  0.00     0.167 HD
ATOM     59  C   UNL A   1      43.374  23.294  26.670  1.00  0.00     0.034 A 
ATOM     60  C   UNL A   1      46.943  28.727  29.064  1.00  0.00     0.034 A 
ATOM     61  C   UNL A   1      43.501  22.951  28.079  1.00  0.00     0.049 A 
ATOM     62  C   UNL A   1      47.198  27.288  29.306  1.00  0.00     0.074 A 
ATOM     63  C   UNL A   1      42.607  22.719  29.108  1.00  0.00     0.029 A 
ATOM     64  N   UNL A   1      44.704  23.233  28.692  1.00  0.00    -0.354 N 
ATOM     65  N   UNL A   1      46.797  26.663  30.378  1.00  0.00    -0.248 NA
ATOM     66  C   UNL A   1      47.499  26.431  28.171  1.00  0.00     0.031 C 
ATOM     67  C   UNL A   1      43.195  23.319  30.263  1.00  0.00     0.029 A 
ATOM     68  C   UNL A   1      44.454  23.812  29.914  1.00  0.00     0.049 A 
ATOM     69  H   UNL A   1      45.596  23.050  28.317  1.00  0.00     0.167 HD
ATOM     70  C   UNL A   1      46.351  25.433  29.924  1.00  0.00     0.074 A 
ATOM     71  C   UNL A   1      46.935  25.294  28.593  1.00  0.00     0.031 C 
ATOM     72  C   UNL A   1      45.327  24.785  30.555  1.00  0.00     0.034 A 
BRANCH  59  73
ATOM     73  C   UNL A   1      44.307  22.730  25.622  1.00  0.00     0.023 A 
ATOM     74  C   UNL A   1      44.180  21.357  25.345  1.00  0.00     0.031 A 
ATOM     75  C   UNL A   1      45.459  23.357  25.092  1.00  0.00     0.131 A 
ATOM     76  C   UNL A   1      45.202  20.654  24.689  1.00  0.00     0.055 A 
ATOM     77  C   UNL A   1      46.441  22.665  24.378  1.00  0.00     0.041 A 
ATOM     78  F   UNL A   1      45.756  24.643  25.298  1.00  0.00    -0.206 F 
ATOM     79  C   UNL A   1      46.334  21.299  24.203  1.00  0.00     0.022 A 
BRANCH  76  80
ATOM     80  S   UNL A   1      45.098  18.850  24.649  1.00  0.00     0.124 S 
ATOM     81  O   UNL A   1      43.970  18.605  25.542  1.00  0.00    -0.237 OA
ATOM     82  O   UNL A   1      44.868  18.597  23.231  1.00  0.00    -0.237 OA
ATOM     83  O   UNL A   1      46.401  18.428  25.156  1.00  0.00    -0.744 OA
ENDBRANCH  76  80
ENDBRANCH  59  73
BRANCH  60  84
ATOM     84  C   UNL A   1      48.023  29.703  28.745  1.00  0.00     0.023 A 
ATOM     85  C   UNL A   1      47.863  30.747  27.804  1.00  0.00     0.031 A 
ATOM     86  C   UNL A   1      49.150  29.784  29.591  1.00  0.00     0.131 A 
ATOM     87  C   UNL A   1      48.791  31.816  27.755  1.00  0.00     0.055 A 
ATOM     88  C   UNL A   1      50.063  30.841  29.537  1.00  0.00     0.041 A 
ATOM     89  F   UNL A   1      49.347  28.888  30.571  1.00  0.00    -0.206 F 
ATOM     90  C   UNL A   1      49.880  31.871  28.627  1.00  0.00     0.022 A 
BRANCH  87  91
ATOM     91  S   UNL A   1      48.530  33.226  26.624  1.00  0.00     0.124 S 
ATOM     92  O   UNL A   1      48.629  34.371  27.523  1.00  0.00    -0.237 OA
ATOM     93  O   UNL A   1      49.611  33.063  25.659  1.00  0.00    -0.237 OA
ATOM     94  O   UNL A   1      47.191  32.987  26.082  1.00  0.00    -0.744 OA
ENDBRANCH  87  91
ENDBRANCH  60  84
BRANCH  72  95
ATOM     95  C   UNL A   1      44.967  25.235  31.963  1.00  0.00     0.023 A 
ATOM     96  C   UNL A   1      45.559  24.755  33.157  1.00  0.00     0.031 A 
ATOM     97  C   UNL A   1      44.009  26.258  32.082  1.00  0.00     0.131 A 
ATOM     98  C   UNL A   1      45.170  25.288  34.405  1.00  0.00     0.055 A 
ATOM     99  C   UNL A   1      43.644  26.798  33.315  1.00  0.00     0.041 A 
ATOM    100  F   UNL A   1      43.422  26.772  30.989  1.00  0.00    -0.206 F 
ATOM    101  C   UNL A   1      44.217  26.309  34.483  1.00  0.00     0.022 A 
BRANCH  98 102
ATOM    102  S   UNL A   1      45.878  24.645  35.958  1.00  0.00     0.124 S 
ATOM    103  O   UNL A   1      44.710  24.200  36.709  1.00  0.00    -0.237 OA
ATOM    104  O   UNL A   1      46.774  23.591  35.490  1.00  0.00    -0.237 OA
ATOM    105  O   UNL A   1      46.560  25.808  36.530  1.00  0.00    -0.744 OA
ENDBRANCH  98 102
ENDBRANCH  72  95
ENDBRANCH  46  47
ENDBRANCH  38  41
ENDBRANCH  36  37
ENDBRANCH  35  36
ENDBRANCH   1  35
TORSDOF 19
ENDMDL
