MODEL 1
REMARK VINA RESULT:     -13.3      0.000      0.000
REMARK SMILES COc1cccc([C@@H]2CN(C(=O)CSc3nc(C)n[nH]3)C[C@H]2C(=O)NCCCCNC(=O)c2ccc(-c3c4nc(c(-c5cc(S(=O)(=O)[O-])ccc5F)c5ccc([nH]5)c(-c5cc(S(=O)(=O)[O-])ccc5F)c5nc(c(-c6cc(S(=O)(=O)[O-])ccc6F)c6ccc3[nH]6)C=C5)C=C4)cc2)c1
REMARK SMILES IDX 27 1 26 2 25 3 23 4 24 5 22 7 8 8 9 9 10 10 21 11 7 12 3 13
REMARK SMILES IDX 4 14 96 15 5 16 6 17 2 18 1 19 11 20 12 21 13 22 14 23 15 24
REMARK SMILES IDX 16 25 20 26 17 27 19 28 18 30 28 31 29 32 30 33 31 34 32 36
REMARK SMILES IDX 33 37 34 38 95 39 35 40 94 41 36 42 37 43 38 44 88 45 39 46
REMARK SMILES IDX 93 47 87 48 89 49 40 50 92 51 86 52 85 53 41 55 73 56 53 57
REMARK SMILES IDX 72 58 54 59 57 60 71 61 90 62 55 63 56 64 70 66 91 67 58 68
REMARK SMILES IDX 42 69 43 70 51 71 44 72 50 73 52 74 49 75 45 76 46 77 47 78
REMARK SMILES IDX 48 79 74 80 75 81 83 82 76 83 82 84 84 85 81 86 77 87 78 88
REMARK SMILES IDX 79 89 80 90 59 91 60 92 68 93 61 94 67 95 69 96 66 97 62 98
REMARK SMILES IDX 63 99 64 100 65 101
REMARK H PARENT 25 6 20 29 30 35 89 54 57 65
REMARK Flexibility Score: inf
ROOT
ATOM      1  C   UNL A   1      33.016  28.799  26.947  1.00  0.00     0.023 C 
ENDROOT
BRANCH   1   2
ATOM      2  C   UNL A   1      32.394  27.916  25.859  1.00  0.00     0.116 C 
BRANCH   2   3
ATOM      3  N   UNL A   1      31.384  27.010  26.380  1.00  0.00    -0.356 N 
ATOM      4  C   UNL A   1      30.477  26.207  25.762  1.00  0.00     0.225 C 
ATOM      5  O   UNL A   1      29.745  25.523  26.484  1.00  0.00    -0.275 OA
ATOM      6  H   UNL A   1      31.351  26.970  27.364  1.00  0.00     0.163 HD
BRANCH   4   7
ATOM      7  C   UNL A   1      30.319  26.135  24.253  1.00  0.00     0.107 C 
ATOM      8  C   UNL A   1      30.719  27.434  23.531  1.00  0.00     0.053 C 
ATOM      9  C   UNL A   1      31.279  26.951  22.194  1.00  0.00     0.128 C 
ATOM     10  N   UNL A   1      31.867  25.663  22.511  1.00  0.00    -0.341 N 
ATOM     11  C   UNL A   1      31.154  25.027  23.609  1.00  0.00     0.133 C 
BRANCH   8  12
ATOM     12  C   UNL A   1      29.638  28.484  23.410  1.00  0.00    -0.039 A 
ATOM     13  C   UNL A   1      28.886  30.796  23.461  1.00  0.00     0.119 A 
ATOM     14  C   UNL A   1      27.576  30.380  23.228  1.00  0.00     0.046 A 
ATOM     15  C   UNL A   1      29.909  29.851  23.574  1.00  0.00     0.050 A 
ATOM     16  C   UNL A   1      27.292  29.028  23.058  1.00  0.00     0.004 A 
ATOM     17  C   UNL A   1      28.318  28.087  23.142  1.00  0.00     0.004 A 
BRANCH  13  18
ATOM     18  O   UNL A   1      29.071  32.142  23.627  1.00  0.00    -0.497 OA
ATOM     19  C   UNL A   1      28.625  32.923  22.521  1.00  0.00     0.278 C 
ENDBRANCH  13  18
ENDBRANCH   8  12
BRANCH  10  20
ATOM     20  C   UNL A   1      32.890  25.011  21.859  1.00  0.00     0.233 C 
ATOM     21  O   UNL A   1      33.228  25.328  20.716  1.00  0.00    -0.274 OA
BRANCH  20  22
ATOM     22  C   UNL A   1      33.526  23.803  22.520  1.00  0.00     0.178 C 
BRANCH  22  23
ATOM     23  S   UNL A   1      34.740  24.204  23.802  1.00  0.00    -0.077 SA
BRANCH  23  24
ATOM     24  C   UNL A   1      35.288  22.643  24.257  1.00  0.00     0.184 A 
ATOM     25  N   UNL A   1      36.505  22.170  24.164  1.00  0.00    -0.206 NA
ATOM     26  N   UNL A   1      34.479  21.742  24.870  1.00  0.00    -0.254 N 
ATOM     27  C   UNL A   1      36.382  20.926  24.734  1.00  0.00     0.148 A 
ATOM     28  N   UNL A   1      35.163  20.637  25.212  1.00  0.00    -0.158 NA
ATOM     29  H   UNL A   1      33.519  21.880  25.039  1.00  0.00     0.192 HD
ATOM     30  C   UNL A   1      37.524  19.996  24.842  1.00  0.00     0.092 C 
ENDBRANCH  23  24
ENDBRANCH  22  23
ENDBRANCH  20  22
ENDBRANCH  10  20
ENDBRANCH   4   7
ENDBRANCH   2   3
ENDBRANCH   1   2
BRANCH   1  31
ATOM     31  C   UNL A   1      34.497  28.552  27.252  1.00  0.00     0.023 C 
BRANCH  31  32
ATOM     32  C   UNL A   1      35.338  29.812  27.401  1.00  0.00     0.116 C 
BRANCH  32  33
ATOM     33  N   UNL A   1      35.492  30.229  28.792  1.00  0.00    -0.352 N 
ATOM     34  C   UNL A   1      36.421  29.766  29.705  1.00  0.00     0.251 C 
ATOM     35  H   UNL A   1      34.866  30.916  29.116  1.00  0.00     0.163 HD
ATOM     36  O   UNL A   1      36.206  29.871  30.911  1.00  0.00    -0.269 OA
BRANCH  34  37
ATOM     37  C   UNL A   1      37.655  29.133  29.203  1.00  0.00     0.039 A 
ATOM     38  C   UNL A   1      38.307  29.626  28.076  1.00  0.00     0.014 A 
ATOM     39  C   UNL A   1      38.190  28.064  29.922  1.00  0.00     0.014 A 
ATOM     40  C   UNL A   1      39.559  29.106  27.747  1.00  0.00     0.010 A 
ATOM     41  C   UNL A   1      39.478  27.636  29.670  1.00  0.00     0.010 A 
ATOM     42  C   UNL A   1      40.168  28.140  28.574  1.00  0.00    -0.014 A 
BRANCH  42  43
ATOM     43  C   UNL A   1      41.581  27.793  28.375  1.00  0.00     0.031 A 
ATOM     44  C   UNL A   1      41.781  26.563  27.563  1.00  0.00     0.074 A 
ATOM     45  C   UNL A   1      42.645  28.551  28.731  1.00  0.00     0.049 A 
ATOM     46  N   UNL A   1      42.051  25.382  28.007  1.00  0.00    -0.248 NA
ATOM     47  C   UNL A   1      41.467  26.591  26.125  1.00  0.00     0.031 C 
ATOM     48  C   UNL A   1      42.634  29.913  29.271  1.00  0.00     0.029 A 
ATOM     49  N   UNL A   1      43.984  28.287  28.614  1.00  0.00    -0.354 N 
ATOM     50  C   UNL A   1      42.235  24.585  26.881  1.00  0.00     0.074 A 
ATOM     51  C   UNL A   1      41.643  25.309  25.789  1.00  0.00     0.031 C 
ATOM     52  C   UNL A   1      43.880  30.437  29.226  1.00  0.00     0.029 A 
ATOM     53  C   UNL A   1      44.809  29.388  28.841  1.00  0.00     0.049 A 
ATOM     54  H   UNL A   1      44.335  27.395  28.387  1.00  0.00     0.167 HD
ATOM     55  C   UNL A   1      43.123  23.550  26.917  1.00  0.00     0.034 A 
ATOM     56  C   UNL A   1      46.165  29.448  28.782  1.00  0.00     0.034 A 
ATOM     57  C   UNL A   1      43.569  23.322  28.271  1.00  0.00     0.049 A 
ATOM     58  C   UNL A   1      46.667  28.085  29.059  1.00  0.00     0.074 A 
ATOM     59  C   UNL A   1      43.072  22.745  29.418  1.00  0.00     0.029 A 
ATOM     60  N   UNL A   1      44.628  24.114  28.639  1.00  0.00    -0.354 N 
ATOM     61  N   UNL A   1      46.487  27.487  30.205  1.00  0.00    -0.248 NA
ATOM     62  C   UNL A   1      47.048  27.212  27.956  1.00  0.00     0.031 C 
ATOM     63  C   UNL A   1      43.750  23.378  30.504  1.00  0.00     0.029 A 
ATOM     64  C   UNL A   1      44.681  24.283  29.997  1.00  0.00     0.049 A 
ATOM     65  H   UNL A   1      45.270  24.509  28.007  1.00  0.00     0.167 HD
ATOM     66  C   UNL A   1      46.293  26.163  29.875  1.00  0.00     0.074 A 
ATOM     67  C   UNL A   1      46.826  26.023  28.525  1.00  0.00     0.031 C 
ATOM     68  C   UNL A   1      45.431  25.379  30.585  1.00  0.00     0.034 A 
BRANCH  55  69
ATOM     69  C   UNL A   1      43.970  23.055  25.758  1.00  0.00     0.023 A 
ATOM     70  C   UNL A   1      44.045  21.657  25.564  1.00  0.00     0.031 A 
ATOM     71  C   UNL A   1      44.924  23.822  25.055  1.00  0.00     0.131 A 
ATOM     72  C   UNL A   1      45.066  21.084  24.785  1.00  0.00     0.055 A 
ATOM     73  C   UNL A   1      45.905  23.250  24.238  1.00  0.00     0.041 A 
ATOM     74  F   UNL A   1      45.028  25.148  25.191  1.00  0.00    -0.206 F 
ATOM     75  C   UNL A   1      45.999  21.873  24.120  1.00  0.00     0.022 A 
BRANCH  72  76
ATOM     76  S   UNL A   1      45.248  19.280  24.771  1.00  0.00     0.124 S 
ATOM     77  O   UNL A   1      45.077  18.969  23.357  1.00  0.00    -0.237 OA
ATOM     78  O   UNL A   1      46.591  19.107  25.314  1.00  0.00    -0.237 OA
ATOM     79  O   UNL A   1      44.165  18.825  25.643  1.00  0.00    -0.744 OA
ENDBRANCH  72  76
ENDBRANCH  55  69
BRANCH  56  80
ATOM     80  C   UNL A   1      47.023  30.547  28.264  1.00  0.00     0.023 A 
ATOM     81  C   UNL A   1      46.542  31.567  27.413  1.00  0.00     0.031 A 
ATOM     82  C   UNL A   1      48.293  30.752  28.846  1.00  0.00     0.131 A 
ATOM     83  C   UNL A   1      47.312  32.735  27.194  1.00  0.00     0.055 A 
ATOM     84  C   UNL A   1      49.045  31.910  28.631  1.00  0.00     0.041 A 
ATOM     85  F   UNL A   1      48.804  29.868  29.719  1.00  0.00    -0.206 F 
ATOM     86  C   UNL A   1      48.550  32.913  27.813  1.00  0.00     0.022 A 
BRANCH  83  87
ATOM     87  S   UNL A   1      46.665  34.097  26.166  1.00  0.00     0.124 S 
ATOM     88  O   UNL A   1      47.812  34.426  25.328  1.00  0.00    -0.237 OA
ATOM     89  O   UNL A   1      45.529  33.473  25.498  1.00  0.00    -0.237 OA
ATOM     90  O   UNL A   1      46.307  35.124  27.146  1.00  0.00    -0.744 OA
ENDBRANCH  83  87
ENDBRANCH  56  80
BRANCH  68  91
ATOM     91  C   UNL A   1      45.177  25.744  32.027  1.00  0.00     0.023 A 
ATOM     92  C   UNL A   1      45.959  25.344  33.131  1.00  0.00     0.031 A 
ATOM     93  C   UNL A   1      44.073  26.581  32.274  1.00  0.00     0.131 A 
ATOM     94  C   UNL A   1      45.616  25.782  34.427  1.00  0.00     0.055 A 
ATOM     95  C   UNL A   1      43.751  27.030  33.552  1.00  0.00     0.041 A 
ATOM     96  F   UNL A   1      43.291  26.994  31.263  1.00  0.00    -0.206 F 
ATOM     97  C   UNL A   1      44.518  26.626  34.636  1.00  0.00     0.022 A 
BRANCH  94  98
ATOM     98  S   UNL A   1      46.570  25.235  35.879  1.00  0.00     0.124 S 
ATOM     99  O   UNL A   1      47.682  24.492  35.299  1.00  0.00    -0.237 OA
ATOM    100  O   UNL A   1      46.914  26.500  36.525  1.00  0.00    -0.237 OA
ATOM    101  O   UNL A   1      45.614  24.414  36.627  1.00  0.00    -0.744 OA
ENDBRANCH  94  98
ENDBRANCH  68  91
ENDBRANCH  42  43
ENDBRANCH  34  37
ENDBRANCH  32  33
ENDBRANCH  31  32
ENDBRANCH   1  31
TORSDOF 20
ENDMDL
MODEL 2
REMARK VINA RESULT:     -13.1      1.835      2.163
REMARK SMILES COc1cccc([C@@H]2CN(C(=O)CSc3nc(C)n[nH]3)C[C@H]2C(=O)NCCCCNC(=O)c2ccc(-c3c4nc(c(-c5cc(S(=O)(=O)[O-])ccc5F)c5ccc([nH]5)c(-c5cc(S(=O)(=O)[O-])ccc5F)c5nc(c(-c6cc(S(=O)(=O)[O-])ccc6F)c6ccc3[nH]6)C=C5)C=C4)cc2)c1
REMARK SMILES IDX 27 1 26 2 25 3 23 4 24 5 22 7 8 8 9 9 10 10 21 11 7 12 3 13
REMARK SMILES IDX 4 14 96 15 5 16 6 17 2 18 1 19 11 20 12 21 13 22 14 23 15 24
REMARK SMILES IDX 16 25 20 26 17 27 19 28 18 30 28 31 29 32 30 33 31 34 32 36
REMARK SMILES IDX 33 37 34 38 95 39 35 40 94 41 36 42 37 43 38 44 88 45 39 46
REMARK SMILES IDX 93 47 87 48 89 49 40 50 92 51 86 52 85 53 41 55 73 56 53 57
REMARK SMILES IDX 72 58 54 59 57 60 71 61 90 62 55 63 56 64 70 66 91 67 58 68
REMARK SMILES IDX 42 69 43 70 51 71 44 72 50 73 52 74 49 75 45 76 46 77 47 78
REMARK SMILES IDX 48 79 74 80 75 81 83 82 76 83 82 84 84 85 81 86 77 87 78 88
REMARK SMILES IDX 79 89 80 90 59 91 60 92 68 93 61 94 67 95 69 96 66 97 62 98
REMARK SMILES IDX 63 99 64 100 65 101
REMARK H PARENT 25 6 20 29 30 35 89 54 57 65
REMARK Flexibility Score: inf
ROOT
ATOM      1  C   UNL A   1      32.854  30.145  26.982  1.00  0.00     0.023 C 
ENDROOT
BRANCH   1   2
ATOM      2  C   UNL A   1      32.077  30.056  25.665  1.00  0.00     0.116 C 
BRANCH   2   3
ATOM      3  N   UNL A   1      32.937  29.805  24.520  1.00  0.00    -0.356 N 
ATOM      4  C   UNL A   1      33.085  28.718  23.715  1.00  0.00     0.225 C 
ATOM      5  O   UNL A   1      33.900  28.809  22.791  1.00  0.00    -0.275 OA
ATOM      6  H   UNL A   1      33.520  30.563  24.283  1.00  0.00     0.163 HD
BRANCH   4   7
ATOM      7  C   UNL A   1      32.319  27.422  23.914  1.00  0.00     0.107 C 
ATOM      8  C   UNL A   1      31.352  27.097  22.761  1.00  0.00     0.053 C 
ATOM      9  C   UNL A   1      31.357  25.570  22.701  1.00  0.00     0.128 C 
ATOM     10  N   UNL A   1      32.698  25.212  23.124  1.00  0.00    -0.341 N 
ATOM     11  C   UNL A   1      33.226  26.199  24.054  1.00  0.00     0.133 C 
BRANCH   8  12
ATOM     12  C   UNL A   1      29.975  27.712  22.858  1.00  0.00    -0.039 A 
ATOM     13  C   UNL A   1      28.401  29.513  22.420  1.00  0.00     0.119 A 
ATOM     14  C   UNL A   1      27.411  28.824  23.119  1.00  0.00     0.046 A 
ATOM     15  C   UNL A   1      29.684  28.970  22.309  1.00  0.00     0.050 A 
ATOM     16  C   UNL A   1      27.684  27.572  23.665  1.00  0.00     0.004 A 
ATOM     17  C   UNL A   1      28.956  27.017  23.529  1.00  0.00     0.004 A 
BRANCH  13  18
ATOM     18  O   UNL A   1      28.048  30.741  21.928  1.00  0.00    -0.497 OA
ATOM     19  C   UNL A   1      29.010  31.761  22.186  1.00  0.00     0.278 C 
ENDBRANCH  13  18
ENDBRANCH   8  12
BRANCH  10  20
ATOM     20  C   UNL A   1      33.410  24.073  22.820  1.00  0.00     0.233 C 
ATOM     21  O   UNL A   1      33.647  23.756  21.652  1.00  0.00    -0.274 OA
BRANCH  20  22
ATOM     22  C   UNL A   1      33.804  23.134  23.945  1.00  0.00     0.178 C 
BRANCH  22  23
ATOM     23  S   UNL A   1      32.405  22.413  24.841  1.00  0.00    -0.077 SA
BRANCH  23  24
ATOM     24  C   UNL A   1      32.863  20.761  24.922  1.00  0.00     0.184 A 
ATOM     25  N   UNL A   1      32.111  19.744  25.256  1.00  0.00    -0.206 NA
ATOM     26  N   UNL A   1      34.093  20.332  24.540  1.00  0.00    -0.254 N 
ATOM     27  C   UNL A   1      32.959  18.678  25.075  1.00  0.00     0.148 A 
ATOM     28  N   UNL A   1      34.174  18.992  24.603  1.00  0.00    -0.158 NA
ATOM     29  H   UNL A   1      34.826  20.924  24.255  1.00  0.00     0.192 HD
ATOM     30  C   UNL A   1      32.542  17.288  25.348  1.00  0.00     0.092 C 
ENDBRANCH  23  24
ENDBRANCH  22  23
ENDBRANCH  20  22
ENDBRANCH  10  20
ENDBRANCH   4   7
ENDBRANCH   2   3
ENDBRANCH   1   2
BRANCH   1  31
ATOM     31  C   UNL A   1      33.870  29.027  27.243  1.00  0.00     0.023 C 
BRANCH  31  32
ATOM     32  C   UNL A   1      35.298  29.501  27.471  1.00  0.00     0.116 C 
BRANCH  32  33
ATOM     33  N   UNL A   1      35.489  30.112  28.784  1.00  0.00    -0.352 N 
ATOM     34  C   UNL A   1      36.476  29.819  29.706  1.00  0.00     0.251 C 
ATOM     35  H   UNL A   1      34.845  30.811  29.040  1.00  0.00     0.163 HD
ATOM     36  O   UNL A   1      36.307  30.080  30.895  1.00  0.00    -0.269 OA
BRANCH  34  37
ATOM     37  C   UNL A   1      37.717  29.173  29.237  1.00  0.00     0.039 A 
ATOM     38  C   UNL A   1      38.416  29.674  28.140  1.00  0.00     0.014 A 
ATOM     39  C   UNL A   1      38.212  28.086  29.957  1.00  0.00     0.014 A 
ATOM     40  C   UNL A   1      39.670  29.139  27.847  1.00  0.00     0.010 A 
ATOM     41  C   UNL A   1      39.500  27.642  29.742  1.00  0.00     0.010 A 
ATOM     42  C   UNL A   1      40.235  28.152  28.679  1.00  0.00    -0.014 A 
BRANCH  42  43
ATOM     43  C   UNL A   1      41.649  27.786  28.523  1.00  0.00     0.031 A 
ATOM     44  C   UNL A   1      41.858  26.568  27.696  1.00  0.00     0.074 A 
ATOM     45  C   UNL A   1      42.711  28.520  28.930  1.00  0.00     0.049 A 
ATOM     46  N   UNL A   1      42.095  25.374  28.127  1.00  0.00    -0.248 NA
ATOM     47  C   UNL A   1      41.596  26.626  26.248  1.00  0.00     0.031 C 
ATOM     48  C   UNL A   1      42.702  29.873  29.494  1.00  0.00     0.029 A 
ATOM     49  N   UNL A   1      44.050  28.237  28.854  1.00  0.00    -0.354 N 
ATOM     50  C   UNL A   1      42.306  24.595  26.994  1.00  0.00     0.074 A 
ATOM     51  C   UNL A   1      41.764  25.348  25.896  1.00  0.00     0.031 C 
ATOM     52  C   UNL A   1      43.957  30.377  29.502  1.00  0.00     0.029 A 
ATOM     53  C   UNL A   1      44.883  29.321  29.131  1.00  0.00     0.049 A 
ATOM     54  H   UNL A   1      44.394  27.344  28.624  1.00  0.00     0.167 HD
ATOM     55  C   UNL A   1      43.176  23.546  27.042  1.00  0.00     0.034 A 
ATOM     56  C   UNL A   1      46.241  29.360  29.120  1.00  0.00     0.034 A 
ATOM     57  C   UNL A   1      43.571  23.287  28.407  1.00  0.00     0.049 A 
ATOM     58  C   UNL A   1      46.712  27.985  29.390  1.00  0.00     0.074 A 
ATOM     59  C   UNL A   1      43.025  22.697  29.524  1.00  0.00     0.029 A 
ATOM     60  N   UNL A   1      44.629  24.054  28.826  1.00  0.00    -0.354 N 
ATOM     61  N   UNL A   1      46.482  27.369  30.517  1.00  0.00    -0.248 NA
ATOM     62  C   UNL A   1      47.118  27.126  28.285  1.00  0.00     0.031 C 
ATOM     63  C   UNL A   1      43.674  23.300  30.645  1.00  0.00     0.029 A 
ATOM     64  C   UNL A   1      44.637  24.198  30.187  1.00  0.00     0.049 A 
ATOM     65  H   UNL A   1      45.298  24.451  28.223  1.00  0.00     0.167 HD
ATOM     66  C   UNL A   1      46.280  26.054  30.156  1.00  0.00     0.074 A 
ATOM     67  C   UNL A   1      46.858  25.931  28.824  1.00  0.00     0.031 C 
ATOM     68  C   UNL A   1      45.381  25.272  30.822  1.00  0.00     0.034 A 
BRANCH  55  69
ATOM     69  C   UNL A   1      44.056  23.058  25.904  1.00  0.00     0.023 A 
ATOM     70  C   UNL A   1      43.837  21.742  25.437  1.00  0.00     0.031 A 
ATOM     71  C   UNL A   1      45.258  23.665  25.480  1.00  0.00     0.131 A 
ATOM     72  C   UNL A   1      44.807  21.071  24.672  1.00  0.00     0.055 A 
ATOM     73  C   UNL A   1      46.196  23.010  24.675  1.00  0.00     0.041 A 
ATOM     74  F   UNL A   1      45.642  24.876  25.897  1.00  0.00    -0.206 F 
ATOM     75  C   UNL A   1      45.987  21.697  24.288  1.00  0.00     0.022 A 
BRANCH  72  76
ATOM     76  S   UNL A   1      44.568  19.310  24.307  1.00  0.00     0.124 S 
ATOM     77  O   UNL A   1      43.198  19.091  24.756  1.00  0.00    -0.237 OA
ATOM     78  O   UNL A   1      44.792  19.267  22.866  1.00  0.00    -0.237 OA
ATOM     79  O   UNL A   1      45.598  18.656  25.113  1.00  0.00    -0.744 OA
ENDBRANCH  72  76
ENDBRANCH  55  69
BRANCH  56  80
ATOM     80  C   UNL A   1      47.133  30.455  28.653  1.00  0.00     0.023 A 
ATOM     81  C   UNL A   1      48.151  31.018  29.453  1.00  0.00     0.031 A 
ATOM     82  C   UNL A   1      47.160  30.770  27.277  1.00  0.00     0.131 A 
ATOM     83  C   UNL A   1      49.148  31.836  28.869  1.00  0.00     0.055 A 
ATOM     84  C   UNL A   1      48.150  31.572  26.704  1.00  0.00     0.041 A 
ATOM     85  F   UNL A   1      46.272  30.230  26.426  1.00  0.00    -0.206 F 
ATOM     86  C   UNL A   1      49.157  32.098  27.498  1.00  0.00     0.022 A 
BRANCH  83  87
ATOM     87  S   UNL A   1      50.518  32.499  29.877  1.00  0.00     0.124 S 
ATOM     88  O   UNL A   1      50.119  32.123  31.228  1.00  0.00    -0.237 OA
ATOM     89  O   UNL A   1      51.676  31.807  29.325  1.00  0.00    -0.237 OA
ATOM     90  O   UNL A   1      50.478  33.936  29.604  1.00  0.00    -0.744 OA
ENDBRANCH  83  87
ENDBRANCH  56  80
BRANCH  68  91
ATOM     91  C   UNL A   1      45.082  25.615  32.260  1.00  0.00     0.023 A 
ATOM     92  C   UNL A   1      45.851  25.230  33.379  1.00  0.00     0.031 A 
ATOM     93  C   UNL A   1      43.947  26.414  32.489  1.00  0.00     0.131 A 
ATOM     94  C   UNL A   1      45.464  25.645  34.670  1.00  0.00     0.055 A 
ATOM     95  C   UNL A   1      43.581  26.841  33.762  1.00  0.00     0.041 A 
ATOM     96  F   UNL A   1      43.177  26.812  31.462  1.00  0.00    -0.206 F 
ATOM     97  C   UNL A   1      44.336  26.451  34.860  1.00  0.00     0.022 A 
BRANCH  94  98
ATOM     98  S   UNL A   1      46.401  25.114  36.140  1.00  0.00     0.124 S 
ATOM     99  O   UNL A   1      47.792  25.254  35.728  1.00  0.00    -0.237 OA
ATOM    100  O   UNL A   1      45.940  26.050  37.162  1.00  0.00    -0.237 OA
ATOM    101  O   UNL A   1      45.962  23.731  36.343  1.00  0.00    -0.744 OA
ENDBRANCH  94  98
ENDBRANCH  68  91
ENDBRANCH  42  43
ENDBRANCH  34  37
ENDBRANCH  32  33
ENDBRANCH  31  32
ENDBRANCH   1  31
TORSDOF 20
ENDMDL
MODEL 3
REMARK VINA RESULT:     -13.1      1.894      2.229
REMARK SMILES COc1cccc([C@@H]2CN(C(=O)CSc3nc(C)n[nH]3)C[C@H]2C(=O)NCCCCNC(=O)c2ccc(-c3c4nc(c(-c5cc(S(=O)(=O)[O-])ccc5F)c5ccc([nH]5)c(-c5cc(S(=O)(=O)[O-])ccc5F)c5nc(c(-c6cc(S(=O)(=O)[O-])ccc6F)c6ccc3[nH]6)C=C5)C=C4)cc2)c1
REMARK SMILES IDX 27 1 26 2 25 3 23 4 24 5 22 7 8 8 9 9 10 10 21 11 7 12 3 13
REMARK SMILES IDX 4 14 96 15 5 16 6 17 2 18 1 19 11 20 12 21 13 22 14 23 15 24
REMARK SMILES IDX 16 25 20 26 17 27 19 28 18 30 28 31 29 32 30 33 31 34 32 36
REMARK SMILES IDX 33 37 34 38 95 39 35 40 94 41 36 42 37 43 38 44 88 45 39 46
REMARK SMILES IDX 93 47 87 48 89 49 40 50 92 51 86 52 85 53 41 55 73 56 53 57
REMARK SMILES IDX 72 58 54 59 57 60 71 61 90 62 55 63 56 64 70 66 91 67 58 68
REMARK SMILES IDX 42 69 43 70 51 71 44 72 50 73 52 74 49 75 45 76 46 77 47 78
REMARK SMILES IDX 48 79 74 80 75 81 83 82 76 83 82 84 84 85 81 86 77 87 78 88
REMARK SMILES IDX 79 89 80 90 59 91 60 92 68 93 61 94 67 95 69 96 66 97 62 98
REMARK SMILES IDX 63 99 64 100 65 101
REMARK H PARENT 25 6 20 29 30 35 89 54 57 65
REMARK Flexibility Score: inf
ROOT
ATOM      1  C   UNL A   1      33.150  30.336  27.116  1.00  0.00     0.023 C 
ENDROOT
BRANCH   1   2
ATOM      2  C   UNL A   1      32.334  29.993  25.865  1.00  0.00     0.116 C 
BRANCH   2   3
ATOM      3  N   UNL A   1      33.168  29.747  24.700  1.00  0.00    -0.356 N 
ATOM      4  C   UNL A   1      33.340  28.644  23.921  1.00  0.00     0.225 C 
ATOM      5  O   UNL A   1      34.121  28.743  22.970  1.00  0.00    -0.275 OA
ATOM      6  H   UNL A   1      33.709  30.522  24.423  1.00  0.00     0.163 HD
BRANCH   4   7
ATOM      7  C   UNL A   1      32.640  27.322  24.182  1.00  0.00     0.107 C 
ATOM      8  C   UNL A   1      31.711  26.882  23.036  1.00  0.00     0.053 C 
ATOM      9  C   UNL A   1      31.796  25.357  23.061  1.00  0.00     0.128 C 
ATOM     10  N   UNL A   1      33.147  25.095  23.522  1.00  0.00    -0.341 N 
ATOM     11  C   UNL A   1      33.607  26.158  24.403  1.00  0.00     0.133 C 
BRANCH   8  12
ATOM     12  C   UNL A   1      30.302  27.427  23.080  1.00  0.00    -0.039 A 
ATOM     13  C   UNL A   1      28.669  29.175  22.638  1.00  0.00     0.119 A 
ATOM     14  C   UNL A   1      27.675  28.405  23.240  1.00  0.00     0.046 A 
ATOM     15  C   UNL A   1      29.981  28.698  22.578  1.00  0.00     0.050 A 
ATOM     16  C   UNL A   1      27.977  27.141  23.739  1.00  0.00     0.004 A 
ATOM     17  C   UNL A   1      29.280  26.653  23.653  1.00  0.00     0.004 A 
BRANCH  13  18
ATOM     18  O   UNL A   1      28.285  30.409  22.186  1.00  0.00    -0.497 OA
ATOM     19  C   UNL A   1      27.754  31.253  23.205  1.00  0.00     0.278 C 
ENDBRANCH  13  18
ENDBRANCH   8  12
BRANCH  10  20
ATOM     20  C   UNL A   1      33.923  23.981  23.292  1.00  0.00     0.233 C 
ATOM     21  O   UNL A   1      34.275  23.667  22.152  1.00  0.00    -0.274 OA
BRANCH  20  22
ATOM     22  C   UNL A   1      34.247  23.061  24.455  1.00  0.00     0.178 C 
BRANCH  22  23
ATOM     23  S   UNL A   1      32.796  22.397  25.309  1.00  0.00    -0.077 SA
BRANCH  23  24
ATOM     24  C   UNL A   1      33.016  20.708  25.099  1.00  0.00     0.184 A 
ATOM     25  N   UNL A   1      34.014  20.105  24.506  1.00  0.00    -0.206 NA
ATOM     26  N   UNL A   1      32.168  19.796  25.639  1.00  0.00    -0.254 N 
ATOM     27  C   UNL A   1      33.713  18.778  24.698  1.00  0.00     0.148 A 
ATOM     28  N   UNL A   1      32.607  18.544  25.419  1.00  0.00    -0.158 NA
ATOM     29  H   UNL A   1      31.343  20.021  26.126  1.00  0.00     0.192 HD
ATOM     30  C   UNL A   1      34.570  17.695  24.177  1.00  0.00     0.092 C 
ENDBRANCH  23  24
ENDBRANCH  22  23
ENDBRANCH  20  22
ENDBRANCH  10  20
ENDBRANCH   4   7
ENDBRANCH   2   3
ENDBRANCH   1   2
BRANCH   1  31
ATOM     31  C   UNL A   1      34.393  29.476  27.367  1.00  0.00     0.023 C 
BRANCH  31  32
ATOM     32  C   UNL A   1      35.627  30.251  27.809  1.00  0.00     0.116 C 
BRANCH  32  33
ATOM     33  N   UNL A   1      35.669  30.475  29.251  1.00  0.00    -0.352 N 
ATOM     34  C   UNL A   1      36.526  29.888  30.163  1.00  0.00     0.251 C 
ATOM     35  H   UNL A   1      35.016  31.116  29.614  1.00  0.00     0.163 HD
ATOM     36  O   UNL A   1      36.217  29.831  31.352  1.00  0.00    -0.269 OA
BRANCH  34  37
ATOM     37  C   UNL A   1      37.798  29.321  29.679  1.00  0.00     0.039 A 
ATOM     38  C   UNL A   1      38.604  30.025  28.787  1.00  0.00     0.014 A 
ATOM     39  C   UNL A   1      38.209  28.087  30.185  1.00  0.00     0.014 A 
ATOM     40  C   UNL A   1      39.875  29.527  28.499  1.00  0.00     0.010 A 
ATOM     41  C   UNL A   1      39.507  27.659  29.996  1.00  0.00     0.010 A 
ATOM     42  C   UNL A   1      40.346  28.364  29.142  1.00  0.00    -0.014 A 
BRANCH  42  43
ATOM     43  C   UNL A   1      41.764  27.995  29.039  1.00  0.00     0.031 A 
ATOM     44  C   UNL A   1      42.019  26.881  28.088  1.00  0.00     0.074 A 
ATOM     45  C   UNL A   1      42.802  28.658  29.601  1.00  0.00     0.049 A 
ATOM     46  N   UNL A   1      42.215  25.640  28.388  1.00  0.00    -0.248 NA
ATOM     47  C   UNL A   1      41.857  27.115  26.643  1.00  0.00     0.031 C 
ATOM     48  C   UNL A   1      42.766  29.934  30.322  1.00  0.00     0.029 A 
ATOM     49  N   UNL A   1      44.140  28.362  29.582  1.00  0.00    -0.354 N 
ATOM     50  C   UNL A   1      42.497  24.998  27.187  1.00  0.00     0.074 A 
ATOM     51  C   UNL A   1      42.038  25.885  26.152  1.00  0.00     0.031 C 
ATOM     52  C   UNL A   1      44.022  30.412  30.474  1.00  0.00     0.029 A 
ATOM     53  C   UNL A   1      44.962  29.392  30.042  1.00  0.00     0.049 A 
ATOM     54  H   UNL A   1      44.492  27.498  29.271  1.00  0.00     0.167 HD
ATOM     55  C   UNL A   1      43.352  23.936  27.167  1.00  0.00     0.034 A 
ATOM     56  C   UNL A   1      46.318  29.408  30.128  1.00  0.00     0.034 A 
ATOM     57  C   UNL A   1      43.650  23.510  28.514  1.00  0.00     0.049 A 
ATOM     58  C   UNL A   1      46.756  28.003  30.262  1.00  0.00     0.074 A 
ATOM     59  C   UNL A   1      43.023  22.801  29.514  1.00  0.00     0.029 A 
ATOM     60  N   UNL A   1      44.682  24.204  29.092  1.00  0.00    -0.354 N 
ATOM     61  N   UNL A   1      46.445  27.262  31.289  1.00  0.00    -0.248 NA
ATOM     62  C   UNL A   1      47.230  27.275  29.092  1.00  0.00     0.031 C 
ATOM     63  C   UNL A   1      43.598  23.255  30.740  1.00  0.00     0.029 A 
ATOM     64  C   UNL A   1      44.598  24.185  30.459  1.00  0.00     0.049 A 
ATOM     65  H   UNL A   1      45.395  24.657  28.588  1.00  0.00     0.167 HD
ATOM     66  C   UNL A   1      46.256  26.003  30.761  1.00  0.00     0.074 A 
ATOM     67  C   UNL A   1      46.924  26.029  29.465  1.00  0.00     0.031 C 
ATOM     68  C   UNL A   1      45.307  25.163  31.266  1.00  0.00     0.034 A 
BRANCH  55  69
ATOM     69  C   UNL A   1      44.303  23.572  26.041  1.00  0.00     0.023 A 
ATOM     70  C   UNL A   1      44.239  22.250  25.542  1.00  0.00     0.031 A 
ATOM     71  C   UNL A   1      45.441  24.314  25.658  1.00  0.00     0.131 A 
ATOM     72  C   UNL A   1      45.292  21.705  24.787  1.00  0.00     0.055 A 
ATOM     73  C   UNL A   1      46.462  23.783  24.861  1.00  0.00     0.041 A 
ATOM     74  F   UNL A   1      45.682  25.550  26.107  1.00  0.00    -0.206 F 
ATOM     75  C   UNL A   1      46.405  22.465  24.443  1.00  0.00     0.022 A 
BRANCH  72  76
ATOM     76  S   UNL A   1      45.254  19.938  24.382  1.00  0.00     0.124 S 
ATOM     77  O   UNL A   1      44.489  19.928  23.140  1.00  0.00    -0.237 OA
ATOM     78  O   UNL A   1      46.674  19.623  24.269  1.00  0.00    -0.237 OA
ATOM     79  O   UNL A   1      44.578  19.342  25.533  1.00  0.00    -0.744 OA
ENDBRANCH  72  76
ENDBRANCH  55  69
BRANCH  56  80
ATOM     80  C   UNL A   1      47.249  30.536  29.856  1.00  0.00     0.023 A 
ATOM     81  C   UNL A   1      47.252  31.262  28.644  1.00  0.00     0.031 A 
ATOM     82  C   UNL A   1      47.978  31.091  30.930  1.00  0.00     0.131 A 
ATOM     83  C   UNL A   1      47.942  32.495  28.553  1.00  0.00     0.055 A 
ATOM     84  C   UNL A   1      48.652  32.311  30.836  1.00  0.00     0.041 A 
ATOM     85  F   UNL A   1      47.981  30.506  32.139  1.00  0.00    -0.206 F 
ATOM     86  C   UNL A   1      48.625  33.025  29.648  1.00  0.00     0.022 A 
BRANCH  83  87
ATOM     87  S   UNL A   1      47.881  33.484  27.020  1.00  0.00     0.124 S 
ATOM     88  O   UNL A   1      49.268  33.908  26.869  1.00  0.00    -0.237 OA
ATOM     89  O   UNL A   1      47.386  32.520  26.045  1.00  0.00    -0.237 OA
ATOM     90  O   UNL A   1      46.944  34.560  27.346  1.00  0.00    -0.744 OA
ENDBRANCH  83  87
ENDBRANCH  56  80
BRANCH  68  91
ATOM     91  C   UNL A   1      44.912  25.337  32.711  1.00  0.00     0.023 A 
ATOM     92  C   UNL A   1      43.767  26.015  33.180  1.00  0.00     0.031 A 
ATOM     93  C   UNL A   1      45.757  24.740  33.665  1.00  0.00     0.131 A 
ATOM     94  C   UNL A   1      43.510  26.079  34.566  1.00  0.00     0.055 A 
ATOM     95  C   UNL A   1      45.487  24.785  35.030  1.00  0.00     0.041 A 
ATOM     96  F   UNL A   1      46.862  24.081  33.279  1.00  0.00    -0.206 F 
ATOM     97  C   UNL A   1      44.364  25.462  35.487  1.00  0.00     0.022 A 
BRANCH  94  98
ATOM     98  S   UNL A   1      42.073  26.997  35.205  1.00  0.00     0.124 S 
ATOM     99  O   UNL A   1      41.719  27.888  34.107  1.00  0.00    -0.237 OA
ATOM    100  O   UNL A   1      41.119  25.929  35.494  1.00  0.00    -0.237 OA
ATOM    101  O   UNL A   1      42.601  27.675  36.392  1.00  0.00    -0.744 OA
ENDBRANCH  94  98
ENDBRANCH  68  91
ENDBRANCH  42  43
ENDBRANCH  34  37
ENDBRANCH  32  33
ENDBRANCH  31  32
ENDBRANCH   1  31
TORSDOF 20
ENDMDL
