MODEL 1
REMARK VINA RESULT:     -11.4      0.000      0.000
REMARK SMILES C[C@@H]1[C@@H](C(=O)NCCCCNC(=O)c2ccc(-c3c4nc(c(-c5cc(S(=O)(=O)[O-])ccc5F)c5ccc([nH]5)c(-c5cc(S(=O)(=O)[O-])ccc5F)c5nc(c(-c6cc(S(=O)(=O)[O-])ccc6F)c6ccc3[nH]6)C=C5)C=C4)cc2)CCN1C(=O)CCCC1CCCCC1
REMARK SMILES IDX 7 1 6 2 4 3 5 4 3 6 1 7 2 8 79 9 77 10 78 11 80 12 81 13
REMARK SMILES IDX 82 14 83 15 84 16 85 17 86 18 90 19 87 20 89 21 88 22 8 23
REMARK SMILES IDX 9 24 10 25 11 26 12 27 13 29 14 30 15 31 76 32 16 33 75 34
REMARK SMILES IDX 17 35 18 36 19 37 69 38 20 39 74 40 68 41 70 42 21 43 73 44
REMARK SMILES IDX 67 45 66 46 22 48 54 49 34 50 53 51 35 52 38 53 52 54 71 55
REMARK SMILES IDX 36 56 37 57 51 59 72 60 39 61 23 62 24 63 32 64 25 65 31 66
REMARK SMILES IDX 33 67 30 68 26 69 27 70 28 71 29 72 55 73 56 74 64 75 57 76
REMARK SMILES IDX 63 77 65 78 62 79 58 80 59 81 60 82 61 83 40 84 41 85 49 86
REMARK SMILES IDX 42 87 48 88 50 89 47 90 43 91 44 92 45 93 46 94
REMARK H PARENT 6 5 11 28 70 47 38 58
REMARK Flexibility Score: inf
ROOT
ATOM      1  C   UNL A   1      32.981  29.271  25.904  1.00  0.00     0.116 C 
ENDROOT
BRANCH   1   2
ATOM      2  N   UNL A   1      32.540  29.168  24.530  1.00  0.00    -0.356 N 
ATOM      3  C   UNL A   1      31.758  28.197  23.970  1.00  0.00     0.225 C 
ATOM      4  O   UNL A   1      31.461  28.309  22.783  1.00  0.00    -0.275 OA
ATOM      5  H   UNL A   1      32.839  29.883  23.923  1.00  0.00     0.163 HD
BRANCH   3   6
ATOM      6  C   UNL A   1      31.333  27.015  24.837  1.00  0.00     0.102 C 
ATOM      7  C   UNL A   1      32.224  25.076  26.175  1.00  0.00     0.032 C 
ATOM      8  C   UNL A   1      32.400  25.913  24.905  1.00  0.00     0.094 C 
ATOM      9  N   UNL A   1      32.170  25.137  23.695  1.00  0.00    -0.339 N 
ATOM     10  C   UNL A   1      30.146  26.263  24.231  1.00  0.00     0.037 C 
ATOM     11  C   UNL A   1      30.792  25.283  23.256  1.00  0.00     0.120 C 
BRANCH   9  12
ATOM     12  C   UNL A   1      33.104  24.591  22.838  1.00  0.00     0.222 C 
ATOM     13  O   UNL A   1      33.980  25.296  22.326  1.00  0.00    -0.275 OA
BRANCH  12  14
ATOM     14  C   UNL A   1      32.980  23.134  22.404  1.00  0.00     0.100 C 
BRANCH  14  15
ATOM     15  C   UNL A   1      32.934  22.020  23.462  1.00  0.00     0.010 C 
BRANCH  15  16
ATOM     16  C   UNL A   1      33.846  22.028  24.706  1.00  0.00     0.004 C 
BRANCH  16  17
ATOM     17  C   UNL A   1      35.382  22.284  24.606  1.00  0.00    -0.011 C 
ATOM     18  C   UNL A   1      35.755  23.532  25.443  1.00  0.00     0.003 C 
ATOM     19  C   UNL A   1      36.278  21.094  24.944  1.00  0.00     0.003 C 
ATOM     20  C   UNL A   1      37.256  23.798  25.560  1.00  0.00     0.000 C 
ATOM     21  C   UNL A   1      37.765  21.422  24.953  1.00  0.00     0.000 C 
ATOM     22  C   UNL A   1      38.051  22.554  25.930  1.00  0.00     0.000 C 
ENDBRANCH  16  17
ENDBRANCH  15  16
ENDBRANCH  14  15
ENDBRANCH  12  14
ENDBRANCH   9  12
ENDBRANCH   3   6
ENDBRANCH   1   2
BRANCH   1  23
ATOM     23  C   UNL A   1      31.954  29.935  26.812  1.00  0.00     0.023 C 
BRANCH  23  24
ATOM     24  C   UNL A   1      31.891  31.459  26.717  1.00  0.00     0.023 C 
BRANCH  24  25
ATOM     25  C   UNL A   1      33.056  32.207  27.355  1.00  0.00     0.116 C 
BRANCH  25  26
ATOM     26  N   UNL A   1      32.756  33.606  27.618  1.00  0.00    -0.352 N 
ATOM     27  C   UNL A   1      33.296  34.462  28.553  1.00  0.00     0.251 C 
ATOM     28  H   UNL A   1      32.064  34.001  27.040  1.00  0.00     0.163 HD
ATOM     29  O   UNL A   1      32.810  35.568  28.714  1.00  0.00    -0.269 OA
BRANCH  27  30
ATOM     30  C   UNL A   1      34.436  34.006  29.380  1.00  0.00     0.039 A 
ATOM     31  C   UNL A   1      34.186  33.164  30.466  1.00  0.00     0.014 A 
ATOM     32  C   UNL A   1      35.743  34.383  29.065  1.00  0.00     0.014 A 
ATOM     33  C   UNL A   1      35.258  32.637  31.190  1.00  0.00     0.010 A 
ATOM     34  C   UNL A   1      36.809  33.786  29.730  1.00  0.00     0.010 A 
ATOM     35  C   UNL A   1      36.580  32.910  30.802  1.00  0.00    -0.014 A 
BRANCH  35  36
ATOM     36  C   UNL A   1      37.737  32.308  31.515  1.00  0.00     0.031 A 
ATOM     37  C   UNL A   1      38.519  31.198  30.867  1.00  0.00     0.074 A 
ATOM     38  C   UNL A   1      38.044  32.714  32.763  1.00  0.00     0.049 A 
ATOM     39  N   UNL A   1      39.498  30.480  31.350  1.00  0.00    -0.248 NA
ATOM     40  C   UNL A   1      38.115  30.821  29.503  1.00  0.00     0.031 C 
ATOM     41  C   UNL A   1      37.337  33.754  33.514  1.00  0.00     0.029 A 
ATOM     42  N   UNL A   1      39.027  32.296  33.627  1.00  0.00    -0.354 N 
ATOM     43  C   UNL A   1      39.818  29.557  30.359  1.00  0.00     0.074 A 
ATOM     44  C   UNL A   1      38.877  29.762  29.280  1.00  0.00     0.031 C 
ATOM     45  C   UNL A   1      37.925  33.911  34.711  1.00  0.00     0.029 A 
ATOM     46  C   UNL A   1      39.020  32.954  34.835  1.00  0.00     0.049 A 
ATOM     47  H   UNL A   1      39.675  31.590  33.402  1.00  0.00     0.167 HD
ATOM     48  C   UNL A   1      40.821  28.644  30.339  1.00  0.00     0.034 A 
ATOM     49  C   UNL A   1      39.800  32.796  35.923  1.00  0.00     0.034 A 
ATOM     50  C   UNL A   1      41.758  28.463  31.420  1.00  0.00     0.049 A 
ATOM     51  C   UNL A   1      40.896  31.760  35.888  1.00  0.00     0.074 A 
ATOM     52  C   UNL A   1      42.839  27.601  31.491  1.00  0.00     0.029 A 
ATOM     53  N   UNL A   1      41.725  29.154  32.626  1.00  0.00    -0.354 N 
ATOM     54  N   UNL A   1      41.213  30.923  34.926  1.00  0.00    -0.248 NA
ATOM     55  C   UNL A   1      41.746  31.656  37.080  1.00  0.00     0.031 C 
ATOM     56  C   UNL A   1      43.416  27.721  32.759  1.00  0.00     0.029 A 
ATOM     57  C   UNL A   1      42.750  28.719  33.454  1.00  0.00     0.049 A 
ATOM     58  H   UNL A   1      41.070  29.851  32.858  1.00  0.00     0.167 HD
ATOM     59  C   UNL A   1      42.325  30.222  35.385  1.00  0.00     0.074 A 
ATOM     60  C   UNL A   1      42.626  30.741  36.703  1.00  0.00     0.031 C 
ATOM     61  C   UNL A   1      43.036  29.244  34.769  1.00  0.00     0.034 A 
BRANCH  48  62
ATOM     62  C   UNL A   1      40.928  27.762  29.116  1.00  0.00     0.023 A 
ATOM     63  C   UNL A   1      41.948  27.943  28.164  1.00  0.00     0.031 A 
ATOM     64  C   UNL A   1      39.975  26.757  28.872  1.00  0.00     0.131 A 
ATOM     65  C   UNL A   1      41.937  27.198  26.975  1.00  0.00     0.055 A 
ATOM     66  C   UNL A   1      40.025  25.957  27.729  1.00  0.00     0.041 A 
ATOM     67  F   UNL A   1      38.965  26.550  29.732  1.00  0.00    -0.206 F 
ATOM     68  C   UNL A   1      40.999  26.187  26.763  1.00  0.00     0.022 A 
BRANCH  65  69
ATOM     69  S   UNL A   1      43.067  27.687  25.641  1.00  0.00     0.124 S 
ATOM     70  O   UNL A   1      43.893  28.689  26.307  1.00  0.00    -0.237 OA
ATOM     71  O   UNL A   1      43.727  26.429  25.310  1.00  0.00    -0.237 OA
ATOM     72  O   UNL A   1      42.172  28.212  24.611  1.00  0.00    -0.744 OA
ENDBRANCH  65  69
ENDBRANCH  48  62
BRANCH  49  73
ATOM     73  C   UNL A   1      39.583  33.634  37.138  1.00  0.00     0.023 A 
ATOM     74  C   UNL A   1      38.881  33.132  38.245  1.00  0.00     0.031 A 
ATOM     75  C   UNL A   1      40.038  34.964  37.194  1.00  0.00     0.131 A 
ATOM     76  C   UNL A   1      38.611  33.967  39.341  1.00  0.00     0.055 A 
ATOM     77  C   UNL A   1      39.815  35.773  38.308  1.00  0.00     0.041 A 
ATOM     78  F   UNL A   1      40.720  35.491  36.164  1.00  0.00    -0.206 F 
ATOM     79  C   UNL A   1      39.086  35.281  39.386  1.00  0.00     0.022 A 
BRANCH  76  80
ATOM     80  S   UNL A   1      37.558  33.337  40.676  1.00  0.00     0.124 S 
ATOM     81  O   UNL A   1      36.417  32.815  39.932  1.00  0.00    -0.237 OA
ATOM     82  O   UNL A   1      38.424  32.344  41.302  1.00  0.00    -0.237 OA
ATOM     83  O   UNL A   1      37.287  34.523  41.485  1.00  0.00    -0.744 OA
ENDBRANCH  76  80
ENDBRANCH  49  73
BRANCH  61  84
ATOM     84  C   UNL A   1      44.251  28.716  35.496  1.00  0.00     0.023 A 
ATOM     85  C   UNL A   1      44.161  27.686  36.449  1.00  0.00     0.031 A 
ATOM     86  C   UNL A   1      45.519  29.265  35.234  1.00  0.00     0.131 A 
ATOM     87  C   UNL A   1      45.308  27.279  37.147  1.00  0.00     0.055 A 
ATOM     88  C   UNL A   1      46.667  28.811  35.885  1.00  0.00     0.041 A 
ATOM     89  F   UNL A   1      45.665  30.253  34.335  1.00  0.00    -0.206 F 
ATOM     90  C   UNL A   1      46.562  27.822  36.858  1.00  0.00     0.022 A 
BRANCH  87  91
ATOM     91  S   UNL A   1      45.124  26.099  38.512  1.00  0.00     0.124 S 
ATOM     92  O   UNL A   1      46.508  25.901  38.932  1.00  0.00    -0.237 OA
ATOM     93  O   UNL A   1      44.273  26.831  39.445  1.00  0.00    -0.237 OA
ATOM     94  O   UNL A   1      44.496  24.940  37.881  1.00  0.00    -0.744 OA
ENDBRANCH  87  91
ENDBRANCH  61  84
ENDBRANCH  35  36
ENDBRANCH  27  30
ENDBRANCH  25  26
ENDBRANCH  24  25
ENDBRANCH  23  24
ENDBRANCH   1  23
TORSDOF 19
ENDMDL
MODEL 2
REMARK VINA RESULT:     -11.1      2.063      7.894
REMARK SMILES C[C@@H]1[C@@H](C(=O)NCCCCNC(=O)c2ccc(-c3c4nc(c(-c5cc(S(=O)(=O)[O-])ccc5F)c5ccc([nH]5)c(-c5cc(S(=O)(=O)[O-])ccc5F)c5nc(c(-c6cc(S(=O)(=O)[O-])ccc6F)c6ccc3[nH]6)C=C5)C=C4)cc2)CCN1C(=O)CCCC1CCCCC1
REMARK SMILES IDX 7 1 6 2 4 3 5 4 3 6 1 7 2 8 79 9 77 10 78 11 80 12 81 13
REMARK SMILES IDX 82 14 83 15 84 16 85 17 86 18 90 19 87 20 89 21 88 22 8 23
REMARK SMILES IDX 9 24 10 25 11 26 12 27 13 29 14 30 15 31 76 32 16 33 75 34
REMARK SMILES IDX 17 35 18 36 19 37 69 38 20 39 74 40 68 41 70 42 21 43 73 44
REMARK SMILES IDX 67 45 66 46 22 48 54 49 34 50 53 51 35 52 38 53 52 54 71 55
REMARK SMILES IDX 36 56 37 57 51 59 72 60 39 61 23 62 24 63 32 64 25 65 31 66
REMARK SMILES IDX 33 67 30 68 26 69 27 70 28 71 29 72 55 73 56 74 64 75 57 76
REMARK SMILES IDX 63 77 65 78 62 79 58 80 59 81 60 82 61 83 40 84 41 85 49 86
REMARK SMILES IDX 42 87 48 88 50 89 47 90 43 91 44 92 45 93 46 94
REMARK H PARENT 6 5 11 28 70 47 38 58
REMARK Flexibility Score: inf
ROOT
ATOM      1  C   UNL A   1      32.383  29.489  26.890  1.00  0.00     0.116 C 
ENDROOT
BRANCH   1   2
ATOM      2  N   UNL A   1      31.575  28.315  27.140  1.00  0.00    -0.356 N 
ATOM      3  C   UNL A   1      31.421  27.216  26.343  1.00  0.00     0.225 C 
ATOM      4  O   UNL A   1      30.715  26.299  26.754  1.00  0.00    -0.275 OA
ATOM      5  H   UNL A   1      31.075  28.305  27.988  1.00  0.00     0.163 HD
BRANCH   3   6
ATOM      6  C   UNL A   1      32.101  27.208  24.976  1.00  0.00     0.102 C 
ATOM      7  C   UNL A   1      31.732  26.655  22.546  1.00  0.00     0.032 C 
ATOM      8  C   UNL A   1      31.443  26.233  23.990  1.00  0.00     0.094 C 
ATOM      9  N   UNL A   1      32.045  24.950  24.321  1.00  0.00    -0.339 N 
ATOM     10  C   UNL A   1      33.527  26.658  25.053  1.00  0.00     0.037 C 
ATOM     11  C   UNL A   1      33.344  25.147  24.943  1.00  0.00     0.120 C 
BRANCH   9  12
ATOM     12  C   UNL A   1      31.438  23.712  24.390  1.00  0.00     0.222 C 
ATOM     13  O   UNL A   1      30.730  23.407  25.355  1.00  0.00    -0.275 OA
BRANCH  12  14
ATOM     14  C   UNL A   1      31.747  22.653  23.337  1.00  0.00     0.100 C 
BRANCH  14  15
ATOM     15  C   UNL A   1      33.035  21.821  23.440  1.00  0.00     0.010 C 
BRANCH  15  16
ATOM     16  C   UNL A   1      33.351  20.943  24.668  1.00  0.00     0.004 C 
BRANCH  16  17
ATOM     17  C   UNL A   1      33.390  19.386  24.585  1.00  0.00    -0.011 C 
ATOM     18  C   UNL A   1      32.570  18.910  23.360  1.00  0.00     0.003 C 
ATOM     19  C   UNL A   1      34.780  18.752  24.609  1.00  0.00     0.003 C 
ATOM     20  C   UNL A   1      32.660  17.412  23.073  1.00  0.00     0.000 C 
ATOM     21  C   UNL A   1      34.776  17.244  24.403  1.00  0.00     0.000 C 
ATOM     22  C   UNL A   1      34.091  16.891  23.091  1.00  0.00     0.000 C 
ENDBRANCH  16  17
ENDBRANCH  15  16
ENDBRANCH  14  15
ENDBRANCH  12  14
ENDBRANCH   9  12
ENDBRANCH   3   6
ENDBRANCH   1   2
BRANCH   1  23
ATOM     23  C   UNL A   1      31.651  30.556  26.088  1.00  0.00     0.023 C 
BRANCH  23  24
ATOM     24  C   UNL A   1      31.547  31.922  26.766  1.00  0.00     0.023 C 
BRANCH  24  25
ATOM     25  C   UNL A   1      32.860  32.504  27.277  1.00  0.00     0.116 C 
BRANCH  25  26
ATOM     26  N   UNL A   1      32.745  33.899  27.676  1.00  0.00    -0.352 N 
ATOM     27  C   UNL A   1      33.460  34.609  28.616  1.00  0.00     0.251 C 
ATOM     28  H   UNL A   1      32.053  34.413  27.201  1.00  0.00     0.163 HD
ATOM     29  O   UNL A   1      33.118  35.741  28.909  1.00  0.00    -0.269 OA
BRANCH  27  30
ATOM     30  C   UNL A   1      34.611  33.964  29.288  1.00  0.00     0.039 A 
ATOM     31  C   UNL A   1      34.364  33.028  30.295  1.00  0.00     0.014 A 
ATOM     32  C   UNL A   1      35.920  34.261  28.905  1.00  0.00     0.014 A 
ATOM     33  C   UNL A   1      35.433  32.332  30.863  1.00  0.00     0.010 A 
ATOM     34  C   UNL A   1      36.972  33.503  29.408  1.00  0.00     0.010 A 
ATOM     35  C   UNL A   1      36.742  32.532  30.396  1.00  0.00    -0.014 A 
BRANCH  35  36
ATOM     36  C   UNL A   1      37.888  31.756  30.938  1.00  0.00     0.031 A 
ATOM     37  C   UNL A   1      38.427  32.077  32.306  1.00  0.00     0.074 A 
ATOM     38  C   UNL A   1      38.481  30.812  30.180  1.00  0.00     0.049 A 
ATOM     39  N   UNL A   1      39.469  31.585  32.924  1.00  0.00    -0.248 NA
ATOM     40  C   UNL A   1      37.717  33.120  33.063  1.00  0.00     0.031 C 
ATOM     41  C   UNL A   1      38.075  30.437  28.824  1.00  0.00     0.029 A 
ATOM     42  N   UNL A   1      39.556  29.999  30.439  1.00  0.00    -0.354 N 
ATOM     43  C   UNL A   1      39.550  32.268  34.134  1.00  0.00     0.074 A 
ATOM     44  C   UNL A   1      38.495  33.258  34.124  1.00  0.00     0.031 C 
ATOM     45  C   UNL A   1      38.873  29.451  28.382  1.00  0.00     0.029 A 
ATOM     46  C   UNL A   1      39.875  29.154  29.401  1.00  0.00     0.049 A 
ATOM     47  H   UNL A   1      40.054  30.019  31.288  1.00  0.00     0.167 HD
ATOM     48  C   UNL A   1      40.406  32.070  35.167  1.00  0.00     0.034 A 
ATOM     49  C   UNL A   1      40.868  28.250  29.280  1.00  0.00     0.034 A 
ATOM     50  C   UNL A   1      41.445  31.069  35.163  1.00  0.00     0.049 A 
ATOM     51  C   UNL A   1      41.823  28.060  30.432  1.00  0.00     0.074 A 
ATOM     52  C   UNL A   1      42.340  30.749  36.169  1.00  0.00     0.029 A 
ATOM     53  N   UNL A   1      41.732  30.225  34.096  1.00  0.00    -0.354 N 
ATOM     54  N   UNL A   1      41.860  28.685  31.587  1.00  0.00    -0.248 NA
ATOM     55  C   UNL A   1      42.860  27.035  30.268  1.00  0.00     0.031 C 
ATOM     56  C   UNL A   1      43.208  29.764  35.688  1.00  0.00     0.029 A 
ATOM     57  C   UNL A   1      42.805  29.405  34.411  1.00  0.00     0.049 A 
ATOM     58  H   UNL A   1      41.244  30.212  33.241  1.00  0.00     0.167 HD
ATOM     59  C   UNL A   1      42.901  28.098  32.301  1.00  0.00     0.074 A 
ATOM     60  C   UNL A   1      43.457  27.066  31.451  1.00  0.00     0.031 C 
ATOM     61  C   UNL A   1      43.352  28.382  33.550  1.00  0.00     0.034 A 
BRANCH  48  62
ATOM     62  C   UNL A   1      40.261  32.975  36.369  1.00  0.00     0.023 A 
ATOM     63  C   UNL A   1      39.525  32.583  37.503  1.00  0.00     0.031 A 
ATOM     64  C   UNL A   1      40.824  34.264  36.367  1.00  0.00     0.131 A 
ATOM     65  C   UNL A   1      39.296  33.498  38.541  1.00  0.00     0.055 A 
ATOM     66  C   UNL A   1      40.669  35.136  37.445  1.00  0.00     0.041 A 
ATOM     67  F   UNL A   1      41.518  34.705  35.306  1.00  0.00    -0.206 F 
ATOM     68  C   UNL A   1      39.886  34.764  38.533  1.00  0.00     0.022 A 
BRANCH  65  69
ATOM     69  S   UNL A   1      38.081  33.068  39.818  1.00  0.00     0.124 S 
ATOM     70  O   UNL A   1      38.024  34.301  40.597  1.00  0.00    -0.237 OA
ATOM     71  O   UNL A   1      36.895  32.752  39.031  1.00  0.00    -0.237 OA
ATOM     72  O   UNL A   1      38.695  31.933  40.505  1.00  0.00    -0.744 OA
ENDBRANCH  65  69
ENDBRANCH  48  62
BRANCH  49  73
ATOM     73  C   UNL A   1      41.017  27.453  28.028  1.00  0.00     0.023 A 
ATOM     74  C   UNL A   1      40.663  26.094  27.990  1.00  0.00     0.031 A 
ATOM     75  C   UNL A   1      41.554  28.026  26.861  1.00  0.00     0.131 A 
ATOM     76  C   UNL A   1      40.894  25.342  26.828  1.00  0.00     0.055 A 
ATOM     77  C   UNL A   1      41.732  27.286  25.691  1.00  0.00     0.041 A 
ATOM     78  F   UNL A   1      41.904  29.322  26.841  1.00  0.00    -0.206 F 
ATOM     79  C   UNL A   1      41.414  25.932  25.674  1.00  0.00     0.022 A 
BRANCH  76  80
ATOM     80  S   UNL A   1      40.582  23.556  26.873  1.00  0.00     0.124 S 
ATOM     81  O   UNL A   1      39.172  23.492  26.506  1.00  0.00    -0.237 OA
ATOM     82  O   UNL A   1      41.528  23.058  25.880  1.00  0.00    -0.237 OA
ATOM     83  O   UNL A   1      40.886  23.191  28.256  1.00  0.00    -0.744 OA
ENDBRANCH  76  80
ENDBRANCH  49  73
BRANCH  61  84
ATOM     84  C   UNL A   1      44.465  27.516  34.093  1.00  0.00     0.023 A 
ATOM     85  C   UNL A   1      44.212  26.295  34.740  1.00  0.00     0.031 A 
ATOM     86  C   UNL A   1      45.802  27.933  33.968  1.00  0.00     0.131 A 
ATOM     87  C   UNL A   1      45.275  25.561  35.289  1.00  0.00     0.055 A 
ATOM     88  C   UNL A   1      46.861  27.168  34.458  1.00  0.00     0.041 A 
ATOM     89  F   UNL A   1      46.103  29.093  33.361  1.00  0.00    -0.206 F 
ATOM     90  C   UNL A   1      46.598  25.981  35.136  1.00  0.00     0.022 A 
BRANCH  87  91
ATOM     91  S   UNL A   1      44.898  24.100  36.295  1.00  0.00     0.124 S 
ATOM     92  O   UNL A   1      44.801  24.670  37.635  1.00  0.00    -0.237 OA
ATOM     93  O   UNL A   1      43.646  23.632  35.709  1.00  0.00    -0.237 OA
ATOM     94  O   UNL A   1      46.049  23.226  36.075  1.00  0.00    -0.744 OA
ENDBRANCH  87  91
ENDBRANCH  61  84
ENDBRANCH  35  36
ENDBRANCH  27  30
ENDBRANCH  25  26
ENDBRANCH  24  25
ENDBRANCH  23  24
ENDBRANCH   1  23
TORSDOF 19
ENDMDL
MODEL 3
REMARK VINA RESULT:     -11.1      2.690      3.706
REMARK SMILES C[C@@H]1[C@@H](C(=O)NCCCCNC(=O)c2ccc(-c3c4nc(c(-c5cc(S(=O)(=O)[O-])ccc5F)c5ccc([nH]5)c(-c5cc(S(=O)(=O)[O-])ccc5F)c5nc(c(-c6cc(S(=O)(=O)[O-])ccc6F)c6ccc3[nH]6)C=C5)C=C4)cc2)CCN1C(=O)CCCC1CCCCC1
REMARK SMILES IDX 7 1 6 2 4 3 5 4 3 6 1 7 2 8 79 9 77 10 78 11 80 12 81 13
REMARK SMILES IDX 82 14 83 15 84 16 85 17 86 18 90 19 87 20 89 21 88 22 8 23
REMARK SMILES IDX 9 24 10 25 11 26 12 27 13 29 14 30 15 31 76 32 16 33 75 34
REMARK SMILES IDX 17 35 18 36 19 37 69 38 20 39 74 40 68 41 70 42 21 43 73 44
REMARK SMILES IDX 67 45 66 46 22 48 54 49 34 50 53 51 35 52 38 53 52 54 71 55
REMARK SMILES IDX 36 56 37 57 51 59 72 60 39 61 23 62 24 63 32 64 25 65 31 66
REMARK SMILES IDX 33 67 30 68 26 69 27 70 28 71 29 72 55 73 56 74 64 75 57 76
REMARK SMILES IDX 63 77 65 78 62 79 58 80 59 81 60 82 61 83 40 84 41 85 49 86
REMARK SMILES IDX 42 87 48 88 50 89 47 90 43 91 44 92 45 93 46 94
REMARK H PARENT 6 5 11 28 70 47 38 58
REMARK Flexibility Score: inf
ROOT
ATOM      1  C   UNL A   1      33.318  27.397  22.138  1.00  0.00     0.116 C 
ENDROOT
BRANCH   1   2
ATOM      2  N   UNL A   1      33.673  25.996  22.210  1.00  0.00    -0.356 N 
ATOM      3  C   UNL A   1      32.909  24.958  22.663  1.00  0.00     0.225 C 
ATOM      4  O   UNL A   1      33.381  23.826  22.606  1.00  0.00    -0.275 OA
ATOM      5  H   UNL A   1      34.575  25.761  21.894  1.00  0.00     0.163 HD
BRANCH   3   6
ATOM      6  C   UNL A   1      31.532  25.269  23.246  1.00  0.00     0.102 C 
ATOM      7  C   UNL A   1      30.368  26.446  25.144  1.00  0.00     0.032 C 
ATOM      8  C   UNL A   1      31.582  25.602  24.744  1.00  0.00     0.094 C 
ATOM      9  N   UNL A   1      31.584  24.296  25.386  1.00  0.00    -0.339 N 
ATOM     10  C   UNL A   1      30.617  24.042  23.230  1.00  0.00     0.037 C 
ATOM     11  C   UNL A   1      30.969  23.305  24.518  1.00  0.00     0.120 C 
BRANCH   9  12
ATOM     12  C   UNL A   1      32.314  23.882  26.482  1.00  0.00     0.222 C 
ATOM     13  O   UNL A   1      31.779  23.753  27.588  1.00  0.00    -0.275 OA
BRANCH  12  14
ATOM     14  C   UNL A   1      33.826  23.711  26.368  1.00  0.00     0.100 C 
BRANCH  14  15
ATOM     15  C   UNL A   1      34.434  22.302  26.277  1.00  0.00     0.010 C 
BRANCH  15  16
ATOM     16  C   UNL A   1      33.646  21.039  26.678  1.00  0.00     0.004 C 
BRANCH  16  17
ATOM     17  C   UNL A   1      32.818  20.215  25.644  1.00  0.00    -0.011 C 
ATOM     18  C   UNL A   1      33.134  20.712  24.212  1.00  0.00     0.003 C 
ATOM     19  C   UNL A   1      32.943  18.696  25.750  1.00  0.00     0.003 C 
ATOM     20  C   UNL A   1      32.509  19.879  23.093  1.00  0.00     0.000 C 
ATOM     21  C   UNL A   1      32.218  17.937  24.648  1.00  0.00     0.000 C 
ATOM     22  C   UNL A   1      32.718  18.383  23.281  1.00  0.00     0.000 C 
ENDBRANCH  16  17
ENDBRANCH  15  16
ENDBRANCH  14  15
ENDBRANCH  12  14
ENDBRANCH   9  12
ENDBRANCH   3   6
ENDBRANCH   1   2
BRANCH   1  23
ATOM     23  C   UNL A   1      33.832  28.204  23.323  1.00  0.00     0.023 C 
BRANCH  23  24
ATOM     24  C   UNL A   1      32.800  29.117  23.984  1.00  0.00     0.023 C 
BRANCH  24  25
ATOM     25  C   UNL A   1      32.932  29.273  25.495  1.00  0.00     0.116 C 
BRANCH  25  26
ATOM     26  N   UNL A   1      32.464  30.564  25.975  1.00  0.00    -0.352 N 
ATOM     27  C   UNL A   1      32.982  31.380  26.956  1.00  0.00     0.251 C 
ATOM     28  H   UNL A   1      31.655  30.907  25.530  1.00  0.00     0.163 HD
ATOM     29  O   UNL A   1      32.363  32.366  27.316  1.00  0.00    -0.269 OA
BRANCH  27  30
ATOM     30  C   UNL A   1      34.271  31.021  27.590  1.00  0.00     0.039 A 
ATOM     31  C   UNL A   1      35.213  32.027  27.818  1.00  0.00     0.014 A 
ATOM     32  C   UNL A   1      34.533  29.707  27.983  1.00  0.00     0.014 A 
ATOM     33  C   UNL A   1      36.387  31.726  28.513  1.00  0.00     0.010 A 
ATOM     34  C   UNL A   1      35.659  29.430  28.752  1.00  0.00     0.010 A 
ATOM     35  C   UNL A   1      36.601  30.435  29.022  1.00  0.00    -0.014 A 
BRANCH  35  36
ATOM     36  C   UNL A   1      37.811  30.106  29.821  1.00  0.00     0.031 A 
ATOM     37  C   UNL A   1      38.855  29.186  29.250  1.00  0.00     0.074 A 
ATOM     38  C   UNL A   1      37.938  30.581  31.076  1.00  0.00     0.049 A 
ATOM     39  N   UNL A   1      39.932  28.703  29.812  1.00  0.00    -0.248 NA
ATOM     40  C   UNL A   1      38.635  28.717  27.873  1.00  0.00     0.031 C 
ATOM     41  C   UNL A   1      36.974  31.450  31.755  1.00  0.00     0.029 A 
ATOM     42  N   UNL A   1      38.928  30.395  32.010  1.00  0.00    -0.354 N 
ATOM     43  C   UNL A   1      40.510  27.862  28.866  1.00  0.00     0.074 A 
ATOM     44  C   UNL A   1      39.621  27.847  27.725  1.00  0.00     0.031 C 
ATOM     45  C   UNL A   1      37.433  31.742  32.983  1.00  0.00     0.029 A 
ATOM     46  C   UNL A   1      38.698  31.047  33.199  1.00  0.00     0.049 A 
ATOM     47  H   UNL A   1      39.727  29.845  31.844  1.00  0.00     0.167 HD
ATOM     48  C   UNL A   1      41.685  27.189  28.931  1.00  0.00     0.034 A 
ATOM     49  C   UNL A   1      39.419  31.073  34.337  1.00  0.00     0.034 A 
ATOM     50  C   UNL A   1      42.565  27.226  30.073  1.00  0.00     0.049 A 
ATOM     51  C   UNL A   1      40.713  30.300  34.397  1.00  0.00     0.074 A 
ATOM     52  C   UNL A   1      43.800  26.620  30.233  1.00  0.00     0.029 A 
ATOM     53  N   UNL A   1      42.303  27.905  31.258  1.00  0.00    -0.354 N 
ATOM     54  N   UNL A   1      41.267  29.543  33.477  1.00  0.00    -0.248 NA
ATOM     55  C   UNL A   1      41.483  30.395  35.643  1.00  0.00     0.031 C 
ATOM     56  C   UNL A   1      44.251  26.875  31.532  1.00  0.00     0.029 A 
ATOM     57  C   UNL A   1      43.339  27.712  32.159  1.00  0.00     0.049 A 
ATOM     58  H   UNL A   1      41.499  28.445  31.431  1.00  0.00     0.167 HD
ATOM     59  C   UNL A   1      42.471  29.105  34.023  1.00  0.00     0.074 A 
ATOM     60  C   UNL A   1      42.564  29.690  35.344  1.00  0.00     0.031 C 
ATOM     61  C   UNL A   1      43.417  28.299  33.477  1.00  0.00     0.034 A 
BRANCH  48  62
ATOM     62  C   UNL A   1      42.063  26.339  27.739  1.00  0.00     0.023 A 
ATOM     63  C   UNL A   1      41.697  24.983  27.655  1.00  0.00     0.031 A 
ATOM     64  C   UNL A   1      42.836  26.875  26.694  1.00  0.00     0.131 A 
ATOM     65  C   UNL A   1      42.180  24.191  26.602  1.00  0.00     0.055 A 
ATOM     66  C   UNL A   1      43.236  26.102  25.602  1.00  0.00     0.041 A 
ATOM     67  F   UNL A   1      43.235  28.157  26.726  1.00  0.00    -0.206 F 
ATOM     68  C   UNL A   1      42.925  24.746  25.560  1.00  0.00     0.022 A 
BRANCH  65  69
ATOM     69  S   UNL A   1      41.961  22.392  26.707  1.00  0.00     0.124 S 
ATOM     70  O   UNL A   1      43.028  21.915  25.832  1.00  0.00    -0.237 OA
ATOM     71  O   UNL A   1      42.138  22.135  28.131  1.00  0.00    -0.237 OA
ATOM     72  O   UNL A   1      40.607  22.183  26.197  1.00  0.00    -0.744 OA
ENDBRANCH  65  69
ENDBRANCH  48  62
BRANCH  49  73
ATOM     73  C   UNL A   1      38.945  31.856  35.516  1.00  0.00     0.023 A 
ATOM     74  C   UNL A   1      38.336  31.219  36.609  1.00  0.00     0.031 A 
ATOM     75  C   UNL A   1      39.055  33.258  35.549  1.00  0.00     0.131 A 
ATOM     76  C   UNL A   1      37.818  31.983  37.666  1.00  0.00     0.055 A 
ATOM     77  C   UNL A   1      38.587  34.009  36.627  1.00  0.00     0.041 A 
ATOM     78  F   UNL A   1      39.634  33.917  34.532  1.00  0.00    -0.206 F 
ATOM     79  C   UNL A   1      37.952  33.374  37.689  1.00  0.00     0.022 A 
BRANCH  76  80
ATOM     80  S   UNL A   1      36.890  31.138  38.976  1.00  0.00     0.124 S 
ATOM     81  O   UNL A   1      37.761  31.336  40.129  1.00  0.00    -0.237 OA
ATOM     82  O   UNL A   1      35.634  31.880  38.985  1.00  0.00    -0.237 OA
ATOM     83  O   UNL A   1      36.795  29.762  38.492  1.00  0.00    -0.744 OA
ENDBRANCH  76  80
ENDBRANCH  49  73
BRANCH  61  84
ATOM     84  C   UNL A   1      44.666  28.055  34.291  1.00  0.00     0.023 A 
ATOM     85  C   UNL A   1      45.746  28.954  34.286  1.00  0.00     0.031 A 
ATOM     86  C   UNL A   1      44.776  26.893  35.075  1.00  0.00     0.131 A 
ATOM     87  C   UNL A   1      46.913  28.648  35.004  1.00  0.00     0.055 A 
ATOM     88  C   UNL A   1      45.913  26.625  35.839  1.00  0.00     0.041 A 
ATOM     89  F   UNL A   1      43.776  25.997  35.116  1.00  0.00    -0.206 F 
ATOM     90  C   UNL A   1      46.995  27.499  35.794  1.00  0.00     0.022 A 
BRANCH  87  91
ATOM     91  S   UNL A   1      48.361  29.722  34.812  1.00  0.00     0.124 S 
ATOM     92  O   UNL A   1      48.597  29.660  33.373  1.00  0.00    -0.237 OA
ATOM     93  O   UNL A   1      47.873  30.999  35.324  1.00  0.00    -0.237 OA
ATOM     94  O   UNL A   1      49.381  29.074  35.635  1.00  0.00    -0.744 OA
ENDBRANCH  87  91
ENDBRANCH  61  84
ENDBRANCH  35  36
ENDBRANCH  27  30
ENDBRANCH  25  26
ENDBRANCH  24  25
ENDBRANCH  23  24
ENDBRANCH   1  23
TORSDOF 19
ENDMDL
