MODEL 1
REMARK VINA RESULT:     -10.4      0.000      0.000
REMARK SMILES CCN(Cc1ccc(Br)s1)C(=O)C[N@@H+](C)CC(=O)NCCCCNC(=O)c1ccc(-c2c3nc(c(-c4cc(S(=O)(=O)[O-])ccc4F)c4ccc([nH]4)c(-c4cc(S(=O)(=O)[O-])ccc4F)c4nc(c(-c5cc(S(=O)(=O)[O-])ccc5F)c5ccc2[nH]5)C=C4)C=C3)cc1
REMARK SMILES IDX 20 1 19 2 17 3 18 4 16 6 14 7 15 8 13 10 11 11 12 12 3 13
REMARK SMILES IDX 2 14 1 15 4 16 5 17 6 18 10 19 7 20 8 21 9 22 21 23 22 24
REMARK SMILES IDX 23 25 24 26 25 27 26 29 27 30 28 31 89 32 29 33 88 34 30 35
REMARK SMILES IDX 31 36 32 37 82 38 33 39 87 40 81 41 83 42 34 43 86 44 80 45
REMARK SMILES IDX 79 46 35 48 67 49 47 50 66 51 48 52 51 53 65 54 84 55 49 56
REMARK SMILES IDX 50 57 64 59 85 60 52 61 36 62 37 63 45 64 38 65 44 66 46 67
REMARK SMILES IDX 43 68 39 69 40 70 41 71 42 72 68 73 69 74 77 75 70 76 76 77
REMARK SMILES IDX 78 78 75 79 71 80 72 81 73 82 74 83 53 84 54 85 62 86 55 87
REMARK SMILES IDX 61 88 63 89 60 90 56 91 57 92 58 93 59 94
REMARK H PARENT 19 5 14 9 24 28 83 47 51 58
REMARK Flexibility Score: inf
ROOT
ATOM      1  C   UNL A   1      32.759  30.006  26.245  1.00  0.00     0.116 C 
ENDROOT
BRANCH   1   2
ATOM      2  N   UNL A   1      33.351  29.782  24.948  1.00  0.00    -0.351 N 
ATOM      3  C   UNL A   1      33.335  28.669  24.164  1.00  0.00     0.275 C 
ATOM      4  O   UNL A   1      33.996  28.700  23.123  1.00  0.00    -0.269 OA
ATOM      5  H   UNL A   1      33.840  30.550  24.573  1.00  0.00     0.163 HD
BRANCH   3   6
ATOM      6  C   UNL A   1      32.481  27.446  24.521  1.00  0.00     0.363 C 
BRANCH   6   7
ATOM      7  N   UNL A   1      31.785  26.764  23.413  1.00  0.00    -0.322 N 
ATOM      8  C   UNL A   1      30.434  27.215  23.150  1.00  0.00     0.333 C 
ATOM      9  H   UNL A   1      32.324  27.081  22.608  1.00  0.00     0.348 HD
BRANCH   7  10
ATOM     10  C   UNL A   1      31.902  25.294  23.412  1.00  0.00     0.363 C 
BRANCH  10  11
ATOM     11  C   UNL A   1      33.350  24.844  23.177  1.00  0.00     0.278 C 
ATOM     12  O   UNL A   1      33.962  25.245  22.181  1.00  0.00    -0.268 OA
BRANCH  11  13
ATOM     13  N   UNL A   1      33.971  24.014  24.115  1.00  0.00    -0.333 N 
BRANCH  13  14
ATOM     14  C   UNL A   1      35.427  23.929  24.066  1.00  0.00     0.116 C 
ATOM     15  C   UNL A   1      36.048  24.114  25.445  1.00  0.00     0.027 C 
ENDBRANCH  13  14
BRANCH  13  16
ATOM     16  C   UNL A   1      33.276  23.122  25.045  1.00  0.00     0.166 C 
BRANCH  16  17
ATOM     17  C   UNL A   1      33.264  21.682  24.598  1.00  0.00     0.025 A 
ATOM     18  C   UNL A   1      32.297  21.058  23.823  1.00  0.00     0.018 A 
ATOM     19  S   UNL A   1      34.521  20.577  24.997  1.00  0.00    -0.131 S 
ATOM     20  C   UNL A   1      32.508  19.653  23.703  1.00  0.00     0.028 A 
ATOM     21  C   UNL A   1      33.672  19.277  24.321  1.00  0.00     0.070 A 
ATOM     22  Br  UNL A   1      34.270  17.505  24.405  1.00  0.00    -0.039 Br
ENDBRANCH  16  17
ENDBRANCH  13  16
ENDBRANCH  11  13
ENDBRANCH  10  11
ENDBRANCH   7  10
ENDBRANCH   6   7
ENDBRANCH   3   6
ENDBRANCH   1   2
BRANCH   1  23
ATOM     23  C   UNL A   1      31.389  30.670  26.107  1.00  0.00     0.023 C 
BRANCH  23  24
ATOM     24  C   UNL A   1      31.339  32.142  26.491  1.00  0.00     0.023 C 
BRANCH  24  25
ATOM     25  C   UNL A   1      32.584  32.665  27.186  1.00  0.00     0.116 C 
BRANCH  25  26
ATOM     26  N   UNL A   1      32.420  33.994  27.759  1.00  0.00    -0.352 N 
ATOM     27  C   UNL A   1      33.201  34.610  28.710  1.00  0.00     0.251 C 
ATOM     28  H   UNL A   1      31.654  34.515  27.424  1.00  0.00     0.163 HD
ATOM     29  O   UNL A   1      32.876  35.697  29.169  1.00  0.00    -0.269 OA
BRANCH  27  30
ATOM     30  C   UNL A   1      34.406  33.906  29.196  1.00  0.00     0.039 A 
ATOM     31  C   UNL A   1      35.666  34.407  28.864  1.00  0.00     0.014 A 
ATOM     32  C   UNL A   1      34.280  32.815  30.060  1.00  0.00     0.014 A 
ATOM     33  C   UNL A   1      36.801  33.862  29.468  1.00  0.00     0.010 A 
ATOM     34  C   UNL A   1      35.399  32.339  30.729  1.00  0.00     0.010 A 
ATOM     35  C   UNL A   1      36.672  32.857  30.440  1.00  0.00    -0.014 A 
BRANCH  35  36
ATOM     36  C   UNL A   1      37.852  32.312  31.157  1.00  0.00     0.031 A 
ATOM     37  C   UNL A   1      38.600  31.146  30.571  1.00  0.00     0.074 A 
ATOM     38  C   UNL A   1      38.194  32.805  32.364  1.00  0.00     0.049 A 
ATOM     39  N   UNL A   1      39.578  30.444  31.083  1.00  0.00    -0.248 NA
ATOM     40  C   UNL A   1      38.156  30.680  29.248  1.00  0.00     0.031 C 
ATOM     41  C   UNL A   1      37.507  33.896  33.061  1.00  0.00     0.029 A 
ATOM     42  N   UNL A   1      39.198  32.444  33.226  1.00  0.00    -0.354 N 
ATOM     43  C   UNL A   1      39.849  29.442  30.157  1.00  0.00     0.074 A 
ATOM     44  C   UNL A   1      38.884  29.587  29.089  1.00  0.00     0.031 C 
ATOM     45  C   UNL A   1      38.124  34.129  34.231  1.00  0.00     0.029 A 
ATOM     46  C   UNL A   1      39.222  33.180  34.389  1.00  0.00     0.049 A 
ATOM     47  H   UNL A   1      39.842  31.725  33.032  1.00  0.00     0.167 HD
ATOM     48  C   UNL A   1      40.831  28.508  30.179  1.00  0.00     0.034 A 
ATOM     49  C   UNL A   1      40.032  33.093  35.463  1.00  0.00     0.034 A 
ATOM     50  C   UNL A   1      41.800  28.397  31.241  1.00  0.00     0.049 A 
ATOM     51  C   UNL A   1      41.126  32.056  35.462  1.00  0.00     0.074 A 
ATOM     52  C   UNL A   1      42.871  27.528  31.346  1.00  0.00     0.029 A 
ATOM     53  N   UNL A   1      41.816  29.186  32.385  1.00  0.00    -0.354 N 
ATOM     54  N   UNL A   1      41.401  31.146  34.556  1.00  0.00    -0.248 NA
ATOM     55  C   UNL A   1      42.026  32.043  36.622  1.00  0.00     0.031 C 
ATOM     56  C   UNL A   1      43.502  27.755  32.575  1.00  0.00     0.029 A 
ATOM     57  C   UNL A   1      42.866  28.811  33.208  1.00  0.00     0.049 A 
ATOM     58  H   UNL A   1      41.174  29.906  32.583  1.00  0.00     0.167 HD
ATOM     59  C   UNL A   1      42.524  30.471  35.025  1.00  0.00     0.074 A 
ATOM     60  C   UNL A   1      42.883  31.089  36.285  1.00  0.00     0.031 C 
ATOM     61  C   UNL A   1      43.201  29.437  34.465  1.00  0.00     0.034 A 
BRANCH  48  62
ATOM     62  C   UNL A   1      40.883  27.535  29.027  1.00  0.00     0.023 A 
ATOM     63  C   UNL A   1      41.815  27.678  27.984  1.00  0.00     0.031 A 
ATOM     64  C   UNL A   1      39.959  26.479  28.940  1.00  0.00     0.131 A 
ATOM     65  C   UNL A   1      41.746  26.843  26.860  1.00  0.00     0.055 A 
ATOM     66  C   UNL A   1      39.952  25.594  27.859  1.00  0.00     0.041 A 
ATOM     67  F   UNL A   1      39.031  26.300  29.893  1.00  0.00    -0.206 F 
ATOM     68  C   UNL A   1      40.838  25.784  26.801  1.00  0.00     0.022 A 
BRANCH  65  69
ATOM     69  S   UNL A   1      42.754  27.261  25.411  1.00  0.00     0.124 S 
ATOM     70  O   UNL A   1      42.686  26.021  24.639  1.00  0.00    -0.237 OA
ATOM     71  O   UNL A   1      42.044  28.403  24.849  1.00  0.00    -0.237 OA
ATOM     72  O   UNL A   1      44.066  27.558  25.982  1.00  0.00    -0.744 OA
ENDBRANCH  65  69
ENDBRANCH  48  62
BRANCH  49  73
ATOM     73  C   UNL A   1      39.845  34.005  36.628  1.00  0.00     0.023 A 
ATOM     74  C   UNL A   1      39.305  33.533  37.835  1.00  0.00     0.031 A 
ATOM     75  C   UNL A   1      40.169  35.370  36.538  1.00  0.00     0.131 A 
ATOM     76  C   UNL A   1      39.060  34.427  38.889  1.00  0.00     0.055 A 
ATOM     77  C   UNL A   1      39.969  36.247  37.606  1.00  0.00     0.041 A 
ATOM     78  F   UNL A   1      40.697  35.869  35.410  1.00  0.00    -0.206 F 
ATOM     79  C   UNL A   1      39.399  35.779  38.787  1.00  0.00     0.022 A 
BRANCH  76  80
ATOM     80  S   UNL A   1      38.220  33.810  40.374  1.00  0.00     0.124 S 
ATOM     81  O   UNL A   1      39.268  33.011  40.999  1.00  0.00    -0.237 OA
ATOM     82  O   UNL A   1      37.864  35.049  41.056  1.00  0.00    -0.237 OA
ATOM     83  O   UNL A   1      37.093  33.051  39.836  1.00  0.00    -0.744 OA
ENDBRANCH  76  80
ENDBRANCH  49  73
BRANCH  61  84
ATOM     84  C   UNL A   1      44.425  28.947  35.197  1.00  0.00     0.023 A 
ATOM     85  C   UNL A   1      44.340  27.980  36.213  1.00  0.00     0.031 A 
ATOM     86  C   UNL A   1      45.692  29.464  34.877  1.00  0.00     0.131 A 
ATOM     87  C   UNL A   1      45.496  27.597  36.909  1.00  0.00     0.055 A 
ATOM     88  C   UNL A   1      46.846  29.039  35.535  1.00  0.00     0.041 A 
ATOM     89  F   UNL A   1      45.829  30.391  33.914  1.00  0.00    -0.206 F 
ATOM     90  C   UNL A   1      46.751  28.109  36.566  1.00  0.00     0.022 A 
BRANCH  87  91
ATOM     91  S   UNL A   1      45.329  26.479  38.327  1.00  0.00     0.124 S 
ATOM     92  O   UNL A   1      46.402  26.938  39.203  1.00  0.00    -0.237 OA
ATOM     93  O   UNL A   1      43.971  26.754  38.784  1.00  0.00    -0.237 OA
ATOM     94  O   UNL A   1      45.529  25.153  37.744  1.00  0.00    -0.744 OA
ENDBRANCH  87  91
ENDBRANCH  61  84
ENDBRANCH  35  36
ENDBRANCH  27  30
ENDBRANCH  25  26
ENDBRANCH  24  25
ENDBRANCH  23  24
ENDBRANCH   1  23
TORSDOF 21
ENDMDL
MODEL 2
REMARK VINA RESULT:     -10.2      3.395      8.699
REMARK SMILES CCN(Cc1ccc(Br)s1)C(=O)C[N@@H+](C)CC(=O)NCCCCNC(=O)c1ccc(-c2c3nc(c(-c4cc(S(=O)(=O)[O-])ccc4F)c4ccc([nH]4)c(-c4cc(S(=O)(=O)[O-])ccc4F)c4nc(c(-c5cc(S(=O)(=O)[O-])ccc5F)c5ccc2[nH]5)C=C4)C=C3)cc1
REMARK SMILES IDX 20 1 19 2 17 3 18 4 16 6 14 7 15 8 13 10 11 11 12 12 3 13
REMARK SMILES IDX 2 14 1 15 4 16 5 17 6 18 10 19 7 20 8 21 9 22 21 23 22 24
REMARK SMILES IDX 23 25 24 26 25 27 26 29 27 30 28 31 89 32 29 33 88 34 30 35
REMARK SMILES IDX 31 36 32 37 82 38 33 39 87 40 81 41 83 42 34 43 86 44 80 45
REMARK SMILES IDX 79 46 35 48 67 49 47 50 66 51 48 52 51 53 65 54 84 55 49 56
REMARK SMILES IDX 50 57 64 59 85 60 52 61 36 62 37 63 45 64 38 65 44 66 46 67
REMARK SMILES IDX 43 68 39 69 40 70 41 71 42 72 68 73 69 74 77 75 70 76 76 77
REMARK SMILES IDX 78 78 75 79 71 80 72 81 73 82 74 83 53 84 54 85 62 86 55 87
REMARK SMILES IDX 61 88 63 89 60 90 56 91 57 92 58 93 59 94
REMARK H PARENT 19 5 14 9 24 28 83 47 51 58
REMARK Flexibility Score: inf
ROOT
ATOM      1  C   UNL A   1      31.576  26.522  26.493  1.00  0.00     0.116 C 
ENDROOT
BRANCH   1   2
ATOM      2  N   UNL A   1      30.422  26.658  25.637  1.00  0.00    -0.351 N 
ATOM      3  C   UNL A   1      30.356  26.858  24.292  1.00  0.00     0.275 C 
ATOM      4  O   UNL A   1      29.238  27.030  23.800  1.00  0.00    -0.269 OA
ATOM      5  H   UNL A   1      29.553  26.598  26.094  1.00  0.00     0.163 HD
BRANCH   3   6
ATOM      6  C   UNL A   1      31.608  26.808  23.408  1.00  0.00     0.363 C 
BRANCH   6   7
ATOM      7  N   UNL A   1      32.180  25.477  23.125  1.00  0.00    -0.322 N 
ATOM      8  C   UNL A   1      33.194  25.437  22.092  1.00  0.00     0.333 C 
ATOM      9  H   UNL A   1      32.685  25.285  23.990  1.00  0.00     0.348 HD
BRANCH   7  10
ATOM     10  C   UNL A   1      31.194  24.389  22.994  1.00  0.00     0.363 C 
BRANCH  10  11
ATOM     11  C   UNL A   1      31.385  23.321  24.080  1.00  0.00     0.278 C 
ATOM     12  O   UNL A   1      30.770  23.417  25.148  1.00  0.00    -0.268 OA
BRANCH  11  13
ATOM     13  N   UNL A   1      32.226  22.233  23.831  1.00  0.00    -0.333 N 
BRANCH  13  14
ATOM     14  C   UNL A   1      32.046  21.530  22.564  1.00  0.00     0.116 C 
ATOM     15  C   UNL A   1      32.212  20.024  22.727  1.00  0.00     0.027 C 
ENDBRANCH  13  14
BRANCH  13  16
ATOM     16  C   UNL A   1      33.172  21.658  24.790  1.00  0.00     0.166 C 
BRANCH  16  17
ATOM     17  C   UNL A   1      34.507  22.357  24.806  1.00  0.00     0.025 A 
ATOM     18  C   UNL A   1      35.266  22.731  23.707  1.00  0.00     0.018 A 
ATOM     19  S   UNL A   1      35.294  22.819  26.265  1.00  0.00    -0.131 S 
ATOM     20  C   UNL A   1      36.548  23.240  24.067  1.00  0.00     0.028 A 
ATOM     21  C   UNL A   1      36.682  23.310  25.429  1.00  0.00     0.070 A 
ATOM     22  Br  UNL A   1      38.242  23.897  26.283  1.00  0.00    -0.039 Br
ENDBRANCH  16  17
ENDBRANCH  13  16
ENDBRANCH  11  13
ENDBRANCH  10  11
ENDBRANCH   7  10
ENDBRANCH   6   7
ENDBRANCH   3   6
ENDBRANCH   1   2
BRANCH   1  23
ATOM     23  C   UNL A   1      32.263  27.873  26.692  1.00  0.00     0.023 C 
BRANCH  23  24
ATOM     24  C   UNL A   1      33.785  27.831  26.716  1.00  0.00     0.023 C 
BRANCH  24  25
ATOM     25  C   UNL A   1      34.469  29.044  26.110  1.00  0.00     0.116 C 
BRANCH  25  26
ATOM     26  N   UNL A   1      33.909  30.313  26.554  1.00  0.00    -0.352 N 
ATOM     27  C   UNL A   1      34.354  31.127  27.572  1.00  0.00     0.251 C 
ATOM     28  H   UNL A   1      33.114  30.627  26.066  1.00  0.00     0.163 HD
ATOM     29  O   UNL A   1      33.716  32.119  27.895  1.00  0.00    -0.269 OA
BRANCH  27  30
ATOM     30  C   UNL A   1      35.587  30.743  28.291  1.00  0.00     0.039 A 
ATOM     31  C   UNL A   1      35.500  29.849  29.359  1.00  0.00     0.014 A 
ATOM     32  C   UNL A   1      36.831  31.191  27.838  1.00  0.00     0.014 A 
ATOM     33  C   UNL A   1      36.671  29.338  29.922  1.00  0.00     0.010 A 
ATOM     34  C   UNL A   1      37.990  30.610  28.335  1.00  0.00     0.010 A 
ATOM     35  C   UNL A   1      37.923  29.678  29.383  1.00  0.00    -0.014 A 
BRANCH  35  36
ATOM     36  C   UNL A   1      39.182  29.092  29.908  1.00  0.00     0.031 A 
ATOM     37  C   UNL A   1      39.816  29.681  31.138  1.00  0.00     0.074 A 
ATOM     38  C   UNL A   1      39.793  28.096  29.235  1.00  0.00     0.049 A 
ATOM     39  N   UNL A   1      40.967  29.402  31.693  1.00  0.00    -0.248 NA
ATOM     40  C   UNL A   1      39.073  30.761  31.805  1.00  0.00     0.031 C 
ATOM     41  C   UNL A   1      39.303  27.483  27.997  1.00  0.00     0.029 A 
ATOM     42  N   UNL A   1      40.966  27.432  29.490  1.00  0.00    -0.354 N 
ATOM     43  C   UNL A   1      41.095  30.286  32.759  1.00  0.00     0.074 A 
ATOM     44  C   UNL A   1      39.938  31.155  32.725  1.00  0.00     0.031 C 
ATOM     45  C   UNL A   1      40.157  26.519  27.615  1.00  0.00     0.029 A 
ATOM     46  C   UNL A   1      41.274  26.472  28.553  1.00  0.00     0.049 A 
ATOM     47  H   UNL A   1      41.535  27.624  30.270  1.00  0.00     0.167 HD
ATOM     48  C   UNL A   1      42.070  30.348  33.699  1.00  0.00     0.034 A 
ATOM     49  C   UNL A   1      42.341  25.654  28.458  1.00  0.00     0.034 A 
ATOM     50  C   UNL A   1      43.202  29.455  33.732  1.00  0.00     0.049 A 
ATOM     51  C   UNL A   1      43.409  25.730  29.520  1.00  0.00     0.074 A 
ATOM     52  C   UNL A   1      44.222  29.387  34.663  1.00  0.00     0.029 A 
ATOM     53  N   UNL A   1      43.461  28.469  32.787  1.00  0.00    -0.354 N 
ATOM     54  N   UNL A   1      43.492  26.539  30.552  1.00  0.00    -0.248 NA
ATOM     55  C   UNL A   1      44.518  24.773  29.413  1.00  0.00     0.031 C 
ATOM     56  C   UNL A   1      45.124  28.398  34.255  1.00  0.00     0.029 A 
ATOM     57  C   UNL A   1      44.634  27.802  33.104  1.00  0.00     0.049 A 
ATOM     58  H   UNL A   1      42.894  28.274  32.005  1.00  0.00     0.167 HD
ATOM     59  C   UNL A   1      44.648  26.169  31.231  1.00  0.00     0.074 A 
ATOM     60  C   UNL A   1      45.220  25.055  30.502  1.00  0.00     0.031 C 
ATOM     61  C   UNL A   1      45.189  26.698  32.358  1.00  0.00     0.034 A 
BRANCH  48  62
ATOM     62  C   UNL A   1      41.950  31.427  34.748  1.00  0.00     0.023 A 
ATOM     63  C   UNL A   1      40.917  31.413  35.703  1.00  0.00     0.031 A 
ATOM     64  C   UNL A   1      42.845  32.511  34.766  1.00  0.00     0.131 A 
ATOM     65  C   UNL A   1      40.750  32.501  36.572  1.00  0.00     0.055 A 
ATOM     66  C   UNL A   1      42.726  33.549  35.693  1.00  0.00     0.041 A 
ATOM     67  F   UNL A   1      43.839  32.592  33.868  1.00  0.00    -0.206 F 
ATOM     68  C   UNL A   1      41.662  33.557  36.592  1.00  0.00     0.022 A 
BRANCH  65  69
ATOM     69  S   UNL A   1      39.234  32.586  37.564  1.00  0.00     0.124 S 
ATOM     70  O   UNL A   1      38.566  31.342  37.188  1.00  0.00    -0.237 OA
ATOM     71  O   UNL A   1      39.749  32.648  38.926  1.00  0.00    -0.237 OA
ATOM     72  O   UNL A   1      38.581  33.804  37.086  1.00  0.00    -0.744 OA
ENDBRANCH  65  69
ENDBRANCH  48  62
BRANCH  49  73
ATOM     73  C   UNL A   1      42.462  24.696  27.322  1.00  0.00     0.023 A 
ATOM     74  C   UNL A   1      41.955  23.390  27.421  1.00  0.00     0.031 A 
ATOM     75  C   UNL A   1      43.120  25.060  26.134  1.00  0.00     0.131 A 
ATOM     76  C   UNL A   1      42.155  22.480  26.372  1.00  0.00     0.055 A 
ATOM     77  C   UNL A   1      43.273  24.166  25.072  1.00  0.00     0.041 A 
ATOM     78  F   UNL A   1      43.613  26.299  25.985  1.00  0.00    -0.206 F 
ATOM     79  C   UNL A   1      42.801  22.862  25.194  1.00  0.00     0.022 A 
BRANCH  76  80
ATOM     80  S   UNL A   1      41.623  20.761  26.600  1.00  0.00     0.124 S 
ATOM     81  O   UNL A   1      42.152  20.459  27.926  1.00  0.00    -0.237 OA
ATOM     82  O   UNL A   1      40.173  20.877  26.499  1.00  0.00    -0.237 OA
ATOM     83  O   UNL A   1      42.268  20.056  25.495  1.00  0.00    -0.744 OA
ENDBRANCH  76  80
ENDBRANCH  49  73
BRANCH  61  84
ATOM     84  C   UNL A   1      46.438  26.041  32.889  1.00  0.00     0.023 A 
ATOM     85  C   UNL A   1      47.715  26.405  32.432  1.00  0.00     0.031 A 
ATOM     86  C   UNL A   1      46.343  25.029  33.860  1.00  0.00     0.131 A 
ATOM     87  C   UNL A   1      48.846  25.725  32.909  1.00  0.00     0.055 A 
ATOM     88  C   UNL A   1      47.475  24.394  34.371  1.00  0.00     0.041 A 
ATOM     89  F   UNL A   1      45.145  24.642  34.330  1.00  0.00    -0.206 F 
ATOM     90  C   UNL A   1      48.735  24.733  33.887  1.00  0.00     0.022 A 
BRANCH  87  91
ATOM     91  S   UNL A   1      50.461  26.099  32.174  1.00  0.00     0.124 S 
ATOM     92  O   UNL A   1      51.251  24.936  32.569  1.00  0.00    -0.237 OA
ATOM     93  O   UNL A   1      50.143  26.200  30.754  1.00  0.00    -0.237 OA
ATOM     94  O   UNL A   1      50.847  27.356  32.813  1.00  0.00    -0.744 OA
ENDBRANCH  87  91
ENDBRANCH  61  84
ENDBRANCH  35  36
ENDBRANCH  27  30
ENDBRANCH  25  26
ENDBRANCH  24  25
ENDBRANCH  23  24
ENDBRANCH   1  23
TORSDOF 21
ENDMDL
MODEL 3
REMARK VINA RESULT:     -10.1      3.464      8.430
REMARK SMILES CCN(Cc1ccc(Br)s1)C(=O)C[N@@H+](C)CC(=O)NCCCCNC(=O)c1ccc(-c2c3nc(c(-c4cc(S(=O)(=O)[O-])ccc4F)c4ccc([nH]4)c(-c4cc(S(=O)(=O)[O-])ccc4F)c4nc(c(-c5cc(S(=O)(=O)[O-])ccc5F)c5ccc2[nH]5)C=C4)C=C3)cc1
REMARK SMILES IDX 20 1 19 2 17 3 18 4 16 6 14 7 15 8 13 10 11 11 12 12 3 13
REMARK SMILES IDX 2 14 1 15 4 16 5 17 6 18 10 19 7 20 8 21 9 22 21 23 22 24
REMARK SMILES IDX 23 25 24 26 25 27 26 29 27 30 28 31 89 32 29 33 88 34 30 35
REMARK SMILES IDX 31 36 32 37 82 38 33 39 87 40 81 41 83 42 34 43 86 44 80 45
REMARK SMILES IDX 79 46 35 48 67 49 47 50 66 51 48 52 51 53 65 54 84 55 49 56
REMARK SMILES IDX 50 57 64 59 85 60 52 61 36 62 37 63 45 64 38 65 44 66 46 67
REMARK SMILES IDX 43 68 39 69 40 70 41 71 42 72 68 73 69 74 77 75 70 76 76 77
REMARK SMILES IDX 78 78 75 79 71 80 72 81 73 82 74 83 53 84 54 85 62 86 55 87
REMARK SMILES IDX 61 88 63 89 60 90 56 91 57 92 58 93 59 94
REMARK H PARENT 19 5 14 9 24 28 83 47 51 58
REMARK Flexibility Score: inf
ROOT
ATOM      1  C   UNL A   1      31.615  28.415  23.483  1.00  0.00     0.116 C 
ENDROOT
BRANCH   1   2
ATOM      2  N   UNL A   1      32.594  27.789  22.626  1.00  0.00    -0.351 N 
ATOM      3  C   UNL A   1      32.651  26.511  22.159  1.00  0.00     0.275 C 
ATOM      4  O   UNL A   1      33.647  26.192  21.504  1.00  0.00    -0.269 OA
ATOM      5  H   UNL A   1      33.331  28.373  22.336  1.00  0.00     0.163 HD
BRANCH   3   6
ATOM      6  C   UNL A   1      31.500  25.522  22.377  1.00  0.00     0.363 C 
BRANCH   6   7
ATOM      7  N   UNL A   1      31.510  24.742  23.629  1.00  0.00    -0.322 N 
ATOM      8  C   UNL A   1      32.714  24.852  24.427  1.00  0.00     0.333 C 
ATOM      9  H   UNL A   1      30.794  25.221  24.174  1.00  0.00     0.348 HD
BRANCH   7  10
ATOM     10  C   UNL A   1      31.041  23.349  23.501  1.00  0.00     0.363 C 
BRANCH  10  11
ATOM     11  C   UNL A   1      32.154  22.424  22.991  1.00  0.00     0.278 C 
ATOM     12  O   UNL A   1      32.925  22.820  22.111  1.00  0.00    -0.268 OA
BRANCH  11  13
ATOM     13  N   UNL A   1      32.304  21.155  23.559  1.00  0.00    -0.333 N 
BRANCH  13  14
ATOM     14  C   UNL A   1      32.151  20.007  22.670  1.00  0.00     0.116 C 
ATOM     15  C   UNL A   1      32.524  18.704  23.366  1.00  0.00     0.027 C 
ENDBRANCH  13  14
BRANCH  13  16
ATOM     16  C   UNL A   1      32.462  20.882  24.990  1.00  0.00     0.166 C 
BRANCH  16  17
ATOM     17  C   UNL A   1      33.608  21.632  25.619  1.00  0.00     0.025 A 
ATOM     18  C   UNL A   1      33.608  22.279  26.845  1.00  0.00     0.018 A 
ATOM     19  S   UNL A   1      35.148  21.774  24.864  1.00  0.00    -0.131 S 
ATOM     20  C   UNL A   1      34.804  23.018  27.080  1.00  0.00     0.028 A 
ATOM     21  C   UNL A   1      35.701  22.837  26.060  1.00  0.00     0.070 A 
ATOM     22  Br  UNL A   1      37.374  23.674  25.997  1.00  0.00    -0.039 Br
ENDBRANCH  16  17
ENDBRANCH  13  16
ENDBRANCH  11  13
ENDBRANCH  10  11
ENDBRANCH   7  10
ENDBRANCH   6   7
ENDBRANCH   3   6
ENDBRANCH   1   2
BRANCH   1  23
ATOM     23  C   UNL A   1      32.220  28.731  24.851  1.00  0.00     0.023 C 
BRANCH  23  24
ATOM     24  C   UNL A   1      33.694  28.383  25.006  1.00  0.00     0.023 C 
BRANCH  24  25
ATOM     25  C   UNL A   1      34.353  28.934  26.258  1.00  0.00     0.116 C 
BRANCH  25  26
ATOM     26  N   UNL A   1      33.861  30.248  26.648  1.00  0.00    -0.352 N 
ATOM     27  C   UNL A   1      34.370  31.095  27.606  1.00  0.00     0.251 C 
ATOM     28  H   UNL A   1      33.064  30.569  26.167  1.00  0.00     0.163 HD
ATOM     29  O   UNL A   1      33.784  32.130  27.893  1.00  0.00    -0.269 OA
BRANCH  27  30
ATOM     30  C   UNL A   1      35.608  30.698  28.310  1.00  0.00     0.039 A 
ATOM     31  C   UNL A   1      35.527  29.790  29.366  1.00  0.00     0.014 A 
ATOM     32  C   UNL A   1      36.849  31.149  27.853  1.00  0.00     0.014 A 
ATOM     33  C   UNL A   1      36.702  29.268  29.911  1.00  0.00     0.010 A 
ATOM     34  C   UNL A   1      38.011  30.559  28.331  1.00  0.00     0.010 A 
ATOM     35  C   UNL A   1      37.950  29.612  29.367  1.00  0.00    -0.014 A 
BRANCH  35  36
ATOM     36  C   UNL A   1      39.212  29.015  29.873  1.00  0.00     0.031 A 
ATOM     37  C   UNL A   1      39.899  29.633  31.059  1.00  0.00     0.074 A 
ATOM     38  C   UNL A   1      39.778  27.982  29.218  1.00  0.00     0.049 A 
ATOM     39  N   UNL A   1      41.060  29.347  31.589  1.00  0.00    -0.248 NA
ATOM     40  C   UNL A   1      39.202  30.754  31.710  1.00  0.00     0.031 C 
ATOM     41  C   UNL A   1      39.235  27.336  28.020  1.00  0.00     0.029 A 
ATOM     42  N   UNL A   1      40.943  27.300  29.460  1.00  0.00    -0.354 N 
ATOM     43  C   UNL A   1      41.243  30.266  32.617  1.00  0.00     0.074 A 
ATOM     44  C   UNL A   1      40.106  31.160  32.587  1.00  0.00     0.031 C 
ATOM     45  C   UNL A   1      40.054  26.339  27.647  1.00  0.00     0.029 A 
ATOM     46  C   UNL A   1      41.199  26.299  28.550  1.00  0.00     0.049 A 
ATOM     47  H   UNL A   1      41.541  27.506  30.215  1.00  0.00     0.167 HD
ATOM     48  C   UNL A   1      42.249  30.339  33.522  1.00  0.00     0.034 A 
ATOM     49  C   UNL A   1      42.244  25.453  28.452  1.00  0.00     0.034 A 
ATOM     50  C   UNL A   1      43.361  29.420  33.552  1.00  0.00     0.049 A 
ATOM     51  C   UNL A   1      43.346  25.542  29.476  1.00  0.00     0.074 A 
ATOM     52  C   UNL A   1      44.409  29.362  34.453  1.00  0.00     0.029 A 
ATOM     53  N   UNL A   1      43.567  28.395  32.636  1.00  0.00    -0.354 N 
ATOM     54  N   UNL A   1      43.481  26.386  30.474  1.00  0.00    -0.248 NA
ATOM     55  C   UNL A   1      44.430  24.556  29.369  1.00  0.00     0.031 C 
ATOM     56  C   UNL A   1      45.275  28.337  34.053  1.00  0.00     0.029 A 
ATOM     57  C   UNL A   1      44.734  27.712  32.941  1.00  0.00     0.049 A 
ATOM     58  H   UNL A   1      42.971  28.186  31.881  1.00  0.00     0.167 HD
ATOM     59  C   UNL A   1      44.651  26.013  31.130  1.00  0.00     0.074 A 
ATOM     60  C   UNL A   1      45.173  24.860  30.424  1.00  0.00     0.031 C 
ATOM     61  C   UNL A   1      45.239  26.569  32.219  1.00  0.00     0.034 A 
BRANCH  48  62
ATOM     62  C   UNL A   1      42.188  31.457  34.534  1.00  0.00     0.023 A 
ATOM     63  C   UNL A   1      42.659  32.747  34.234  1.00  0.00     0.031 A 
ATOM     64  C   UNL A   1      41.700  31.222  35.831  1.00  0.00     0.131 A 
ATOM     65  C   UNL A   1      42.719  33.725  35.239  1.00  0.00     0.055 A 
ATOM     66  C   UNL A   1      41.679  32.225  36.803  1.00  0.00     0.041 A 
ATOM     67  F   UNL A   1      41.255  30.006  36.185  1.00  0.00    -0.206 F 
ATOM     68  C   UNL A   1      42.208  33.481  36.515  1.00  0.00     0.022 A 
BRANCH  65  69
ATOM     69  S   UNL A   1      43.617  35.262  34.894  1.00  0.00     0.124 S 
ATOM     70  O   UNL A   1      43.455  35.985  36.155  1.00  0.00    -0.237 OA
ATOM     71  O   UNL A   1      44.963  34.784  34.601  1.00  0.00    -0.237 OA
ATOM     72  O   UNL A   1      42.895  35.833  33.760  1.00  0.00    -0.744 OA
ENDBRANCH  65  69
ENDBRANCH  48  62
BRANCH  49  73
ATOM     73  C   UNL A   1      42.306  24.452  27.348  1.00  0.00     0.023 A 
ATOM     74  C   UNL A   1      41.595  23.243  27.428  1.00  0.00     0.031 A 
ATOM     75  C   UNL A   1      43.107  24.673  26.214  1.00  0.00     0.131 A 
ATOM     76  C   UNL A   1      41.735  22.281  26.417  1.00  0.00     0.055 A 
ATOM     77  C   UNL A   1      43.205  23.732  25.187  1.00  0.00     0.041 A 
ATOM     78  F   UNL A   1      43.798  25.816  26.084  1.00  0.00    -0.206 F 
ATOM     79  C   UNL A   1      42.527  22.521  25.292  1.00  0.00     0.022 A 
BRANCH  76  80
ATOM     80  S   UNL A   1      40.925  20.672  26.632  1.00  0.00     0.124 S 
ATOM     81  O   UNL A   1      40.838  20.574  28.085  1.00  0.00    -0.237 OA
ATOM     82  O   UNL A   1      39.665  20.872  25.925  1.00  0.00    -0.237 OA
ATOM     83  O   UNL A   1      41.852  19.737  25.997  1.00  0.00    -0.744 OA
ENDBRANCH  76  80
ENDBRANCH  49  73
BRANCH  61  84
ATOM     84  C   UNL A   1      46.490  25.902  32.734  1.00  0.00     0.023 A 
ATOM     85  C   UNL A   1      46.437  24.868  33.684  1.00  0.00     0.031 A 
ATOM     86  C   UNL A   1      47.751  26.315  32.270  1.00  0.00     0.131 A 
ATOM     87  C   UNL A   1      47.628  24.317  34.181  1.00  0.00     0.055 A 
ATOM     88  C   UNL A   1      48.929  25.725  32.726  1.00  0.00     0.041 A 
ATOM     89  F   UNL A   1      47.856  27.299  31.362  1.00  0.00    -0.206 F 
ATOM     90  C   UNL A   1      48.873  24.727  33.696  1.00  0.00     0.022 A 
BRANCH  87  91
ATOM     91  S   UNL A   1      47.532  23.109  35.530  1.00  0.00     0.124 S 
ATOM     92  O   UNL A   1      48.728  23.425  36.305  1.00  0.00    -0.237 OA
ATOM     93  O   UNL A   1      46.258  23.442  36.158  1.00  0.00    -0.237 OA
ATOM     94  O   UNL A   1      47.563  21.820  34.840  1.00  0.00    -0.744 OA
ENDBRANCH  87  91
ENDBRANCH  61  84
ENDBRANCH  35  36
ENDBRANCH  27  30
ENDBRANCH  25  26
ENDBRANCH  24  25
ENDBRANCH  23  24
ENDBRANCH   1  23
TORSDOF 21
ENDMDL
