MODEL 1
REMARK VINA RESULT:     -12.7      0.000      0.000
REMARK SMILES [NH3+][C@H]1CN(C(=O)OCC2c3ccccc3-c3ccccc32)C[C@@H]1C(=O)NCCCCNC(=O)c1ccc(-c2c3nc(c(-c4cc(S(=O)(=O)[O-])ccc4F)c4ccc([nH]4)c(-c4cc(S(=O)(=O)[O-])ccc4F)c4nc(c(-c5cc(S(=O)(=O)[O-])ccc5F)c5ccc2[nH]5)C=C4)C=C3)cc1
REMARK SMILES IDX 28 1 27 2 26 3 24 4 25 5 23 7 2 8 3 9 4 10 22 11 1 12 5 16
REMARK SMILES IDX 6 17 7 18 8 19 9 20 10 21 21 22 11 23 15 24 16 25 20 26
REMARK SMILES IDX 12 27 14 28 17 29 19 30 13 31 18 32 29 33 30 34 31 35 32 36
REMARK SMILES IDX 33 38 34 39 35 40 96 41 36 42 95 43 37 44 38 45 39 46 89 47
REMARK SMILES IDX 40 48 94 49 88 50 90 51 41 52 93 53 87 54 86 55 42 57 74 58
REMARK SMILES IDX 54 59 73 60 55 61 58 62 72 63 91 64 56 65 57 66 71 68 92 69
REMARK SMILES IDX 59 70 43 71 44 72 52 73 45 74 51 75 53 76 50 77 46 78 47 79
REMARK SMILES IDX 48 80 49 81 75 82 76 83 84 84 77 85 83 86 85 87 82 88 78 89
REMARK SMILES IDX 79 90 80 91 81 92 60 93 61 94 69 95 62 96 68 97 70 98 67 99
REMARK SMILES IDX 63 100 64 101 65 102 66 103
REMARK H PARENT 26 6 1 13 1 14 1 15 31 37 90 56 58 67
REMARK Flexibility Score: inf
ROOT
ATOM      1  C   UNL A   1      36.759  21.189  25.185  1.00  0.00     0.023 C 
ENDROOT
BRANCH   1   2
ATOM      2  C   UNL A   1      36.983  22.457  26.013  1.00  0.00     0.116 C 
BRANCH   2   3
ATOM      3  N   UNL A   1      35.990  23.465  25.679  1.00  0.00    -0.356 N 
ATOM      4  C   UNL A   1      34.627  23.400  25.739  1.00  0.00     0.231 C 
ATOM      5  O   UNL A   1      33.970  24.255  25.147  1.00  0.00    -0.274 OA
ATOM      6  H   UNL A   1      36.354  24.323  25.362  1.00  0.00     0.163 HD
BRANCH   4   7
ATOM      7  C   UNL A   1      33.979  22.328  26.592  1.00  0.00     0.158 C 
ATOM      8  C   UNL A   1      33.263  21.253  25.757  1.00  0.00     0.215 C 
ATOM      9  C   UNL A   1      31.838  21.812  25.555  1.00  0.00     0.188 C 
ATOM     10  N   UNL A   1      31.683  22.857  26.545  1.00  0.00    -0.301 N 
ATOM     11  C   UNL A   1      32.858  22.991  27.382  1.00  0.00     0.143 C 
BRANCH   8  12
ATOM     12  N   UNL A   1      33.240  19.972  26.494  1.00  0.00    -0.353 N 
ATOM     13  H   UNL A   1      34.056  19.916  27.104  1.00  0.00     0.344 HD
ATOM     14  H   UNL A   1      33.259  19.197  25.831  1.00  0.00     0.344 HD
ATOM     15  H   UNL A   1      32.391  19.917  27.056  1.00  0.00     0.344 HD
ENDBRANCH   8  12
BRANCH  10  16
ATOM     16  C   UNL A   1      30.660  23.766  26.552  1.00  0.00     0.410 C 
ATOM     17  O   UNL A   1      29.663  23.657  27.250  1.00  0.00    -0.224 OA
BRANCH  16  18
ATOM     18  O   UNL A   1      30.838  24.726  25.602  1.00  0.00    -0.448 OA
BRANCH  18  19
ATOM     19  C   UNL A   1      30.960  26.075  26.097  1.00  0.00     0.248 C 
BRANCH  19  20
ATOM     20  C   UNL A   1      31.718  26.993  25.108  1.00  0.00     0.088 C 
ATOM     21  C   UNL A   1      30.812  27.898  24.274  1.00  0.00    -0.029 A 
ATOM     22  C   UNL A   1      32.552  28.032  25.863  1.00  0.00    -0.029 A 
ATOM     23  C   UNL A   1      29.916  27.555  23.273  1.00  0.00     0.005 A 
ATOM     24  C   UNL A   1      30.990  29.248  24.641  1.00  0.00    -0.014 A 
ATOM     25  C   UNL A   1      32.085  29.334  25.579  1.00  0.00    -0.014 A 
ATOM     26  C   UNL A   1      33.640  27.829  26.699  1.00  0.00     0.005 A 
ATOM     27  C   UNL A   1      29.095  28.549  22.739  1.00  0.00     0.000 A 
ATOM     28  C   UNL A   1      30.189  30.242  24.100  1.00  0.00     0.009 A 
ATOM     29  C   UNL A   1      32.707  30.445  26.128  1.00  0.00     0.009 A 
ATOM     30  C   UNL A   1      34.266  28.949  27.254  1.00  0.00     0.000 A 
ATOM     31  C   UNL A   1      29.218  29.880  23.161  1.00  0.00     0.001 A 
ATOM     32  C   UNL A   1      33.805  30.246  26.968  1.00  0.00     0.001 A 
ENDBRANCH  19  20
ENDBRANCH  18  19
ENDBRANCH  16  18
ENDBRANCH  10  16
ENDBRANCH   4   7
ENDBRANCH   2   3
ENDBRANCH   1   2
BRANCH   1  33
ATOM     33  C   UNL A   1      38.022  20.346  24.976  1.00  0.00     0.023 C 
BRANCH  33  34
ATOM     34  C   UNL A   1      39.143  20.606  25.976  1.00  0.00     0.116 C 
BRANCH  34  35
ATOM     35  N   UNL A   1      40.109  19.520  26.029  1.00  0.00    -0.352 N 
ATOM     36  C   UNL A   1      41.476  19.581  26.154  1.00  0.00     0.251 C 
ATOM     37  H   UNL A   1      39.730  18.613  25.966  1.00  0.00     0.163 HD
ATOM     38  O   UNL A   1      42.144  18.562  26.009  1.00  0.00    -0.269 OA
BRANCH  36  39
ATOM     39  C   UNL A   1      42.135  20.879  26.426  1.00  0.00     0.039 A 
ATOM     40  C   UNL A   1      42.437  21.721  25.354  1.00  0.00     0.014 A 
ATOM     41  C   UNL A   1      42.441  21.270  27.732  1.00  0.00     0.014 A 
ATOM     42  C   UNL A   1      42.979  22.985  25.598  1.00  0.00     0.010 A 
ATOM     43  C   UNL A   1      42.905  22.561  27.979  1.00  0.00     0.010 A 
ATOM     44  C   UNL A   1      43.181  23.433  26.915  1.00  0.00    -0.014 A 
BRANCH  44  45
ATOM     45  C   UNL A   1      43.681  24.806  27.194  1.00  0.00     0.031 A 
ATOM     46  C   UNL A   1      42.737  25.868  27.693  1.00  0.00     0.074 A 
ATOM     47  C   UNL A   1      44.970  25.114  26.946  1.00  0.00     0.049 A 
ATOM     48  N   UNL A   1      42.965  27.134  27.930  1.00  0.00    -0.248 NA
ATOM     49  C   UNL A   1      41.345  25.454  27.930  1.00  0.00     0.031 C 
ATOM     50  C   UNL A   1      45.975  24.182  26.428  1.00  0.00     0.029 A 
ATOM     51  N   UNL A   1      45.658  26.293  27.091  1.00  0.00    -0.354 N 
ATOM     52  C   UNL A   1      41.746  27.671  28.334  1.00  0.00     0.074 A 
ATOM     53  C   UNL A   1      40.771  26.605  28.241  1.00  0.00     0.031 C 
ATOM     54  C   UNL A   1      47.153  24.818  26.329  1.00  0.00     0.029 A 
ATOM     55  C   UNL A   1      46.981  26.213  26.720  1.00  0.00     0.049 A 
ATOM     56  H   UNL A   1      45.243  27.120  27.428  1.00  0.00     0.167 HD
ATOM     57  C   UNL A   1      41.472  28.927  28.766  1.00  0.00     0.034 A 
ATOM     58  C   UNL A   1      47.942  27.157  26.681  1.00  0.00     0.034 A 
ATOM     59  C   UNL A   1      42.458  29.978  28.852  1.00  0.00     0.049 A 
ATOM     60  C   UNL A   1      47.603  28.560  27.118  1.00  0.00     0.074 A 
ATOM     61  C   UNL A   1      42.299  31.271  29.320  1.00  0.00     0.029 A 
ATOM     62  N   UNL A   1      43.784  29.864  28.450  1.00  0.00    -0.354 N 
ATOM     63  N   UNL A   1      46.457  29.040  27.545  1.00  0.00    -0.248 NA
ATOM     64  C   UNL A   1      48.688  29.548  27.076  1.00  0.00     0.031 C 
ATOM     65  C   UNL A   1      43.500  31.960  29.121  1.00  0.00     0.029 A 
ATOM     66  C   UNL A   1      44.440  31.074  28.621  1.00  0.00     0.049 A 
ATOM     67  H   UNL A   1      44.197  29.043  28.095  1.00  0.00     0.167 HD
ATOM     68  C   UNL A   1      46.695  30.376  27.856  1.00  0.00     0.074 A 
ATOM     69  C   UNL A   1      48.096  30.621  27.581  1.00  0.00     0.031 C 
ATOM     70  C   UNL A   1      45.835  31.313  28.332  1.00  0.00     0.034 A 
BRANCH  57  71
ATOM     71  C   UNL A   1      40.042  29.235  29.145  1.00  0.00     0.023 A 
ATOM     72  C   UNL A   1      39.635  29.320  30.489  1.00  0.00     0.031 A 
ATOM     73  C   UNL A   1      39.063  29.417  28.152  1.00  0.00     0.131 A 
ATOM     74  C   UNL A   1      38.278  29.493  30.802  1.00  0.00     0.055 A 
ATOM     75  C   UNL A   1      37.729  29.683  28.470  1.00  0.00     0.041 A 
ATOM     76  F   UNL A   1      39.382  29.327  26.851  1.00  0.00    -0.206 F 
ATOM     77  C   UNL A   1      37.326  29.703  29.803  1.00  0.00     0.022 A 
BRANCH  74  78
ATOM     78  S   UNL A   1      37.753  29.272  32.524  1.00  0.00     0.124 S 
ATOM     79  O   UNL A   1      36.421  29.871  32.506  1.00  0.00    -0.237 OA
ATOM     80  O   UNL A   1      37.800  27.822  32.684  1.00  0.00    -0.237 OA
ATOM     81  O   UNL A   1      38.754  30.017  33.286  1.00  0.00    -0.744 OA
ENDBRANCH  74  78
ENDBRANCH  57  71
BRANCH  58  82
ATOM     82  C   UNL A   1      49.314  26.821  26.198  1.00  0.00     0.023 A 
ATOM     83  C   UNL A   1      49.757  27.224  24.929  1.00  0.00     0.031 A 
ATOM     84  C   UNL A   1      50.190  26.051  26.986  1.00  0.00     0.131 A 
ATOM     85  C   UNL A   1      51.018  26.816  24.464  1.00  0.00     0.055 A 
ATOM     86  C   UNL A   1      51.466  25.699  26.544  1.00  0.00     0.041 A 
ATOM     87  F   UNL A   1      49.818  25.638  28.209  1.00  0.00    -0.206 F 
ATOM     88  C   UNL A   1      51.882  26.071  25.270  1.00  0.00     0.022 A 
BRANCH  85  89
ATOM     89  S   UNL A   1      51.477  27.195  22.750  1.00  0.00     0.124 S 
ATOM     90  O   UNL A   1      52.567  26.254  22.521  1.00  0.00    -0.237 OA
ATOM     91  O   UNL A   1      50.233  26.924  22.037  1.00  0.00    -0.237 OA
ATOM     92  O   UNL A   1      51.867  28.602  22.807  1.00  0.00    -0.744 OA
ENDBRANCH  85  89
ENDBRANCH  58  82
BRANCH  70  93
ATOM     93  C   UNL A   1      46.404  32.681  28.635  1.00  0.00     0.023 A 
ATOM     94  C   UNL A   1      46.420  33.710  27.678  1.00  0.00     0.031 A 
ATOM     95  C   UNL A   1      46.942  32.955  29.905  1.00  0.00     0.131 A 
ATOM     96  C   UNL A   1      47.018  34.942  27.984  1.00  0.00     0.055 A 
ATOM     97  C   UNL A   1      47.471  34.205  30.228  1.00  0.00     0.041 A 
ATOM     98  F   UNL A   1      46.960  32.010  30.860  1.00  0.00    -0.206 F 
ATOM     99  C   UNL A   1      47.524  35.203  29.261  1.00  0.00     0.022 A 
BRANCH  96 100
ATOM    100  S   UNL A   1      47.223  36.165  26.661  1.00  0.00     0.124 S 
ATOM    101  O   UNL A   1      48.663  36.123  26.429  1.00  0.00    -0.237 OA
ATOM    102  O   UNL A   1      46.390  35.617  25.596  1.00  0.00    -0.237 OA
ATOM    103  O   UNL A   1      46.728  37.405  27.259  1.00  0.00    -0.744 OA
ENDBRANCH  96 100
ENDBRANCH  70  93
ENDBRANCH  44  45
ENDBRANCH  36  39
ENDBRANCH  34  35
ENDBRANCH  33  34
ENDBRANCH   1  33
TORSDOF 19
ENDMDL
MODEL 2
REMARK VINA RESULT:     -12.6      5.521     11.631
REMARK SMILES [NH3+][C@H]1CN(C(=O)OCC2c3ccccc3-c3ccccc32)C[C@@H]1C(=O)NCCCCNC(=O)c1ccc(-c2c3nc(c(-c4cc(S(=O)(=O)[O-])ccc4F)c4ccc([nH]4)c(-c4cc(S(=O)(=O)[O-])ccc4F)c4nc(c(-c5cc(S(=O)(=O)[O-])ccc5F)c5ccc2[nH]5)C=C4)C=C3)cc1
REMARK SMILES IDX 28 1 27 2 26 3 24 4 25 5 23 7 2 8 3 9 4 10 22 11 1 12 5 16
REMARK SMILES IDX 6 17 7 18 8 19 9 20 10 21 21 22 11 23 15 24 16 25 20 26
REMARK SMILES IDX 12 27 14 28 17 29 19 30 13 31 18 32 29 33 30 34 31 35 32 36
REMARK SMILES IDX 33 38 34 39 35 40 96 41 36 42 95 43 37 44 38 45 39 46 89 47
REMARK SMILES IDX 40 48 94 49 88 50 90 51 41 52 93 53 87 54 86 55 42 57 74 58
REMARK SMILES IDX 54 59 73 60 55 61 58 62 72 63 91 64 56 65 57 66 71 68 92 69
REMARK SMILES IDX 59 70 43 71 44 72 52 73 45 74 51 75 53 76 50 77 46 78 47 79
REMARK SMILES IDX 48 80 49 81 75 82 76 83 84 84 77 85 83 86 85 87 82 88 78 89
REMARK SMILES IDX 79 90 80 91 81 92 60 93 61 94 69 95 62 96 68 97 70 98 67 99
REMARK SMILES IDX 63 100 64 101 65 102 66 103
REMARK H PARENT 26 6 1 13 1 14 1 15 31 37 90 56 58 67
REMARK Flexibility Score: inf
ROOT
ATOM      1  C   UNL A   1      31.828  30.176  26.589  1.00  0.00     0.023 C 
ENDROOT
BRANCH   1   2
ATOM      2  C   UNL A   1      32.472  29.608  25.322  1.00  0.00     0.116 C 
BRANCH   2   3
ATOM      3  N   UNL A   1      33.313  28.468  25.645  1.00  0.00    -0.356 N 
ATOM      4  C   UNL A   1      33.082  27.134  25.463  1.00  0.00     0.231 C 
ATOM      5  O   UNL A   1      33.792  26.326  26.060  1.00  0.00    -0.274 OA
ATOM      6  H   UNL A   1      34.179  28.689  26.057  1.00  0.00     0.163 HD
BRANCH   4   7
ATOM      7  C   UNL A   1      32.015  26.701  24.477  1.00  0.00     0.158 C 
ATOM      8  C   UNL A   1      30.592  27.051  24.947  1.00  0.00     0.215 C 
ATOM      9  C   UNL A   1      30.159  25.836  25.795  1.00  0.00     0.188 C 
ATOM     10  N   UNL A   1      31.076  24.770  25.449  1.00  0.00    -0.301 N 
ATOM     11  C   UNL A   1      32.026  25.179  24.435  1.00  0.00     0.143 C 
BRANCH   8  12
ATOM     12  N   UNL A   1      29.706  27.237  23.779  1.00  0.00    -0.353 N 
ATOM     13  H   UNL A   1      28.983  27.920  24.005  1.00  0.00     0.344 HD
ATOM     14  H   UNL A   1      29.269  26.347  23.538  1.00  0.00     0.344 HD
ATOM     15  H   UNL A   1      30.254  27.572  22.986  1.00  0.00     0.344 HD
ENDBRANCH   8  12
BRANCH  10  16
ATOM     16  C   UNL A   1      31.194  23.598  26.147  1.00  0.00     0.410 C 
ATOM     17  O   UNL A   1      30.331  22.733  26.165  1.00  0.00    -0.224 OA
BRANCH  16  18
ATOM     18  O   UNL A   1      32.325  23.580  26.905  1.00  0.00    -0.448 OA
BRANCH  18  19
ATOM     19  C   UNL A   1      33.095  22.361  26.844  1.00  0.00     0.248 C 
BRANCH  19  20
ATOM     20  C   UNL A   1      33.721  22.135  25.448  1.00  0.00     0.088 C 
ATOM     21  C   UNL A   1      35.234  22.342  25.399  1.00  0.00    -0.029 A 
ATOM     22  C   UNL A   1      33.615  20.663  25.039  1.00  0.00    -0.029 A 
ATOM     23  C   UNL A   1      35.960  23.516  25.536  1.00  0.00     0.005 A 
ATOM     24  C   UNL A   1      35.893  21.117  25.170  1.00  0.00    -0.014 A 
ATOM     25  C   UNL A   1      34.903  20.099  24.905  1.00  0.00    -0.014 A 
ATOM     26  C   UNL A   1      32.476  19.912  24.786  1.00  0.00     0.005 A 
ATOM     27  C   UNL A   1      37.353  23.439  25.587  1.00  0.00     0.000 A 
ATOM     28  C   UNL A   1      37.277  21.040  25.200  1.00  0.00     0.009 A 
ATOM     29  C   UNL A   1      35.061  18.779  24.511  1.00  0.00     0.009 A 
ATOM     30  C   UNL A   1      32.637  18.581  24.391  1.00  0.00     0.000 A 
ATOM     31  C   UNL A   1      38.007  22.209  25.437  1.00  0.00     0.001 A 
ATOM     32  C   UNL A   1      33.917  18.020  24.252  1.00  0.00     0.001 A 
ENDBRANCH  19  20
ENDBRANCH  18  19
ENDBRANCH  16  18
ENDBRANCH  10  16
ENDBRANCH   4   7
ENDBRANCH   2   3
ENDBRANCH   1   2
BRANCH   1  33
ATOM     33  C   UNL A   1      31.753  31.706  26.622  1.00  0.00     0.023 C 
BRANCH  33  34
ATOM     34  C   UNL A   1      32.912  32.394  27.336  1.00  0.00     0.116 C 
BRANCH  34  35
ATOM     35  N   UNL A   1      32.635  33.789  27.639  1.00  0.00    -0.352 N 
ATOM     36  C   UNL A   1      33.194  34.595  28.602  1.00  0.00     0.251 C 
ATOM     37  H   UNL A   1      31.950  34.216  27.075  1.00  0.00     0.163 HD
ATOM     38  O   UNL A   1      32.712  35.702  28.820  1.00  0.00    -0.269 OA
BRANCH  36  39
ATOM     39  C   UNL A   1      34.349  34.109  29.391  1.00  0.00     0.039 A 
ATOM     40  C   UNL A   1      34.113  33.298  30.503  1.00  0.00     0.014 A 
ATOM     41  C   UNL A   1      35.658  34.438  29.028  1.00  0.00     0.014 A 
ATOM     42  C   UNL A   1      35.193  32.761  31.209  1.00  0.00     0.010 A 
ATOM     43  C   UNL A   1      36.731  33.836  29.682  1.00  0.00     0.010 A 
ATOM     44  C   UNL A   1      36.511  32.991  30.781  1.00  0.00    -0.014 A 
BRANCH  44  45
ATOM     45  C   UNL A   1      37.667  32.359  31.471  1.00  0.00     0.031 A 
ATOM     46  C   UNL A   1      38.408  31.222  30.819  1.00  0.00     0.074 A 
ATOM     47  C   UNL A   1      38.017  32.770  32.707  1.00  0.00     0.049 A 
ATOM     48  N   UNL A   1      39.395  30.500  31.286  1.00  0.00    -0.248 NA
ATOM     49  C   UNL A   1      37.961  30.827  29.475  1.00  0.00     0.031 C 
ATOM     50  C   UNL A   1      37.355  33.839  33.459  1.00  0.00     0.029 A 
ATOM     51  N   UNL A   1      39.009  32.339  33.553  1.00  0.00    -0.354 N 
ATOM     52  C   UNL A   1      39.679  29.561  30.300  1.00  0.00     0.074 A 
ATOM     53  C   UNL A   1      38.714  29.765  29.241  1.00  0.00     0.031 C 
ATOM     54  C   UNL A   1      37.978  33.998  34.637  1.00  0.00     0.029 A 
ATOM     55  C   UNL A   1      39.046  33.011  34.753  1.00  0.00     0.049 A 
ATOM     56  H   UNL A   1      39.636  31.616  33.321  1.00  0.00     0.167 HD
ATOM     57  C   UNL A   1      40.669  28.634  30.269  1.00  0.00     0.034 A 
ATOM     58  C   UNL A   1      39.837  32.841  35.831  1.00  0.00     0.034 A 
ATOM     59  C   UNL A   1      41.624  28.446  31.334  1.00  0.00     0.049 A 
ATOM     60  C   UNL A   1      40.898  31.771  35.795  1.00  0.00     0.074 A 
ATOM     61  C   UNL A   1      42.694  27.569  31.386  1.00  0.00     0.029 A 
ATOM     62  N   UNL A   1      41.619  29.133  32.543  1.00  0.00    -0.354 N 
ATOM     63  N   UNL A   1      41.187  30.924  34.833  1.00  0.00    -0.248 NA
ATOM     64  C   UNL A   1      41.747  31.639  36.986  1.00  0.00     0.031 C 
ATOM     65  C   UNL A   1      43.280  27.666  32.653  1.00  0.00     0.029 A 
ATOM     66  C   UNL A   1      42.641  28.671  33.360  1.00  0.00     0.049 A 
ATOM     67  H   UNL A   1      40.982  29.844  32.784  1.00  0.00     0.167 HD
ATOM     68  C   UNL A   1      42.274  30.183  35.292  1.00  0.00     0.074 A 
ATOM     69  C   UNL A   1      42.596  30.694  36.609  1.00  0.00     0.031 C 
ATOM     70  C   UNL A   1      42.948  29.177  34.677  1.00  0.00     0.034 A 
BRANCH  57  71
ATOM     71  C   UNL A   1      40.742  27.736  29.055  1.00  0.00     0.023 A 
ATOM     72  C   UNL A   1      41.700  27.935  28.044  1.00  0.00     0.031 A 
ATOM     73  C   UNL A   1      39.824  26.684  28.890  1.00  0.00     0.131 A 
ATOM     74  C   UNL A   1      41.663  27.153  26.880  1.00  0.00     0.055 A 
ATOM     75  C   UNL A   1      39.853  25.849  27.770  1.00  0.00     0.041 A 
ATOM     76  F   UNL A   1      38.872  26.454  29.807  1.00  0.00    -0.206 F 
ATOM     77  C   UNL A   1      40.765  26.093  26.747  1.00  0.00     0.022 A 
BRANCH  74  78
ATOM     78  S   UNL A   1      42.695  27.651  25.473  1.00  0.00     0.124 S 
ATOM     79  O   UNL A   1      42.618  26.468  24.618  1.00  0.00    -0.237 OA
ATOM     80  O   UNL A   1      42.006  28.840  24.982  1.00  0.00    -0.237 OA
ATOM     81  O   UNL A   1      44.004  27.892  26.075  1.00  0.00    -0.744 OA
ENDBRANCH  74  78
ENDBRANCH  57  71
BRANCH  58  82
ATOM     82  C   UNL A   1      39.652  33.690  37.046  1.00  0.00     0.023 A 
ATOM     83  C   UNL A   1      39.124  33.157  38.232  1.00  0.00     0.031 A 
ATOM     84  C   UNL A   1      39.962  35.063  37.023  1.00  0.00     0.131 A 
ATOM     85  C   UNL A   1      38.876  33.997  39.329  1.00  0.00     0.055 A 
ATOM     86  C   UNL A   1      39.771  35.882  38.136  1.00  0.00     0.041 A 
ATOM     87  F   UNL A   1      40.470  35.627  35.915  1.00  0.00    -0.206 F 
ATOM     88  C   UNL A   1      39.212  35.353  39.295  1.00  0.00     0.022 A 
BRANCH  85  89
ATOM     89  S   UNL A   1      38.019  33.311  40.773  1.00  0.00     0.124 S 
ATOM     90  O   UNL A   1      36.639  33.264  40.303  1.00  0.00    -0.237 OA
ATOM     91  O   UNL A   1      38.686  32.024  40.938  1.00  0.00    -0.237 OA
ATOM     92  O   UNL A   1      38.288  34.290  41.824  1.00  0.00    -0.744 OA
ENDBRANCH  85  89
ENDBRANCH  58  82
BRANCH  70  93
ATOM     93  C   UNL A   1      44.138  28.597  35.406  1.00  0.00     0.023 A 
ATOM     94  C   UNL A   1      44.007  27.542  36.326  1.00  0.00     0.031 A 
ATOM     95  C   UNL A   1      45.425  29.115  35.179  1.00  0.00     0.131 A 
ATOM     96  C   UNL A   1      45.131  27.080  37.027  1.00  0.00     0.055 A 
ATOM     97  C   UNL A   1      46.551  28.605  35.826  1.00  0.00     0.041 A 
ATOM     98  F   UNL A   1      45.613  30.128  34.316  1.00  0.00    -0.206 F 
ATOM     99  C   UNL A   1      46.406  27.591  36.767  1.00  0.00     0.022 A 
BRANCH  96 100
ATOM    100  S   UNL A   1      44.892  25.877  38.363  1.00  0.00     0.124 S 
ATOM    101  O   UNL A   1      46.233  25.783  38.930  1.00  0.00    -0.237 OA
ATOM    102  O   UNL A   1      43.891  26.532  39.199  1.00  0.00    -0.237 OA
ATOM    103  O   UNL A   1      44.429  24.678  37.666  1.00  0.00    -0.744 OA
ENDBRANCH  96 100
ENDBRANCH  70  93
ENDBRANCH  44  45
ENDBRANCH  36  39
ENDBRANCH  34  35
ENDBRANCH  33  34
ENDBRANCH   1  33
TORSDOF 19
ENDMDL
MODEL 3
REMARK VINA RESULT:     -12.4      1.215      2.351
REMARK SMILES [NH3+][C@H]1CN(C(=O)OCC2c3ccccc3-c3ccccc32)C[C@@H]1C(=O)NCCCCNC(=O)c1ccc(-c2c3nc(c(-c4cc(S(=O)(=O)[O-])ccc4F)c4ccc([nH]4)c(-c4cc(S(=O)(=O)[O-])ccc4F)c4nc(c(-c5cc(S(=O)(=O)[O-])ccc5F)c5ccc2[nH]5)C=C4)C=C3)cc1
REMARK SMILES IDX 28 1 27 2 26 3 24 4 25 5 23 7 2 8 3 9 4 10 22 11 1 12 5 16
REMARK SMILES IDX 6 17 7 18 8 19 9 20 10 21 21 22 11 23 15 24 16 25 20 26
REMARK SMILES IDX 12 27 14 28 17 29 19 30 13 31 18 32 29 33 30 34 31 35 32 36
REMARK SMILES IDX 33 38 34 39 35 40 96 41 36 42 95 43 37 44 38 45 39 46 89 47
REMARK SMILES IDX 40 48 94 49 88 50 90 51 41 52 93 53 87 54 86 55 42 57 74 58
REMARK SMILES IDX 54 59 73 60 55 61 58 62 72 63 91 64 56 65 57 66 71 68 92 69
REMARK SMILES IDX 59 70 43 71 44 72 52 73 45 74 51 75 53 76 50 77 46 78 47 79
REMARK SMILES IDX 48 80 49 81 75 82 76 83 84 84 77 85 83 86 85 87 82 88 78 89
REMARK SMILES IDX 79 90 80 91 81 92 60 93 61 94 69 95 62 96 68 97 70 98 67 99
REMARK SMILES IDX 63 100 64 101 65 102 66 103
REMARK H PARENT 26 6 1 13 1 14 1 15 31 37 90 56 58 67
REMARK Flexibility Score: inf
ROOT
ATOM      1  C   UNL A   1      36.776  19.610  25.000  1.00  0.00     0.023 C 
ENDROOT
BRANCH   1   2
ATOM      2  C   UNL A   1      36.118  20.959  25.300  1.00  0.00     0.116 C 
BRANCH   2   3
ATOM      3  N   UNL A   1      36.313  21.878  24.191  1.00  0.00    -0.356 N 
ATOM      4  C   UNL A   1      35.545  22.933  23.788  1.00  0.00     0.231 C 
ATOM      5  O   UNL A   1      35.731  23.402  22.666  1.00  0.00    -0.274 OA
ATOM      6  H   UNL A   1      37.118  21.716  23.649  1.00  0.00     0.163 HD
BRANCH   4   7
ATOM      7  C   UNL A   1      34.551  23.534  24.762  1.00  0.00     0.158 C 
ATOM      8  C   UNL A   1      33.184  22.829  24.729  1.00  0.00     0.215 C 
ATOM      9  C   UNL A   1      32.398  23.569  23.626  1.00  0.00     0.188 C 
ATOM     10  N   UNL A   1      33.108  24.812  23.405  1.00  0.00    -0.301 N 
ATOM     11  C   UNL A   1      34.249  24.949  24.288  1.00  0.00     0.143 C 
BRANCH   8  12
ATOM     12  N   UNL A   1      32.519  22.955  26.043  1.00  0.00    -0.353 N 
ATOM     13  H   UNL A   1      32.110  22.058  26.304  1.00  0.00     0.344 HD
ATOM     14  H   UNL A   1      31.783  23.659  25.986  1.00  0.00     0.344 HD
ATOM     15  H   UNL A   1      33.203  23.233  26.745  1.00  0.00     0.344 HD
ENDBRANCH   8  12
BRANCH  10  16
ATOM     16  C   UNL A   1      32.885  25.650  22.346  1.00  0.00     0.410 C 
ATOM     17  O   UNL A   1      33.774  26.091  21.635  1.00  0.00    -0.224 OA
BRANCH  16  18
ATOM     18  O   UNL A   1      31.577  26.019  22.269  1.00  0.00    -0.448 OA
BRANCH  18  19
ATOM     19  C   UNL A   1      31.326  27.438  22.332  1.00  0.00     0.248 C 
BRANCH  19  20
ATOM     20  C   UNL A   1      30.509  27.832  23.586  1.00  0.00     0.088 C 
ATOM     21  C   UNL A   1      31.356  28.353  24.747  1.00  0.00    -0.029 A 
ATOM     22  C   UNL A   1      29.627  29.050  23.298  1.00  0.00    -0.029 A 
ATOM     23  C   UNL A   1      32.258  27.669  25.547  1.00  0.00     0.005 A 
ATOM     24  C   UNL A   1      31.108  29.725  24.961  1.00  0.00    -0.014 A 
ATOM     25  C   UNL A   1      30.019  30.140  24.107  1.00  0.00    -0.014 A 
ATOM     26  C   UNL A   1      28.561  29.161  22.418  1.00  0.00     0.005 A 
ATOM     27  C   UNL A   1      33.018  28.391  26.468  1.00  0.00     0.000 A 
ATOM     28  C   UNL A   1      31.848  30.442  25.889  1.00  0.00     0.009 A 
ATOM     29  C   UNL A   1      29.344  31.348  24.044  1.00  0.00     0.009 A 
ATOM     30  C   UNL A   1      27.882  30.381  22.353  1.00  0.00     0.000 A 
ATOM     31  C   UNL A   1      32.827  29.770  26.626  1.00  0.00     0.001 A 
ATOM     32  C   UNL A   1      28.267  31.464  23.161  1.00  0.00     0.001 A 
ENDBRANCH  19  20
ENDBRANCH  18  19
ENDBRANCH  16  18
ENDBRANCH  10  16
ENDBRANCH   4   7
ENDBRANCH   2   3
ENDBRANCH   1   2
BRANCH   1  33
ATOM     33  C   UNL A   1      38.266  19.702  24.658  1.00  0.00     0.023 C 
BRANCH  33  34
ATOM     34  C   UNL A   1      39.156  20.222  25.782  1.00  0.00     0.116 C 
BRANCH  34  35
ATOM     35  N   UNL A   1      40.274  19.337  26.066  1.00  0.00    -0.352 N 
ATOM     36  C   UNL A   1      41.570  19.656  26.395  1.00  0.00     0.251 C 
ATOM     37  H   UNL A   1      40.075  18.374  26.017  1.00  0.00     0.163 HD
ATOM     38  O   UNL A   1      42.420  18.772  26.434  1.00  0.00    -0.269 OA
BRANCH  36  39
ATOM     39  C   UNL A   1      41.938  21.065  26.664  1.00  0.00     0.039 A 
ATOM     40  C   UNL A   1      42.312  21.429  27.960  1.00  0.00     0.014 A 
ATOM     41  C   UNL A   1      41.931  22.018  25.643  1.00  0.00     0.014 A 
ATOM     42  C   UNL A   1      42.745  22.732  28.214  1.00  0.00     0.010 A 
ATOM     43  C   UNL A   1      42.440  23.293  25.881  1.00  0.00     0.010 A 
ATOM     44  C   UNL A   1      42.852  23.666  27.169  1.00  0.00    -0.014 A 
BRANCH  44  45
ATOM     45  C   UNL A   1      43.389  25.033  27.408  1.00  0.00     0.031 A 
ATOM     46  C   UNL A   1      42.494  26.113  27.953  1.00  0.00     0.074 A 
ATOM     47  C   UNL A   1      44.667  25.317  27.083  1.00  0.00     0.049 A 
ATOM     48  N   UNL A   1      42.756  27.377  28.167  1.00  0.00    -0.248 NA
ATOM     49  C   UNL A   1      41.112  25.725  28.274  1.00  0.00     0.031 C 
ATOM     50  C   UNL A   1      45.625  24.365  26.514  1.00  0.00     0.029 A 
ATOM     51  N   UNL A   1      45.382  26.485  27.178  1.00  0.00    -0.354 N 
ATOM     52  C   UNL A   1      41.572  27.936  28.638  1.00  0.00     0.074 A 
ATOM     53  C   UNL A   1      40.576  26.886  28.610  1.00  0.00     0.031 C 
ATOM     54  C   UNL A   1      46.805  24.980  26.342  1.00  0.00     0.029 A 
ATOM     55  C   UNL A   1      46.679  26.380  26.732  1.00  0.00     0.049 A 
ATOM     56  H   UNL A   1      45.001  27.321  27.534  1.00  0.00     0.167 HD
ATOM     57  C   UNL A   1      41.344  29.200  29.075  1.00  0.00     0.034 A 
ATOM     58  C   UNL A   1      47.652  27.308  26.630  1.00  0.00     0.034 A 
ATOM     59  C   UNL A   1      42.351  30.234  29.096  1.00  0.00     0.049 A 
ATOM     60  C   UNL A   1      47.362  28.719  27.075  1.00  0.00     0.074 A 
ATOM     61  C   UNL A   1      42.241  31.533  29.563  1.00  0.00     0.029 A 
ATOM     62  N   UNL A   1      43.649  30.095  28.619  1.00  0.00    -0.354 N 
ATOM     63  N   UNL A   1      46.250  29.221  27.565  1.00  0.00    -0.248 NA
ATOM     64  C   UNL A   1      48.459  29.688  26.964  1.00  0.00     0.031 C 
ATOM     65  C   UNL A   1      43.439  32.201  29.289  1.00  0.00     0.029 A 
ATOM     66  C   UNL A   1      44.334  31.296  28.742  1.00  0.00     0.049 A 
ATOM     67  H   UNL A   1      44.027  29.266  28.247  1.00  0.00     0.167 HD
ATOM     68  C   UNL A   1      46.529  30.555  27.852  1.00  0.00     0.074 A 
ATOM     69  C   UNL A   1      47.915  30.775  27.494  1.00  0.00     0.031 C 
ATOM     70  C   UNL A   1      45.714  31.509  28.371  1.00  0.00     0.034 A 
BRANCH  57  71
ATOM     71  C   UNL A   1      39.944  29.534  29.535  1.00  0.00     0.023 A 
ATOM     72  C   UNL A   1      39.619  29.642  30.900  1.00  0.00     0.031 A 
ATOM     73  C   UNL A   1      38.911  29.719  28.600  1.00  0.00     0.131 A 
ATOM     74  C   UNL A   1      38.287  29.840  31.291  1.00  0.00     0.055 A 
ATOM     75  C   UNL A   1      37.602  30.009  28.994  1.00  0.00     0.041 A 
ATOM     76  F   UNL A   1      39.150  29.608  27.284  1.00  0.00    -0.206 F 
ATOM     77  C   UNL A   1      37.280  30.052  30.347  1.00  0.00     0.022 A 
BRANCH  74  78
ATOM     78  S   UNL A   1      37.863  29.647  33.044  1.00  0.00     0.124 S 
ATOM     79  O   UNL A   1      36.857  30.692  33.221  1.00  0.00    -0.237 OA
ATOM     80  O   UNL A   1      37.373  28.274  33.101  1.00  0.00    -0.237 OA
ATOM     81  O   UNL A   1      39.129  29.888  33.732  1.00  0.00    -0.744 OA
ENDBRANCH  74  78
ENDBRANCH  57  71
BRANCH  58  82
ATOM     82  C   UNL A   1      48.988  26.945  26.070  1.00  0.00     0.023 A 
ATOM     83  C   UNL A   1      49.379  27.370  24.791  1.00  0.00     0.031 A 
ATOM     84  C   UNL A   1      49.877  26.130  26.793  1.00  0.00     0.131 A 
ATOM     85  C   UNL A   1      50.602  26.938  24.254  1.00  0.00     0.055 A 
ATOM     86  C   UNL A   1      51.119  25.753  26.280  1.00  0.00     0.041 A 
ATOM     87  F   UNL A   1      49.555  25.694  28.022  1.00  0.00    -0.206 F 
ATOM     88  C   UNL A   1      51.482  26.147  24.995  1.00  0.00     0.022 A 
BRANCH  85  89
ATOM     89  S   UNL A   1      50.987  27.350  22.529  1.00  0.00     0.124 S 
ATOM     90  O   UNL A   1      52.319  26.776  22.378  1.00  0.00    -0.237 OA
ATOM     91  O   UNL A   1      49.911  26.677  21.809  1.00  0.00    -0.237 OA
ATOM     92  O   UNL A   1      50.930  28.810  22.508  1.00  0.00    -0.744 OA
ENDBRANCH  85  89
ENDBRANCH  58  82
BRANCH  70  93
ATOM     93  C   UNL A   1      46.321  32.869  28.630  1.00  0.00     0.023 A 
ATOM     94  C   UNL A   1      46.572  33.783  27.592  1.00  0.00     0.031 A 
ATOM     95  C   UNL A   1      46.658  33.253  29.941  1.00  0.00     0.131 A 
ATOM     96  C   UNL A   1      47.198  35.008  27.874  1.00  0.00     0.055 A 
ATOM     97  C   UNL A   1      47.215  34.500  30.224  1.00  0.00     0.041 A 
ATOM     98  F   UNL A   1      46.447  32.419  30.973  1.00  0.00    -0.206 F 
ATOM     99  C   UNL A   1      47.501  35.380  29.186  1.00  0.00     0.022 A 
BRANCH  96 100
ATOM    100  S   UNL A   1      47.710  36.063  26.491  1.00  0.00     0.124 S 
ATOM    101  O   UNL A   1      46.594  36.997  26.392  1.00  0.00    -0.237 OA
ATOM    102  O   UNL A   1      48.969  36.623  26.973  1.00  0.00    -0.237 OA
ATOM    103  O   UNL A   1      47.836  35.128  25.373  1.00  0.00    -0.744 OA
ENDBRANCH  96 100
ENDBRANCH  70  93
ENDBRANCH  44  45
ENDBRANCH  36  39
ENDBRANCH  34  35
ENDBRANCH  33  34
ENDBRANCH   1  33
TORSDOF 19
ENDMDL
