MODEL 1
REMARK VINA RESULT:     -13.4      0.000      0.000
REMARK SMILES O=C(NCCCCNC(=O)c1ccc2c(=O)n(CCc3c[nH]c4ccccc34)c(=O)[nH]c2c1)c1ccc(-c2c3nc(c(-c4cc(S(=O)(=O)[O-])ccc4F)c4ccc([nH]4)c(-c4cc(S(=O)(=O)[O-])ccc4F)c4nc(c(-c5cc(S(=O)(=O)[O-])ccc5F)c5ccc2[nH]5)C=C4)C=C3)cc1
REMARK SMILES IDX 5 1 4 2 3 3 1 4 2 5 34 7 35 8 96 9 36 10 95 11 37 12 38 13
REMARK SMILES IDX 39 14 89 15 40 16 94 17 88 18 90 19 41 20 93 21 87 22 86 23
REMARK SMILES IDX 42 25 74 26 54 27 73 28 55 29 58 30 72 31 91 32 56 33 57 34
REMARK SMILES IDX 71 36 92 37 59 38 43 39 44 40 52 41 45 42 51 43 53 44 50 45
REMARK SMILES IDX 46 46 47 47 48 48 49 49 75 50 76 51 84 52 77 53 83 54 85 55
REMARK SMILES IDX 82 56 78 57 79 58 80 59 81 60 60 61 61 62 69 63 62 64 68 65
REMARK SMILES IDX 70 66 67 67 63 68 64 69 65 70 66 71 6 72 7 73 8 74 9 75
REMARK SMILES IDX 10 77 11 78 12 79 33 80 13 81 32 82 14 83 31 84 15 85 29 86
REMARK SMILES IDX 16 88 17 89 30 90 18 91 19 92 20 93 21 94 28 95 22 96 23 97
REMARK SMILES IDX 27 98 24 100 26 101 25 102
REMARK H PARENT 3 6 90 24 58 35 8 76 31 87 22 99
REMARK Flexibility Score: inf
ROOT
ATOM      1  C   UNL A   1      31.381  31.955  26.839  1.00  0.00     0.023 C 
ENDROOT
BRANCH   1   2
ATOM      2  C   UNL A   1      32.664  32.777  26.881  1.00  0.00     0.116 C 
BRANCH   2   3
ATOM      3  N   UNL A   1      32.541  34.022  27.630  1.00  0.00    -0.352 N 
ATOM      4  O   UNL A   1      32.896  35.551  29.237  1.00  0.00    -0.269 OA
ATOM      5  C   UNL A   1      33.253  34.498  28.711  1.00  0.00     0.251 C 
ATOM      6  H   UNL A   1      31.830  34.623  27.310  1.00  0.00     0.163 HD
BRANCH   5   7
ATOM      7  C   UNL A   1      34.419  33.764  29.265  1.00  0.00     0.039 A 
ATOM      8  C   UNL A   1      35.710  34.221  28.972  1.00  0.00     0.014 A 
ATOM      9  C   UNL A   1      34.265  32.606  30.027  1.00  0.00     0.014 A 
ATOM     10  C   UNL A   1      36.829  33.554  29.488  1.00  0.00     0.010 A 
ATOM     11  C   UNL A   1      35.373  32.003  30.623  1.00  0.00     0.010 A 
ATOM     12  C   UNL A   1      36.672  32.451  30.342  1.00  0.00    -0.014 A 
BRANCH  12  13
ATOM     13  C   UNL A   1      37.840  31.710  30.896  1.00  0.00     0.031 A 
ATOM     14  C   UNL A   1      38.334  32.024  32.286  1.00  0.00     0.074 A 
ATOM     15  C   UNL A   1      38.491  30.798  30.146  1.00  0.00     0.049 A 
ATOM     16  N   UNL A   1      39.378  31.555  32.919  1.00  0.00    -0.248 NA
ATOM     17  C   UNL A   1      37.569  33.019  33.058  1.00  0.00     0.031 C 
ATOM     18  C   UNL A   1      38.136  30.426  28.777  1.00  0.00     0.029 A 
ATOM     19  N   UNL A   1      39.592  30.020  30.424  1.00  0.00    -0.354 N 
ATOM     20  C   UNL A   1      39.404  32.210  34.146  1.00  0.00     0.074 A 
ATOM     21  C   UNL A   1      38.315  33.157  34.143  1.00  0.00     0.031 C 
ATOM     22  C   UNL A   1      38.979  29.476  28.345  1.00  0.00     0.029 A 
ATOM     23  C   UNL A   1      39.970  29.200  29.384  1.00  0.00     0.049 A 
ATOM     24  H   UNL A   1      40.066  30.048  31.286  1.00  0.00     0.167 HD
ATOM     25  C   UNL A   1      40.235  32.011  35.196  1.00  0.00     0.034 A 
ATOM     26  C   UNL A   1      40.999  28.331  29.274  1.00  0.00     0.034 A 
ATOM     27  C   UNL A   1      41.289  31.031  35.207  1.00  0.00     0.049 A 
ATOM     28  C   UNL A   1      41.919  28.132  30.455  1.00  0.00     0.074 A 
ATOM     29  C   UNL A   1      42.144  30.712  36.246  1.00  0.00     0.029 A 
ATOM     30  N   UNL A   1      41.626  30.206  34.144  1.00  0.00    -0.354 N 
ATOM     31  N   UNL A   1      41.876  28.699  31.638  1.00  0.00    -0.248 NA
ATOM     32  C   UNL A   1      43.019  27.169  30.297  1.00  0.00     0.031 C 
ATOM     33  C   UNL A   1      43.043  29.750  35.790  1.00  0.00     0.029 A 
ATOM     34  C   UNL A   1      42.697  29.400  34.495  1.00  0.00     0.049 A 
ATOM     35  H   UNL A   1      41.173  30.196  33.270  1.00  0.00     0.167 HD
ATOM     36  C   UNL A   1      42.921  28.141  32.372  1.00  0.00     0.074 A 
ATOM     37  C   UNL A   1      43.562  27.172  31.508  1.00  0.00     0.031 C 
ATOM     38  C   UNL A   1      43.316  28.414  33.642  1.00  0.00     0.034 A 
BRANCH  25  39
ATOM     39  C   UNL A   1      40.034  32.831  36.449  1.00  0.00     0.023 A 
ATOM     40  C   UNL A   1      39.166  32.373  37.457  1.00  0.00     0.031 A 
ATOM     41  C   UNL A   1      40.580  34.120  36.578  1.00  0.00     0.131 A 
ATOM     42  C   UNL A   1      38.832  33.216  38.525  1.00  0.00     0.055 A 
ATOM     43  C   UNL A   1      40.286  34.936  37.672  1.00  0.00     0.041 A 
ATOM     44  F   UNL A   1      41.412  34.607  35.642  1.00  0.00    -0.206 F 
ATOM     45  C   UNL A   1      39.395  34.490  38.643  1.00  0.00     0.022 A 
BRANCH  42  46
ATOM     46  S   UNL A   1      37.595  32.724  39.756  1.00  0.00     0.124 S 
ATOM     47  O   UNL A   1      37.895  31.305  39.935  1.00  0.00    -0.237 OA
ATOM     48  O   UNL A   1      37.935  33.582  40.888  1.00  0.00    -0.237 OA
ATOM     49  O   UNL A   1      36.321  33.011  39.107  1.00  0.00    -0.744 OA
ENDBRANCH  42  46
ENDBRANCH  25  39
BRANCH  26  50
ATOM     50  C   UNL A   1      41.159  27.541  28.014  1.00  0.00     0.023 A 
ATOM     51  C   UNL A   1      40.862  26.165  27.974  1.00  0.00     0.031 A 
ATOM     52  C   UNL A   1      41.702  28.128  26.859  1.00  0.00     0.131 A 
ATOM     53  C   UNL A   1      41.177  25.415  26.833  1.00  0.00     0.055 A 
ATOM     54  C   UNL A   1      41.941  27.392  25.696  1.00  0.00     0.041 A 
ATOM     55  F   UNL A   1      42.014  29.433  26.848  1.00  0.00    -0.206 F 
ATOM     56  C   UNL A   1      41.695  26.024  25.686  1.00  0.00     0.022 A 
BRANCH  53  57
ATOM     57  S   UNL A   1      41.053  23.604  26.848  1.00  0.00     0.124 S 
ATOM     58  O   UNL A   1      41.329  23.289  28.245  1.00  0.00    -0.237 OA
ATOM     59  O   UNL A   1      39.672  23.397  26.415  1.00  0.00    -0.237 OA
ATOM     60  O   UNL A   1      42.070  23.181  25.891  1.00  0.00    -0.744 OA
ENDBRANCH  53  57
ENDBRANCH  26  50
BRANCH  38  61
ATOM     61  C   UNL A   1      44.490  27.660  34.223  1.00  0.00     0.023 A 
ATOM     62  C   UNL A   1      44.278  26.432  34.883  1.00  0.00     0.031 A 
ATOM     63  C   UNL A   1      45.771  28.235  34.290  1.00  0.00     0.131 A 
ATOM     64  C   UNL A   1      45.312  25.850  35.626  1.00  0.00     0.055 A 
ATOM     65  C   UNL A   1      46.815  27.619  34.983  1.00  0.00     0.041 A 
ATOM     66  F   UNL A   1      46.022  29.410  33.693  1.00  0.00    -0.206 F 
ATOM     67  C   UNL A   1      46.582  26.432  35.671  1.00  0.00     0.022 A 
BRANCH  64  68
ATOM     68  S   UNL A   1      45.018  24.380  36.650  1.00  0.00     0.124 S 
ATOM     69  O   UNL A   1      46.258  23.630  36.465  1.00  0.00    -0.237 OA
ATOM     70  O   UNL A   1      44.834  24.963  37.976  1.00  0.00    -0.237 OA
ATOM     71  O   UNL A   1      43.830  23.771  36.061  1.00  0.00    -0.744 OA
ENDBRANCH  64  68
ENDBRANCH  38  61
ENDBRANCH  12  13
ENDBRANCH   5   7
ENDBRANCH   2   3
ENDBRANCH   1   2
BRANCH   1  72
ATOM     72  C   UNL A   1      31.543  30.444  26.707  1.00  0.00     0.023 C 
BRANCH  72  73
ATOM     73  C   UNL A   1      31.868  29.883  25.320  1.00  0.00     0.116 C 
BRANCH  73  74
ATOM     74  N   UNL A   1      30.950  30.194  24.243  1.00  0.00    -0.352 N 
ATOM     75  C   UNL A   1      30.228  29.323  23.451  1.00  0.00     0.251 C 
ATOM     76  H   UNL A   1      30.826  31.152  24.049  1.00  0.00     0.163 HD
ATOM     77  O   UNL A   1      29.425  29.742  22.622  1.00  0.00    -0.269 OA
BRANCH  75  78
ATOM     78  C   UNL A   1      30.417  27.859  23.550  1.00  0.00     0.041 A 
ATOM     79  C   UNL A   1      29.855  27.137  24.613  1.00  0.00     0.015 A 
ATOM     80  C   UNL A   1      31.112  27.194  22.531  1.00  0.00     0.040 A 
ATOM     81  C   UNL A   1      30.074  25.757  24.710  1.00  0.00     0.017 A 
ATOM     82  C   UNL A   1      31.360  25.825  22.656  1.00  0.00     0.056 A 
ATOM     83  C   UNL A   1      30.864  25.115  23.751  1.00  0.00     0.064 A 
ATOM     84  N   UNL A   1      32.214  25.184  21.759  1.00  0.00    -0.307 N 
ATOM     85  C   UNL A   1      31.371  23.744  23.981  1.00  0.00     0.264 A 
ATOM     86  C   UNL A   1      32.817  23.984  22.028  1.00  0.00     0.328 A 
ATOM     87  H   UNL A   1      32.392  25.615  20.891  1.00  0.00     0.171 HD
ATOM     88  O   UNL A   1      30.834  23.024  24.823  1.00  0.00    -0.268 OA
ATOM     89  N   UNL A   1      32.488  23.390  23.237  1.00  0.00    -0.260 N 
ATOM     90  O   UNL A   1      33.639  23.527  21.235  1.00  0.00    -0.248 OA
BRANCH  89  91
ATOM     91  C   UNL A   1      33.342  22.313  23.728  1.00  0.00     0.136 C 
BRANCH  91  92
ATOM     92  C   UNL A   1      32.754  20.923  23.433  1.00  0.00     0.060 C 
BRANCH  92  93
ATOM     93  C   UNL A   1      32.965  19.833  24.446  1.00  0.00    -0.021 A 
ATOM     94  C   UNL A   1      32.986  20.029  25.816  1.00  0.00     0.087 A 
ATOM     95  C   UNL A   1      33.176  18.422  24.275  1.00  0.00     0.003 A 
ATOM     96  N   UNL A   1      32.688  18.818  26.378  1.00  0.00    -0.361 N 
ATOM     97  C   UNL A   1      33.116  17.829  25.537  1.00  0.00     0.046 A 
ATOM     98  C   UNL A   1      33.428  17.579  23.191  1.00  0.00     0.010 A 
ATOM     99  H   UNL A   1      32.240  18.682  27.244  1.00  0.00     0.166 HD
ATOM    100  C   UNL A   1      33.398  16.479  25.785  1.00  0.00     0.026 A 
ATOM    101  C   UNL A   1      33.934  16.304  23.456  1.00  0.00     0.001 A 
ATOM    102  C   UNL A   1      33.904  15.744  24.722  1.00  0.00     0.002 A 
ENDBRANCH  92  93
ENDBRANCH  91  92
ENDBRANCH  89  91
ENDBRANCH  75  78
ENDBRANCH  73  74
ENDBRANCH  72  73
ENDBRANCH   1  72
TORSDOF 17
ENDMDL
MODEL 2
REMARK VINA RESULT:     -13.4      2.576      3.447
REMARK SMILES O=C(NCCCCNC(=O)c1ccc2c(=O)n(CCc3c[nH]c4ccccc34)c(=O)[nH]c2c1)c1ccc(-c2c3nc(c(-c4cc(S(=O)(=O)[O-])ccc4F)c4ccc([nH]4)c(-c4cc(S(=O)(=O)[O-])ccc4F)c4nc(c(-c5cc(S(=O)(=O)[O-])ccc5F)c5ccc2[nH]5)C=C4)C=C3)cc1
REMARK SMILES IDX 5 1 4 2 3 3 1 4 2 5 34 7 35 8 96 9 36 10 95 11 37 12 38 13
REMARK SMILES IDX 39 14 89 15 40 16 94 17 88 18 90 19 41 20 93 21 87 22 86 23
REMARK SMILES IDX 42 25 74 26 54 27 73 28 55 29 58 30 72 31 91 32 56 33 57 34
REMARK SMILES IDX 71 36 92 37 59 38 43 39 44 40 52 41 45 42 51 43 53 44 50 45
REMARK SMILES IDX 46 46 47 47 48 48 49 49 75 50 76 51 84 52 77 53 83 54 85 55
REMARK SMILES IDX 82 56 78 57 79 58 80 59 81 60 60 61 61 62 69 63 62 64 68 65
REMARK SMILES IDX 70 66 67 67 63 68 64 69 65 70 66 71 6 72 7 73 8 74 9 75
REMARK SMILES IDX 10 77 11 78 12 79 33 80 13 81 32 82 14 83 31 84 15 85 29 86
REMARK SMILES IDX 16 88 17 89 30 90 18 91 19 92 20 93 21 94 28 95 22 96 23 97
REMARK SMILES IDX 27 98 24 100 26 101 25 102
REMARK H PARENT 3 6 90 24 58 35 8 76 31 87 22 99
REMARK Flexibility Score: inf
ROOT
ATOM      1  C   UNL A   1      33.732  28.177  25.320  1.00  0.00     0.023 C 
ENDROOT
BRANCH   1   2
ATOM      2  C   UNL A   1      33.457  28.517  26.781  1.00  0.00     0.116 C 
BRANCH   2   3
ATOM      3  N   UNL A   1      33.446  29.948  27.060  1.00  0.00    -0.352 N 
ATOM      4  O   UNL A   1      34.086  31.928  27.905  1.00  0.00    -0.269 OA
ATOM      5  C   UNL A   1      34.365  30.747  27.706  1.00  0.00     0.251 C 
ATOM      6  H   UNL A   1      32.649  30.423  26.732  1.00  0.00     0.163 HD
BRANCH   5   7
ATOM      7  C   UNL A   1      35.667  30.214  28.184  1.00  0.00     0.039 A 
ATOM      8  C   UNL A   1      36.776  30.265  27.330  1.00  0.00     0.014 A 
ATOM      9  C   UNL A   1      35.803  29.621  29.440  1.00  0.00     0.014 A 
ATOM     10  C   UNL A   1      38.018  29.778  27.757  1.00  0.00     0.010 A 
ATOM     11  C   UNL A   1      37.060  29.230  29.901  1.00  0.00     0.010 A 
ATOM     12  C   UNL A   1      38.181  29.278  29.058  1.00  0.00    -0.014 A 
BRANCH  12  13
ATOM     13  C   UNL A   1      39.484  28.739  29.540  1.00  0.00     0.031 A 
ATOM     14  C   UNL A   1      40.208  29.429  30.668  1.00  0.00     0.074 A 
ATOM     15  C   UNL A   1      40.047  27.670  28.940  1.00  0.00     0.049 A 
ATOM     16  N   UNL A   1      41.385  29.171  31.176  1.00  0.00    -0.248 NA
ATOM     17  C   UNL A   1      39.531  30.581  31.290  1.00  0.00     0.031 C 
ATOM     18  C   UNL A   1      39.467  26.933  27.818  1.00  0.00     0.029 A 
ATOM     19  N   UNL A   1      41.234  27.020  29.182  1.00  0.00    -0.354 N 
ATOM     20  C   UNL A   1      41.594  30.135  32.158  1.00  0.00     0.074 A 
ATOM     21  C   UNL A   1      40.458  31.024  32.126  1.00  0.00     0.031 C 
ATOM     22  C   UNL A   1      40.280  25.919  27.489  1.00  0.00     0.029 A 
ATOM     23  C   UNL A   1      41.468  25.956  28.340  1.00  0.00     0.049 A 
ATOM     24  H   UNL A   1      41.860  27.291  29.893  1.00  0.00     0.167 HD
ATOM     25  C   UNL A   1      42.622  30.246  33.032  1.00  0.00     0.034 A 
ATOM     26  C   UNL A   1      42.519  25.110  28.256  1.00  0.00     0.034 A 
ATOM     27  C   UNL A   1      43.728  29.327  33.086  1.00  0.00     0.049 A 
ATOM     28  C   UNL A   1      43.658  25.258  29.236  1.00  0.00     0.074 A 
ATOM     29  C   UNL A   1      44.786  29.321  33.977  1.00  0.00     0.029 A 
ATOM     30  N   UNL A   1      43.918  28.251  32.231  1.00  0.00    -0.354 N 
ATOM     31  N   UNL A   1      43.799  26.125  30.212  1.00  0.00    -0.248 NA
ATOM     32  C   UNL A   1      44.776  24.311  29.118  1.00  0.00     0.031 C 
ATOM     33  C   UNL A   1      45.650  28.288  33.618  1.00  0.00     0.029 A 
ATOM     34  C   UNL A   1      45.092  27.593  32.557  1.00  0.00     0.049 A 
ATOM     35  H   UNL A   1      43.309  27.995  31.501  1.00  0.00     0.167 HD
ATOM     36  C   UNL A   1      45.002  25.808  30.839  1.00  0.00     0.074 A 
ATOM     37  C   UNL A   1      45.537  24.654  30.150  1.00  0.00     0.031 C 
ATOM     38  C   UNL A   1      45.609  26.424  31.886  1.00  0.00     0.034 A 
BRANCH  25  39
ATOM     39  C   UNL A   1      42.602  31.372  34.040  1.00  0.00     0.023 A 
ATOM     40  C   UNL A   1      41.692  31.340  35.112  1.00  0.00     0.031 A 
ATOM     41  C   UNL A   1      43.373  32.534  33.857  1.00  0.00     0.131 A 
ATOM     42  C   UNL A   1      41.541  32.466  35.931  1.00  0.00     0.055 A 
ATOM     43  C   UNL A   1      43.257  33.633  34.709  1.00  0.00     0.041 A 
ATOM     44  F   UNL A   1      44.255  32.618  32.847  1.00  0.00    -0.206 F 
ATOM     45  C   UNL A   1      42.326  33.607  35.742  1.00  0.00     0.022 A 
BRANCH  42  46
ATOM     46  S   UNL A   1      40.267  32.523  37.220  1.00  0.00     0.124 S 
ATOM     47  O   UNL A   1      39.454  31.354  36.892  1.00  0.00    -0.237 OA
ATOM     48  O   UNL A   1      41.062  32.410  38.439  1.00  0.00    -0.237 OA
ATOM     49  O   UNL A   1      39.613  33.810  37.009  1.00  0.00    -0.744 OA
ENDBRANCH  42  46
ENDBRANCH  25  39
BRANCH  26  50
ATOM     50  C   UNL A   1      42.495  24.010  27.243  1.00  0.00     0.023 A 
ATOM     51  C   UNL A   1      41.824  22.799  27.498  1.00  0.00     0.031 A 
ATOM     52  C   UNL A   1      43.223  24.118  26.046  1.00  0.00     0.131 A 
ATOM     53  C   UNL A   1      41.956  21.725  26.606  1.00  0.00     0.055 A 
ATOM     54  C   UNL A   1      43.286  23.072  25.121  1.00  0.00     0.041 A 
ATOM     55  F   UNL A   1      43.890  25.246  25.760  1.00  0.00    -0.206 F 
ATOM     56  C   UNL A   1      42.665  21.862  25.409  1.00  0.00     0.022 A 
BRANCH  53  57
ATOM     57  S   UNL A   1      41.328  20.078  27.035  1.00  0.00     0.124 S 
ATOM     58  O   UNL A   1      42.534  19.260  26.958  1.00  0.00    -0.237 OA
ATOM     59  O   UNL A   1      40.801  20.301  28.380  1.00  0.00    -0.237 OA
ATOM     60  O   UNL A   1      40.320  19.816  26.013  1.00  0.00    -0.744 OA
ENDBRANCH  53  57
ENDBRANCH  26  50
BRANCH  38  61
ATOM     61  C   UNL A   1      46.925  25.880  32.395  1.00  0.00     0.023 A 
ATOM     62  C   UNL A   1      46.942  25.010  33.504  1.00  0.00     0.031 A 
ATOM     63  C   UNL A   1      48.154  26.361  31.912  1.00  0.00     0.131 A 
ATOM     64  C   UNL A   1      48.156  24.694  34.126  1.00  0.00     0.055 A 
ATOM     65  C   UNL A   1      49.366  25.995  32.500  1.00  0.00     0.041 A 
ATOM     66  F   UNL A   1      48.193  27.205  30.868  1.00  0.00    -0.206 F 
ATOM     67  C   UNL A   1      49.369  25.174  33.623  1.00  0.00     0.022 A 
BRANCH  64  68
ATOM     68  S   UNL A   1      48.197  23.744  35.672  1.00  0.00     0.124 S 
ATOM     69  O   UNL A   1      46.979  22.943  35.567  1.00  0.00    -0.237 OA
ATOM     70  O   UNL A   1      49.446  22.999  35.540  1.00  0.00    -0.237 OA
ATOM     71  O   UNL A   1      48.181  24.764  36.715  1.00  0.00    -0.744 OA
ENDBRANCH  64  68
ENDBRANCH  38  61
ENDBRANCH  12  13
ENDBRANCH   5   7
ENDBRANCH   2   3
ENDBRANCH   1   2
BRANCH   1  72
ATOM     72  C   UNL A   1      33.593  29.317  24.317  1.00  0.00     0.023 C 
BRANCH  72  73
ATOM     73  C   UNL A   1      33.423  28.949  22.841  1.00  0.00     0.116 C 
BRANCH  73  74
ATOM     74  N   UNL A   1      32.170  29.301  22.205  1.00  0.00    -0.352 N 
ATOM     75  C   UNL A   1      30.933  28.703  22.354  1.00  0.00     0.251 C 
ATOM     76  H   UNL A   1      32.204  30.065  21.585  1.00  0.00     0.163 HD
ATOM     77  O   UNL A   1      29.939  29.166  21.804  1.00  0.00    -0.269 OA
BRANCH  75  78
ATOM     78  C   UNL A   1      30.769  27.470  23.155  1.00  0.00     0.041 A 
ATOM     79  C   UNL A   1      30.400  27.540  24.505  1.00  0.00     0.015 A 
ATOM     80  C   UNL A   1      30.924  26.227  22.525  1.00  0.00     0.040 A 
ATOM     81  C   UNL A   1      30.283  26.363  25.258  1.00  0.00     0.017 A 
ATOM     82  C   UNL A   1      30.845  25.062  23.291  1.00  0.00     0.056 A 
ATOM     83  C   UNL A   1      30.550  25.130  24.654  1.00  0.00     0.064 A 
ATOM     84  N   UNL A   1      31.190  23.832  22.730  1.00  0.00    -0.307 N 
ATOM     85  C   UNL A   1      30.740  23.912  25.471  1.00  0.00     0.264 A 
ATOM     86  C   UNL A   1      31.524  22.735  23.480  1.00  0.00     0.328 A 
ATOM     87  H   UNL A   1      31.193  23.749  21.749  1.00  0.00     0.171 HD
ATOM     88  O   UNL A   1      30.326  23.879  26.630  1.00  0.00    -0.268 OA
ATOM     89  N   UNL A   1      31.446  22.887  24.856  1.00  0.00    -0.260 N 
ATOM     90  O   UNL A   1      31.917  21.714  22.918  1.00  0.00    -0.248 OA
BRANCH  89  91
ATOM     91  C   UNL A   1      32.109  21.893  25.695  1.00  0.00     0.136 C 
BRANCH  91  92
ATOM     92  C   UNL A   1      33.641  21.944  25.559  1.00  0.00     0.060 C 
BRANCH  92  93
ATOM     93  C   UNL A   1      34.354  20.703  25.102  1.00  0.00    -0.021 A 
ATOM     94  C   UNL A   1      35.727  20.590  24.971  1.00  0.00     0.087 A 
ATOM     95  C   UNL A   1      33.843  19.416  24.721  1.00  0.00     0.003 A 
ATOM     96  N   UNL A   1      36.008  19.254  25.046  1.00  0.00    -0.361 N 
ATOM     97  C   UNL A   1      34.932  18.554  24.573  1.00  0.00     0.046 A 
ATOM     98  C   UNL A   1      32.578  18.884  24.466  1.00  0.00     0.010 A 
ATOM     99  H   UNL A   1      36.845  18.862  25.382  1.00  0.00     0.166 HD
ATOM    100  C   UNL A   1      34.838  17.244  24.088  1.00  0.00     0.026 A 
ATOM    101  C   UNL A   1      32.503  17.676  23.768  1.00  0.00     0.001 A 
ATOM    102  C   UNL A   1      33.602  16.851  23.596  1.00  0.00     0.002 A 
ENDBRANCH  92  93
ENDBRANCH  91  92
ENDBRANCH  89  91
ENDBRANCH  75  78
ENDBRANCH  73  74
ENDBRANCH  72  73
ENDBRANCH   1  72
TORSDOF 17
ENDMDL
MODEL 3
REMARK VINA RESULT:     -13.3      1.519      7.441
REMARK SMILES O=C(NCCCCNC(=O)c1ccc2c(=O)n(CCc3c[nH]c4ccccc34)c(=O)[nH]c2c1)c1ccc(-c2c3nc(c(-c4cc(S(=O)(=O)[O-])ccc4F)c4ccc([nH]4)c(-c4cc(S(=O)(=O)[O-])ccc4F)c4nc(c(-c5cc(S(=O)(=O)[O-])ccc5F)c5ccc2[nH]5)C=C4)C=C3)cc1
REMARK SMILES IDX 5 1 4 2 3 3 1 4 2 5 34 7 35 8 96 9 36 10 95 11 37 12 38 13
REMARK SMILES IDX 39 14 89 15 40 16 94 17 88 18 90 19 41 20 93 21 87 22 86 23
REMARK SMILES IDX 42 25 74 26 54 27 73 28 55 29 58 30 72 31 91 32 56 33 57 34
REMARK SMILES IDX 71 36 92 37 59 38 43 39 44 40 52 41 45 42 51 43 53 44 50 45
REMARK SMILES IDX 46 46 47 47 48 48 49 49 75 50 76 51 84 52 77 53 83 54 85 55
REMARK SMILES IDX 82 56 78 57 79 58 80 59 81 60 60 61 61 62 69 63 62 64 68 65
REMARK SMILES IDX 70 66 67 67 63 68 64 69 65 70 66 71 6 72 7 73 8 74 9 75
REMARK SMILES IDX 10 77 11 78 12 79 33 80 13 81 32 82 14 83 31 84 15 85 29 86
REMARK SMILES IDX 16 88 17 89 30 90 18 91 19 92 20 93 21 94 28 95 22 96 23 97
REMARK SMILES IDX 27 98 24 100 26 101 25 102
REMARK H PARENT 3 6 90 24 58 35 8 76 31 87 22 99
REMARK Flexibility Score: inf
ROOT
ATOM      1  C   UNL A   1      31.547  32.178  26.506  1.00  0.00     0.023 C 
ENDROOT
BRANCH   1   2
ATOM      2  C   UNL A   1      32.764  32.694  27.266  1.00  0.00     0.116 C 
BRANCH   2   3
ATOM      3  N   UNL A   1      32.601  34.044  27.792  1.00  0.00    -0.352 N 
ATOM      4  O   UNL A   1      32.877  35.824  29.133  1.00  0.00    -0.269 OA
ATOM      5  C   UNL A   1      33.264  34.705  28.804  1.00  0.00     0.251 C 
ATOM      6  H   UNL A   1      31.898  34.573  27.349  1.00  0.00     0.163 HD
BRANCH   5   7
ATOM      7  C   UNL A   1      34.413  34.091  29.517  1.00  0.00     0.039 A 
ATOM      8  C   UNL A   1      35.714  34.423  29.120  1.00  0.00     0.014 A 
ATOM      9  C   UNL A   1      34.233  33.156  30.537  1.00  0.00     0.014 A 
ATOM     10  C   UNL A   1      36.818  33.866  29.780  1.00  0.00     0.010 A 
ATOM     11  C   UNL A   1      35.328  32.682  31.259  1.00  0.00     0.010 A 
ATOM     12  C   UNL A   1      36.637  33.008  30.875  1.00  0.00    -0.014 A 
BRANCH  12  13
ATOM     13  C   UNL A   1      37.787  32.387  31.590  1.00  0.00     0.031 A 
ATOM     14  C   UNL A   1      38.548  31.257  30.943  1.00  0.00     0.074 A 
ATOM     15  C   UNL A   1      38.121  32.792  32.832  1.00  0.00     0.049 A 
ATOM     16  N   UNL A   1      39.521  30.530  31.429  1.00  0.00    -0.248 NA
ATOM     17  C   UNL A   1      38.142  30.873  29.580  1.00  0.00     0.031 C 
ATOM     18  C   UNL A   1      37.446  33.851  33.582  1.00  0.00     0.029 A 
ATOM     19  N   UNL A   1      39.107  32.360  33.689  1.00  0.00    -0.354 N 
ATOM     20  C   UNL A   1      39.826  29.598  30.442  1.00  0.00     0.074 A 
ATOM     21  C   UNL A   1      38.892  29.804  29.362  1.00  0.00     0.031 C 
ATOM     22  C   UNL A   1      38.052  34.006  34.768  1.00  0.00     0.029 A 
ATOM     23  C   UNL A   1      39.130  33.027  34.893  1.00  0.00     0.049 A 
ATOM     24  H   UNL A   1      39.739  31.639  33.461  1.00  0.00     0.167 HD
ATOM     25  C   UNL A   1      40.821  28.679  30.422  1.00  0.00     0.034 A 
ATOM     26  C   UNL A   1      39.921  32.867  35.977  1.00  0.00     0.034 A 
ATOM     27  C   UNL A   1      41.776  28.513  31.485  1.00  0.00     0.049 A 
ATOM     28  C   UNL A   1      41.018  31.830  35.936  1.00  0.00     0.074 A 
ATOM     29  C   UNL A   1      42.858  27.652  31.530  1.00  0.00     0.029 A 
ATOM     30  N   UNL A   1      41.779  29.221  32.678  1.00  0.00    -0.354 N 
ATOM     31  N   UNL A   1      41.346  31.015  34.960  1.00  0.00    -0.248 NA
ATOM     32  C   UNL A   1      41.864  31.695  37.131  1.00  0.00     0.031 C 
ATOM     33  C   UNL A   1      43.470  27.786  32.775  1.00  0.00     0.029 A 
ATOM     34  C   UNL A   1      42.827  28.794  33.477  1.00  0.00     0.049 A 
ATOM     35  H   UNL A   1      41.132  29.922  32.921  1.00  0.00     0.167 HD
ATOM     36  C   UNL A   1      42.450  30.295  35.413  1.00  0.00     0.074 A 
ATOM     37  C   UNL A   1      42.751  30.789  36.739  1.00  0.00     0.031 C 
ATOM     38  C   UNL A   1      43.143  29.309  34.788  1.00  0.00     0.034 A 
BRANCH  25  39
ATOM     39  C   UNL A   1      40.973  27.796  29.206  1.00  0.00     0.023 A 
ATOM     40  C   UNL A   1      41.970  28.077  28.254  1.00  0.00     0.031 A 
ATOM     41  C   UNL A   1      40.046  26.779  28.917  1.00  0.00     0.131 A 
ATOM     42  C   UNL A   1      41.988  27.381  27.038  1.00  0.00     0.055 A 
ATOM     43  C   UNL A   1      40.101  26.052  27.727  1.00  0.00     0.041 A 
ATOM     44  F   UNL A   1      39.072  26.473  29.790  1.00  0.00    -0.206 F 
ATOM     45  C   UNL A   1      41.066  26.364  26.775  1.00  0.00     0.022 A 
BRANCH  42  46
ATOM     46  S   UNL A   1      43.154  27.823  25.722  1.00  0.00     0.124 S 
ATOM     47  O   UNL A   1      43.977  28.837  26.377  1.00  0.00    -0.237 OA
ATOM     48  O   UNL A   1      43.820  26.549  25.466  1.00  0.00    -0.237 OA
ATOM     49  O   UNL A   1      42.300  28.317  24.647  1.00  0.00    -0.744 OA
ENDBRANCH  42  46
ENDBRANCH  25  39
BRANCH  26  50
ATOM     50  C   UNL A   1      39.735  33.764  37.159  1.00  0.00     0.023 A 
ATOM     51  C   UNL A   1      39.095  33.306  38.327  1.00  0.00     0.031 A 
ATOM     52  C   UNL A   1      40.107  35.117  37.102  1.00  0.00     0.131 A 
ATOM     53  C   UNL A   1      38.785  34.208  39.354  1.00  0.00     0.055 A 
ATOM     54  C   UNL A   1      39.867  35.996  38.161  1.00  0.00     0.041 A 
ATOM     55  F   UNL A   1      40.708  35.607  36.008  1.00  0.00    -0.206 F 
ATOM     56  C   UNL A   1      39.186  35.546  39.287  1.00  0.00     0.022 A 
BRANCH  53  57
ATOM     57  S   UNL A   1      37.732  33.708  40.745  1.00  0.00     0.124 S 
ATOM     58  O   UNL A   1      38.609  32.807  41.484  1.00  0.00    -0.237 OA
ATOM     59  O   UNL A   1      37.461  34.992  41.388  1.00  0.00    -0.237 OA
ATOM     60  O   UNL A   1      36.582  33.085  40.101  1.00  0.00    -0.744 OA
ENDBRANCH  53  57
ENDBRANCH  26  50
BRANCH  38  61
ATOM     61  C   UNL A   1      44.322  28.679  35.494  1.00  0.00     0.023 A 
ATOM     62  C   UNL A   1      44.111  27.628  36.410  1.00  0.00     0.031 A 
ATOM     63  C   UNL A   1      45.612  29.231  35.406  1.00  0.00     0.131 A 
ATOM     64  C   UNL A   1      45.156  27.203  37.239  1.00  0.00     0.055 A 
ATOM     65  C   UNL A   1      46.664  28.763  36.194  1.00  0.00     0.041 A 
ATOM     66  F   UNL A   1      45.863  30.244  34.561  1.00  0.00    -0.206 F 
ATOM     67  C   UNL A   1      46.434  27.758  37.128  1.00  0.00     0.022 A 
BRANCH  64  68
ATOM     68  S   UNL A   1      44.868  25.997  38.566  1.00  0.00     0.124 S 
ATOM     69  O   UNL A   1      44.131  24.948  37.865  1.00  0.00    -0.237 OA
ATOM     70  O   UNL A   1      46.230  25.645  38.959  1.00  0.00    -0.237 OA
ATOM     71  O   UNL A   1      44.099  26.740  39.558  1.00  0.00    -0.744 OA
ENDBRANCH  64  68
ENDBRANCH  38  61
ENDBRANCH  12  13
ENDBRANCH   5   7
ENDBRANCH   2   3
ENDBRANCH   1   2
BRANCH   1  72
ATOM     72  C   UNL A   1      31.403  30.663  26.398  1.00  0.00     0.023 C 
BRANCH  72  73
ATOM     73  C   UNL A   1      31.661  30.020  25.033  1.00  0.00     0.116 C 
BRANCH  73  74
ATOM     74  N   UNL A   1      30.683  30.255  23.990  1.00  0.00    -0.352 N 
ATOM     75  C   UNL A   1      29.987  29.327  23.240  1.00  0.00     0.251 C 
ATOM     76  H   UNL A   1      30.490  31.200  23.788  1.00  0.00     0.163 HD
ATOM     77  O   UNL A   1      29.127  29.681  22.439  1.00  0.00    -0.269 OA
BRANCH  75  78
ATOM     78  C   UNL A   1      30.273  27.879  23.352  1.00  0.00     0.041 A 
ATOM     79  C   UNL A   1      29.398  27.031  24.044  1.00  0.00     0.015 A 
ATOM     80  C   UNL A   1      31.400  27.359  22.701  1.00  0.00     0.040 A 
ATOM     81  C   UNL A   1      29.702  25.669  24.170  1.00  0.00     0.017 A 
ATOM     82  C   UNL A   1      31.717  26.009  22.866  1.00  0.00     0.056 A 
ATOM     83  C   UNL A   1      30.887  25.174  23.615  1.00  0.00     0.064 A 
ATOM     84  N   UNL A   1      32.933  25.514  22.394  1.00  0.00    -0.307 N 
ATOM     85  C   UNL A   1      31.394  23.834  23.985  1.00  0.00     0.264 A 
ATOM     86  C   UNL A   1      33.493  24.348  22.847  1.00  0.00     0.328 A 
ATOM     87  H   UNL A   1      33.412  26.027  21.704  1.00  0.00     0.171 HD
ATOM     88  O   UNL A   1      30.634  23.006  24.487  1.00  0.00    -0.268 OA
ATOM     89  N   UNL A   1      32.752  23.633  23.775  1.00  0.00    -0.260 N 
ATOM     90  O   UNL A   1      34.616  24.025  22.463  1.00  0.00    -0.248 OA
BRANCH  89  91
ATOM     91  C   UNL A   1      33.430  22.591  24.540  1.00  0.00     0.136 C 
BRANCH  91  92
ATOM     92  C   UNL A   1      33.316  21.210  23.872  1.00  0.00     0.060 C 
BRANCH  92  93
ATOM     93  C   UNL A   1      33.318  19.993  24.754  1.00  0.00    -0.021 A 
ATOM     94  C   UNL A   1      33.307  20.026  26.137  1.00  0.00     0.087 A 
ATOM     95  C   UNL A   1      33.326  18.595  24.421  1.00  0.00     0.003 A 
ATOM     96  N   UNL A   1      32.808  18.819  26.542  1.00  0.00    -0.361 N 
ATOM     97  C   UNL A   1      33.123  17.878  25.601  1.00  0.00     0.046 A 
ATOM     98  C   UNL A   1      33.499  17.853  23.251  1.00  0.00     0.010 A 
ATOM     99  H   UNL A   1      32.307  18.655  27.373  1.00  0.00     0.166 HD
ATOM    100  C   UNL A   1      33.191  16.482  25.694  1.00  0.00     0.026 A 
ATOM    101  C   UNL A   1      33.799  16.494  23.376  1.00  0.00     0.001 A 
ATOM    102  C   UNL A   1      33.630  15.804  24.565  1.00  0.00     0.002 A 
ENDBRANCH  92  93
ENDBRANCH  91  92
ENDBRANCH  89  91
ENDBRANCH  75  78
ENDBRANCH  73  74
ENDBRANCH  72  73
ENDBRANCH   1  72
TORSDOF 17
ENDMDL
