MODEL 1
REMARK VINA RESULT:     -13.2      0.000      0.000
REMARK SMILES COC(=O)c1ccc([C@H]2CC(=O)Nc3c(C(=O)NCCCCNC(=O)c4ccc(-c5c6nc(c(-c7cc(S(=O)(=O)[O-])ccc7F)c7ccc([nH]7)c(-c7cc(S(=O)(=O)[O-])ccc7F)c7nc(c(-c8cc(S(=O)(=O)[O-])ccc8F)c8ccc5[nH]8)C=C7)C=C6)cc4)cn(-c4cc(OC)ccc4OC)c32)cc1
REMARK SMILES IDX 20 1 19 2 18 3 16 4 17 5 15 7 9 8 10 9 101 10 11 11 14 12
REMARK SMILES IDX 90 13 12 14 13 15 89 16 8 18 5 19 6 20 103 21 7 22 102 23
REMARK SMILES IDX 3 24 4 25 2 26 1 27 91 28 92 29 98 30 93 31 97 32 96 33
REMARK SMILES IDX 99 34 100 35 94 36 95 37 21 38 22 39 23 40 24 41 25 43 26 44
REMARK SMILES IDX 27 45 88 46 28 47 87 48 29 49 30 50 31 51 81 52 32 53 86 54
REMARK SMILES IDX 80 55 82 56 33 57 85 58 79 59 78 60 34 62 66 63 46 64 65 65
REMARK SMILES IDX 47 66 50 67 64 68 83 69 48 70 49 71 63 73 84 74 51 75 35 76
REMARK SMILES IDX 36 77 44 78 37 79 43 80 45 81 42 82 38 83 39 84 40 85 41 86
REMARK SMILES IDX 67 87 68 88 76 89 69 90 75 91 77 92 74 93 70 94 71 95 72 96
REMARK SMILES IDX 73 97 52 98 53 99 61 100 54 101 60 102 62 103 59 104 55 105
REMARK SMILES IDX 56 106 57 107 58 108
REMARK H PARENT 18 6 13 17 23 42 82 61 50 72
REMARK Flexibility Score: inf
ROOT
ATOM      1  C   UNL A   1      36.714  19.500  24.932  1.00  0.00     0.023 C 
ENDROOT
BRANCH   1   2
ATOM      2  C   UNL A   1      35.598  20.551  25.057  1.00  0.00     0.116 C 
BRANCH   2   3
ATOM      3  N   UNL A   1      34.271  19.996  24.890  1.00  0.00    -0.352 N 
ATOM      4  C   UNL A   1      33.005  20.502  24.773  1.00  0.00     0.254 C 
ATOM      5  O   UNL A   1      32.145  19.648  24.523  1.00  0.00    -0.269 OA
ATOM      6  H   UNL A   1      34.284  19.012  24.851  1.00  0.00     0.163 HD
BRANCH   4   7
ATOM      7  C   UNL A   1      32.592  21.896  24.996  1.00  0.00     0.081 A 
ATOM      8  C   UNL A   1      30.752  24.970  26.093  1.00  0.00     0.078 C 
ATOM      9  C   UNL A   1      29.442  24.240  26.497  1.00  0.00     0.115 C 
ATOM     10  C   UNL A   1      31.618  23.970  25.358  1.00  0.00     0.055 A 
ATOM     11  C   UNL A   1      29.704  22.939  27.177  1.00  0.00     0.225 C 
ATOM     12  C   UNL A   1      31.591  22.613  25.702  1.00  0.00     0.076 A 
ATOM     13  N   UNL A   1      32.644  24.123  24.446  1.00  0.00    -0.314 N 
ATOM     14  O   UNL A   1      28.980  22.505  28.069  1.00  0.00    -0.275 OA
ATOM     15  N   UNL A   1      30.713  22.187  26.666  1.00  0.00    -0.324 N 
ATOM     16  C   UNL A   1      33.318  22.920  24.394  1.00  0.00     0.107 A 
ATOM     17  H   UNL A   1      30.823  21.273  27.013  1.00  0.00     0.170 HD
BRANCH   8  18
ATOM     18  C   UNL A   1      30.205  26.294  25.554  1.00  0.00    -0.038 A 
ATOM     19  C   UNL A   1      29.872  28.238  23.528  1.00  0.00     0.060 A 
ATOM     20  C   UNL A   1      29.116  27.068  23.502  1.00  0.00     0.016 A 
ATOM     21  C   UNL A   1      30.693  28.496  24.640  1.00  0.00     0.016 A 
ATOM     22  C   UNL A   1      29.246  26.132  24.522  1.00  0.00     0.005 A 
ATOM     23  C   UNL A   1      30.865  27.525  25.650  1.00  0.00     0.005 A 
BRANCH  19  24
ATOM     24  C   UNL A   1      29.806  29.097  22.312  1.00  0.00     0.337 C 
ATOM     25  O   UNL A   1      30.804  29.497  21.725  1.00  0.00    -0.246 OA
BRANCH  24  26
ATOM     26  O   UNL A   1      28.530  29.429  21.991  1.00  0.00    -0.465 OA
ATOM     27  C   UNL A   1      28.452  30.596  21.165  1.00  0.00     0.282 C 
ENDBRANCH  24  26
ENDBRANCH  19  24
ENDBRANCH   8  18
BRANCH  13  28
ATOM     28  C   UNL A   1      33.108  25.270  23.768  1.00  0.00     0.091 A 
ATOM     29  C   UNL A   1      32.808  25.353  22.393  1.00  0.00     0.077 A 
ATOM     30  C   UNL A   1      33.734  26.353  24.416  1.00  0.00     0.143 A 
ATOM     31  C   UNL A   1      33.149  26.485  21.648  1.00  0.00     0.121 A 
ATOM     32  C   UNL A   1      34.061  27.479  23.642  1.00  0.00     0.052 A 
ATOM     33  C   UNL A   1      33.773  27.554  22.280  1.00  0.00     0.050 A 
BRANCH  30  34
ATOM     34  O   UNL A   1      34.190  26.532  25.691  1.00  0.00    -0.495 OA
ATOM     35  C   UNL A   1      34.172  27.771  26.369  1.00  0.00     0.278 C 
ENDBRANCH  30  34
BRANCH  31  36
ATOM     36  O   UNL A   1      32.796  26.447  20.327  1.00  0.00    -0.497 OA
ATOM     37  C   UNL A   1      32.587  25.152  19.775  1.00  0.00     0.278 C 
ENDBRANCH  31  36
ENDBRANCH  13  28
ENDBRANCH   4   7
ENDBRANCH   2   3
ENDBRANCH   1   2
BRANCH   1  38
ATOM     38  C   UNL A   1      38.106  20.070  24.614  1.00  0.00     0.023 C 
BRANCH  38  39
ATOM     39  C   UNL A   1      38.990  20.341  25.832  1.00  0.00     0.116 C 
BRANCH  39  40
ATOM     40  N   UNL A   1      40.050  19.340  26.035  1.00  0.00    -0.352 N 
ATOM     41  C   UNL A   1      41.421  19.554  26.064  1.00  0.00     0.251 C 
ATOM     42  H   UNL A   1      39.751  18.410  26.166  1.00  0.00     0.163 HD
ATOM     43  O   UNL A   1      42.210  18.662  25.744  1.00  0.00    -0.269 OA
BRANCH  41  44
ATOM     44  C   UNL A   1      41.905  20.865  26.523  1.00  0.00     0.039 A 
ATOM     45  C   UNL A   1      42.349  21.885  25.674  1.00  0.00     0.014 A 
ATOM     46  C   UNL A   1      41.808  21.071  27.893  1.00  0.00     0.014 A 
ATOM     47  C   UNL A   1      42.637  23.134  26.230  1.00  0.00     0.010 A 
ATOM     48  C   UNL A   1      41.814  22.344  28.370  1.00  0.00     0.010 A 
ATOM     49  C   UNL A   1      42.361  23.350  27.589  1.00  0.00    -0.014 A 
BRANCH  49  50
ATOM     50  C   UNL A   1      42.503  24.633  28.265  1.00  0.00     0.031 A 
ATOM     51  C   UNL A   1      41.371  25.558  28.019  1.00  0.00     0.074 A 
ATOM     52  C   UNL A   1      43.394  24.807  29.271  1.00  0.00     0.049 A 
ATOM     53  N   UNL A   1      41.370  26.621  27.287  1.00  0.00    -0.248 NA
ATOM     54  C   UNL A   1      40.026  25.154  28.468  1.00  0.00     0.031 C 
ATOM     55  C   UNL A   1      44.348  23.832  29.824  1.00  0.00     0.029 A 
ATOM     56  N   UNL A   1      43.557  25.865  30.109  1.00  0.00    -0.354 N 
ATOM     57  C   UNL A   1      40.105  27.176  27.446  1.00  0.00     0.074 A 
ATOM     58  C   UNL A   1      39.271  26.108  27.919  1.00  0.00     0.031 C 
ATOM     59  C   UNL A   1      44.802  24.258  31.025  1.00  0.00     0.029 A 
ATOM     60  C   UNL A   1      44.311  25.606  31.256  1.00  0.00     0.049 A 
ATOM     61  H   UNL A   1      43.170  26.750  29.921  1.00  0.00     0.167 HD
ATOM     62  C   UNL A   1      39.939  28.528  27.488  1.00  0.00     0.034 A 
ATOM     63  C   UNL A   1      44.511  26.434  32.322  1.00  0.00     0.034 A 
ATOM     64  C   UNL A   1      41.138  29.203  27.029  1.00  0.00     0.049 A 
ATOM     65  C   UNL A   1      44.228  27.808  31.830  1.00  0.00     0.074 A 
ATOM     66  C   UNL A   1      41.895  29.154  25.872  1.00  0.00     0.029 A 
ATOM     67  N   UNL A   1      41.968  29.756  27.983  1.00  0.00    -0.354 N 
ATOM     68  N   UNL A   1      44.942  28.387  30.902  1.00  0.00    -0.248 NA
ATOM     69  C   UNL A   1      42.866  28.306  31.961  1.00  0.00     0.031 C 
ATOM     70  C   UNL A   1      43.249  29.173  26.323  1.00  0.00     0.029 A 
ATOM     71  C   UNL A   1      43.251  29.347  27.708  1.00  0.00     0.049 A 
ATOM     72  H   UNL A   1      41.690  30.339  28.725  1.00  0.00     0.167 HD
ATOM     73  C   UNL A   1      44.017  28.979  30.054  1.00  0.00     0.074 A 
ATOM     74  C   UNL A   1      42.760  28.974  30.807  1.00  0.00     0.031 C 
ATOM     75  C   UNL A   1      44.274  29.134  28.719  1.00  0.00     0.034 A 
BRANCH  62  76
ATOM     76  C   UNL A   1      38.889  29.250  28.307  1.00  0.00     0.023 A 
ATOM     77  C   UNL A   1      39.084  29.284  29.700  1.00  0.00     0.031 A 
ATOM     78  C   UNL A   1      37.604  29.643  27.861  1.00  0.00     0.131 A 
ATOM     79  C   UNL A   1      38.022  29.571  30.574  1.00  0.00     0.055 A 
ATOM     80  C   UNL A   1      36.571  29.996  28.734  1.00  0.00     0.041 A 
ATOM     81  F   UNL A   1      37.237  29.621  26.577  1.00  0.00    -0.206 F 
ATOM     82  C   UNL A   1      36.764  29.926  30.101  1.00  0.00     0.022 A 
BRANCH  79  83
ATOM     83  S   UNL A   1      38.272  29.283  32.343  1.00  0.00     0.124 S 
ATOM     84  O   UNL A   1      38.599  30.624  32.814  1.00  0.00    -0.237 OA
ATOM     85  O   UNL A   1      36.972  28.756  32.746  1.00  0.00    -0.237 OA
ATOM     86  O   UNL A   1      39.373  28.322  32.376  1.00  0.00    -0.744 OA
ENDBRANCH  79  83
ENDBRANCH  62  76
BRANCH  63  87
ATOM     87  C   UNL A   1      44.564  26.069  33.773  1.00  0.00     0.023 A 
ATOM     88  C   UNL A   1      43.511  26.316  34.688  1.00  0.00     0.031 A 
ATOM     89  C   UNL A   1      45.599  25.220  34.230  1.00  0.00     0.131 A 
ATOM     90  C   UNL A   1      43.527  25.726  35.980  1.00  0.00     0.055 A 
ATOM     91  C   UNL A   1      45.605  24.636  35.500  1.00  0.00     0.041 A 
ATOM     92  F   UNL A   1      46.604  24.855  33.417  1.00  0.00    -0.206 F 
ATOM     93  C   UNL A   1      44.563  24.880  36.378  1.00  0.00     0.022 A 
BRANCH  90  94
ATOM     94  S   UNL A   1      42.149  25.985  37.157  1.00  0.00     0.124 S 
ATOM     95  O   UNL A   1      41.441  24.712  37.092  1.00  0.00    -0.237 OA
ATOM     96  O   UNL A   1      42.849  26.278  38.401  1.00  0.00    -0.237 OA
ATOM     97  O   UNL A   1      41.420  27.120  36.587  1.00  0.00    -0.744 OA
ENDBRANCH  90  94
ENDBRANCH  63  87
BRANCH  75  98
ATOM     98  C   UNL A   1      45.689  28.887  28.222  1.00  0.00     0.023 A 
ATOM     99  C   UNL A   1      46.235  27.622  27.894  1.00  0.00     0.031 A 
ATOM    100  C   UNL A   1      46.477  30.020  27.955  1.00  0.00     0.131 A 
ATOM    101  C   UNL A   1      47.527  27.533  27.331  1.00  0.00     0.055 A 
ATOM    102  C   UNL A   1      47.743  29.930  27.377  1.00  0.00     0.041 A 
ATOM    103  F   UNL A   1      46.008  31.251  28.219  1.00  0.00    -0.206 F 
ATOM    104  C   UNL A   1      48.275  28.684  27.067  1.00  0.00     0.022 A 
BRANCH 101 105
ATOM    105  S   UNL A   1      48.273  25.913  26.943  1.00  0.00     0.124 S 
ATOM    106  O   UNL A   1      47.238  24.960  27.327  1.00  0.00    -0.237 OA
ATOM    107  O   UNL A   1      48.542  26.021  25.512  1.00  0.00    -0.237 OA
ATOM    108  O   UNL A   1      49.472  25.880  27.784  1.00  0.00    -0.744 OA
ENDBRANCH 101 105
ENDBRANCH  75  98
ENDBRANCH  49  50
ENDBRANCH  41  44
ENDBRANCH  39  40
ENDBRANCH  38  39
ENDBRANCH   1  38
TORSDOF 20
ENDMDL
MODEL 2
REMARK VINA RESULT:     -12.3      1.800      2.430
REMARK SMILES COC(=O)c1ccc([C@H]2CC(=O)Nc3c(C(=O)NCCCCNC(=O)c4ccc(-c5c6nc(c(-c7cc(S(=O)(=O)[O-])ccc7F)c7ccc([nH]7)c(-c7cc(S(=O)(=O)[O-])ccc7F)c7nc(c(-c8cc(S(=O)(=O)[O-])ccc8F)c8ccc5[nH]8)C=C7)C=C6)cc4)cn(-c4cc(OC)ccc4OC)c32)cc1
REMARK SMILES IDX 20 1 19 2 18 3 16 4 17 5 15 7 9 8 10 9 101 10 11 11 14 12
REMARK SMILES IDX 90 13 12 14 13 15 89 16 8 18 5 19 6 20 103 21 7 22 102 23
REMARK SMILES IDX 3 24 4 25 2 26 1 27 91 28 92 29 98 30 93 31 97 32 96 33
REMARK SMILES IDX 99 34 100 35 94 36 95 37 21 38 22 39 23 40 24 41 25 43 26 44
REMARK SMILES IDX 27 45 88 46 28 47 87 48 29 49 30 50 31 51 81 52 32 53 86 54
REMARK SMILES IDX 80 55 82 56 33 57 85 58 79 59 78 60 34 62 66 63 46 64 65 65
REMARK SMILES IDX 47 66 50 67 64 68 83 69 48 70 49 71 63 73 84 74 51 75 35 76
REMARK SMILES IDX 36 77 44 78 37 79 43 80 45 81 42 82 38 83 39 84 40 85 41 86
REMARK SMILES IDX 67 87 68 88 76 89 69 90 75 91 77 92 74 93 70 94 71 95 72 96
REMARK SMILES IDX 73 97 52 98 53 99 61 100 54 101 60 102 62 103 59 104 55 105
REMARK SMILES IDX 56 106 57 107 58 108
REMARK H PARENT 18 6 13 17 23 42 82 61 50 72
REMARK Flexibility Score: inf
ROOT
ATOM      1  C   UNL A   1      37.418  19.720  24.559  1.00  0.00     0.023 C 
ENDROOT
BRANCH   1   2
ATOM      2  C   UNL A   1      36.410  20.768  25.060  1.00  0.00     0.116 C 
BRANCH   2   3
ATOM      3  N   UNL A   1      37.042  21.977  25.547  1.00  0.00    -0.352 N 
ATOM      4  C   UNL A   1      36.613  23.216  25.939  1.00  0.00     0.254 C 
ATOM      5  O   UNL A   1      37.508  23.931  26.407  1.00  0.00    -0.269 OA
ATOM      6  H   UNL A   1      38.020  21.883  25.613  1.00  0.00     0.163 HD
BRANCH   4   7
ATOM      7  C   UNL A   1      35.260  23.771  25.775  1.00  0.00     0.081 A 
ATOM      8  C   UNL A   1      31.586  24.163  25.156  1.00  0.00     0.078 C 
ATOM      9  C   UNL A   1      31.383  22.774  24.494  1.00  0.00     0.115 C 
ATOM     10  C   UNL A   1      33.077  24.386  25.291  1.00  0.00     0.055 A 
ATOM     11  C   UNL A   1      32.171  21.703  25.168  1.00  0.00     0.225 C 
ATOM     12  C   UNL A   1      33.941  23.310  25.526  1.00  0.00     0.076 A 
ATOM     13  N   UNL A   1      33.839  25.533  25.406  1.00  0.00    -0.314 N 
ATOM     14  O   UNL A   1      31.766  20.548  25.262  1.00  0.00    -0.275 OA
ATOM     15  N   UNL A   1      33.428  22.038  25.558  1.00  0.00    -0.324 N 
ATOM     16  C   UNL A   1      35.078  25.147  25.874  1.00  0.00     0.107 A 
ATOM     17  H   UNL A   1      34.012  21.318  25.888  1.00  0.00     0.170 HD
BRANCH   8  18
ATOM     18  C   UNL A   1      30.589  25.020  24.371  1.00  0.00    -0.038 A 
ATOM     19  C   UNL A   1      29.803  27.402  23.066  1.00  0.00     0.060 A 
ATOM     20  C   UNL A   1      30.662  26.509  22.429  1.00  0.00     0.016 A 
ATOM     21  C   UNL A   1      29.230  27.038  24.297  1.00  0.00     0.016 A 
ATOM     22  C   UNL A   1      31.014  25.316  23.051  1.00  0.00     0.005 A 
ATOM     23  C   UNL A   1      29.624  25.851  24.953  1.00  0.00     0.005 A 
BRANCH  19  24
ATOM     24  C   UNL A   1      29.623  28.729  22.413  1.00  0.00     0.337 C 
ATOM     25  O   UNL A   1      30.533  29.319  21.843  1.00  0.00    -0.246 OA
BRANCH  24  26
ATOM     26  O   UNL A   1      28.369  29.218  22.589  1.00  0.00    -0.465 OA
ATOM     27  C   UNL A   1      28.363  30.539  23.141  1.00  0.00     0.282 C 
ENDBRANCH  24  26
ENDBRANCH  19  24
ENDBRANCH   8  18
BRANCH  13  28
ATOM     28  C   UNL A   1      33.483  26.891  25.261  1.00  0.00     0.091 A 
ATOM     29  C   UNL A   1      33.820  27.502  24.036  1.00  0.00     0.077 A 
ATOM     30  C   UNL A   1      32.727  27.599  26.215  1.00  0.00     0.143 A 
ATOM     31  C   UNL A   1      33.440  28.818  23.760  1.00  0.00     0.121 A 
ATOM     32  C   UNL A   1      32.356  28.919  25.907  1.00  0.00     0.052 A 
ATOM     33  C   UNL A   1      32.699  29.525  24.698  1.00  0.00     0.050 A 
BRANCH  30  34
ATOM     34  O   UNL A   1      32.313  27.297  27.480  1.00  0.00    -0.495 OA
ATOM     35  C   UNL A   1      31.135  27.808  28.070  1.00  0.00     0.278 C 
ENDBRANCH  30  34
BRANCH  31  36
ATOM     36  O   UNL A   1      33.818  29.294  22.534  1.00  0.00    -0.497 OA
ATOM     37  C   UNL A   1      34.112  28.310  21.548  1.00  0.00     0.278 C 
ENDBRANCH  31  36
ENDBRANCH  13  28
ENDBRANCH   4   7
ENDBRANCH   2   3
ENDBRANCH   1   2
BRANCH   1  38
ATOM     38  C   UNL A   1      38.394  19.200  25.627  1.00  0.00     0.023 C 
BRANCH  38  39
ATOM     39  C   UNL A   1      39.701  19.986  25.751  1.00  0.00     0.116 C 
BRANCH  39  40
ATOM     40  N   UNL A   1      40.899  19.139  25.855  1.00  0.00    -0.352 N 
ATOM     41  C   UNL A   1      42.227  19.544  25.823  1.00  0.00     0.251 C 
ATOM     42  H   UNL A   1      40.742  18.172  25.960  1.00  0.00     0.163 HD
ATOM     43  O   UNL A   1      43.113  18.786  25.424  1.00  0.00    -0.269 OA
BRANCH  41  44
ATOM     44  C   UNL A   1      42.548  20.894  26.313  1.00  0.00     0.039 A 
ATOM     45  C   UNL A   1      42.896  21.971  25.491  1.00  0.00     0.014 A 
ATOM     46  C   UNL A   1      42.391  21.064  27.683  1.00  0.00     0.014 A 
ATOM     47  C   UNL A   1      43.028  23.235  26.073  1.00  0.00     0.010 A 
ATOM     48  C   UNL A   1      42.242  22.321  28.177  1.00  0.00     0.010 A 
ATOM     49  C   UNL A   1      42.693  23.395  27.426  1.00  0.00    -0.014 A 
BRANCH  49  50
ATOM     50  C   UNL A   1      42.671  24.675  28.123  1.00  0.00     0.031 A 
ATOM     51  C   UNL A   1      41.350  25.345  28.086  1.00  0.00     0.074 A 
ATOM     52  C   UNL A   1      43.653  25.023  28.990  1.00  0.00     0.049 A 
ATOM     53  N   UNL A   1      41.018  26.390  27.406  1.00  0.00    -0.248 NA
ATOM     54  C   UNL A   1      40.202  24.666  28.716  1.00  0.00     0.031 C 
ATOM     55  C   UNL A   1      44.860  24.265  29.356  1.00  0.00     0.029 A 
ATOM     56  N   UNL A   1      43.723  26.086  29.836  1.00  0.00    -0.354 N 
ATOM     57  C   UNL A   1      39.706  26.668  27.774  1.00  0.00     0.074 A 
ATOM     58  C   UNL A   1      39.192  25.445  28.325  1.00  0.00     0.031 C 
ATOM     59  C   UNL A   1      45.397  24.767  30.491  1.00  0.00     0.029 A 
ATOM     60  C   UNL A   1      44.683  25.981  30.846  1.00  0.00     0.049 A 
ATOM     61  H   UNL A   1      43.138  26.872  29.743  1.00  0.00     0.167 HD
ATOM     62  C   UNL A   1      39.275  27.955  27.894  1.00  0.00     0.034 A 
ATOM     63  C   UNL A   1      44.871  26.825  31.902  1.00  0.00     0.034 A 
ATOM     64  C   UNL A   1      40.225  28.869  27.287  1.00  0.00     0.049 A 
ATOM     65  C   UNL A   1      44.240  28.113  31.512  1.00  0.00     0.074 A 
ATOM     66  C   UNL A   1      40.787  28.987  26.029  1.00  0.00     0.029 A 
ATOM     67  N   UNL A   1      41.061  29.575  28.127  1.00  0.00    -0.354 N 
ATOM     68  N   UNL A   1      44.667  28.836  30.512  1.00  0.00    -0.248 NA
ATOM     69  C   UNL A   1      42.841  28.315  31.866  1.00  0.00     0.031 C 
ATOM     70  C   UNL A   1      42.161  29.285  26.272  1.00  0.00     0.029 A 
ATOM     71  C   UNL A   1      42.342  29.445  27.648  1.00  0.00     0.049 A 
ATOM     72  H   UNL A   1      40.787  30.082  28.925  1.00  0.00     0.167 HD
ATOM     73  C   UNL A   1      43.520  29.227  29.836  1.00  0.00     0.074 A 
ATOM     74  C   UNL A   1      42.424  28.955  30.767  1.00  0.00     0.031 C 
ATOM     75  C   UNL A   1      43.531  29.443  28.485  1.00  0.00     0.034 A 
BRANCH  62  76
ATOM     76  C   UNL A   1      38.238  28.436  28.889  1.00  0.00     0.023 A 
ATOM     77  C   UNL A   1      37.284  29.355  28.415  1.00  0.00     0.031 A 
ATOM     78  C   UNL A   1      38.294  28.285  30.295  1.00  0.00     0.131 A 
ATOM     79  C   UNL A   1      36.537  30.147  29.302  1.00  0.00     0.055 A 
ATOM     80  C   UNL A   1      37.497  29.027  31.172  1.00  0.00     0.041 A 
ATOM     81  F   UNL A   1      39.175  27.492  30.911  1.00  0.00    -0.206 F 
ATOM     82  C   UNL A   1      36.638  29.991  30.680  1.00  0.00     0.022 A 
BRANCH  79  83
ATOM     83  S   UNL A   1      35.573  31.518  28.618  1.00  0.00     0.124 S 
ATOM     84  O   UNL A   1      36.626  32.393  28.117  1.00  0.00    -0.237 OA
ATOM     85  O   UNL A   1      34.762  30.839  27.612  1.00  0.00    -0.237 OA
ATOM     86  O   UNL A   1      34.838  32.023  29.776  1.00  0.00    -0.744 OA
ENDBRANCH  79  83
ENDBRANCH  62  76
BRANCH  63  87
ATOM     87  C   UNL A   1      45.222  26.468  33.313  1.00  0.00     0.023 A 
ATOM     88  C   UNL A   1      44.267  26.312  34.348  1.00  0.00     0.031 A 
ATOM     89  C   UNL A   1      46.533  26.023  33.602  1.00  0.00     0.131 A 
ATOM     90  C   UNL A   1      44.641  25.734  35.591  1.00  0.00     0.055 A 
ATOM     91  C   UNL A   1      46.893  25.449  34.825  1.00  0.00     0.041 A 
ATOM     92  F   UNL A   1      47.495  26.050  32.666  1.00  0.00    -0.206 F 
ATOM     93  C   UNL A   1      45.946  25.294  35.823  1.00  0.00     0.022 A 
BRANCH  90  94
ATOM     94  S   UNL A   1      43.412  25.470  36.920  1.00  0.00     0.124 S 
ATOM     95  O   UNL A   1      43.196  26.823  37.418  1.00  0.00    -0.237 OA
ATOM     96  O   UNL A   1      42.301  24.854  36.205  1.00  0.00    -0.237 OA
ATOM     97  O   UNL A   1      44.103  24.578  37.855  1.00  0.00    -0.744 OA
ENDBRANCH  90  94
ENDBRANCH  63  87
BRANCH  75  98
ATOM     98  C   UNL A   1      44.872  29.500  27.772  1.00  0.00     0.023 A 
ATOM     99  C   UNL A   1      45.454  28.444  27.030  1.00  0.00     0.031 A 
ATOM    100  C   UNL A   1      45.529  30.743  27.750  1.00  0.00     0.131 A 
ATOM    101  C   UNL A   1      46.653  28.656  26.314  1.00  0.00     0.055 A 
ATOM    102  C   UNL A   1      46.699  30.956  27.023  1.00  0.00     0.041 A 
ATOM    103  F   UNL A   1      45.016  31.794  28.411  1.00  0.00    -0.206 F 
ATOM    104  C   UNL A   1      47.269  29.911  26.306  1.00  0.00     0.022 A 
BRANCH 101 105
ATOM    105  S   UNL A   1      47.449  27.299  25.390  1.00  0.00     0.124 S 
ATOM    106  O   UNL A   1      48.561  27.954  24.712  1.00  0.00    -0.237 OA
ATOM    107  O   UNL A   1      47.810  26.361  26.450  1.00  0.00    -0.237 OA
ATOM    108  O   UNL A   1      46.387  26.825  24.499  1.00  0.00    -0.744 OA
ENDBRANCH 101 105
ENDBRANCH  75  98
ENDBRANCH  49  50
ENDBRANCH  41  44
ENDBRANCH  39  40
ENDBRANCH  38  39
ENDBRANCH   1  38
TORSDOF 20
ENDMDL
MODEL 3
REMARK VINA RESULT:     -11.8      3.246      7.101
REMARK SMILES COC(=O)c1ccc([C@H]2CC(=O)Nc3c(C(=O)NCCCCNC(=O)c4ccc(-c5c6nc(c(-c7cc(S(=O)(=O)[O-])ccc7F)c7ccc([nH]7)c(-c7cc(S(=O)(=O)[O-])ccc7F)c7nc(c(-c8cc(S(=O)(=O)[O-])ccc8F)c8ccc5[nH]8)C=C7)C=C6)cc4)cn(-c4cc(OC)ccc4OC)c32)cc1
REMARK SMILES IDX 20 1 19 2 18 3 16 4 17 5 15 7 9 8 10 9 101 10 11 11 14 12
REMARK SMILES IDX 90 13 12 14 13 15 89 16 8 18 5 19 6 20 103 21 7 22 102 23
REMARK SMILES IDX 3 24 4 25 2 26 1 27 91 28 92 29 98 30 93 31 97 32 96 33
REMARK SMILES IDX 99 34 100 35 94 36 95 37 21 38 22 39 23 40 24 41 25 43 26 44
REMARK SMILES IDX 27 45 88 46 28 47 87 48 29 49 30 50 31 51 81 52 32 53 86 54
REMARK SMILES IDX 80 55 82 56 33 57 85 58 79 59 78 60 34 62 66 63 46 64 65 65
REMARK SMILES IDX 47 66 50 67 64 68 83 69 48 70 49 71 63 73 84 74 51 75 35 76
REMARK SMILES IDX 36 77 44 78 37 79 43 80 45 81 42 82 38 83 39 84 40 85 41 86
REMARK SMILES IDX 67 87 68 88 76 89 69 90 75 91 77 92 74 93 70 94 71 95 72 96
REMARK SMILES IDX 73 97 52 98 53 99 61 100 54 101 60 102 62 103 59 104 55 105
REMARK SMILES IDX 56 106 57 107 58 108
REMARK H PARENT 18 6 13 17 23 42 82 61 50 72
REMARK Flexibility Score: inf
ROOT
ATOM      1  C   UNL A   1      40.339  23.772  27.005  1.00  0.00     0.023 C 
ENDROOT
BRANCH   1   2
ATOM      2  C   UNL A   1      38.831  23.656  26.724  1.00  0.00     0.116 C 
BRANCH   2   3
ATOM      3  N   UNL A   1      38.514  22.652  25.729  1.00  0.00    -0.352 N 
ATOM      4  C   UNL A   1      37.400  22.295  25.019  1.00  0.00     0.254 C 
ATOM      5  O   UNL A   1      37.608  21.427  24.163  1.00  0.00    -0.269 OA
ATOM      6  H   UNL A   1      39.291  22.089  25.510  1.00  0.00     0.163 HD
BRANCH   4   7
ATOM      7  C   UNL A   1      36.026  22.774  25.240  1.00  0.00     0.081 A 
ATOM      8  C   UNL A   1      32.326  22.948  25.804  1.00  0.00     0.078 C 
ATOM      9  C   UNL A   1      32.032  21.477  25.405  1.00  0.00     0.115 C 
ATOM     10  C   UNL A   1      33.761  23.240  25.422  1.00  0.00     0.055 A 
ATOM     11  C   UNL A   1      33.072  20.533  25.905  1.00  0.00     0.225 C 
ATOM     12  C   UNL A   1      34.736  22.237  25.485  1.00  0.00     0.076 A 
ATOM     13  N   UNL A   1      34.430  24.419  25.153  1.00  0.00    -0.314 N 
ATOM     14  O   UNL A   1      32.808  19.387  26.257  1.00  0.00    -0.275 OA
ATOM     15  N   UNL A   1      34.358  20.962  25.826  1.00  0.00    -0.324 N 
ATOM     16  C   UNL A   1      35.779  24.143  25.235  1.00  0.00     0.107 A 
ATOM     17  H   UNL A   1      35.070  20.314  26.029  1.00  0.00     0.170 HD
BRANCH   8  18
ATOM     18  C   UNL A   1      31.069  23.656  25.292  1.00  0.00    -0.038 A 
ATOM     19  C   UNL A   1      29.726  25.826  24.073  1.00  0.00     0.060 A 
ATOM     20  C   UNL A   1      30.420  24.906  23.289  1.00  0.00     0.016 A 
ATOM     21  C   UNL A   1      29.590  25.583  25.451  1.00  0.00     0.016 A 
ATOM     22  C   UNL A   1      31.043  23.814  23.883  1.00  0.00     0.005 A 
ATOM     23  C   UNL A   1      30.264  24.503  26.063  1.00  0.00     0.005 A 
BRANCH  19  24
ATOM     24  C   UNL A   1      29.245  27.055  23.384  1.00  0.00     0.337 C 
ATOM     25  O   UNL A   1      28.094  27.464  23.476  1.00  0.00    -0.246 OA
BRANCH  24  26
ATOM     26  O   UNL A   1      30.206  27.610  22.601  1.00  0.00    -0.465 OA
ATOM     27  C   UNL A   1      30.001  29.010  22.381  1.00  0.00     0.282 C 
ENDBRANCH  24  26
ENDBRANCH  19  24
ENDBRANCH   8  18
BRANCH  13  28
ATOM     28  C   UNL A   1      33.943  25.732  24.977  1.00  0.00     0.091 A 
ATOM     29  C   UNL A   1      33.666  26.462  26.150  1.00  0.00     0.077 A 
ATOM     30  C   UNL A   1      33.842  26.359  23.720  1.00  0.00     0.143 A 
ATOM     31  C   UNL A   1      33.259  27.797  26.089  1.00  0.00     0.121 A 
ATOM     32  C   UNL A   1      33.436  27.704  23.690  1.00  0.00     0.052 A 
ATOM     33  C   UNL A   1      33.151  28.420  24.852  1.00  0.00     0.050 A 
BRANCH  30  34
ATOM     34  O   UNL A   1      33.988  25.902  22.442  1.00  0.00    -0.495 OA
ATOM     35  C   UNL A   1      33.106  26.218  21.384  1.00  0.00     0.278 C 
ENDBRANCH  30  34
BRANCH  31  36
ATOM     36  O   UNL A   1      33.029  28.398  27.296  1.00  0.00    -0.497 OA
ATOM     37  C   UNL A   1      31.701  28.298  27.798  1.00  0.00     0.278 C 
ENDBRANCH  31  36
ENDBRANCH  13  28
ENDBRANCH   4   7
ENDBRANCH   2   3
ENDBRANCH   1   2
BRANCH   1  38
ATOM     38  C   UNL A   1      41.118  22.450  26.908  1.00  0.00     0.023 C 
BRANCH  38  39
ATOM     39  C   UNL A   1      42.108  22.364  25.744  1.00  0.00     0.116 C 
BRANCH  39  40
ATOM     40  N   UNL A   1      43.490  22.073  26.158  1.00  0.00    -0.352 N 
ATOM     41  C   UNL A   1      44.421  22.960  26.680  1.00  0.00     0.251 C 
ATOM     42  H   UNL A   1      43.789  21.140  26.052  1.00  0.00     0.163 HD
ATOM     43  O   UNL A   1      45.630  22.774  26.530  1.00  0.00    -0.269 OA
BRANCH  41  44
ATOM     44  C   UNL A   1      43.921  24.110  27.449  1.00  0.00     0.039 A 
ATOM     45  C   UNL A   1      43.786  24.131  28.842  1.00  0.00     0.014 A 
ATOM     46  C   UNL A   1      43.667  25.246  26.692  1.00  0.00     0.014 A 
ATOM     47  C   UNL A   1      43.444  25.337  29.459  1.00  0.00     0.010 A 
ATOM     48  C   UNL A   1      43.618  26.454  27.313  1.00  0.00     0.010 A 
ATOM     49  C   UNL A   1      43.365  26.499  28.675  1.00  0.00    -0.014 A 
BRANCH  49  50
ATOM     50  C   UNL A   1      43.135  27.836  29.206  1.00  0.00     0.031 A 
ATOM     51  C   UNL A   1      44.147  28.827  28.770  1.00  0.00     0.074 A 
ATOM     52  C   UNL A   1      41.941  28.187  29.744  1.00  0.00     0.049 A 
ATOM     53  N   UNL A   1      45.085  29.357  29.480  1.00  0.00    -0.248 NA
ATOM     54  C   UNL A   1      44.267  29.117  27.328  1.00  0.00     0.031 C 
ATOM     55  C   UNL A   1      40.740  27.356  29.921  1.00  0.00     0.029 A 
ATOM     56  N   UNL A   1      41.497  29.409  30.140  1.00  0.00    -0.354 N 
ATOM     57  C   UNL A   1      45.708  30.275  28.642  1.00  0.00     0.074 A 
ATOM     58  C   UNL A   1      45.367  29.873  27.306  1.00  0.00     0.031 C 
ATOM     59  C   UNL A   1      39.663  28.140  30.157  1.00  0.00     0.029 A 
ATOM     60  C   UNL A   1      40.115  29.511  30.319  1.00  0.00     0.049 A 
ATOM     61  H   UNL A   1      42.105  30.168  30.289  1.00  0.00     0.167 HD
ATOM     62  C   UNL A   1      46.168  31.461  29.130  1.00  0.00     0.034 A 
ATOM     63  C   UNL A   1      39.392  30.642  30.572  1.00  0.00     0.034 A 
ATOM     64  C   UNL A   1      46.207  31.435  30.580  1.00  0.00     0.049 A 
ATOM     65  C   UNL A   1      40.358  31.627  31.126  1.00  0.00     0.074 A 
ATOM     66  C   UNL A   1      46.805  30.614  31.518  1.00  0.00     0.029 A 
ATOM     67  N   UNL A   1      45.202  32.092  31.260  1.00  0.00    -0.354 N 
ATOM     68  N   UNL A   1      40.980  31.447  32.260  1.00  0.00    -0.248 NA
ATOM     69  C   UNL A   1      41.030  32.515  30.188  1.00  0.00     0.031 C 
ATOM     70  C   UNL A   1      45.813  30.432  32.528  1.00  0.00     0.029 A 
ATOM     71  C   UNL A   1      44.713  31.233  32.216  1.00  0.00     0.049 A 
ATOM     72  H   UNL A   1      44.893  33.012  31.092  1.00  0.00     0.167 HD
ATOM     73  C   UNL A   1      42.295  31.813  32.010  1.00  0.00     0.074 A 
ATOM     74  C   UNL A   1      42.246  32.549  30.745  1.00  0.00     0.031 C 
ATOM     75  C   UNL A   1      43.335  31.227  32.680  1.00  0.00     0.034 A 
BRANCH  62  76
ATOM     76  C   UNL A   1      46.194  32.767  28.361  1.00  0.00     0.023 A 
ATOM     77  C   UNL A   1      45.184  32.956  27.400  1.00  0.00     0.031 A 
ATOM     78  C   UNL A   1      47.272  33.681  28.302  1.00  0.00     0.131 A 
ATOM     79  C   UNL A   1      45.321  33.916  26.383  1.00  0.00     0.055 A 
ATOM     80  C   UNL A   1      47.368  34.682  27.330  1.00  0.00     0.041 A 
ATOM     81  F   UNL A   1      48.336  33.613  29.108  1.00  0.00    -0.206 F 
ATOM     82  C   UNL A   1      46.409  34.781  26.340  1.00  0.00     0.022 A 
BRANCH  79  83
ATOM     83  S   UNL A   1      44.142  33.881  25.011  1.00  0.00     0.124 S 
ATOM     84  O   UNL A   1      43.165  34.874  25.441  1.00  0.00    -0.237 OA
ATOM     85  O   UNL A   1      44.988  34.253  23.882  1.00  0.00    -0.237 OA
ATOM     86  O   UNL A   1      43.669  32.498  25.009  1.00  0.00    -0.744 OA
ENDBRANCH  79  83
ENDBRANCH  62  76
BRANCH  63  87
ATOM     87  C   UNL A   1      38.048  31.014  30.030  1.00  0.00     0.023 A 
ATOM     88  C   UNL A   1      37.095  31.782  30.743  1.00  0.00     0.031 A 
ATOM     89  C   UNL A   1      37.783  30.813  28.655  1.00  0.00     0.131 A 
ATOM     90  C   UNL A   1      35.952  32.306  30.081  1.00  0.00     0.055 A 
ATOM     91  C   UNL A   1      36.660  31.336  28.008  1.00  0.00     0.041 A 
ATOM     92  F   UNL A   1      38.660  30.169  27.868  1.00  0.00    -0.206 F 
ATOM     93  C   UNL A   1      35.742  32.093  28.717  1.00  0.00     0.022 A 
BRANCH  90  94
ATOM     94  S   UNL A   1      34.738  33.348  30.969  1.00  0.00     0.124 S 
ATOM     95  O   UNL A   1      35.586  34.368  31.573  1.00  0.00    -0.237 OA
ATOM     96  O   UNL A   1      33.855  33.788  29.896  1.00  0.00    -0.237 OA
ATOM     97  O   UNL A   1      34.122  32.422  31.922  1.00  0.00    -0.744 OA
ENDBRANCH  90  94
ENDBRANCH  63  87
BRANCH  75  98
ATOM     98  C   UNL A   1      43.020  30.356  33.885  1.00  0.00     0.023 A 
ATOM     99  C   UNL A   1      42.937  28.943  33.877  1.00  0.00     0.031 A 
ATOM    100  C   UNL A   1      42.924  31.002  35.129  1.00  0.00     0.131 A 
ATOM    101  C   UNL A   1      42.752  28.237  35.086  1.00  0.00     0.055 A 
ATOM    102  C   UNL A   1      42.765  30.301  36.324  1.00  0.00     0.041 A 
ATOM    103  F   UNL A   1      43.022  32.340  35.209  1.00  0.00    -0.206 F 
ATOM    104  C   UNL A   1      42.674  28.915  36.306  1.00  0.00     0.022 A 
BRANCH 101 105
ATOM    105  S   UNL A   1      42.593  26.419  35.098  1.00  0.00     0.124 S 
ATOM    106  O   UNL A   1      43.317  26.021  36.300  1.00  0.00    -0.237 OA
ATOM    107  O   UNL A   1      41.146  26.227  35.132  1.00  0.00    -0.237 OA
ATOM    108  O   UNL A   1      43.228  26.013  33.843  1.00  0.00    -0.744 OA
ENDBRANCH 101 105
ENDBRANCH  75  98
ENDBRANCH  49  50
ENDBRANCH  41  44
ENDBRANCH  39  40
ENDBRANCH  38  39
ENDBRANCH   1  38
TORSDOF 20
ENDMDL
