MODEL 1
REMARK VINA RESULT:     -12.0      0.000      0.000
REMARK SMILES O=C(NCCCCNC(=O)c1ccc(CNC(=O)c2ccc(F)cc2Br)o1)c1ccc(-c2c3nc(c(-c4cc(S(=O)(=O)[O-])ccc4F)c4ccc([nH]4)c(-c4cc(S(=O)(=O)[O-])ccc4F)c4nc(c(-c5cc(S(=O)(=O)[O-])ccc5F)c5ccc2[nH]5)C=C4)C=C3)cc1
REMARK SMILES IDX 5 1 4 2 3 3 1 4 2 5 28 7 29 8 90 9 30 10 89 11 31 12 32 13
REMARK SMILES IDX 33 14 83 15 34 16 88 17 82 18 84 19 35 20 87 21 81 22 80 23
REMARK SMILES IDX 36 25 68 26 48 27 67 28 49 29 52 30 66 31 85 32 50 33 51 34
REMARK SMILES IDX 65 36 86 37 53 38 37 39 38 40 46 41 39 42 45 43 47 44 44 45
REMARK SMILES IDX 40 46 41 47 42 48 43 49 69 50 70 51 78 52 71 53 77 54 79 55
REMARK SMILES IDX 76 56 72 57 73 58 74 59 75 60 54 61 55 62 63 63 56 64 62 65
REMARK SMILES IDX 64 66 61 67 57 68 58 69 59 70 60 71 6 72 7 73 8 74 9 75
REMARK SMILES IDX 10 77 11 78 12 79 27 80 13 81 14 82 15 83 16 84 17 85 18 87
REMARK SMILES IDX 19 88 20 89 25 90 21 91 24 92 26 93 22 94 23 95
REMARK H PARENT 3 6 84 24 52 35 8 76 16 86
REMARK Flexibility Score: inf
ROOT
ATOM      1  C   UNL A   1      33.508  28.276  25.290  1.00  0.00     0.023 C 
ENDROOT
BRANCH   1   2
ATOM      2  C   UNL A   1      34.223  28.821  26.522  1.00  0.00     0.116 C 
BRANCH   2   3
ATOM      3  N   UNL A   1      33.842  30.184  26.861  1.00  0.00    -0.352 N 
ATOM      4  O   UNL A   1      33.949  32.167  27.926  1.00  0.00    -0.269 OA
ATOM      5  C   UNL A   1      34.472  31.080  27.694  1.00  0.00     0.251 C 
ATOM      6  H   UNL A   1      33.017  30.512  26.433  1.00  0.00     0.163 HD
BRANCH   5   7
ATOM      7  C   UNL A   1      35.754  30.717  28.340  1.00  0.00     0.039 A 
ATOM      8  C   UNL A   1      36.944  31.359  27.989  1.00  0.00     0.014 A 
ATOM      9  C   UNL A   1      35.763  29.701  29.300  1.00  0.00     0.014 A 
ATOM     10  C   UNL A   1      38.155  30.883  28.485  1.00  0.00     0.010 A 
ATOM     11  C   UNL A   1      36.976  29.268  29.845  1.00  0.00     0.010 A 
ATOM     12  C   UNL A   1      38.186  29.822  29.403  1.00  0.00    -0.014 A 
BRANCH  12  13
ATOM     13  C   UNL A   1      39.499  29.302  29.866  1.00  0.00     0.031 A 
ATOM     14  C   UNL A   1      40.149  29.854  31.108  1.00  0.00     0.074 A 
ATOM     15  C   UNL A   1      40.079  28.290  29.196  1.00  0.00     0.049 A 
ATOM     16  N   UNL A   1      41.250  29.471  31.705  1.00  0.00    -0.248 NA
ATOM     17  C   UNL A   1      39.482  30.993  31.755  1.00  0.00     0.031 C 
ATOM     18  C   UNL A   1      39.558  27.685  27.967  1.00  0.00     0.029 A 
ATOM     19  N   UNL A   1      41.215  27.571  29.465  1.00  0.00    -0.354 N 
ATOM     20  C   UNL A   1      41.421  30.332  32.783  1.00  0.00     0.074 A 
ATOM     21  C   UNL A   1      40.323  31.276  32.740  1.00  0.00     0.031 C 
ATOM     22  C   UNL A   1      40.344  26.656  27.618  1.00  0.00     0.029 A 
ATOM     23  C   UNL A   1      41.441  26.548  28.575  1.00  0.00     0.049 A 
ATOM     24  H   UNL A   1      41.812  27.768  30.223  1.00  0.00     0.167 HD
ATOM     25  C   UNL A   1      42.396  30.333  33.727  1.00  0.00     0.034 A 
ATOM     26  C   UNL A   1      42.417  25.621  28.536  1.00  0.00     0.034 A 
ATOM     27  C   UNL A   1      43.475  29.375  33.775  1.00  0.00     0.049 A 
ATOM     28  C   UNL A   1      43.466  25.618  29.612  1.00  0.00     0.074 A 
ATOM     29  C   UNL A   1      44.494  29.265  34.707  1.00  0.00     0.029 A 
ATOM     30  N   UNL A   1      43.675  28.359  32.850  1.00  0.00    -0.354 N 
ATOM     31  N   UNL A   1      43.601  26.430  30.633  1.00  0.00    -0.248 NA
ATOM     32  C   UNL A   1      44.487  24.567  29.532  1.00  0.00     0.031 C 
ATOM     33  C   UNL A   1      45.332  28.210  34.322  1.00  0.00     0.029 A 
ATOM     34  C   UNL A   1      44.808  27.630  33.178  1.00  0.00     0.049 A 
ATOM     35  H   UNL A   1      43.096  28.182  32.074  1.00  0.00     0.167 HD
ATOM     36  C   UNL A   1      44.722  25.982  31.324  1.00  0.00     0.074 A 
ATOM     37  C   UNL A   1      45.212  24.817  30.614  1.00  0.00     0.031 C 
ATOM     38  C   UNL A   1      45.296  26.488  32.445  1.00  0.00     0.034 A 
BRANCH  25  39
ATOM     39  C   UNL A   1      42.358  31.435  34.755  1.00  0.00     0.023 A 
ATOM     40  C   UNL A   1      41.365  31.487  35.748  1.00  0.00     0.031 A 
ATOM     41  C   UNL A   1      43.309  32.470  34.717  1.00  0.00     0.131 A 
ATOM     42  C   UNL A   1      41.306  32.586  36.621  1.00  0.00     0.055 A 
ATOM     43  C   UNL A   1      43.286  33.526  35.631  1.00  0.00     0.041 A 
ATOM     44  F   UNL A   1      44.269  32.481  33.777  1.00  0.00    -0.206 F 
ATOM     45  C   UNL A   1      42.271  33.596  36.581  1.00  0.00     0.022 A 
BRANCH  42  46
ATOM     46  S   UNL A   1      39.871  32.745  37.719  1.00  0.00     0.124 S 
ATOM     47  O   UNL A   1      40.492  32.632  39.037  1.00  0.00    -0.237 OA
ATOM     48  O   UNL A   1      39.351  34.062  37.369  1.00  0.00    -0.237 OA
ATOM     49  O   UNL A   1      39.023  31.617  37.340  1.00  0.00    -0.744 OA
ENDBRANCH  42  46
ENDBRANCH  25  39
BRANCH  26  50
ATOM     50  C   UNL A   1      42.446  24.619  27.439  1.00  0.00     0.023 A 
ATOM     51  C   UNL A   1      41.648  23.468  27.491  1.00  0.00     0.031 A 
ATOM     52  C   UNL A   1      43.282  24.803  26.325  1.00  0.00     0.131 A 
ATOM     53  C   UNL A   1      41.721  22.524  26.455  1.00  0.00     0.055 A 
ATOM     54  C   UNL A   1      43.327  23.879  25.282  1.00  0.00     0.041 A 
ATOM     55  F   UNL A   1      44.053  25.898  26.228  1.00  0.00    -0.206 F 
ATOM     56  C   UNL A   1      42.549  22.727  25.347  1.00  0.00     0.022 A 
BRANCH  53  57
ATOM     57  S   UNL A   1      40.743  21.004  26.594  1.00  0.00     0.124 S 
ATOM     58  O   UNL A   1      41.496  20.084  25.749  1.00  0.00    -0.237 OA
ATOM     59  O   UNL A   1      40.792  20.743  28.028  1.00  0.00    -0.237 OA
ATOM     60  O   UNL A   1      39.432  21.394  26.079  1.00  0.00    -0.744 OA
ENDBRANCH  53  57
ENDBRANCH  26  50
BRANCH  38  61
ATOM     61  C   UNL A   1      46.504  25.758  32.968  1.00  0.00     0.023 A 
ATOM     62  C   UNL A   1      47.773  25.938  32.391  1.00  0.00     0.031 A 
ATOM     63  C   UNL A   1      46.375  24.847  34.030  1.00  0.00     0.131 A 
ATOM     64  C   UNL A   1      48.858  25.177  32.847  1.00  0.00     0.055 A 
ATOM     65  C   UNL A   1      47.468  24.122  34.507  1.00  0.00     0.041 A 
ATOM     66  F   UNL A   1      45.183  24.640  34.611  1.00  0.00    -0.206 F 
ATOM     67  C   UNL A   1      48.716  24.276  33.907  1.00  0.00     0.022 A 
BRANCH  64  68
ATOM     68  S   UNL A   1      50.446  25.315  31.979  1.00  0.00     0.124 S 
ATOM     69  O   UNL A   1      50.790  23.915  31.746  1.00  0.00    -0.237 OA
ATOM     70  O   UNL A   1      50.085  26.087  30.794  1.00  0.00    -0.237 OA
ATOM     71  O   UNL A   1      51.301  26.012  32.937  1.00  0.00    -0.744 OA
ENDBRANCH  64  68
ENDBRANCH  38  61
ENDBRANCH  12  13
ENDBRANCH   5   7
ENDBRANCH   2   3
ENDBRANCH   1   2
BRANCH   1  72
ATOM     72  C   UNL A   1      32.806  29.312  24.409  1.00  0.00     0.023 C 
BRANCH  72  73
ATOM     73  C   UNL A   1      31.332  29.556  24.729  1.00  0.00     0.116 C 
BRANCH  73  74
ATOM     74  N   UNL A   1      30.533  29.771  23.537  1.00  0.00    -0.349 N 
ATOM     75  C   UNL A   1      30.076  28.839  22.633  1.00  0.00     0.286 C 
ATOM     76  H   UNL A   1      30.286  30.705  23.351  1.00  0.00     0.163 HD
ATOM     77  O   UNL A   1      29.463  29.232  21.642  1.00  0.00    -0.266 OA
BRANCH  75  78
ATOM     78  C   UNL A   1      30.334  27.448  22.909  1.00  0.00     0.191 A 
ATOM     79  C   UNL A   1      29.709  26.539  23.742  1.00  0.00     0.056 A 
ATOM     80  O   UNL A   1      31.395  26.851  22.291  1.00  0.00    -0.454 OA
ATOM     81  C   UNL A   1      30.436  25.327  23.637  1.00  0.00     0.048 A 
ATOM     82  C   UNL A   1      31.460  25.568  22.745  1.00  0.00     0.124 A 
BRANCH  82  83
ATOM     83  C   UNL A   1      32.594  24.762  22.244  1.00  0.00     0.191 C 
BRANCH  83  84
ATOM     84  N   UNL A   1      32.322  23.354  22.450  1.00  0.00    -0.345 N 
ATOM     85  C   UNL A   1      33.032  22.453  23.201  1.00  0.00     0.252 C 
ATOM     86  H   UNL A   1      31.527  22.999  21.992  1.00  0.00     0.164 HD
ATOM     87  O   UNL A   1      32.652  21.295  23.327  1.00  0.00    -0.269 OA
BRANCH  85  88
ATOM     88  C   UNL A   1      34.245  22.906  23.906  1.00  0.00     0.054 A 
ATOM     89  C   UNL A   1      35.473  22.824  23.229  1.00  0.00     0.018 A 
ATOM     90  C   UNL A   1      34.189  23.419  25.208  1.00  0.00     0.033 A 
ATOM     91  C   UNL A   1      36.644  23.225  23.869  1.00  0.00     0.040 A 
ATOM     92  C   UNL A   1      35.367  23.828  25.841  1.00  0.00     0.055 A 
ATOM     93  Br  UNL A   1      32.570  23.558  26.186  1.00  0.00    -0.050 Br
ATOM     94  C   UNL A   1      36.578  23.721  25.167  1.00  0.00     0.124 A 
ATOM     95  F   UNL A   1      37.708  24.107  25.776  1.00  0.00    -0.207 F 
ENDBRANCH  85  88
ENDBRANCH  83  84
ENDBRANCH  82  83
ENDBRANCH  75  78
ENDBRANCH  73  74
ENDBRANCH  72  73
ENDBRANCH   1  72
TORSDOF 17
ENDMDL
MODEL 2
REMARK VINA RESULT:     -12.0      4.129      9.568
REMARK SMILES O=C(NCCCCNC(=O)c1ccc(CNC(=O)c2ccc(F)cc2Br)o1)c1ccc(-c2c3nc(c(-c4cc(S(=O)(=O)[O-])ccc4F)c4ccc([nH]4)c(-c4cc(S(=O)(=O)[O-])ccc4F)c4nc(c(-c5cc(S(=O)(=O)[O-])ccc5F)c5ccc2[nH]5)C=C4)C=C3)cc1
REMARK SMILES IDX 5 1 4 2 3 3 1 4 2 5 28 7 29 8 90 9 30 10 89 11 31 12 32 13
REMARK SMILES IDX 33 14 83 15 34 16 88 17 82 18 84 19 35 20 87 21 81 22 80 23
REMARK SMILES IDX 36 25 68 26 48 27 67 28 49 29 52 30 66 31 85 32 50 33 51 34
REMARK SMILES IDX 65 36 86 37 53 38 37 39 38 40 46 41 39 42 45 43 47 44 44 45
REMARK SMILES IDX 40 46 41 47 42 48 43 49 69 50 70 51 78 52 71 53 77 54 79 55
REMARK SMILES IDX 76 56 72 57 73 58 74 59 75 60 54 61 55 62 63 63 56 64 62 65
REMARK SMILES IDX 64 66 61 67 57 68 58 69 59 70 60 71 6 72 7 73 8 74 9 75
REMARK SMILES IDX 10 77 11 78 12 79 27 80 13 81 14 82 15 83 16 84 17 85 18 87
REMARK SMILES IDX 19 88 20 89 25 90 21 91 24 92 26 93 22 94 23 95
REMARK H PARENT 3 6 84 24 52 35 8 76 16 86
REMARK Flexibility Score: inf
ROOT
ATOM      1  C   UNL A   1      35.451  22.808  25.691  1.00  0.00     0.023 C 
ENDROOT
BRANCH   1   2
ATOM      2  C   UNL A   1      36.840  23.410  25.500  1.00  0.00     0.116 C 
BRANCH   2   3
ATOM      3  N   UNL A   1      37.921  22.503  25.861  1.00  0.00    -0.352 N 
ATOM      4  O   UNL A   1      39.942  21.891  26.648  1.00  0.00    -0.269 OA
ATOM      5  C   UNL A   1      39.106  22.779  26.505  1.00  0.00     0.251 C 
ATOM      6  H   UNL A   1      37.785  21.561  25.609  1.00  0.00     0.163 HD
BRANCH   5   7
ATOM      7  C   UNL A   1      39.387  24.151  26.986  1.00  0.00     0.039 A 
ATOM      8  C   UNL A   1      39.968  25.104  26.147  1.00  0.00     0.014 A 
ATOM      9  C   UNL A   1      39.078  24.479  28.310  1.00  0.00     0.014 A 
ATOM     10  C   UNL A   1      40.376  26.328  26.672  1.00  0.00     0.010 A 
ATOM     11  C   UNL A   1      39.431  25.733  28.818  1.00  0.00     0.010 A 
ATOM     12  C   UNL A   1      40.129  26.648  28.016  1.00  0.00    -0.014 A 
BRANCH  12  13
ATOM     13  C   UNL A   1      40.630  27.938  28.557  1.00  0.00     0.031 A 
ATOM     14  C   UNL A   1      42.104  28.247  28.564  1.00  0.00     0.074 A 
ATOM     15  C   UNL A   1      39.748  28.857  28.991  1.00  0.00     0.049 A 
ATOM     16  N   UNL A   1      42.717  29.348  28.921  1.00  0.00    -0.248 NA
ATOM     17  C   UNL A   1      43.009  27.175  28.124  1.00  0.00     0.031 C 
ATOM     18  C   UNL A   1      38.297  28.667  29.055  1.00  0.00     0.029 A 
ATOM     19  N   UNL A   1      39.935  30.141  29.433  1.00  0.00    -0.354 N 
ATOM     20  C   UNL A   1      44.077  29.096  28.772  1.00  0.00     0.074 A 
ATOM     21  C   UNL A   1      44.198  27.726  28.317  1.00  0.00     0.031 C 
ATOM     22  C   UNL A   1      37.723  29.810  29.461  1.00  0.00     0.029 A 
ATOM     23  C   UNL A   1      38.763  30.800  29.718  1.00  0.00     0.049 A 
ATOM     24  H   UNL A   1      40.824  30.553  29.536  1.00  0.00     0.167 HD
ATOM     25  C   UNL A   1      45.126  29.930  28.985  1.00  0.00     0.034 A 
ATOM     26  C   UNL A   1      38.548  32.063  30.133  1.00  0.00     0.034 A 
ATOM     27  C   UNL A   1      44.995  31.300  29.418  1.00  0.00     0.049 A 
ATOM     28  C   UNL A   1      39.722  32.980  30.327  1.00  0.00     0.074 A 
ATOM     29  C   UNL A   1      45.989  32.241  29.630  1.00  0.00     0.029 A 
ATOM     30  N   UNL A   1      43.790  31.930  29.706  1.00  0.00    -0.354 N 
ATOM     31  N   UNL A   1      40.999  32.729  30.164  1.00  0.00    -0.248 NA
ATOM     32  C   UNL A   1      39.422  34.352  30.753  1.00  0.00     0.031 C 
ATOM     33  C   UNL A   1      45.390  33.423  30.085  1.00  0.00     0.029 A 
ATOM     34  C   UNL A   1      44.018  33.237  30.109  1.00  0.00     0.049 A 
ATOM     35  H   UNL A   1      42.904  31.508  29.633  1.00  0.00     0.167 HD
ATOM     36  C   UNL A   1      41.657  33.917  30.461  1.00  0.00     0.074 A 
ATOM     37  C   UNL A   1      40.633  34.889  30.794  1.00  0.00     0.031 C 
ATOM     38  C   UNL A   1      42.988  34.183  30.461  1.00  0.00     0.034 A 
BRANCH  25  39
ATOM     39  C   UNL A   1      46.508  29.359  28.794  1.00  0.00     0.023 A 
ATOM     40  C   UNL A   1      47.056  29.156  27.516  1.00  0.00     0.031 A 
ATOM     41  C   UNL A   1      47.276  28.977  29.909  1.00  0.00     0.131 A 
ATOM     42  C   UNL A   1      48.304  28.526  27.381  1.00  0.00     0.055 A 
ATOM     43  C   UNL A   1      48.546  28.414  29.771  1.00  0.00     0.041 A 
ATOM     44  F   UNL A   1      46.795  29.131  31.154  1.00  0.00    -0.206 F 
ATOM     45  C   UNL A   1      49.061  28.172  28.501  1.00  0.00     0.022 A 
BRANCH  42  46
ATOM     46  S   UNL A   1      48.862  28.054  25.721  1.00  0.00     0.124 S 
ATOM     47  O   UNL A   1      49.070  26.616  25.875  1.00  0.00    -0.237 OA
ATOM     48  O   UNL A   1      47.735  28.452  24.886  1.00  0.00    -0.237 OA
ATOM     49  O   UNL A   1      50.083  28.835  25.536  1.00  0.00    -0.744 OA
ENDBRANCH  42  46
ENDBRANCH  25  39
BRANCH  26  50
ATOM     50  C   UNL A   1      37.162  32.532  30.391  1.00  0.00     0.023 A 
ATOM     51  C   UNL A   1      36.293  32.839  29.335  1.00  0.00     0.031 A 
ATOM     52  C   UNL A   1      36.693  32.686  31.708  1.00  0.00     0.131 A 
ATOM     53  C   UNL A   1      35.001  33.311  29.611  1.00  0.00     0.055 A 
ATOM     54  C   UNL A   1      35.397  33.124  31.978  1.00  0.00     0.041 A 
ATOM     55  F   UNL A   1      37.487  32.392  32.749  1.00  0.00    -0.206 F 
ATOM     56  C   UNL A   1      34.545  33.447  30.925  1.00  0.00     0.022 A 
BRANCH  53  57
ATOM     57  S   UNL A   1      33.933  33.781  28.224  1.00  0.00     0.124 S 
ATOM     58  O   UNL A   1      32.903  34.569  28.892  1.00  0.00    -0.237 OA
ATOM     59  O   UNL A   1      34.855  34.523  27.371  1.00  0.00    -0.237 OA
ATOM     60  O   UNL A   1      33.488  32.498  27.686  1.00  0.00    -0.744 OA
ENDBRANCH  53  57
ENDBRANCH  26  50
BRANCH  38  61
ATOM     61  C   UNL A   1      43.391  35.589  30.813  1.00  0.00     0.023 A 
ATOM     62  C   UNL A   1      43.494  36.006  32.151  1.00  0.00     0.031 A 
ATOM     63  C   UNL A   1      43.640  36.529  29.799  1.00  0.00     0.131 A 
ATOM     64  C   UNL A   1      43.787  37.347  32.441  1.00  0.00     0.055 A 
ATOM     65  C   UNL A   1      43.971  37.852  30.093  1.00  0.00     0.041 A 
ATOM     66  F   UNL A   1      43.551  36.178  28.506  1.00  0.00    -0.206 F 
ATOM     67  C   UNL A   1      44.035  38.270  31.421  1.00  0.00     0.022 A 
BRANCH  64  68
ATOM     68  S   UNL A   1      43.756  37.891  34.172  1.00  0.00     0.124 S 
ATOM     69  O   UNL A   1      44.700  36.969  34.799  1.00  0.00    -0.237 OA
ATOM     70  O   UNL A   1      44.195  39.279  34.068  1.00  0.00    -0.237 OA
ATOM     71  O   UNL A   1      42.360  37.709  34.564  1.00  0.00    -0.744 OA
ENDBRANCH  64  68
ENDBRANCH  38  61
ENDBRANCH  12  13
ENDBRANCH   5   7
ENDBRANCH   2   3
ENDBRANCH   1   2
BRANCH   1  72
ATOM     72  C   UNL A   1      35.408  21.324  26.062  1.00  0.00     0.023 C 
BRANCH  72  73
ATOM     73  C   UNL A   1      35.229  20.359  24.891  1.00  0.00     0.116 C 
BRANCH  73  74
ATOM     74  N   UNL A   1      34.168  19.395  25.124  1.00  0.00    -0.349 N 
ATOM     75  C   UNL A   1      32.808  19.581  25.035  1.00  0.00     0.286 C 
ATOM     76  H   UNL A   1      34.462  18.491  25.378  1.00  0.00     0.163 HD
ATOM     77  O   UNL A   1      32.066  18.649  25.338  1.00  0.00    -0.266 OA
BRANCH  75  78
ATOM     78  C   UNL A   1      32.330  20.862  24.579  1.00  0.00     0.191 A 
ATOM     79  C   UNL A   1      32.311  21.451  23.328  1.00  0.00     0.056 A 
ATOM     80  O   UNL A   1      31.807  21.725  25.500  1.00  0.00    -0.454 OA
ATOM     81  C   UNL A   1      31.763  22.746  23.498  1.00  0.00     0.048 A 
ATOM     82  C   UNL A   1      31.476  22.871  24.842  1.00  0.00     0.124 A 
BRANCH  82  83
ATOM     83  C   UNL A   1      30.951  23.970  25.680  1.00  0.00     0.191 C 
BRANCH  83  84
ATOM     84  N   UNL A   1      30.207  24.900  24.857  1.00  0.00    -0.345 N 
ATOM     85  C   UNL A   1      30.402  26.249  24.712  1.00  0.00     0.252 C 
ATOM     86  H   UNL A   1      29.467  24.515  24.335  1.00  0.00     0.164 HD
ATOM     87  O   UNL A   1      29.722  26.909  23.935  1.00  0.00    -0.269 OA
BRANCH  85  88
ATOM     88  C   UNL A   1      31.483  26.904  25.473  1.00  0.00     0.054 A 
ATOM     89  C   UNL A   1      31.168  27.464  26.722  1.00  0.00     0.018 A 
ATOM     90  C   UNL A   1      32.795  26.958  24.984  1.00  0.00     0.033 A 
ATOM     91  C   UNL A   1      32.159  28.107  27.461  1.00  0.00     0.040 A 
ATOM     92  C   UNL A   1      33.786  27.597  25.736  1.00  0.00     0.055 A 
ATOM     93  Br  UNL A   1      33.296  26.226  23.308  1.00  0.00    -0.050 Br
ATOM     94  C   UNL A   1      33.456  28.167  26.960  1.00  0.00     0.124 A 
ATOM     95  F   UNL A   1      34.404  28.784  27.677  1.00  0.00    -0.207 F 
ENDBRANCH  85  88
ENDBRANCH  83  84
ENDBRANCH  82  83
ENDBRANCH  75  78
ENDBRANCH  73  74
ENDBRANCH  72  73
ENDBRANCH   1  72
TORSDOF 17
ENDMDL
MODEL 3
REMARK VINA RESULT:     -11.9      2.814      3.597
REMARK SMILES O=C(NCCCCNC(=O)c1ccc(CNC(=O)c2ccc(F)cc2Br)o1)c1ccc(-c2c3nc(c(-c4cc(S(=O)(=O)[O-])ccc4F)c4ccc([nH]4)c(-c4cc(S(=O)(=O)[O-])ccc4F)c4nc(c(-c5cc(S(=O)(=O)[O-])ccc5F)c5ccc2[nH]5)C=C4)C=C3)cc1
REMARK SMILES IDX 5 1 4 2 3 3 1 4 2 5 28 7 29 8 90 9 30 10 89 11 31 12 32 13
REMARK SMILES IDX 33 14 83 15 34 16 88 17 82 18 84 19 35 20 87 21 81 22 80 23
REMARK SMILES IDX 36 25 68 26 48 27 67 28 49 29 52 30 66 31 85 32 50 33 51 34
REMARK SMILES IDX 65 36 86 37 53 38 37 39 38 40 46 41 39 42 45 43 47 44 44 45
REMARK SMILES IDX 40 46 41 47 42 48 43 49 69 50 70 51 78 52 71 53 77 54 79 55
REMARK SMILES IDX 76 56 72 57 73 58 74 59 75 60 54 61 55 62 63 63 56 64 62 65
REMARK SMILES IDX 64 66 61 67 57 68 58 69 59 70 60 71 6 72 7 73 8 74 9 75
REMARK SMILES IDX 10 77 11 78 12 79 27 80 13 81 14 82 15 83 16 84 17 85 18 87
REMARK SMILES IDX 19 88 20 89 25 90 21 91 24 92 26 93 22 94 23 95
REMARK H PARENT 3 6 84 24 52 35 8 76 16 86
REMARK Flexibility Score: inf
ROOT
ATOM      1  C   UNL A   1      31.411  29.534  26.699  1.00  0.00     0.023 C 
ENDROOT
BRANCH   1   2
ATOM      2  C   UNL A   1      32.480  30.507  26.211  1.00  0.00     0.116 C 
BRANCH   2   3
ATOM      3  N   UNL A   1      32.272  31.875  26.666  1.00  0.00    -0.352 N 
ATOM      4  O   UNL A   1      32.682  33.762  27.827  1.00  0.00    -0.269 OA
ATOM      5  C   UNL A   1      33.067  32.649  27.479  1.00  0.00     0.251 C 
ATOM      6  H   UNL A   1      31.446  32.306  26.345  1.00  0.00     0.163 HD
BRANCH   5   7
ATOM      7  C   UNL A   1      34.364  32.124  27.967  1.00  0.00     0.039 A 
ATOM      8  C   UNL A   1      34.494  30.796  28.378  1.00  0.00     0.014 A 
ATOM      9  C   UNL A   1      35.461  32.988  28.029  1.00  0.00     0.014 A 
ATOM     10  C   UNL A   1      35.673  30.377  28.988  1.00  0.00     0.010 A 
ATOM     11  C   UNL A   1      36.666  32.546  28.585  1.00  0.00     0.010 A 
ATOM     12  C   UNL A   1      36.764  31.251  29.115  1.00  0.00    -0.014 A 
BRANCH  12  13
ATOM     13  C   UNL A   1      37.985  30.788  29.825  1.00  0.00     0.031 A 
ATOM     14  C   UNL A   1      38.239  31.185  31.255  1.00  0.00     0.074 A 
ATOM     15  C   UNL A   1      38.838  29.960  29.194  1.00  0.00     0.049 A 
ATOM     16  N   UNL A   1      39.205  30.813  32.058  1.00  0.00    -0.248 NA
ATOM     17  C   UNL A   1      37.291  32.132  31.859  1.00  0.00     0.031 C 
ATOM     18  C   UNL A   1      38.712  29.521  27.802  1.00  0.00     0.029 A 
ATOM     19  N   UNL A   1      39.962  29.317  29.645  1.00  0.00    -0.354 N 
ATOM     20  C   UNL A   1      38.997  31.496  33.251  1.00  0.00     0.074 A 
ATOM     21  C   UNL A   1      37.825  32.326  33.056  1.00  0.00     0.031 C 
ATOM     22  C   UNL A   1      39.689  28.643  27.529  1.00  0.00     0.029 A 
ATOM     23  C   UNL A   1      40.529  28.481  28.712  1.00  0.00     0.049 A 
ATOM     24  H   UNL A   1      40.328  29.440  30.551  1.00  0.00     0.167 HD
ATOM     25  C   UNL A   1      39.708  31.431  34.405  1.00  0.00     0.034 A 
ATOM     26  C   UNL A   1      41.599  27.670  28.800  1.00  0.00     0.034 A 
ATOM     27  C   UNL A   1      40.861  30.585  34.598  1.00  0.00     0.049 A 
ATOM     28  C   UNL A   1      42.351  27.588  30.099  1.00  0.00     0.074 A 
ATOM     29  C   UNL A   1      41.633  30.418  35.736  1.00  0.00     0.029 A 
ATOM     30  N   UNL A   1      41.411  29.760  33.625  1.00  0.00    -0.354 N 
ATOM     31  N   UNL A   1      42.128  28.228  31.221  1.00  0.00    -0.248 NA
ATOM     32  C   UNL A   1      43.491  26.665  30.141  1.00  0.00     0.031 C 
ATOM     33  C   UNL A   1      42.671  29.526  35.439  1.00  0.00     0.029 A 
ATOM     34  C   UNL A   1      42.519  29.097  34.130  1.00  0.00     0.049 A 
ATOM     35  H   UNL A   1      41.064  29.661  32.709  1.00  0.00     0.167 HD
ATOM     36  C   UNL A   1      43.099  27.779  32.109  1.00  0.00     0.074 A 
ATOM     37  C   UNL A   1      43.896  26.800  31.396  1.00  0.00     0.031 C 
ATOM     38  C   UNL A   1      43.315  28.144  33.398  1.00  0.00     0.034 A 
BRANCH  25  39
ATOM     39  C   UNL A   1      39.279  32.339  35.530  1.00  0.00     0.023 A 
ATOM     40  C   UNL A   1      39.714  33.673  35.612  1.00  0.00     0.031 A 
ATOM     41  C   UNL A   1      38.449  31.851  36.555  1.00  0.00     0.131 A 
ATOM     42  C   UNL A   1      39.373  34.452  36.730  1.00  0.00     0.055 A 
ATOM     43  C   UNL A   1      38.058  32.652  37.630  1.00  0.00     0.041 A 
ATOM     44  F   UNL A   1      38.019  30.579  36.537  1.00  0.00    -0.206 F 
ATOM     45  C   UNL A   1      38.532  33.957  37.729  1.00  0.00     0.022 A 
BRANCH  42  46
ATOM     46  S   UNL A   1      40.155  36.077  36.925  1.00  0.00     0.124 S 
ATOM     47  O   UNL A   1      41.548  35.709  37.169  1.00  0.00    -0.237 OA
ATOM     48  O   UNL A   1      39.879  36.715  35.643  1.00  0.00    -0.237 OA
ATOM     49  O   UNL A   1      39.462  36.656  38.073  1.00  0.00    -0.744 OA
ENDBRANCH  42  46
ENDBRANCH  25  39
BRANCH  26  50
ATOM     50  C   UNL A   1      42.023  26.871  27.620  1.00  0.00     0.023 A 
ATOM     51  C   UNL A   1      41.737  25.502  27.534  1.00  0.00     0.031 A 
ATOM     52  C   UNL A   1      42.729  27.475  26.565  1.00  0.00     0.131 A 
ATOM     53  C   UNL A   1      42.179  24.768  26.423  1.00  0.00     0.055 A 
ATOM     54  C   UNL A   1      43.138  26.748  25.447  1.00  0.00     0.041 A 
ATOM     55  F   UNL A   1      43.013  28.786  26.600  1.00  0.00    -0.206 F 
ATOM     56  C   UNL A   1      42.869  25.384  25.375  1.00  0.00     0.022 A 
BRANCH  53  57
ATOM     57  S   UNL A   1      41.869  22.982  26.383  1.00  0.00     0.124 S 
ATOM     58  O   UNL A   1      42.546  22.533  27.594  1.00  0.00    -0.237 OA
ATOM     59  O   UNL A   1      40.412  22.927  26.405  1.00  0.00    -0.237 OA
ATOM     60  O   UNL A   1      42.487  22.558  25.128  1.00  0.00    -0.744 OA
ENDBRANCH  53  57
ENDBRANCH  26  50
BRANCH  38  61
ATOM     61  C   UNL A   1      44.449  27.454  34.110  1.00  0.00     0.023 A 
ATOM     62  C   UNL A   1      44.230  26.307  34.891  1.00  0.00     0.031 A 
ATOM     63  C   UNL A   1      45.752  27.972  34.033  1.00  0.00     0.131 A 
ATOM     64  C   UNL A   1      45.294  25.742  35.609  1.00  0.00     0.055 A 
ATOM     65  C   UNL A   1      46.815  27.382  34.717  1.00  0.00     0.041 A 
ATOM     66  F   UNL A   1      46.009  29.068  33.301  1.00  0.00    -0.206 F 
ATOM     67  C   UNL A   1      46.586  26.267  35.521  1.00  0.00     0.022 A 
BRANCH  64  68
ATOM     68  S   UNL A   1      44.950  24.359  36.733  1.00  0.00     0.124 S 
ATOM     69  O   UNL A   1      43.879  24.901  37.565  1.00  0.00    -0.237 OA
ATOM     70  O   UNL A   1      44.563  23.298  35.809  1.00  0.00    -0.237 OA
ATOM     71  O   UNL A   1      46.222  24.150  37.420  1.00  0.00    -0.744 OA
ENDBRANCH  64  68
ENDBRANCH  38  61
ENDBRANCH  12  13
ENDBRANCH   5   7
ENDBRANCH   2   3
ENDBRANCH   1   2
BRANCH   1  72
ATOM     72  C   UNL A   1      31.920  28.213  27.280  1.00  0.00     0.023 C 
BRANCH  72  73
ATOM     73  C   UNL A   1      33.220  27.688  26.673  1.00  0.00     0.116 C 
BRANCH  73  74
ATOM     74  N   UNL A   1      33.096  27.401  25.256  1.00  0.00    -0.349 N 
ATOM     75  C   UNL A   1      32.664  26.242  24.652  1.00  0.00     0.286 C 
ATOM     76  H   UNL A   1      33.355  28.130  24.648  1.00  0.00     0.163 HD
ATOM     77  O   UNL A   1      32.694  26.172  23.425  1.00  0.00    -0.266 OA
BRANCH  75  78
ATOM     78  C   UNL A   1      32.188  25.176  25.498  1.00  0.00     0.191 A 
ATOM     79  C   UNL A   1      30.925  24.857  25.961  1.00  0.00     0.056 A 
ATOM     80  O   UNL A   1      33.098  24.290  25.998  1.00  0.00    -0.454 OA
ATOM     81  C   UNL A   1      31.075  23.725  26.799  1.00  0.00     0.048 A 
ATOM     82  C   UNL A   1      32.420  23.419  26.797  1.00  0.00     0.124 A 
BRANCH  82  83
ATOM     83  C   UNL A   1      33.244  22.409  27.497  1.00  0.00     0.191 C 
BRANCH  83  84
ATOM     84  N   UNL A   1      32.973  21.095  26.952  1.00  0.00    -0.345 N 
ATOM     85  C   UNL A   1      33.488  20.522  25.819  1.00  0.00     0.252 C 
ATOM     86  H   UNL A   1      32.336  20.542  27.461  1.00  0.00     0.164 HD
ATOM     87  O   UNL A   1      33.205  19.372  25.504  1.00  0.00    -0.269 OA
BRANCH  85  88
ATOM     88  C   UNL A   1      34.437  21.293  24.994  1.00  0.00     0.054 A 
ATOM     89  C   UNL A   1      35.793  21.279  25.359  1.00  0.00     0.018 A 
ATOM     90  C   UNL A   1      34.015  22.009  23.867  1.00  0.00     0.033 A 
ATOM     91  C   UNL A   1      36.716  22.011  24.614  1.00  0.00     0.040 A 
ATOM     92  C   UNL A   1      34.949  22.733  23.119  1.00  0.00     0.055 A 
ATOM     93  Br  UNL A   1      32.202  22.076  23.314  1.00  0.00    -0.050 Br
ATOM     94  C   UNL A   1      36.285  22.730  23.504  1.00  0.00     0.124 A 
ATOM     95  F   UNL A   1      37.178  23.429  22.791  1.00  0.00    -0.207 F 
ENDBRANCH  85  88
ENDBRANCH  83  84
ENDBRANCH  82  83
ENDBRANCH  75  78
ENDBRANCH  73  74
ENDBRANCH  72  73
ENDBRANCH   1  72
TORSDOF 17
ENDMDL
