MODEL 1
REMARK VINA RESULT:     -12.7      0.000      0.000
REMARK SMILES CN(C)C(=O)c1cccc(N2CCC3(CC2)[C@H](C(=O)NCCCCNC(=O)c2ccc(-c4c5nc(c(-c6cc(S(=O)(=O)[O-])ccc6F)c6ccc([nH]6)c(-c6cc(S(=O)(=O)[O-])ccc6F)c6nc(c(-c7cc(S(=O)(=O)[O-])ccc7F)c7ccc4[nH]7)C=C6)C=C5)cc2)CC(=O)N3C)n1
REMARK SMILES IDX 23 1 22 2 21 3 20 4 18 5 19 6 17 8 11 9 12 10 16 11 13 12
REMARK SMILES IDX 15 13 14 14 94 15 91 16 92 17 95 18 93 19 10 20 6 21 7 22
REMARK SMILES IDX 96 23 8 24 9 25 4 26 1 27 2 28 3 29 5 30 24 31 25 32 26 33
REMARK SMILES IDX 27 35 28 36 29 37 90 38 30 39 89 40 31 41 32 42 33 43 83 44
REMARK SMILES IDX 34 45 88 46 82 47 84 48 35 49 87 50 81 51 80 52 36 54 68 55
REMARK SMILES IDX 48 56 67 57 49 58 52 59 66 60 85 61 50 62 51 63 65 65 86 66
REMARK SMILES IDX 53 67 37 68 38 69 46 70 39 71 45 72 47 73 44 74 40 75 41 76
REMARK SMILES IDX 42 77 43 78 69 79 70 80 78 81 71 82 77 83 79 84 76 85 72 86
REMARK SMILES IDX 73 87 74 88 75 89 54 90 55 91 63 92 56 93 62 94 64 95 61 96
REMARK SMILES IDX 57 97 58 98 59 99 60 100
REMARK H PARENT 20 7 25 34 84 53 52 64
REMARK Flexibility Score: inf
ROOT
ATOM      1  C   UNL A   1      34.249  32.128  27.350  1.00  0.00     0.023 C 
ENDROOT
BRANCH   1   2
ATOM      2  C   UNL A   1      34.663  30.949  28.221  1.00  0.00     0.023 C 
BRANCH   2   3
ATOM      3  C   UNL A   1      34.437  29.577  27.569  1.00  0.00     0.116 C 
BRANCH   3   4
ATOM      4  N   UNL A   1      33.118  29.000  27.795  1.00  0.00    -0.356 N 
ATOM      5  C   UNL A   1      32.154  28.526  26.961  1.00  0.00     0.226 C 
ATOM      6  O   UNL A   1      31.141  28.057  27.493  1.00  0.00    -0.275 OA
ATOM      7  H   UNL A   1      32.874  28.942  28.747  1.00  0.00     0.163 HD
BRANCH   5   8
ATOM      8  C   UNL A   1      32.237  28.542  25.430  1.00  0.00     0.113 C 
ATOM      9  N   UNL A   1      31.801  24.542  23.873  1.00  0.00    -0.356 N 
ATOM     10  C   UNL A   1      30.918  24.891  24.960  1.00  0.00     0.120 C 
ATOM     11  C   UNL A   1      32.156  25.530  22.864  1.00  0.00     0.120 C 
ATOM     12  C   UNL A   1      31.514  26.126  25.596  1.00  0.00     0.051 C 
ATOM     13  C   UNL A   1      32.542  26.887  23.489  1.00  0.00     0.051 C 
ATOM     14  C   UNL A   1      31.613  27.341  24.654  1.00  0.00     0.058 C 
ATOM     15  N   UNL A   1      30.391  27.965  24.104  1.00  0.00    -0.339 N 
ATOM     16  C   UNL A   1      31.637  29.819  24.857  1.00  0.00     0.116 C 
ATOM     17  C   UNL A   1      30.408  29.358  24.139  1.00  0.00     0.223 C 
ATOM     18  C   UNL A   1      29.278  27.304  23.448  1.00  0.00     0.147 C 
ATOM     19  O   UNL A   1      29.557  30.105  23.684  1.00  0.00    -0.275 OA
BRANCH   9  20
ATOM     20  C   UNL A   1      32.344  23.280  23.935  1.00  0.00     0.129 A 
ATOM     21  C   UNL A   1      34.136  21.898  24.481  1.00  0.00     0.130 A 
ATOM     22  C   UNL A   1      33.509  20.781  23.945  1.00  0.00     0.034 A 
ATOM     23  N   UNL A   1      33.575  23.136  24.469  1.00  0.00    -0.226 NA
ATOM     24  C   UNL A   1      32.270  20.950  23.341  1.00  0.00     0.006 A 
ATOM     25  C   UNL A   1      31.679  22.208  23.351  1.00  0.00     0.047 A 
BRANCH  21  26
ATOM     26  C   UNL A   1      35.428  21.763  25.234  1.00  0.00     0.272 C 
ATOM     27  C   UNL A   1      37.865  21.681  25.322  1.00  0.00     0.146 C 
ATOM     28  N   UNL A   1      36.653  22.010  24.592  1.00  0.00    -0.343 N 
ATOM     29  C   UNL A   1      36.812  22.721  23.333  1.00  0.00     0.146 C 
ATOM     30  O   UNL A   1      35.387  21.380  26.406  1.00  0.00    -0.267 OA
ENDBRANCH  21  26
ENDBRANCH   9  20
ENDBRANCH   5   8
ENDBRANCH   3   4
ENDBRANCH   2   3
ENDBRANCH   1   2
BRANCH   1  31
ATOM     31  C   UNL A   1      32.875  32.657  27.713  1.00  0.00     0.116 C 
BRANCH  31  32
ATOM     32  N   UNL A   1      32.875  34.112  27.829  1.00  0.00    -0.352 N 
ATOM     33  C   UNL A   1      33.512  34.901  28.747  1.00  0.00     0.251 C 
ATOM     34  H   UNL A   1      32.344  34.591  27.152  1.00  0.00     0.163 HD
ATOM     35  O   UNL A   1      33.190  36.078  28.880  1.00  0.00    -0.269 OA
BRANCH  33  36
ATOM     36  C   UNL A   1      34.575  34.301  29.569  1.00  0.00     0.039 A 
ATOM     37  C   UNL A   1      34.237  33.556  30.696  1.00  0.00     0.014 A 
ATOM     38  C   UNL A   1      35.909  34.453  29.181  1.00  0.00     0.014 A 
ATOM     39  C   UNL A   1      35.248  32.925  31.416  1.00  0.00     0.010 A 
ATOM     40  C   UNL A   1      36.894  33.720  29.818  1.00  0.00     0.010 A 
ATOM     41  C   UNL A   1      36.579  32.981  30.965  1.00  0.00    -0.014 A 
BRANCH  41  42
ATOM     42  C   UNL A   1      37.669  32.323  31.718  1.00  0.00     0.031 A 
ATOM     43  C   UNL A   1      38.424  31.184  31.089  1.00  0.00     0.074 A 
ATOM     44  C   UNL A   1      37.948  32.727  32.971  1.00  0.00     0.049 A 
ATOM     45  N   UNL A   1      39.407  30.472  31.576  1.00  0.00    -0.248 NA
ATOM     46  C   UNL A   1      37.984  30.760  29.750  1.00  0.00     0.031 C 
ATOM     47  C   UNL A   1      37.239  33.782  33.697  1.00  0.00     0.029 A 
ATOM     48  N   UNL A   1      38.912  32.308  33.849  1.00  0.00    -0.354 N 
ATOM     49  C   UNL A   1      39.695  29.517  30.605  1.00  0.00     0.074 A 
ATOM     50  C   UNL A   1      38.710  29.673  29.558  1.00  0.00     0.031 C 
ATOM     51  C   UNL A   1      37.834  33.973  34.884  1.00  0.00     0.029 A 
ATOM     52  C   UNL A   1      38.934  33.025  35.022  1.00  0.00     0.049 A 
ATOM     53  H   UNL A   1      39.529  31.565  33.659  1.00  0.00     0.167 HD
ATOM     54  C   UNL A   1      40.714  28.624  30.568  1.00  0.00     0.034 A 
ATOM     55  C   UNL A   1      39.763  32.932  36.079  1.00  0.00     0.034 A 
ATOM     56  C   UNL A   1      41.682  28.490  31.628  1.00  0.00     0.049 A 
ATOM     57  C   UNL A   1      40.871  31.913  36.035  1.00  0.00     0.074 A 
ATOM     58  C   UNL A   1      42.776  27.647  31.700  1.00  0.00     0.029 A 
ATOM     59  N   UNL A   1      41.664  29.220  32.813  1.00  0.00    -0.354 N 
ATOM     60  N   UNL A   1      41.170  31.051  35.091  1.00  0.00    -0.248 NA
ATOM     61  C   UNL A   1      41.766  31.873  37.196  1.00  0.00     0.031 C 
ATOM     62  C   UNL A   1      43.373  27.812  32.956  1.00  0.00     0.029 A 
ATOM     63  C   UNL A   1      42.710  28.824  33.634  1.00  0.00     0.049 A 
ATOM     64  H   UNL A   1      41.005  29.915  33.036  1.00  0.00     0.167 HD
ATOM     65  C   UNL A   1      42.313  30.389  35.529  1.00  0.00     0.074 A 
ATOM     66  C   UNL A   1      42.654  30.968  36.814  1.00  0.00     0.031 C 
ATOM     67  C   UNL A   1      43.023  29.400  34.924  1.00  0.00     0.034 A 
BRANCH  54  68
ATOM     68  C   UNL A   1      40.791  27.723  29.354  1.00  0.00     0.023 A 
ATOM     69  C   UNL A   1      41.733  27.945  28.330  1.00  0.00     0.031 A 
ATOM     70  C   UNL A   1      39.860  26.687  29.169  1.00  0.00     0.131 A 
ATOM     71  C   UNL A   1      41.644  27.229  27.127  1.00  0.00     0.055 A 
ATOM     72  C   UNL A   1      39.848  25.904  28.012  1.00  0.00     0.041 A 
ATOM     73  F   UNL A   1      38.921  26.436  30.095  1.00  0.00    -0.206 F 
ATOM     74  C   UNL A   1      40.728  26.189  26.971  1.00  0.00     0.022 A 
BRANCH  71  75
ATOM     75  S   UNL A   1      42.597  27.823  25.700  1.00  0.00     0.124 S 
ATOM     76  O   UNL A   1      43.869  28.182  26.325  1.00  0.00    -0.237 OA
ATOM     77  O   UNL A   1      42.621  26.655  24.828  1.00  0.00    -0.237 OA
ATOM     78  O   UNL A   1      41.812  28.954  25.210  1.00  0.00    -0.744 OA
ENDBRANCH  71  75
ENDBRANCH  54  68
BRANCH  55  79
ATOM     79  C   UNL A   1      39.600  33.849  37.241  1.00  0.00     0.023 A 
ATOM     80  C   UNL A   1      38.963  33.418  38.414  1.00  0.00     0.031 A 
ATOM     81  C   UNL A   1      40.067  35.175  37.194  1.00  0.00     0.131 A 
ATOM     82  C   UNL A   1      38.772  34.313  39.478  1.00  0.00     0.055 A 
ATOM     83  C   UNL A   1      39.922  36.047  38.273  1.00  0.00     0.041 A 
ATOM     84  F   UNL A   1      40.694  35.635  36.099  1.00  0.00    -0.206 F 
ATOM     85  C   UNL A   1      39.260  35.619  39.420  1.00  0.00     0.022 A 
BRANCH  82  86
ATOM     86  S   UNL A   1      37.815  33.762  40.918  1.00  0.00     0.124 S 
ATOM     87  O   UNL A   1      36.678  33.105  40.284  1.00  0.00    -0.237 OA
ATOM     88  O   UNL A   1      38.766  32.888  41.597  1.00  0.00    -0.237 OA
ATOM     89  O   UNL A   1      37.509  35.008  41.617  1.00  0.00    -0.744 OA
ENDBRANCH  82  86
ENDBRANCH  55  79
BRANCH  67  90
ATOM     90  C   UNL A   1      44.267  28.923  35.636  1.00  0.00     0.023 A 
ATOM     91  C   UNL A   1      44.231  27.874  36.573  1.00  0.00     0.031 A 
ATOM     92  C   UNL A   1      45.502  29.555  35.403  1.00  0.00     0.131 A 
ATOM     93  C   UNL A   1      45.383  27.549  37.302  1.00  0.00     0.055 A 
ATOM     94  C   UNL A   1      46.663  29.173  36.074  1.00  0.00     0.041 A 
ATOM     95  F   UNL A   1      45.598  30.565  34.522  1.00  0.00    -0.206 F 
ATOM     96  C   UNL A   1      46.604  28.179  37.045  1.00  0.00     0.022 A 
BRANCH  93  97
ATOM     97  S   UNL A   1      45.233  26.395  38.694  1.00  0.00     0.124 S 
ATOM     98  O   UNL A   1      44.342  25.377  38.146  1.00  0.00    -0.237 OA
ATOM     99  O   UNL A   1      46.616  25.983  38.907  1.00  0.00    -0.237 OA
ATOM    100  O   UNL A   1      44.657  27.214  39.758  1.00  0.00    -0.744 OA
ENDBRANCH  93  97
ENDBRANCH  67  90
ENDBRANCH  41  42
ENDBRANCH  33  36
ENDBRANCH  31  32
ENDBRANCH   1  31
TORSDOF 16
ENDMDL
MODEL 2
REMARK VINA RESULT:     -12.6      5.518     10.082
REMARK SMILES CN(C)C(=O)c1cccc(N2CCC3(CC2)[C@H](C(=O)NCCCCNC(=O)c2ccc(-c4c5nc(c(-c6cc(S(=O)(=O)[O-])ccc6F)c6ccc([nH]6)c(-c6cc(S(=O)(=O)[O-])ccc6F)c6nc(c(-c7cc(S(=O)(=O)[O-])ccc7F)c7ccc4[nH]7)C=C6)C=C5)cc2)CC(=O)N3C)n1
REMARK SMILES IDX 23 1 22 2 21 3 20 4 18 5 19 6 17 8 11 9 12 10 16 11 13 12
REMARK SMILES IDX 15 13 14 14 94 15 91 16 92 17 95 18 93 19 10 20 6 21 7 22
REMARK SMILES IDX 96 23 8 24 9 25 4 26 1 27 2 28 3 29 5 30 24 31 25 32 26 33
REMARK SMILES IDX 27 35 28 36 29 37 90 38 30 39 89 40 31 41 32 42 33 43 83 44
REMARK SMILES IDX 34 45 88 46 82 47 84 48 35 49 87 50 81 51 80 52 36 54 68 55
REMARK SMILES IDX 48 56 67 57 49 58 52 59 66 60 85 61 50 62 51 63 65 65 86 66
REMARK SMILES IDX 53 67 37 68 38 69 46 70 39 71 45 72 47 73 44 74 40 75 41 76
REMARK SMILES IDX 42 77 43 78 69 79 70 80 78 81 71 82 77 83 79 84 76 85 72 86
REMARK SMILES IDX 73 87 74 88 75 89 54 90 55 91 63 92 56 93 62 94 64 95 61 96
REMARK SMILES IDX 57 97 58 98 59 99 60 100
REMARK H PARENT 20 7 25 34 84 53 52 64
REMARK Flexibility Score: inf
ROOT
ATOM      1  C   UNL A   1      39.596  21.230  25.930  1.00  0.00     0.023 C 
ENDROOT
BRANCH   1   2
ATOM      2  C   UNL A   1      39.535  22.608  26.576  1.00  0.00     0.023 C 
BRANCH   2   3
ATOM      3  C   UNL A   1      38.321  23.446  26.149  1.00  0.00     0.116 C 
BRANCH   3   4
ATOM      4  N   UNL A   1      37.838  23.184  24.800  1.00  0.00    -0.356 N 
ATOM      5  C   UNL A   1      36.671  22.688  24.308  1.00  0.00     0.226 C 
ATOM      6  O   UNL A   1      36.567  22.629  23.077  1.00  0.00    -0.275 OA
ATOM      7  H   UNL A   1      38.491  23.412  24.099  1.00  0.00     0.163 HD
BRANCH   5   8
ATOM      8  C   UNL A   1      35.498  22.200  25.168  1.00  0.00     0.113 C 
ATOM      9  N   UNL A   1      31.912  24.381  24.172  1.00  0.00    -0.356 N 
ATOM     10  C   UNL A   1      32.735  23.985  23.054  1.00  0.00     0.120 C 
ATOM     11  C   UNL A   1      31.767  23.507  25.327  1.00  0.00     0.120 C 
ATOM     12  C   UNL A   1      34.083  23.631  23.640  1.00  0.00     0.051 C 
ATOM     13  C   UNL A   1      33.121  22.937  25.800  1.00  0.00     0.051 C 
ATOM     14  C   UNL A   1      34.052  22.465  24.645  1.00  0.00     0.058 C 
ATOM     15  N   UNL A   1      33.657  21.109  24.209  1.00  0.00    -0.339 N 
ATOM     16  C   UNL A   1      35.613  20.710  25.463  1.00  0.00     0.116 C 
ATOM     17  C   UNL A   1      34.474  20.097  24.712  1.00  0.00     0.223 C 
ATOM     18  C   UNL A   1      32.484  20.732  23.442  1.00  0.00     0.147 C 
ATOM     19  O   UNL A   1      34.318  18.897  24.559  1.00  0.00    -0.275 OA
BRANCH   9  20
ATOM     20  C   UNL A   1      31.390  25.651  24.100  1.00  0.00     0.129 A 
ATOM     21  C   UNL A   1      31.487  27.892  24.724  1.00  0.00     0.130 A 
ATOM     22  C   UNL A   1      30.287  28.178  24.086  1.00  0.00     0.034 A 
ATOM     23  N   UNL A   1      32.031  26.647  24.748  1.00  0.00    -0.226 NA
ATOM     24  C   UNL A   1      29.603  27.136  23.477  1.00  0.00     0.006 A 
ATOM     25  C   UNL A   1      30.167  25.866  23.473  1.00  0.00     0.047 A 
BRANCH  21  26
ATOM     26  C   UNL A   1      32.322  28.992  25.314  1.00  0.00     0.272 C 
ATOM     27  C   UNL A   1      32.895  30.516  27.131  1.00  0.00     0.146 C 
ATOM     28  N   UNL A   1      32.198  29.327  26.673  1.00  0.00    -0.343 N 
ATOM     29  C   UNL A   1      31.574  28.494  27.689  1.00  0.00     0.146 C 
ATOM     30  O   UNL A   1      33.073  29.623  24.567  1.00  0.00    -0.267 OA
ENDBRANCH  21  26
ENDBRANCH   9  20
ENDBRANCH   5   8
ENDBRANCH   3   4
ENDBRANCH   2   3
ENDBRANCH   1   2
BRANCH   1  31
ATOM     31  C   UNL A   1      40.231  20.195  26.839  1.00  0.00     0.116 C 
BRANCH  31  32
ATOM     32  N   UNL A   1      41.314  19.484  26.167  1.00  0.00    -0.352 N 
ATOM     33  C   UNL A   1      42.478  19.983  25.648  1.00  0.00     0.251 C 
ATOM     34  H   UNL A   1      41.190  18.511  26.075  1.00  0.00     0.163 HD
ATOM     35  O   UNL A   1      43.149  19.306  24.873  1.00  0.00    -0.269 OA
BRANCH  33  36
ATOM     36  C   UNL A   1      42.891  21.341  26.032  1.00  0.00     0.039 A 
ATOM     37  C   UNL A   1      42.965  22.339  25.064  1.00  0.00     0.014 A 
ATOM     38  C   UNL A   1      43.163  21.621  27.374  1.00  0.00     0.014 A 
ATOM     39  C   UNL A   1      43.277  23.638  25.456  1.00  0.00     0.010 A 
ATOM     40  C   UNL A   1      43.341  22.932  27.778  1.00  0.00     0.010 A 
ATOM     41  C   UNL A   1      43.439  23.946  26.819  1.00  0.00    -0.014 A 
BRANCH  41  42
ATOM     42  C   UNL A   1      43.776  25.319  27.256  1.00  0.00     0.031 A 
ATOM     43  C   UNL A   1      45.195  25.806  27.150  1.00  0.00     0.074 A 
ATOM     44  C   UNL A   1      42.815  26.103  27.777  1.00  0.00     0.049 A 
ATOM     45  N   UNL A   1      45.700  26.966  27.478  1.00  0.00    -0.248 NA
ATOM     46  C   UNL A   1      46.188  24.841  26.649  1.00  0.00     0.031 C 
ATOM     47  C   UNL A   1      41.419  25.711  27.979  1.00  0.00     0.029 A 
ATOM     48  N   UNL A   1      42.863  27.400  28.217  1.00  0.00    -0.354 N 
ATOM     49  C   UNL A   1      47.065  26.865  27.228  1.00  0.00     0.074 A 
ATOM     50  C   UNL A   1      47.319  25.499  26.831  1.00  0.00     0.031 C 
ATOM     51  C   UNL A   1      40.729  26.765  28.441  1.00  0.00     0.029 A 
ATOM     52  C   UNL A   1      41.641  27.890  28.612  1.00  0.00     0.049 A 
ATOM     53  H   UNL A   1      43.692  27.928  28.248  1.00  0.00     0.167 HD
ATOM     54  C   UNL A   1      48.013  27.834  27.280  1.00  0.00     0.034 A 
ATOM     55  C   UNL A   1      41.299  29.118  29.047  1.00  0.00     0.034 A 
ATOM     56  C   UNL A   1      47.730  29.190  27.682  1.00  0.00     0.049 A 
ATOM     57  C   UNL A   1      42.370  30.175  29.129  1.00  0.00     0.074 A 
ATOM     58  C   UNL A   1      48.591  30.271  27.749  1.00  0.00     0.029 A 
ATOM     59  N   UNL A   1      46.483  29.650  28.095  1.00  0.00    -0.354 N 
ATOM     60  N   UNL A   1      43.647  30.086  28.839  1.00  0.00    -0.248 NA
ATOM     61  C   UNL A   1      41.941  31.503  29.578  1.00  0.00     0.031 C 
ATOM     62  C   UNL A   1      47.885  31.360  28.274  1.00  0.00     0.029 A 
ATOM     63  C   UNL A   1      46.560  30.989  28.447  1.00  0.00     0.049 A 
ATOM     64  H   UNL A   1      45.666  29.104  28.132  1.00  0.00     0.167 HD
ATOM     65  C   UNL A   1      44.170  31.361  29.036  1.00  0.00     0.074 A 
ATOM     66  C   UNL A   1      43.062  32.198  29.453  1.00  0.00     0.031 C 
ATOM     67  C   UNL A   1      45.446  31.804  28.880  1.00  0.00     0.034 A 
BRANCH  54  68
ATOM     68  C   UNL A   1      49.426  27.430  26.921  1.00  0.00     0.023 A 
ATOM     69  C   UNL A   1      50.411  27.235  27.908  1.00  0.00     0.031 A 
ATOM     70  C   UNL A   1      49.822  27.325  25.577  1.00  0.00     0.131 A 
ATOM     71  C   UNL A   1      51.755  27.071  27.539  1.00  0.00     0.055 A 
ATOM     72  C   UNL A   1      51.144  27.051  25.216  1.00  0.00     0.041 A 
ATOM     73  F   UNL A   1      48.939  27.523  24.585  1.00  0.00    -0.206 F 
ATOM     74  C   UNL A   1      52.125  26.947  26.199  1.00  0.00     0.022 A 
BRANCH  71  75
ATOM     75  S   UNL A   1      53.028  27.236  28.822  1.00  0.00     0.124 S 
ATOM     76  O   UNL A   1      52.219  27.245  30.039  1.00  0.00    -0.237 OA
ATOM     77  O   UNL A   1      53.849  26.051  28.608  1.00  0.00    -0.237 OA
ATOM     78  O   UNL A   1      53.672  28.509  28.503  1.00  0.00    -0.744 OA
ENDBRANCH  71  75
ENDBRANCH  54  68
BRANCH  55  79
ATOM     79  C   UNL A   1      39.884  29.422  29.399  1.00  0.00     0.023 A 
ATOM     80  C   UNL A   1      39.473  29.483  30.739  1.00  0.00     0.031 A 
ATOM     81  C   UNL A   1      38.918  29.642  28.402  1.00  0.00     0.131 A 
ATOM     82  C   UNL A   1      38.125  29.717  31.048  1.00  0.00     0.055 A 
ATOM     83  C   UNL A   1      37.588  29.926  28.714  1.00  0.00     0.041 A 
ATOM     84  F   UNL A   1      39.260  29.604  27.104  1.00  0.00    -0.206 F 
ATOM     85  C   UNL A   1      37.183  29.953  30.046  1.00  0.00     0.022 A 
BRANCH  82  86
ATOM     86  S   UNL A   1      37.605  29.644  32.785  1.00  0.00     0.124 S 
ATOM     87  O   UNL A   1      36.341  30.371  32.747  1.00  0.00    -0.237 OA
ATOM     88  O   UNL A   1      37.513  28.205  33.014  1.00  0.00    -0.237 OA
ATOM     89  O   UNL A   1      38.693  30.317  33.492  1.00  0.00    -0.744 OA
ENDBRANCH  82  86
ENDBRANCH  55  79
BRANCH  67  90
ATOM     90  C   UNL A   1      45.688  33.276  29.119  1.00  0.00     0.023 A 
ATOM     91  C   UNL A   1      45.557  34.227  28.091  1.00  0.00     0.031 A 
ATOM     92  C   UNL A   1      46.096  33.729  30.387  1.00  0.00     0.131 A 
ATOM     93  C   UNL A   1      45.914  35.563  28.326  1.00  0.00     0.055 A 
ATOM     94  C   UNL A   1      46.372  35.073  30.635  1.00  0.00     0.041 A 
ATOM     95  F   UNL A   1      46.243  32.866  31.407  1.00  0.00    -0.206 F 
ATOM     96  C   UNL A   1      46.302  35.996  29.597  1.00  0.00     0.022 A 
BRANCH  93  97
ATOM     97  S   UNL A   1      46.004  36.698  26.914  1.00  0.00     0.124 S 
ATOM     98  O   UNL A   1      46.380  35.798  25.827  1.00  0.00    -0.237 OA
ATOM     99  O   UNL A   1      44.648  37.232  26.857  1.00  0.00    -0.237 OA
ATOM    100  O   UNL A   1      47.034  37.656  27.309  1.00  0.00    -0.744 OA
ENDBRANCH  93  97
ENDBRANCH  67  90
ENDBRANCH  41  42
ENDBRANCH  33  36
ENDBRANCH  31  32
ENDBRANCH   1  31
TORSDOF 16
ENDMDL
MODEL 3
REMARK VINA RESULT:     -12.5      1.524      2.037
REMARK SMILES CN(C)C(=O)c1cccc(N2CCC3(CC2)[C@H](C(=O)NCCCCNC(=O)c2ccc(-c4c5nc(c(-c6cc(S(=O)(=O)[O-])ccc6F)c6ccc([nH]6)c(-c6cc(S(=O)(=O)[O-])ccc6F)c6nc(c(-c7cc(S(=O)(=O)[O-])ccc7F)c7ccc4[nH]7)C=C6)C=C5)cc2)CC(=O)N3C)n1
REMARK SMILES IDX 23 1 22 2 21 3 20 4 18 5 19 6 17 8 11 9 12 10 16 11 13 12
REMARK SMILES IDX 15 13 14 14 94 15 91 16 92 17 95 18 93 19 10 20 6 21 7 22
REMARK SMILES IDX 96 23 8 24 9 25 4 26 1 27 2 28 3 29 5 30 24 31 25 32 26 33
REMARK SMILES IDX 27 35 28 36 29 37 90 38 30 39 89 40 31 41 32 42 33 43 83 44
REMARK SMILES IDX 34 45 88 46 82 47 84 48 35 49 87 50 81 51 80 52 36 54 68 55
REMARK SMILES IDX 48 56 67 57 49 58 52 59 66 60 85 61 50 62 51 63 65 65 86 66
REMARK SMILES IDX 53 67 37 68 38 69 46 70 39 71 45 72 47 73 44 74 40 75 41 76
REMARK SMILES IDX 42 77 43 78 69 79 70 80 78 81 71 82 77 83 79 84 76 85 72 86
REMARK SMILES IDX 73 87 74 88 75 89 54 90 55 91 63 92 56 93 62 94 64 95 61 96
REMARK SMILES IDX 57 97 58 98 59 99 60 100
REMARK H PARENT 20 7 25 34 84 53 52 64
REMARK Flexibility Score: inf
ROOT
ATOM      1  C   UNL A   1      33.885  31.818  27.127  1.00  0.00     0.023 C 
ENDROOT
BRANCH   1   2
ATOM      2  C   UNL A   1      34.743  30.940  28.030  1.00  0.00     0.023 C 
BRANCH   2   3
ATOM      3  C   UNL A   1      34.645  29.439  27.721  1.00  0.00     0.116 C 
BRANCH   3   4
ATOM      4  N   UNL A   1      33.316  28.864  27.885  1.00  0.00    -0.356 N 
ATOM      5  C   UNL A   1      32.403  28.364  27.010  1.00  0.00     0.226 C 
ATOM      6  O   UNL A   1      31.362  27.906  27.495  1.00  0.00    -0.275 OA
ATOM      7  H   UNL A   1      33.018  28.829  28.823  1.00  0.00     0.163 HD
BRANCH   5   8
ATOM      8  C   UNL A   1      32.575  28.340  25.487  1.00  0.00     0.113 C 
ATOM      9  N   UNL A   1      33.633  24.370  24.171  1.00  0.00    -0.356 N 
ATOM     10  C   UNL A   1      32.615  24.441  25.191  1.00  0.00     0.120 C 
ATOM     11  C   UNL A   1      33.693  25.374  23.118  1.00  0.00     0.120 C 
ATOM     12  C   UNL A   1      32.711  25.833  25.773  1.00  0.00     0.051 C 
ATOM     13  C   UNL A   1      33.552  26.807  23.671  1.00  0.00     0.051 C 
ATOM     14  C   UNL A   1      32.450  26.964  24.762  1.00  0.00     0.058 C 
ATOM     15  N   UNL A   1      31.127  27.104  24.117  1.00  0.00    -0.339 N 
ATOM     16  C   UNL A   1      31.613  29.305  24.807  1.00  0.00     0.116 C 
ATOM     17  C   UNL A   1      30.665  28.418  24.065  1.00  0.00     0.223 C 
ATOM     18  C   UNL A   1      30.352  26.072  23.455  1.00  0.00     0.147 C 
ATOM     19  O   UNL A   1      29.641  28.805  23.524  1.00  0.00    -0.275 OA
BRANCH   9  20
ATOM     20  C   UNL A   1      34.569  23.376  24.338  1.00  0.00     0.129 A 
ATOM     21  C   UNL A   1      35.060  21.141  24.761  1.00  0.00     0.130 A 
ATOM     22  C   UNL A   1      36.425  21.393  24.813  1.00  0.00     0.034 A 
ATOM     23  N   UNL A   1      34.138  22.114  24.541  1.00  0.00    -0.226 NA
ATOM     24  C   UNL A   1      36.856  22.705  24.666  1.00  0.00     0.006 A 
ATOM     25  C   UNL A   1      35.919  23.700  24.413  1.00  0.00     0.047 A 
BRANCH  21  26
ATOM     26  C   UNL A   1      34.540  19.733  24.812  1.00  0.00     0.272 C 
ATOM     27  C   UNL A   1      32.800  18.104  25.331  1.00  0.00     0.146 C 
ATOM     28  N   UNL A   1      33.190  19.486  25.116  1.00  0.00    -0.343 N 
ATOM     29  C   UNL A   1      32.124  20.474  25.066  1.00  0.00     0.146 C 
ATOM     30  O   UNL A   1      35.334  18.807  24.635  1.00  0.00    -0.267 OA
ENDBRANCH  21  26
ENDBRANCH   9  20
ENDBRANCH   5   8
ENDBRANCH   3   4
ENDBRANCH   2   3
ENDBRANCH   1   2
BRANCH   1  31
ATOM     31  C   UNL A   1      32.776  32.517  27.889  1.00  0.00     0.116 C 
BRANCH  31  32
ATOM     32  N   UNL A   1      32.933  33.968  27.850  1.00  0.00    -0.352 N 
ATOM     33  C   UNL A   1      33.709  34.770  28.641  1.00  0.00     0.251 C 
ATOM     34  H   UNL A   1      32.408  34.433  27.158  1.00  0.00     0.163 HD
ATOM     35  O   UNL A   1      33.519  35.983  28.666  1.00  0.00    -0.269 OA
BRANCH  33  36
ATOM     36  C   UNL A   1      34.759  34.143  29.458  1.00  0.00     0.039 A 
ATOM     37  C   UNL A   1      34.407  33.409  30.588  1.00  0.00     0.014 A 
ATOM     38  C   UNL A   1      36.095  34.259  29.064  1.00  0.00     0.014 A 
ATOM     39  C   UNL A   1      35.405  32.752  31.303  1.00  0.00     0.010 A 
ATOM     40  C   UNL A   1      37.064  33.501  29.697  1.00  0.00     0.010 A 
ATOM     41  C   UNL A   1      36.734  32.772  30.846  1.00  0.00    -0.014 A 
BRANCH  41  42
ATOM     42  C   UNL A   1      37.810  32.085  31.595  1.00  0.00     0.031 A 
ATOM     43  C   UNL A   1      38.558  30.952  30.949  1.00  0.00     0.074 A 
ATOM     44  C   UNL A   1      38.081  32.459  32.858  1.00  0.00     0.049 A 
ATOM     45  N   UNL A   1      39.528  30.219  31.429  1.00  0.00    -0.248 NA
ATOM     46  C   UNL A   1      38.126  30.562  29.597  1.00  0.00     0.031 C 
ATOM     47  C   UNL A   1      37.378  33.507  33.601  1.00  0.00     0.029 A 
ATOM     48  N   UNL A   1      39.032  32.012  33.736  1.00  0.00    -0.354 N 
ATOM     49  C   UNL A   1      39.815  29.282  30.440  1.00  0.00     0.074 A 
ATOM     50  C   UNL A   1      38.841  29.471  29.388  1.00  0.00     0.031 C 
ATOM     51  C   UNL A   1      37.964  33.666  34.797  1.00  0.00     0.029 A 
ATOM     52  C   UNL A   1      39.052  32.703  34.924  1.00  0.00     0.049 A 
ATOM     53  H   UNL A   1      39.643  31.266  33.536  1.00  0.00     0.167 HD
ATOM     54  C   UNL A   1      40.824  28.378  30.393  1.00  0.00     0.034 A 
ATOM     55  C   UNL A   1      39.869  32.579  35.987  1.00  0.00     0.034 A 
ATOM     56  C   UNL A   1      41.781  28.211  31.459  1.00  0.00     0.049 A 
ATOM     57  C   UNL A   1      40.967  31.548  35.931  1.00  0.00     0.074 A 
ATOM     58  C   UNL A   1      42.865  27.354  31.523  1.00  0.00     0.029 A 
ATOM     59  N   UNL A   1      41.760  28.915  32.659  1.00  0.00    -0.354 N 
ATOM     60  N   UNL A   1      41.265  30.703  34.971  1.00  0.00    -0.248 NA
ATOM     61  C   UNL A   1      41.850  31.473  37.099  1.00  0.00     0.031 C 
ATOM     62  C   UNL A   1      43.452  27.486  32.788  1.00  0.00     0.029 A 
ATOM     63  C   UNL A   1      42.793  28.491  33.481  1.00  0.00     0.049 A 
ATOM     64  H   UNL A   1      41.107  29.613  32.891  1.00  0.00     0.167 HD
ATOM     65  C   UNL A   1      42.397  30.019  35.405  1.00  0.00     0.074 A 
ATOM     66  C   UNL A   1      42.732  30.566  36.706  1.00  0.00     0.031 C 
ATOM     67  C   UNL A   1      43.101  29.035  34.785  1.00  0.00     0.034 A 
BRANCH  54  68
ATOM     68  C   UNL A   1      40.903  27.502  29.162  1.00  0.00     0.023 A 
ATOM     69  C   UNL A   1      41.860  27.732  28.154  1.00  0.00     0.031 A 
ATOM     70  C   UNL A   1      39.959  26.484  28.944  1.00  0.00     0.131 A 
ATOM     71  C   UNL A   1      41.775  27.044  26.934  1.00  0.00     0.055 A 
ATOM     72  C   UNL A   1      39.949  25.727  27.769  1.00  0.00     0.041 A 
ATOM     73  F   UNL A   1      39.005  26.228  29.852  1.00  0.00    -0.206 F 
ATOM     74  C   UNL A   1      40.845  26.021  26.745  1.00  0.00     0.022 A 
BRANCH  71  75
ATOM     75  S   UNL A   1      42.754  27.654  25.532  1.00  0.00     0.124 S 
ATOM     76  O   UNL A   1      44.021  27.986  26.179  1.00  0.00    -0.237 OA
ATOM     77  O   UNL A   1      42.774  26.504  24.637  1.00  0.00    -0.237 OA
ATOM     78  O   UNL A   1      41.988  28.804  25.054  1.00  0.00    -0.744 OA
ENDBRANCH  71  75
ENDBRANCH  54  68
BRANCH  55  79
ATOM     79  C   UNL A   1      39.706  33.472  37.167  1.00  0.00     0.023 A 
ATOM     80  C   UNL A   1      40.536  34.591  37.342  1.00  0.00     0.031 A 
ATOM     81  C   UNL A   1      38.730  33.215  38.145  1.00  0.00     0.131 A 
ATOM     82  C   UNL A   1      40.402  35.389  38.488  1.00  0.00     0.055 A 
ATOM     83  C   UNL A   1      38.565  34.041  39.257  1.00  0.00     0.041 A 
ATOM     84  F   UNL A   1      37.903  32.165  38.020  1.00  0.00    -0.206 F 
ATOM     85  C   UNL A   1      39.413  35.130  39.439  1.00  0.00     0.022 A 
BRANCH  82  86
ATOM     86  S   UNL A   1      41.586  36.738  38.752  1.00  0.00     0.124 S 
ATOM     87  O   UNL A   1      42.487  36.151  39.738  1.00  0.00    -0.237 OA
ATOM     88  O   UNL A   1      42.134  36.927  37.413  1.00  0.00    -0.237 OA
ATOM     89  O   UNL A   1      40.750  37.831  39.242  1.00  0.00    -0.744 OA
ENDBRANCH  82  86
ENDBRANCH  55  79
BRANCH  67  90
ATOM     90  C   UNL A   1      44.333  28.529  35.499  1.00  0.00     0.023 A 
ATOM     91  C   UNL A   1      44.265  27.511  36.466  1.00  0.00     0.031 A 
ATOM     92  C   UNL A   1      45.589  29.104  35.234  1.00  0.00     0.131 A 
ATOM     93  C   UNL A   1      45.412  27.160  37.193  1.00  0.00     0.055 A 
ATOM     94  C   UNL A   1      46.742  28.695  35.904  1.00  0.00     0.041 A 
ATOM     95  F   UNL A   1      45.716  30.083  34.323  1.00  0.00    -0.206 F 
ATOM     96  C   UNL A   1      46.654  27.732  36.905  1.00  0.00     0.022 A 
BRANCH  93  97
ATOM     97  S   UNL A   1      45.232  26.054  38.619  1.00  0.00     0.124 S 
ATOM     98  O   UNL A   1      44.531  26.906  39.575  1.00  0.00    -0.237 OA
ATOM     99  O   UNL A   1      44.457  24.952  38.061  1.00  0.00    -0.237 OA
ATOM    100  O   UNL A   1      46.610  25.726  38.976  1.00  0.00    -0.744 OA
ENDBRANCH  93  97
ENDBRANCH  67  90
ENDBRANCH  41  42
ENDBRANCH  33  36
ENDBRANCH  31  32
ENDBRANCH   1  31
TORSDOF 16
ENDMDL
