MODEL 1
REMARK VINA RESULT:     -12.0      0.000      0.000
REMARK SMILES C[C@@H]1[C@@H](C(=O)NCCCCNC(=O)c2ccc(-c3c4nc(c(-c5cc(S(=O)(=O)[O-])ccc5F)c5ccc([nH]5)c(-c5cc(S(=O)(=O)[O-])ccc5F)c5nc(c(-c6cc(S(=O)(=O)[O-])ccc6F)c6ccc3[nH]6)C=C5)C=C4)cc2)CCN1C(=O)[C@]1([NH3+])CCOC1
REMARK SMILES IDX 8 1 7 2 6 3 4 4 5 5 3 7 1 8 2 9 79 10 77 11 78 12 80 13
REMARK SMILES IDX 81 14 82 15 84 16 87 17 85 18 86 19 83 20 9 24 10 25 11 26
REMARK SMILES IDX 12 27 13 29 14 30 15 31 76 32 16 33 75 34 17 35 18 36 19 37
REMARK SMILES IDX 69 38 20 39 74 40 68 41 70 42 21 43 73 44 67 45 66 46 22 48
REMARK SMILES IDX 54 49 34 50 53 51 35 52 38 53 52 54 71 55 36 56 37 57 51 59
REMARK SMILES IDX 72 60 39 61 23 62 24 63 32 64 25 65 31 66 33 67 30 68 26 69
REMARK SMILES IDX 27 70 28 71 29 72 55 73 56 74 64 75 57 76 63 77 65 78 62 79
REMARK SMILES IDX 58 80 59 81 60 82 61 83 40 84 41 85 49 86 42 87 48 88 50 89
REMARK SMILES IDX 47 90 43 91 44 92 45 93 46 94
REMARK H PARENT 6 6 83 21 83 22 83 23 11 28 70 47 38 58
REMARK Flexibility Score: inf
ROOT
ATOM      1  C   UNL A   1      34.975  23.412  23.801  1.00  0.00     0.023 C 
ENDROOT
BRANCH   1   2
ATOM      2  C   UNL A   1      34.798  24.341  24.995  1.00  0.00     0.116 C 
BRANCH   2   3
ATOM      3  N   UNL A   1      33.416  24.523  25.403  1.00  0.00    -0.356 N 
ATOM      4  C   UNL A   1      32.512  25.451  24.960  1.00  0.00     0.225 C 
ATOM      5  O   UNL A   1      31.354  25.384  25.367  1.00  0.00    -0.275 OA
ATOM      6  H   UNL A   1      33.086  23.895  26.085  1.00  0.00     0.163 HD
BRANCH   4   7
ATOM      7  C   UNL A   1      32.997  26.562  24.038  1.00  0.00     0.102 C 
ATOM      8  C   UNL A   1      33.089  29.050  23.831  1.00  0.00     0.032 C 
ATOM      9  C   UNL A   1      32.168  27.865  24.163  1.00  0.00     0.094 C 
ATOM     10  N   UNL A   1      31.098  27.716  23.162  1.00  0.00    -0.334 N 
ATOM     11  C   UNL A   1      32.841  26.221  22.554  1.00  0.00     0.037 C 
ATOM     12  C   UNL A   1      31.419  26.635  22.241  1.00  0.00     0.121 C 
BRANCH  10  13
ATOM     13  C   UNL A   1      29.834  28.254  23.065  1.00  0.00     0.286 C 
ATOM     14  O   UNL A   1      28.871  27.554  23.429  1.00  0.00    -0.267 OA
BRANCH  13  15
ATOM     15  C   UNL A   1      29.510  29.698  22.541  1.00  0.00     0.199 C 
ATOM     16  C   UNL A   1      29.436  30.775  23.602  1.00  0.00     0.110 C 
ATOM     17  C   UNL A   1      28.185  29.797  21.786  1.00  0.00     0.239 C 
ATOM     18  C   UNL A   1      27.984  31.194  23.645  1.00  0.00     0.167 C 
ATOM     19  O   UNL A   1      27.352  30.765  22.444  1.00  0.00    -0.374 OA
BRANCH  15  20
ATOM     20  N   UNL A   1      30.646  30.077  21.626  1.00  0.00    -0.343 N 
ATOM     21  H   UNL A   1      30.787  29.339  20.935  1.00  0.00     0.345 HD
ATOM     22  H   UNL A   1      31.498  30.198  22.174  1.00  0.00     0.345 HD
ATOM     23  H   UNL A   1      30.422  30.950  21.149  1.00  0.00     0.345 HD
ENDBRANCH  15  20
ENDBRANCH  13  15
ENDBRANCH  10  13
ENDBRANCH   4   7
ENDBRANCH   2   3
ENDBRANCH   1   2
BRANCH   1  24
ATOM     24  C   UNL A   1      36.014  22.306  23.974  1.00  0.00     0.023 C 
BRANCH  24  25
ATOM     25  C   UNL A   1      36.387  21.969  25.414  1.00  0.00     0.116 C 
BRANCH  25  26
ATOM     26  N   UNL A   1      37.356  20.890  25.516  1.00  0.00    -0.352 N 
ATOM     27  C   UNL A   1      38.689  20.929  25.864  1.00  0.00     0.251 C 
ATOM     28  H   UNL A   1      37.006  19.994  25.303  1.00  0.00     0.163 HD
ATOM     29  O   UNL A   1      39.373  19.923  25.747  1.00  0.00    -0.269 OA
BRANCH  27  30
ATOM     30  C   UNL A   1      39.288  22.197  26.341  1.00  0.00     0.039 A 
ATOM     31  C   UNL A   1      40.375  22.144  27.217  1.00  0.00     0.014 A 
ATOM     32  C   UNL A   1      38.794  23.431  25.915  1.00  0.00     0.014 A 
ATOM     33  C   UNL A   1      41.016  23.327  27.599  1.00  0.00     0.010 A 
ATOM     34  C   UNL A   1      39.488  24.598  26.220  1.00  0.00     0.010 A 
ATOM     35  C   UNL A   1      40.606  24.561  27.068  1.00  0.00    -0.014 A 
BRANCH  35  36
ATOM     36  C   UNL A   1      41.315  25.826  27.402  1.00  0.00     0.031 A 
ATOM     37  C   UNL A   1      40.622  26.882  28.220  1.00  0.00     0.074 A 
ATOM     38  C   UNL A   1      42.553  26.053  26.916  1.00  0.00     0.049 A 
ATOM     39  N   UNL A   1      41.028  28.085  28.539  1.00  0.00    -0.248 NA
ATOM     40  C   UNL A   1      39.277  26.552  28.715  1.00  0.00     0.031 C 
ATOM     41  C   UNL A   1      43.317  25.125  26.078  1.00  0.00     0.029 A 
ATOM     42  N   UNL A   1      43.384  27.138  27.046  1.00  0.00    -0.354 N 
ATOM     43  C   UNL A   1      39.983  28.660  29.257  1.00  0.00     0.074 A 
ATOM     44  C   UNL A   1      38.901  27.698  29.260  1.00  0.00     0.031 C 
ATOM     45  C   UNL A   1      44.512  25.668  25.797  1.00  0.00     0.029 A 
ATOM     46  C   UNL A   1      44.584  27.000  26.389  1.00  0.00     0.049 A 
ATOM     47  H   UNL A   1      43.144  27.940  27.565  1.00  0.00     0.167 HD
ATOM     48  C   UNL A   1      39.939  29.864  29.879  1.00  0.00     0.034 A 
ATOM     49  C   UNL A   1      45.621  27.855  26.264  1.00  0.00     0.034 A 
ATOM     50  C   UNL A   1      41.031  30.807  29.876  1.00  0.00     0.049 A 
ATOM     51  C   UNL A   1      45.540  29.200  26.941  1.00  0.00     0.074 A 
ATOM     52  C   UNL A   1      41.113  32.035  30.509  1.00  0.00     0.029 A 
ATOM     53  N   UNL A   1      42.233  30.630  29.201  1.00  0.00    -0.354 N 
ATOM     54  N   UNL A   1      44.562  29.712  27.652  1.00  0.00    -0.248 NA
ATOM     55  C   UNL A   1      46.710  30.078  26.809  1.00  0.00     0.031 C 
ATOM     56  C   UNL A   1      42.331  32.630  30.160  1.00  0.00     0.029 A 
ATOM     57  C   UNL A   1      43.049  31.737  29.380  1.00  0.00     0.049 A 
ATOM     58  H   UNL A   1      42.472  29.834  28.672  1.00  0.00     0.167 HD
ATOM     59  C   UNL A   1      45.017  30.955  28.084  1.00  0.00     0.074 A 
ATOM     60  C   UNL A   1      46.360  31.109  27.562  1.00  0.00     0.031 C 
ATOM     61  C   UNL A   1      44.386  31.882  28.851  1.00  0.00     0.034 A 
BRANCH  48  62
ATOM     62  C   UNL A   1      38.655  30.230  30.589  1.00  0.00     0.023 A 
ATOM     63  C   UNL A   1      37.610  30.898  29.927  1.00  0.00     0.031 A 
ATOM     64  C   UNL A   1      38.488  29.944  31.956  1.00  0.00     0.131 A 
ATOM     65  C   UNL A   1      36.489  31.338  30.649  1.00  0.00     0.055 A 
ATOM     66  C   UNL A   1      37.328  30.303  32.648  1.00  0.00     0.041 A 
ATOM     67  F   UNL A   1      39.458  29.327  32.650  1.00  0.00    -0.206 F 
ATOM     68  C   UNL A   1      36.329  31.021  31.999  1.00  0.00     0.022 A 
BRANCH  65  69
ATOM     69  S   UNL A   1      35.331  32.474  29.837  1.00  0.00     0.124 S 
ATOM     70  O   UNL A   1      34.798  31.634  28.766  1.00  0.00    -0.237 OA
ATOM     71  O   UNL A   1      34.403  32.802  30.912  1.00  0.00    -0.237 OA
ATOM     72  O   UNL A   1      36.185  33.573  29.390  1.00  0.00    -0.744 OA
ENDBRANCH  65  69
ENDBRANCH  48  62
BRANCH  49  73
ATOM     73  C   UNL A   1      46.826  27.473  25.471  1.00  0.00     0.023 A 
ATOM     74  C   UNL A   1      46.980  27.899  24.142  1.00  0.00     0.031 A 
ATOM     75  C   UNL A   1      47.821  26.642  26.015  1.00  0.00     0.131 A 
ATOM     76  C   UNL A   1      48.075  27.453  23.386  1.00  0.00     0.055 A 
ATOM     77  C   UNL A   1      48.938  26.246  25.277  1.00  0.00     0.041 A 
ATOM     78  F   UNL A   1      47.726  26.210  27.283  1.00  0.00    -0.206 F 
ATOM     79  C   UNL A   1      49.063  26.641  23.948  1.00  0.00     0.022 A 
BRANCH  76  80
ATOM     80  S   UNL A   1      48.148  27.882  21.624  1.00  0.00     0.124 S 
ATOM     81  O   UNL A   1      46.857  28.531  21.425  1.00  0.00    -0.237 OA
ATOM     82  O   UNL A   1      49.319  28.750  21.571  1.00  0.00    -0.237 OA
ATOM     83  O   UNL A   1      48.304  26.586  20.966  1.00  0.00    -0.744 OA
ENDBRANCH  76  80
ENDBRANCH  49  73
BRANCH  61  84
ATOM     84  C   UNL A   1      45.169  33.119  29.221  1.00  0.00     0.023 A 
ATOM     85  C   UNL A   1      45.134  34.287  28.441  1.00  0.00     0.031 A 
ATOM     86  C   UNL A   1      45.975  33.119  30.375  1.00  0.00     0.131 A 
ATOM     87  C   UNL A   1      45.935  35.385  28.790  1.00  0.00     0.055 A 
ATOM     88  C   UNL A   1      46.719  34.238  30.753  1.00  0.00     0.041 A 
ATOM     89  F   UNL A   1      46.052  32.030  31.156  1.00  0.00    -0.206 F 
ATOM     90  C   UNL A   1      46.713  35.375  29.951  1.00  0.00     0.022 A 
BRANCH  87  91
ATOM     91  S   UNL A   1      46.029  36.793  27.650  1.00  0.00     0.124 S 
ATOM     92  O   UNL A   1      47.083  37.602  28.252  1.00  0.00    -0.237 OA
ATOM     93  O   UNL A   1      46.365  36.148  26.385  1.00  0.00    -0.237 OA
ATOM     94  O   UNL A   1      44.689  37.375  27.712  1.00  0.00    -0.744 OA
ENDBRANCH  87  91
ENDBRANCH  61  84
ENDBRANCH  35  36
ENDBRANCH  27  30
ENDBRANCH  25  26
ENDBRANCH  24  25
ENDBRANCH   1  24
TORSDOF 17
ENDMDL
MODEL 2
REMARK VINA RESULT:     -11.9      1.060      7.625
REMARK SMILES C[C@@H]1[C@@H](C(=O)NCCCCNC(=O)c2ccc(-c3c4nc(c(-c5cc(S(=O)(=O)[O-])ccc5F)c5ccc([nH]5)c(-c5cc(S(=O)(=O)[O-])ccc5F)c5nc(c(-c6cc(S(=O)(=O)[O-])ccc6F)c6ccc3[nH]6)C=C5)C=C4)cc2)CCN1C(=O)[C@]1([NH3+])CCOC1
REMARK SMILES IDX 8 1 7 2 6 3 4 4 5 5 3 7 1 8 2 9 79 10 77 11 78 12 80 13
REMARK SMILES IDX 81 14 82 15 84 16 87 17 85 18 86 19 83 20 9 24 10 25 11 26
REMARK SMILES IDX 12 27 13 29 14 30 15 31 76 32 16 33 75 34 17 35 18 36 19 37
REMARK SMILES IDX 69 38 20 39 74 40 68 41 70 42 21 43 73 44 67 45 66 46 22 48
REMARK SMILES IDX 54 49 34 50 53 51 35 52 38 53 52 54 71 55 36 56 37 57 51 59
REMARK SMILES IDX 72 60 39 61 23 62 24 63 32 64 25 65 31 66 33 67 30 68 26 69
REMARK SMILES IDX 27 70 28 71 29 72 55 73 56 74 64 75 57 76 63 77 65 78 62 79
REMARK SMILES IDX 58 80 59 81 60 82 61 83 40 84 41 85 49 86 42 87 48 88 50 89
REMARK SMILES IDX 47 90 43 91 44 92 45 93 46 94
REMARK H PARENT 6 6 83 21 83 22 83 23 11 28 70 47 38 58
REMARK Flexibility Score: inf
ROOT
ATOM      1  C   UNL A   1      35.414  23.286  23.527  1.00  0.00     0.023 C 
ENDROOT
BRANCH   1   2
ATOM      2  C   UNL A   1      35.038  24.270  24.628  1.00  0.00     0.116 C 
BRANCH   2   3
ATOM      3  N   UNL A   1      33.617  24.305  24.928  1.00  0.00    -0.356 N 
ATOM      4  C   UNL A   1      32.679  25.207  24.503  1.00  0.00     0.225 C 
ATOM      5  O   UNL A   1      31.501  25.013  24.797  1.00  0.00    -0.275 OA
ATOM      6  H   UNL A   1      33.286  23.584  25.511  1.00  0.00     0.163 HD
BRANCH   4   7
ATOM      7  C   UNL A   1      33.144  26.443  23.745  1.00  0.00     0.102 C 
ATOM      8  C   UNL A   1      33.209  28.936  23.892  1.00  0.00     0.032 C 
ATOM      9  C   UNL A   1      32.304  27.706  24.060  1.00  0.00     0.094 C 
ATOM     10  N   UNL A   1      31.226  27.688  23.056  1.00  0.00    -0.334 N 
ATOM     11  C   UNL A   1      32.977  26.314  22.228  1.00  0.00     0.037 C 
ATOM     12  C   UNL A   1      31.549  26.753  21.989  1.00  0.00     0.121 C 
BRANCH  10  13
ATOM     13  C   UNL A   1      29.955  28.220  23.047  1.00  0.00     0.286 C 
ATOM     14  O   UNL A   1      29.026  27.524  23.497  1.00  0.00    -0.267 OA
BRANCH  13  15
ATOM     15  C   UNL A   1      29.586  29.654  22.524  1.00  0.00     0.199 C 
ATOM     16  C   UNL A   1      29.458  30.724  23.588  1.00  0.00     0.110 C 
ATOM     17  C   UNL A   1      28.268  29.707  21.752  1.00  0.00     0.239 C 
ATOM     18  C   UNL A   1      27.991  31.089  23.613  1.00  0.00     0.167 C 
ATOM     19  O   UNL A   1      27.391  30.642  22.403  1.00  0.00    -0.374 OA
BRANCH  15  20
ATOM     20  N   UNL A   1      30.719  30.077  21.626  1.00  0.00    -0.343 N 
ATOM     21  H   UNL A   1      31.140  29.253  21.198  1.00  0.00     0.345 HD
ATOM     22  H   UNL A   1      31.421  30.573  22.175  1.00  0.00     0.345 HD
ATOM     23  H   UNL A   1      30.362  30.693  20.895  1.00  0.00     0.345 HD
ENDBRANCH  15  20
ENDBRANCH  13  15
ENDBRANCH  10  13
ENDBRANCH   4   7
ENDBRANCH   2   3
ENDBRANCH   1   2
BRANCH   1  24
ATOM     24  C   UNL A   1      36.389  22.182  23.934  1.00  0.00     0.023 C 
BRANCH  24  25
ATOM     25  C   UNL A   1      36.913  22.257  25.364  1.00  0.00     0.116 C 
BRANCH  25  26
ATOM     26  N   UNL A   1      37.962  21.289  25.640  1.00  0.00    -0.352 N 
ATOM     27  C   UNL A   1      39.227  21.480  26.153  1.00  0.00     0.251 C 
ATOM     28  H   UNL A   1      37.734  20.354  25.427  1.00  0.00     0.163 HD
ATOM     29  O   UNL A   1      40.017  20.548  26.172  1.00  0.00    -0.269 OA
BRANCH  27  30
ATOM     30  C   UNL A   1      39.629  22.819  26.641  1.00  0.00     0.039 A 
ATOM     31  C   UNL A   1      40.599  22.911  27.643  1.00  0.00     0.014 A 
ATOM     32  C   UNL A   1      39.068  23.979  26.104  1.00  0.00     0.014 A 
ATOM     33  C   UNL A   1      41.063  24.168  28.045  1.00  0.00     0.010 A 
ATOM     34  C   UNL A   1      39.595  25.223  26.437  1.00  0.00     0.010 A 
ATOM     35  C   UNL A   1      40.597  25.333  27.414  1.00  0.00    -0.014 A 
BRANCH  35  36
ATOM     36  C   UNL A   1      41.126  26.677  27.774  1.00  0.00     0.031 A 
ATOM     37  C   UNL A   1      42.555  27.030  27.457  1.00  0.00     0.074 A 
ATOM     38  C   UNL A   1      40.347  27.552  28.441  1.00  0.00     0.049 A 
ATOM     39  N   UNL A   1      43.232  28.105  27.768  1.00  0.00    -0.248 NA
ATOM     40  C   UNL A   1      43.334  26.021  26.723  1.00  0.00     0.031 C 
ATOM     41  C   UNL A   1      38.957  27.314  28.841  1.00  0.00     0.029 A 
ATOM     42  N   UNL A   1      40.612  28.815  28.910  1.00  0.00    -0.354 N 
ATOM     43  C   UNL A   1      44.520  27.896  27.282  1.00  0.00     0.074 A 
ATOM     44  C   UNL A   1      44.542  26.561  26.724  1.00  0.00     0.031 C 
ATOM     45  C   UNL A   1      38.487  28.405  29.466  1.00  0.00     0.029 A 
ATOM     46  C   UNL A   1      39.550  29.400  29.559  1.00  0.00     0.049 A 
ATOM     47  H   UNL A   1      41.482  29.260  28.792  1.00  0.00     0.167 HD
ATOM     48  C   UNL A   1      45.577  28.746  27.277  1.00  0.00     0.034 A 
ATOM     49  C   UNL A   1      39.446  30.598  30.171  1.00  0.00     0.034 A 
ATOM     50  C   UNL A   1      45.534  30.079  27.828  1.00  0.00     0.049 A 
ATOM     51  C   UNL A   1      40.642  31.518  30.177  1.00  0.00     0.074 A 
ATOM     52  C   UNL A   1      46.530  31.041  27.838  1.00  0.00     0.029 A 
ATOM     53  N   UNL A   1      44.439  30.638  28.474  1.00  0.00    -0.354 N 
ATOM     54  N   UNL A   1      41.840  31.321  29.677  1.00  0.00    -0.248 NA
ATOM     55  C   UNL A   1      40.467  32.825  30.821  1.00  0.00     0.031 C 
ATOM     56  C   UNL A   1      46.061  32.151  28.549  1.00  0.00     0.029 A 
ATOM     57  C   UNL A   1      44.744  31.920  28.909  1.00  0.00     0.049 A 
ATOM     58  H   UNL A   1      43.571  30.191  28.604  1.00  0.00     0.167 HD
ATOM     59  C   UNL A   1      42.547  32.498  29.911  1.00  0.00     0.074 A 
ATOM     60  C   UNL A   1      41.637  33.400  30.588  1.00  0.00     0.031 C 
ATOM     61  C   UNL A   1      43.829  32.809  29.588  1.00  0.00     0.034 A 
BRANCH  48  62
ATOM     62  C   UNL A   1      46.869  28.240  26.676  1.00  0.00     0.023 A 
ATOM     63  C   UNL A   1      47.102  28.276  25.290  1.00  0.00     0.031 A 
ATOM     64  C   UNL A   1      47.866  27.677  27.494  1.00  0.00     0.131 A 
ATOM     65  C   UNL A   1      48.254  27.679  24.756  1.00  0.00     0.055 A 
ATOM     66  C   UNL A   1      49.053  27.168  26.963  1.00  0.00     0.041 A 
ATOM     67  F   UNL A   1      47.694  27.594  28.823  1.00  0.00    -0.206 F 
ATOM     68  C   UNL A   1      49.245  27.149  25.585  1.00  0.00     0.022 A 
BRANCH  65  69
ATOM     69  S   UNL A   1      48.357  27.454  22.958  1.00  0.00     0.124 S 
ATOM     70  O   UNL A   1      48.278  26.000  22.839  1.00  0.00    -0.237 OA
ATOM     71  O   UNL A   1      47.197  28.197  22.480  1.00  0.00    -0.237 OA
ATOM     72  O   UNL A   1      49.655  28.030  22.614  1.00  0.00    -0.744 OA
ENDBRANCH  65  69
ENDBRANCH  48  62
BRANCH  49  73
ATOM     73  C   UNL A   1      38.170  31.005  30.829  1.00  0.00     0.023 A 
ATOM     74  C   UNL A   1      37.181  31.703  30.118  1.00  0.00     0.031 A 
ATOM     75  C   UNL A   1      37.938  30.738  32.190  1.00  0.00     0.131 A 
ATOM     76  C   UNL A   1      36.029  32.155  30.780  1.00  0.00     0.055 A 
ATOM     77  C   UNL A   1      36.765  31.141  32.831  1.00  0.00     0.041 A 
ATOM     78  F   UNL A   1      38.848  30.070  32.916  1.00  0.00    -0.206 F 
ATOM     79  C   UNL A   1      35.808  31.867  32.129  1.00  0.00     0.022 A 
BRANCH  76  80
ATOM     80  S   UNL A   1      34.859  33.203  29.873  1.00  0.00     0.124 S 
ATOM     81  O   UNL A   1      34.222  32.236  28.986  1.00  0.00    -0.237 OA
ATOM     82  O   UNL A   1      34.029  33.733  30.948  1.00  0.00    -0.237 OA
ATOM     83  O   UNL A   1      35.722  34.182  29.213  1.00  0.00    -0.744 OA
ENDBRANCH  76  80
ENDBRANCH  49  73
BRANCH  61  84
ATOM     84  C   UNL A   1      44.301  34.207  29.909  1.00  0.00     0.023 A 
ATOM     85  C   UNL A   1      44.121  35.280  29.020  1.00  0.00     0.031 A 
ATOM     86  C   UNL A   1      44.954  34.463  31.129  1.00  0.00     0.131 A 
ATOM     87  C   UNL A   1      44.640  36.544  29.335  1.00  0.00     0.055 A 
ATOM     88  C   UNL A   1      45.411  35.739  31.466  1.00  0.00     0.041 A 
ATOM     89  F   UNL A   1      45.159  33.476  32.017  1.00  0.00    -0.206 F 
ATOM     90  C   UNL A   1      45.268  36.785  30.561  1.00  0.00     0.022 A 
BRANCH  87  91
ATOM     91  S   UNL A   1      44.579  37.851  28.078  1.00  0.00     0.124 S 
ATOM     92  O   UNL A   1      45.361  37.266  26.994  1.00  0.00    -0.237 OA
ATOM     93  O   UNL A   1      43.147  37.980  27.833  1.00  0.00    -0.237 OA
ATOM     94  O   UNL A   1      45.200  38.996  28.742  1.00  0.00    -0.744 OA
ENDBRANCH  87  91
ENDBRANCH  61  84
ENDBRANCH  35  36
ENDBRANCH  27  30
ENDBRANCH  25  26
ENDBRANCH  24  25
ENDBRANCH   1  24
TORSDOF 17
ENDMDL
MODEL 3
REMARK VINA RESULT:     -11.8      2.976      8.230
REMARK SMILES C[C@@H]1[C@@H](C(=O)NCCCCNC(=O)c2ccc(-c3c4nc(c(-c5cc(S(=O)(=O)[O-])ccc5F)c5ccc([nH]5)c(-c5cc(S(=O)(=O)[O-])ccc5F)c5nc(c(-c6cc(S(=O)(=O)[O-])ccc6F)c6ccc3[nH]6)C=C5)C=C4)cc2)CCN1C(=O)[C@]1([NH3+])CCOC1
REMARK SMILES IDX 8 1 7 2 6 3 4 4 5 5 3 7 1 8 2 9 79 10 77 11 78 12 80 13
REMARK SMILES IDX 81 14 82 15 84 16 87 17 85 18 86 19 83 20 9 24 10 25 11 26
REMARK SMILES IDX 12 27 13 29 14 30 15 31 76 32 16 33 75 34 17 35 18 36 19 37
REMARK SMILES IDX 69 38 20 39 74 40 68 41 70 42 21 43 73 44 67 45 66 46 22 48
REMARK SMILES IDX 54 49 34 50 53 51 35 52 38 53 52 54 71 55 36 56 37 57 51 59
REMARK SMILES IDX 72 60 39 61 23 62 24 63 32 64 25 65 31 66 33 67 30 68 26 69
REMARK SMILES IDX 27 70 28 71 29 72 55 73 56 74 64 75 57 76 63 77 65 78 62 79
REMARK SMILES IDX 58 80 59 81 60 82 61 83 40 84 41 85 49 86 42 87 48 88 50 89
REMARK SMILES IDX 47 90 43 91 44 92 45 93 46 94
REMARK H PARENT 6 6 83 21 83 22 83 23 11 28 70 47 38 58
REMARK Flexibility Score: inf
ROOT
ATOM      1  C   UNL A   1      34.537  21.899  26.647  1.00  0.00     0.023 C 
ENDROOT
BRANCH   1   2
ATOM      2  C   UNL A   1      33.123  21.503  26.241  1.00  0.00     0.116 C 
BRANCH   2   3
ATOM      3  N   UNL A   1      32.081  22.207  26.967  1.00  0.00    -0.356 N 
ATOM      4  C   UNL A   1      31.435  23.364  26.622  1.00  0.00     0.225 C 
ATOM      5  O   UNL A   1      30.512  23.757  27.333  1.00  0.00    -0.275 OA
ATOM      6  H   UNL A   1      31.801  21.798  27.818  1.00  0.00     0.163 HD
BRANCH   4   7
ATOM      7  C   UNL A   1      31.933  24.147  25.414  1.00  0.00     0.102 C 
ATOM      8  C   UNL A   1      33.825  25.582  24.640  1.00  0.00     0.032 C 
ATOM      9  C   UNL A   1      32.837  25.346  25.793  1.00  0.00     0.094 C 
ATOM     10  N   UNL A   1      31.903  26.475  25.943  1.00  0.00    -0.334 N 
ATOM     11  C   UNL A   1      30.804  24.826  24.634  1.00  0.00     0.037 C 
ATOM     12  C   UNL A   1      30.613  26.142  25.358  1.00  0.00     0.121 C 
BRANCH  10  13
ATOM     13  C   UNL A   1      31.968  27.646  26.667  1.00  0.00     0.286 C 
ATOM     14  O   UNL A   1      31.379  27.690  27.763  1.00  0.00    -0.267 OA
BRANCH  13  15
ATOM     15  C   UNL A   1      32.745  28.935  26.221  1.00  0.00     0.199 C 
ATOM     16  C   UNL A   1      34.241  28.908  26.456  1.00  0.00     0.110 C 
ATOM     17  C   UNL A   1      32.263  30.213  26.906  1.00  0.00     0.239 C 
ATOM     18  C   UNL A   1      34.496  29.941  27.529  1.00  0.00     0.167 C 
ATOM     19  O   UNL A   1      33.371  30.810  27.600  1.00  0.00    -0.374 OA
BRANCH  15  20
ATOM     20  N   UNL A   1      32.548  29.051  24.732  1.00  0.00    -0.343 N 
ATOM     21  H   UNL A   1      31.569  29.260  24.534  1.00  0.00     0.345 HD
ATOM     22  H   UNL A   1      32.806  28.171  24.286  1.00  0.00     0.345 HD
ATOM     23  H   UNL A   1      33.135  29.802  24.369  1.00  0.00     0.345 HD
ENDBRANCH  15  20
ENDBRANCH  13  15
ENDBRANCH  10  13
ENDBRANCH   4   7
ENDBRANCH   2   3
ENDBRANCH   1   2
BRANCH   1  24
ATOM     24  C   UNL A   1      35.504  22.164  25.494  1.00  0.00     0.023 C 
BRANCH  24  25
ATOM     25  C   UNL A   1      36.740  22.984  25.843  1.00  0.00     0.116 C 
BRANCH  25  26
ATOM     26  N   UNL A   1      37.927  22.169  26.052  1.00  0.00    -0.352 N 
ATOM     27  C   UNL A   1      39.198  22.541  26.433  1.00  0.00     0.251 C 
ATOM     28  H   UNL A   1      37.803  21.204  25.897  1.00  0.00     0.163 HD
ATOM     29  O   UNL A   1      40.100  21.717  26.410  1.00  0.00    -0.269 OA
BRANCH  27  30
ATOM     30  C   UNL A   1      39.467  23.943  26.831  1.00  0.00     0.039 A 
ATOM     31  C   UNL A   1      39.223  24.330  28.152  1.00  0.00     0.014 A 
ATOM     32  C   UNL A   1      39.973  24.866  25.915  1.00  0.00     0.014 A 
ATOM     33  C   UNL A   1      39.564  25.620  28.570  1.00  0.00     0.010 A 
ATOM     34  C   UNL A   1      40.397  26.117  26.354  1.00  0.00     0.010 A 
ATOM     35  C   UNL A   1      40.195  26.510  27.686  1.00  0.00    -0.014 A 
BRANCH  35  36
ATOM     36  C   UNL A   1      40.633  27.863  28.126  1.00  0.00     0.031 A 
ATOM     37  C   UNL A   1      42.100  28.201  28.167  1.00  0.00     0.074 A 
ATOM     38  C   UNL A   1      39.722  28.762  28.549  1.00  0.00     0.049 A 
ATOM     39  N   UNL A   1      42.690  29.283  28.604  1.00  0.00    -0.248 NA
ATOM     40  C   UNL A   1      43.026  27.165  27.683  1.00  0.00     0.031 C 
ATOM     41  C   UNL A   1      38.274  28.543  28.594  1.00  0.00     0.029 A 
ATOM     42  N   UNL A   1      39.876  30.039  29.031  1.00  0.00    -0.354 N 
ATOM     43  C   UNL A   1      44.056  29.052  28.464  1.00  0.00     0.074 A 
ATOM     44  C   UNL A   1      44.202  27.700  27.971  1.00  0.00     0.031 C 
ATOM     45  C   UNL A   1      37.674  29.656  29.048  1.00  0.00     0.029 A 
ATOM     46  C   UNL A   1      38.692  30.649  29.374  1.00  0.00     0.049 A 
ATOM     47  H   UNL A   1      40.753  30.477  29.121  1.00  0.00     0.167 HD
ATOM     48  C   UNL A   1      45.091  29.898  28.698  1.00  0.00     0.034 A 
ATOM     49  C   UNL A   1      38.453  31.867  29.903  1.00  0.00     0.034 A 
ATOM     50  C   UNL A   1      44.927  31.248  29.180  1.00  0.00     0.049 A 
ATOM     51  C   UNL A   1      39.620  32.781  30.181  1.00  0.00     0.074 A 
ATOM     52  C   UNL A   1      45.900  32.206  29.410  1.00  0.00     0.029 A 
ATOM     53  N   UNL A   1      43.711  31.833  29.513  1.00  0.00    -0.354 N 
ATOM     54  N   UNL A   1      40.903  32.564  30.004  1.00  0.00    -0.248 NA
ATOM     55  C   UNL A   1      39.304  34.110  30.720  1.00  0.00     0.031 C 
ATOM     56  C   UNL A   1      45.281  33.341  29.947  1.00  0.00     0.029 A 
ATOM     57  C   UNL A   1      43.913  33.126  29.971  1.00  0.00     0.049 A 
ATOM     58  H   UNL A   1      42.834  31.393  29.435  1.00  0.00     0.167 HD
ATOM     59  C   UNL A   1      41.542  33.745  30.372  1.00  0.00     0.074 A 
ATOM     60  C   UNL A   1      40.502  34.672  30.771  1.00  0.00     0.031 C 
ATOM     61  C   UNL A   1      42.868  34.041  30.371  1.00  0.00     0.034 A 
BRANCH  48  62
ATOM     62  C   UNL A   1      46.486  29.368  28.457  1.00  0.00     0.023 A 
ATOM     63  C   UNL A   1      46.947  29.065  27.164  1.00  0.00     0.031 A 
ATOM     64  C   UNL A   1      47.354  29.123  29.536  1.00  0.00     0.131 A 
ATOM     65  C   UNL A   1      48.197  28.452  26.989  1.00  0.00     0.055 A 
ATOM     66  C   UNL A   1      48.635  28.598  29.346  1.00  0.00     0.041 A 
ATOM     67  F   UNL A   1      46.966  29.370  30.797  1.00  0.00    -0.206 F 
ATOM     68  C   UNL A   1      49.056  28.242  28.069  1.00  0.00     0.022 A 
BRANCH  65  69
ATOM     69  S   UNL A   1      48.609  27.782  25.354  1.00  0.00     0.124 S 
ATOM     70  O   UNL A   1      49.968  28.286  25.164  1.00  0.00    -0.237 OA
ATOM     71  O   UNL A   1      48.486  26.344  25.562  1.00  0.00    -0.237 OA
ATOM     72  O   UNL A   1      47.604  28.377  24.476  1.00  0.00    -0.744 OA
ENDBRANCH  65  69
ENDBRANCH  48  62
BRANCH  49  73
ATOM     73  C   UNL A   1      37.058  32.300  30.207  1.00  0.00     0.023 A 
ATOM     74  C   UNL A   1      36.300  33.012  29.263  1.00  0.00     0.031 A 
ATOM     75  C   UNL A   1      36.475  32.045  31.461  1.00  0.00     0.131 A 
ATOM     76  C   UNL A   1      35.024  33.488  29.604  1.00  0.00     0.055 A 
ATOM     77  C   UNL A   1      35.184  32.472  31.776  1.00  0.00     0.041 A 
ATOM     78  F   UNL A   1      37.153  31.363  32.399  1.00  0.00    -0.206 F 
ATOM     79  C   UNL A   1      34.455  33.211  30.850  1.00  0.00     0.022 A 
BRANCH  76  80
ATOM     80  S   UNL A   1      34.150  34.552  28.423  1.00  0.00     0.124 S 
ATOM     81  O   UNL A   1      34.093  35.816  29.150  1.00  0.00    -0.237 OA
ATOM     82  O   UNL A   1      35.038  34.515  27.267  1.00  0.00    -0.237 OA
ATOM     83  O   UNL A   1      32.866  33.876  28.243  1.00  0.00    -0.744 OA
ENDBRANCH  76  80
ENDBRANCH  49  73
BRANCH  61  84
ATOM     84  C   UNL A   1      43.261  35.447  30.758  1.00  0.00     0.023 A 
ATOM     85  C   UNL A   1      43.493  35.817  32.094  1.00  0.00     0.031 A 
ATOM     86  C   UNL A   1      43.393  36.436  29.766  1.00  0.00     0.131 A 
ATOM     87  C   UNL A   1      43.787  37.152  32.408  1.00  0.00     0.055 A 
ATOM     88  C   UNL A   1      43.751  37.748  30.079  1.00  0.00     0.041 A 
ATOM     89  F   UNL A   1      43.179  36.142  28.474  1.00  0.00    -0.206 F 
ATOM     90  C   UNL A   1      43.935  38.117  31.407  1.00  0.00     0.022 A 
BRANCH  87  91
ATOM     91  S   UNL A   1      43.870  37.639  34.154  1.00  0.00     0.124 S 
ATOM     92  O   UNL A   1      44.785  38.775  34.109  1.00  0.00    -0.237 OA
ATOM     93  O   UNL A   1      42.478  37.954  34.456  1.00  0.00    -0.237 OA
ATOM     94  O   UNL A   1      44.395  36.447  34.818  1.00  0.00    -0.744 OA
ENDBRANCH  87  91
ENDBRANCH  61  84
ENDBRANCH  35  36
ENDBRANCH  27  30
ENDBRANCH  25  26
ENDBRANCH  24  25
ENDBRANCH   1  24
TORSDOF 17
ENDMDL
