MODEL 1
REMARK VINA RESULT:     -11.7      0.000      0.000
REMARK SMILES C[C@H]1OCC[C@H]1c1nnnn1CCC(=O)NCCCCNC(=O)c1ccc(-c2c3nc(c(-c4cc(S(=O)(=O)[O-])ccc4F)c4ccc([nH]4)c(-c4cc(S(=O)(=O)[O-])ccc4F)c4nc(c(-c5cc(S(=O)(=O)[O-])ccc5F)c5ccc2[nH]5)C=C4)C=C3)cc1
REMARK SMILES IDX 18 1 17 2 16 3 14 4 15 5 13 7 12 8 11 9 7 10 8 11 9 12 10 13
REMARK SMILES IDX 6 14 1 15 2 16 3 17 4 18 5 19 19 20 20 21 21 22 22 23 23 25
REMARK SMILES IDX 24 26 25 27 86 28 26 29 85 30 27 31 28 32 29 33 79 34 30 35
REMARK SMILES IDX 84 36 78 37 80 38 31 39 83 40 77 41 76 42 32 44 64 45 44 46
REMARK SMILES IDX 63 47 45 48 48 49 62 50 81 51 46 52 47 53 61 55 82 56 49 57
REMARK SMILES IDX 33 58 34 59 42 60 35 61 41 62 43 63 40 64 36 65 37 66 38 67
REMARK SMILES IDX 39 68 65 69 66 70 74 71 67 72 73 73 75 74 72 75 68 76 69 77
REMARK SMILES IDX 70 78 71 79 50 80 51 81 59 82 52 83 58 84 60 85 57 86 53 87
REMARK SMILES IDX 54 88 55 89 56 90
REMARK H PARENT 16 6 21 24 80 43 48 54
REMARK Flexibility Score: inf
ROOT
ATOM      1  C   UNL A   1      32.984  30.055  26.706  1.00  0.00     0.023 C 
ENDROOT
BRANCH   1   2
ATOM      2  C   UNL A   1      31.700  29.705  25.956  1.00  0.00     0.116 C 
BRANCH   2   3
ATOM      3  N   UNL A   1      31.940  29.691  24.521  1.00  0.00    -0.356 N 
ATOM      4  C   UNL A   1      32.175  28.633  23.697  1.00  0.00     0.221 C 
ATOM      5  O   UNL A   1      32.616  28.837  22.566  1.00  0.00    -0.275 OA
ATOM      6  H   UNL A   1      31.930  30.572  24.084  1.00  0.00     0.163 HD
BRANCH   4   7
ATOM      7  C   UNL A   1      31.860  27.223  24.148  1.00  0.00     0.124 C 
BRANCH   7   8
ATOM      8  C   UNL A   1      33.070  26.482  24.700  1.00  0.00     0.158 C 
BRANCH   8   9
ATOM      9  N   UNL A   1      33.613  25.454  23.843  1.00  0.00    -0.229 N 
ATOM     10  C   UNL A   1      34.646  24.566  24.044  1.00  0.00     0.157 A 
ATOM     11  N   UNL A   1      34.774  23.856  22.939  1.00  0.00    -0.113 NA
ATOM     12  N   UNL A   1      33.665  24.125  22.188  1.00  0.00    -0.024 NA
ATOM     13  N   UNL A   1      32.902  25.030  22.785  1.00  0.00    -0.045 NA
BRANCH  10  14
ATOM     14  C   UNL A   1      35.282  24.263  25.361  1.00  0.00     0.090 C 
ATOM     15  C   UNL A   1      33.102  22.820  25.717  1.00  0.00     0.039 C 
ATOM     16  C   UNL A   1      34.543  23.130  26.117  1.00  0.00     0.126 C 
ATOM     17  O   UNL A   1      35.304  21.914  25.949  1.00  0.00    -0.378 OA
ATOM     18  C   UNL A   1      36.381  22.182  25.047  1.00  0.00     0.161 C 
ATOM     19  C   UNL A   1      36.674  23.659  25.206  1.00  0.00     0.043 C 
ENDBRANCH  10  14
ENDBRANCH   8   9
ENDBRANCH   7   8
ENDBRANCH   4   7
ENDBRANCH   2   3
ENDBRANCH   1   2
BRANCH   1  20
ATOM     20  C   UNL A   1      33.846  28.913  27.232  1.00  0.00     0.023 C 
BRANCH  20  21
ATOM     21  C   UNL A   1      35.303  29.278  27.408  1.00  0.00     0.116 C 
BRANCH  21  22
ATOM     22  N   UNL A   1      35.565  30.038  28.628  1.00  0.00    -0.352 N 
ATOM     23  C   UNL A   1      36.614  29.826  29.513  1.00  0.00     0.251 C 
ATOM     24  H   UNL A   1      34.940  30.767  28.843  1.00  0.00     0.163 HD
ATOM     25  O   UNL A   1      36.584  30.226  30.655  1.00  0.00    -0.269 OA
BRANCH  23  26
ATOM     26  C   UNL A   1      37.774  29.084  28.980  1.00  0.00     0.039 A 
ATOM     27  C   UNL A   1      38.501  29.572  27.896  1.00  0.00     0.014 A 
ATOM     28  C   UNL A   1      38.213  27.987  29.720  1.00  0.00     0.014 A 
ATOM     29  C   UNL A   1      39.748  29.010  27.630  1.00  0.00     0.010 A 
ATOM     30  C   UNL A   1      39.495  27.523  29.535  1.00  0.00     0.010 A 
ATOM     31  C   UNL A   1      40.264  28.012  28.481  1.00  0.00    -0.014 A 
BRANCH  31  32
ATOM     32  C   UNL A   1      41.673  27.618  28.389  1.00  0.00     0.031 A 
ATOM     33  C   UNL A   1      41.912  26.376  27.595  1.00  0.00     0.074 A 
ATOM     34  C   UNL A   1      42.705  28.394  28.789  1.00  0.00     0.049 A 
ATOM     35  N   UNL A   1      42.270  25.218  28.038  1.00  0.00    -0.248 NA
ATOM     36  C   UNL A   1      41.549  26.368  26.167  1.00  0.00     0.031 C 
ATOM     37  C   UNL A   1      42.659  29.763  29.319  1.00  0.00     0.029 A 
ATOM     38  N   UNL A   1      44.046  28.157  28.718  1.00  0.00    -0.354 N 
ATOM     39  C   UNL A   1      42.435  24.406  26.919  1.00  0.00     0.074 A 
ATOM     40  C   UNL A   1      41.775  25.093  25.842  1.00  0.00     0.031 C 
ATOM     41  C   UNL A   1      43.897  30.305  29.297  1.00  0.00     0.029 A 
ATOM     42  C   UNL A   1      44.851  29.275  28.928  1.00  0.00     0.049 A 
ATOM     43  H   UNL A   1      44.417  27.264  28.531  1.00  0.00     0.167 HD
ATOM     44  C   UNL A   1      43.319  23.366  26.935  1.00  0.00     0.034 A 
ATOM     45  C   UNL A   1      46.205  29.363  28.816  1.00  0.00     0.034 A 
ATOM     46  C   UNL A   1      43.702  23.047  28.296  1.00  0.00     0.049 A 
ATOM     47  C   UNL A   1      46.728  27.984  28.967  1.00  0.00     0.074 A 
ATOM     48  C   UNL A   1      43.014  22.669  29.434  1.00  0.00     0.029 A 
ATOM     49  N   UNL A   1      44.927  23.493  28.741  1.00  0.00    -0.354 N 
ATOM     50  N   UNL A   1      46.618  27.299  30.072  1.00  0.00    -0.248 NA
ATOM     51  C   UNL A   1      46.916  27.191  27.762  1.00  0.00     0.031 C 
ATOM     52  C   UNL A   1      43.640  23.392  30.493  1.00  0.00     0.029 A 
ATOM     53  C   UNL A   1      44.733  24.084  29.965  1.00  0.00     0.049 A 
ATOM     54  H   UNL A   1      45.785  23.404  28.268  1.00  0.00     0.167 HD
ATOM     55  C   UNL A   1      46.269  26.021  29.664  1.00  0.00     0.074 A 
ATOM     56  C   UNL A   1      46.566  25.990  28.231  1.00  0.00     0.031 C 
ATOM     57  C   UNL A   1      45.511  25.207  30.458  1.00  0.00     0.034 A 
BRANCH  44  58
ATOM     58  C   UNL A   1      44.148  22.900  25.750  1.00  0.00     0.023 A 
ATOM     59  C   UNL A   1      44.195  21.510  25.515  1.00  0.00     0.031 A 
ATOM     60  C   UNL A   1      45.105  23.666  25.048  1.00  0.00     0.131 A 
ATOM     61  C   UNL A   1      45.229  20.935  24.756  1.00  0.00     0.055 A 
ATOM     62  C   UNL A   1      46.092  23.093  24.238  1.00  0.00     0.041 A 
ATOM     63  F   UNL A   1      45.203  24.993  25.164  1.00  0.00    -0.206 F 
ATOM     64  C   UNL A   1      46.185  21.718  24.120  1.00  0.00     0.022 A 
BRANCH  61  65
ATOM     65  S   UNL A   1      45.412  19.134  24.788  1.00  0.00     0.124 S 
ATOM     66  O   UNL A   1      45.481  18.826  23.362  1.00  0.00    -0.237 OA
ATOM     67  O   UNL A   1      46.648  18.970  25.545  1.00  0.00    -0.237 OA
ATOM     68  O   UNL A   1      44.200  18.683  25.467  1.00  0.00    -0.744 OA
ENDBRANCH  61  65
ENDBRANCH  44  58
BRANCH  45  69
ATOM     69  C   UNL A   1      47.012  30.496  28.269  1.00  0.00     0.023 A 
ATOM     70  C   UNL A   1      46.474  31.503  27.434  1.00  0.00     0.031 A 
ATOM     71  C   UNL A   1      48.302  30.736  28.793  1.00  0.00     0.131 A 
ATOM     72  C   UNL A   1      47.215  32.681  27.165  1.00  0.00     0.055 A 
ATOM     73  C   UNL A   1      49.025  31.903  28.528  1.00  0.00     0.041 A 
ATOM     74  F   UNL A   1      48.871  29.879  29.656  1.00  0.00    -0.206 F 
ATOM     75  C   UNL A   1      48.479  32.886  27.722  1.00  0.00     0.022 A 
BRANCH  72  76
ATOM     76  S   UNL A   1      46.510  34.022  26.146  1.00  0.00     0.124 S 
ATOM     77  O   UNL A   1      47.645  34.415  25.319  1.00  0.00    -0.237 OA
ATOM     78  O   UNL A   1      45.408  33.354  25.463  1.00  0.00    -0.237 OA
ATOM     79  O   UNL A   1      46.098  35.023  27.132  1.00  0.00    -0.744 OA
ENDBRANCH  72  76
ENDBRANCH  45  69
BRANCH  57  80
ATOM     80  C   UNL A   1      45.314  25.592  31.914  1.00  0.00     0.023 A 
ATOM     81  C   UNL A   1      46.221  25.319  32.966  1.00  0.00     0.031 A 
ATOM     82  C   UNL A   1      44.188  26.377  32.215  1.00  0.00     0.131 A 
ATOM     83  C   UNL A   1      45.972  25.823  34.260  1.00  0.00     0.055 A 
ATOM     84  C   UNL A   1      43.958  26.894  33.489  1.00  0.00     0.041 A 
ATOM     85  F   UNL A   1      43.300  26.691  31.257  1.00  0.00    -0.206 F 
ATOM     86  C   UNL A   1      44.847  26.614  34.518  1.00  0.00     0.022 A 
BRANCH  83  87
ATOM     87  S   UNL A   1      47.093  25.443  35.648  1.00  0.00     0.124 S 
ATOM     88  O   UNL A   1      46.246  24.714  36.584  1.00  0.00    -0.237 OA
ATOM     89  O   UNL A   1      48.147  24.666  35.002  1.00  0.00    -0.237 OA
ATOM     90  O   UNL A   1      47.517  26.765  36.115  1.00  0.00    -0.744 OA
ENDBRANCH  83  87
ENDBRANCH  57  80
ENDBRANCH  31  32
ENDBRANCH  23  26
ENDBRANCH  21  22
ENDBRANCH  20  21
ENDBRANCH   1  20
TORSDOF 17
ENDMDL
MODEL 2
REMARK VINA RESULT:     -11.6      4.397     10.646
REMARK SMILES C[C@H]1OCC[C@H]1c1nnnn1CCC(=O)NCCCCNC(=O)c1ccc(-c2c3nc(c(-c4cc(S(=O)(=O)[O-])ccc4F)c4ccc([nH]4)c(-c4cc(S(=O)(=O)[O-])ccc4F)c4nc(c(-c5cc(S(=O)(=O)[O-])ccc5F)c5ccc2[nH]5)C=C4)C=C3)cc1
REMARK SMILES IDX 18 1 17 2 16 3 14 4 15 5 13 7 12 8 11 9 7 10 8 11 9 12 10 13
REMARK SMILES IDX 6 14 1 15 2 16 3 17 4 18 5 19 19 20 20 21 21 22 22 23 23 25
REMARK SMILES IDX 24 26 25 27 86 28 26 29 85 30 27 31 28 32 29 33 79 34 30 35
REMARK SMILES IDX 84 36 78 37 80 38 31 39 83 40 77 41 76 42 32 44 64 45 44 46
REMARK SMILES IDX 63 47 45 48 48 49 62 50 81 51 46 52 47 53 61 55 82 56 49 57
REMARK SMILES IDX 33 58 34 59 42 60 35 61 41 62 43 63 40 64 36 65 37 66 38 67
REMARK SMILES IDX 39 68 65 69 66 70 74 71 67 72 73 73 75 74 72 75 68 76 69 77
REMARK SMILES IDX 70 78 71 79 50 80 51 81 59 82 52 83 58 84 60 85 57 86 53 87
REMARK SMILES IDX 54 88 55 89 56 90
REMARK H PARENT 16 6 21 24 80 43 48 54
REMARK Flexibility Score: inf
ROOT
ATOM      1  C   UNL A   1      37.341  21.991  25.280  1.00  0.00     0.023 C 
ENDROOT
BRANCH   1   2
ATOM      2  C   UNL A   1      35.977  21.302  25.253  1.00  0.00     0.116 C 
BRANCH   2   3
ATOM      3  N   UNL A   1      35.291  21.486  26.523  1.00  0.00    -0.356 N 
ATOM      4  C   UNL A   1      34.308  22.369  26.851  1.00  0.00     0.221 C 
ATOM      5  O   UNL A   1      34.039  22.557  28.037  1.00  0.00    -0.275 OA
ATOM      6  H   UNL A   1      35.580  20.888  27.248  1.00  0.00     0.163 HD
BRANCH   4   7
ATOM      7  C   UNL A   1      33.523  23.081  25.770  1.00  0.00     0.124 C 
BRANCH   7   8
ATOM      8  C   UNL A   1      33.794  24.578  25.716  1.00  0.00     0.158 C 
BRANCH   8   9
ATOM      9  N   UNL A   1      32.721  25.420  26.190  1.00  0.00    -0.229 N 
ATOM     10  C   UNL A   1      32.711  26.751  26.547  1.00  0.00     0.157 A 
ATOM     11  N   UNL A   1      31.488  27.039  26.950  1.00  0.00    -0.113 NA
ATOM     12  N   UNL A   1      30.710  25.976  26.586  1.00  0.00    -0.024 NA
ATOM     13  N   UNL A   1      31.447  25.024  26.031  1.00  0.00    -0.045 NA
BRANCH  10  14
ATOM     14  C   UNL A   1      33.790  27.736  26.242  1.00  0.00     0.090 C 
ATOM     15  C   UNL A   1      32.656  27.754  23.860  1.00  0.00     0.039 C 
ATOM     16  C   UNL A   1      33.571  28.434  24.875  1.00  0.00     0.126 C 
ATOM     17  O   UNL A   1      33.028  29.748  25.128  1.00  0.00    -0.378 OA
ATOM     18  C   UNL A   1      32.777  29.864  26.532  1.00  0.00     0.161 C 
ATOM     19  C   UNL A   1      33.770  28.930  27.192  1.00  0.00     0.043 C 
ENDBRANCH  10  14
ENDBRANCH   8   9
ENDBRANCH   7   8
ENDBRANCH   4   7
ENDBRANCH   2   3
ENDBRANCH   1   2
BRANCH   1  20
ATOM     20  C   UNL A   1      37.379  23.513  25.313  1.00  0.00     0.023 C 
BRANCH  20  21
ATOM     21  C   UNL A   1      38.191  24.080  26.456  1.00  0.00     0.116 C 
BRANCH  21  22
ATOM     22  N   UNL A   1      39.627  24.098  26.191  1.00  0.00    -0.352 N 
ATOM     23  C   UNL A   1      40.479  25.179  26.377  1.00  0.00     0.251 C 
ATOM     24  H   UNL A   1      40.029  23.267  25.848  1.00  0.00     0.163 HD
ATOM     25  O   UNL A   1      41.552  25.258  25.822  1.00  0.00    -0.269 OA
BRANCH  23  26
ATOM     26  C   UNL A   1      40.002  26.231  27.299  1.00  0.00     0.039 A 
ATOM     27  C   UNL A   1      39.588  25.918  28.591  1.00  0.00     0.014 A 
ATOM     28  C   UNL A   1      40.164  27.552  26.882  1.00  0.00     0.014 A 
ATOM     29  C   UNL A   1      39.444  26.957  29.508  1.00  0.00     0.010 A 
ATOM     30  C   UNL A   1      40.146  28.557  27.820  1.00  0.00     0.010 A 
ATOM     31  C   UNL A   1      39.768  28.275  29.132  1.00  0.00    -0.014 A 
BRANCH  31  32
ATOM     32  C   UNL A   1      39.899  29.324  30.148  1.00  0.00     0.031 A 
ATOM     33  C   UNL A   1      38.644  30.094  30.398  1.00  0.00     0.074 A 
ATOM     34  C   UNL A   1      40.974  29.468  30.954  1.00  0.00     0.049 A 
ATOM     35  N   UNL A   1      38.396  31.318  30.073  1.00  0.00    -0.248 NA
ATOM     36  C   UNL A   1      37.465  29.378  30.917  1.00  0.00     0.031 C 
ATOM     37  C   UNL A   1      42.165  28.616  31.039  1.00  0.00     0.029 A 
ATOM     38  N   UNL A   1      41.191  30.370  31.954  1.00  0.00    -0.354 N 
ATOM     39  C   UNL A   1      37.132  31.609  30.580  1.00  0.00     0.074 A 
ATOM     40  C   UNL A   1      36.536  30.337  30.885  1.00  0.00     0.031 C 
ATOM     41  C   UNL A   1      42.852  28.897  32.169  1.00  0.00     0.029 A 
ATOM     42  C   UNL A   1      42.259  30.063  32.798  1.00  0.00     0.049 A 
ATOM     43  H   UNL A   1      40.636  31.175  32.072  1.00  0.00     0.167 HD
ATOM     44  C   UNL A   1      36.799  32.884  30.935  1.00  0.00     0.034 A 
ATOM     45  C   UNL A   1      42.643  30.715  33.929  1.00  0.00     0.034 A 
ATOM     46  C   UNL A   1      37.739  33.830  30.369  1.00  0.00     0.049 A 
ATOM     47  C   UNL A   1      42.097  32.089  33.827  1.00  0.00     0.074 A 
ATOM     48  C   UNL A   1      38.150  34.140  29.086  1.00  0.00     0.029 A 
ATOM     49  N   UNL A   1      38.711  34.345  31.199  1.00  0.00    -0.354 N 
ATOM     50  N   UNL A   1      42.479  32.940  32.914  1.00  0.00    -0.248 NA
ATOM     51  C   UNL A   1      40.788  32.347  34.405  1.00  0.00     0.031 C 
ATOM     52  C   UNL A   1      39.560  34.337  29.194  1.00  0.00     0.029 A 
ATOM     53  C   UNL A   1      39.913  34.241  30.543  1.00  0.00     0.049 A 
ATOM     54  H   UNL A   1      38.570  34.720  32.097  1.00  0.00     0.167 HD
ATOM     55  C   UNL A   1      41.310  33.549  32.484  1.00  0.00     0.074 A 
ATOM     56  C   UNL A   1      40.317  33.217  33.507  1.00  0.00     0.031 C 
ATOM     57  C   UNL A   1      41.185  34.020  31.207  1.00  0.00     0.034 A 
BRANCH  44  58
ATOM     58  C   UNL A   1      35.894  33.264  32.095  1.00  0.00     0.023 A 
ATOM     59  C   UNL A   1      34.790  34.090  31.797  1.00  0.00     0.031 A 
ATOM     60  C   UNL A   1      36.199  33.134  33.468  1.00  0.00     0.131 A 
ATOM     61  C   UNL A   1      34.154  34.843  32.798  1.00  0.00     0.055 A 
ATOM     62  C   UNL A   1      35.518  33.834  34.469  1.00  0.00     0.041 A 
ATOM     63  F   UNL A   1      37.218  32.398  33.922  1.00  0.00    -0.206 F 
ATOM     64  C   UNL A   1      34.514  34.727  34.135  1.00  0.00     0.022 A 
BRANCH  61  65
ATOM     65  S   UNL A   1      32.982  36.126  32.287  1.00  0.00     0.124 S 
ATOM     66  O   UNL A   1      33.374  36.337  30.897  1.00  0.00    -0.237 OA
ATOM     67  O   UNL A   1      31.699  35.465  32.502  1.00  0.00    -0.237 OA
ATOM     68  O   UNL A   1      33.275  37.232  33.195  1.00  0.00    -0.744 OA
ENDBRANCH  61  65
ENDBRANCH  44  58
BRANCH  45  69
ATOM     69  C   UNL A   1      43.156  30.124  35.202  1.00  0.00     0.023 A 
ATOM     70  C   UNL A   1      42.789  28.840  35.668  1.00  0.00     0.031 A 
ATOM     71  C   UNL A   1      44.245  30.743  35.857  1.00  0.00     0.131 A 
ATOM     72  C   UNL A   1      43.502  28.234  36.733  1.00  0.00     0.055 A 
ATOM     73  C   UNL A   1      44.947  30.137  36.903  1.00  0.00     0.041 A 
ATOM     74  F   UNL A   1      44.721  31.928  35.443  1.00  0.00    -0.206 F 
ATOM     75  C   UNL A   1      44.585  28.874  37.338  1.00  0.00     0.022 A 
BRANCH  72  76
ATOM     76  S   UNL A   1      43.086  26.549  37.302  1.00  0.00     0.124 S 
ATOM     77  O   UNL A   1      43.770  26.477  38.588  1.00  0.00    -0.237 OA
ATOM     78  O   UNL A   1      41.629  26.579  37.341  1.00  0.00    -0.237 OA
ATOM     79  O   UNL A   1      43.650  25.687  36.262  1.00  0.00    -0.744 OA
ENDBRANCH  72  76
ENDBRANCH  45  69
BRANCH  57  80
ATOM     80  C   UNL A   1      42.436  34.152  30.357  1.00  0.00     0.023 A 
ATOM     81  C   UNL A   1      43.320  35.258  30.361  1.00  0.00     0.031 A 
ATOM     82  C   UNL A   1      42.799  33.034  29.584  1.00  0.00     0.131 A 
ATOM     83  C   UNL A   1      44.508  35.214  29.600  1.00  0.00     0.055 A 
ATOM     84  C   UNL A   1      43.985  32.985  28.854  1.00  0.00     0.041 A 
ATOM     85  F   UNL A   1      42.014  31.943  29.555  1.00  0.00    -0.206 F 
ATOM     86  C   UNL A   1      44.842  34.077  28.855  1.00  0.00     0.022 A 
BRANCH  83  87
ATOM     87  S   UNL A   1      45.638  36.644  29.542  1.00  0.00     0.124 S 
ATOM     88  O   UNL A   1      44.764  37.783  29.791  1.00  0.00    -0.237 OA
ATOM     89  O   UNL A   1      46.599  36.334  30.597  1.00  0.00    -0.237 OA
ATOM     90  O   UNL A   1      46.190  36.586  28.186  1.00  0.00    -0.744 OA
ENDBRANCH  83  87
ENDBRANCH  57  80
ENDBRANCH  31  32
ENDBRANCH  23  26
ENDBRANCH  21  22
ENDBRANCH  20  21
ENDBRANCH   1  20
TORSDOF 17
ENDMDL
MODEL 3
REMARK VINA RESULT:     -11.6      1.717      2.186
REMARK SMILES C[C@H]1OCC[C@H]1c1nnnn1CCC(=O)NCCCCNC(=O)c1ccc(-c2c3nc(c(-c4cc(S(=O)(=O)[O-])ccc4F)c4ccc([nH]4)c(-c4cc(S(=O)(=O)[O-])ccc4F)c4nc(c(-c5cc(S(=O)(=O)[O-])ccc5F)c5ccc2[nH]5)C=C4)C=C3)cc1
REMARK SMILES IDX 18 1 17 2 16 3 14 4 15 5 13 7 12 8 11 9 7 10 8 11 9 12 10 13
REMARK SMILES IDX 6 14 1 15 2 16 3 17 4 18 5 19 19 20 20 21 21 22 22 23 23 25
REMARK SMILES IDX 24 26 25 27 86 28 26 29 85 30 27 31 28 32 29 33 79 34 30 35
REMARK SMILES IDX 84 36 78 37 80 38 31 39 83 40 77 41 76 42 32 44 64 45 44 46
REMARK SMILES IDX 63 47 45 48 48 49 62 50 81 51 46 52 47 53 61 55 82 56 49 57
REMARK SMILES IDX 33 58 34 59 42 60 35 61 41 62 43 63 40 64 36 65 37 66 38 67
REMARK SMILES IDX 39 68 65 69 66 70 74 71 67 72 73 73 75 74 72 75 68 76 69 77
REMARK SMILES IDX 70 78 71 79 50 80 51 81 59 82 52 83 58 84 60 85 57 86 53 87
REMARK SMILES IDX 54 88 55 89 56 90
REMARK H PARENT 16 6 21 24 80 43 48 54
REMARK Flexibility Score: inf
ROOT
ATOM      1  C   UNL A   1      33.084  30.267  26.473  1.00  0.00     0.023 C 
ENDROOT
BRANCH   1   2
ATOM      2  C   UNL A   1      31.743  30.019  25.784  1.00  0.00     0.116 C 
BRANCH   2   3
ATOM      3  N   UNL A   1      31.950  29.413  24.477  1.00  0.00    -0.356 N 
ATOM      4  C   UNL A   1      31.715  28.135  24.072  1.00  0.00     0.221 C 
ATOM      5  O   UNL A   1      32.198  27.741  23.010  1.00  0.00    -0.275 OA
ATOM      6  H   UNL A   1      32.312  30.015  23.787  1.00  0.00     0.163 HD
BRANCH   4   7
ATOM      7  C   UNL A   1      30.837  27.218  24.895  1.00  0.00     0.124 C 
BRANCH   7   8
ATOM      8  C   UNL A   1      30.787  25.793  24.363  1.00  0.00     0.158 C 
BRANCH   8   9
ATOM      9  N   UNL A   1      31.102  24.760  25.322  1.00  0.00    -0.229 N 
ATOM     10  C   UNL A   1      31.706  23.533  25.159  1.00  0.00     0.157 A 
ATOM     11  N   UNL A   1      31.729  22.948  26.342  1.00  0.00    -0.113 NA
ATOM     12  N   UNL A   1      31.391  23.913  27.248  1.00  0.00    -0.024 NA
ATOM     13  N   UNL A   1      31.102  25.052  26.633  1.00  0.00    -0.045 NA
BRANCH  10  14
ATOM     14  C   UNL A   1      32.460  23.094  23.948  1.00  0.00     0.090 C 
ATOM     15  C   UNL A   1      34.363  24.603  24.982  1.00  0.00     0.039 C 
ATOM     16  C   UNL A   1      33.958  23.486  24.021  1.00  0.00     0.126 C 
ATOM     17  O   UNL A   1      34.708  22.310  24.393  1.00  0.00    -0.378 OA
ATOM     18  C   UNL A   1      33.779  21.259  24.677  1.00  0.00     0.161 C 
ATOM     19  C   UNL A   1      32.555  21.575  23.843  1.00  0.00     0.043 C 
ENDBRANCH  10  14
ENDBRANCH   8   9
ENDBRANCH   7   8
ENDBRANCH   4   7
ENDBRANCH   2   3
ENDBRANCH   1   2
BRANCH   1  20
ATOM     20  C   UNL A   1      34.205  29.260  26.254  1.00  0.00     0.023 C 
BRANCH  20  21
ATOM     21  C   UNL A   1      34.906  28.838  27.526  1.00  0.00     0.116 C 
BRANCH  21  22
ATOM     22  N   UNL A   1      35.186  29.952  28.429  1.00  0.00    -0.352 N 
ATOM     23  C   UNL A   1      36.325  30.106  29.209  1.00  0.00     0.251 C 
ATOM     24  H   UNL A   1      34.504  30.660  28.490  1.00  0.00     0.163 HD
ATOM     25  O   UNL A   1      36.350  30.832  30.177  1.00  0.00    -0.269 OA
BRANCH  23  26
ATOM     26  C   UNL A   1      37.511  29.334  28.786  1.00  0.00     0.039 A 
ATOM     27  C   UNL A   1      38.235  29.695  27.652  1.00  0.00     0.014 A 
ATOM     28  C   UNL A   1      37.972  28.357  29.668  1.00  0.00     0.014 A 
ATOM     29  C   UNL A   1      39.499  29.137  27.471  1.00  0.00     0.010 A 
ATOM     30  C   UNL A   1      39.267  27.910  29.554  1.00  0.00     0.010 A 
ATOM     31  C   UNL A   1      40.034  28.277  28.450  1.00  0.00    -0.014 A 
BRANCH  31  32
ATOM     32  C   UNL A   1      41.453  27.914  28.421  1.00  0.00     0.031 A 
ATOM     33  C   UNL A   1      41.759  26.699  27.608  1.00  0.00     0.074 A 
ATOM     34  C   UNL A   1      42.447  28.700  28.893  1.00  0.00     0.049 A 
ATOM     35  N   UNL A   1      42.120  25.536  28.038  1.00  0.00    -0.248 NA
ATOM     36  C   UNL A   1      41.470  26.721  26.164  1.00  0.00     0.031 C 
ATOM     37  C   UNL A   1      42.344  30.052  29.454  1.00  0.00     0.029 A 
ATOM     38  N   UNL A   1      43.794  28.491  28.885  1.00  0.00    -0.354 N 
ATOM     39  C   UNL A   1      42.359  24.758  26.909  1.00  0.00     0.074 A 
ATOM     40  C   UNL A   1      41.740  25.460  25.818  1.00  0.00     0.031 C 
ATOM     41  C   UNL A   1      43.569  30.620  29.511  1.00  0.00     0.029 A 
ATOM     42  C   UNL A   1      44.564  29.620  29.164  1.00  0.00     0.049 A 
ATOM     43  H   UNL A   1      44.193  27.611  28.694  1.00  0.00     0.167 HD
ATOM     44  C   UNL A   1      43.263  23.737  26.944  1.00  0.00     0.034 A 
ATOM     45  C   UNL A   1      45.919  29.739  29.125  1.00  0.00     0.034 A 
ATOM     46  C   UNL A   1      43.583  23.389  28.314  1.00  0.00     0.049 A 
ATOM     47  C   UNL A   1      46.463  28.367  29.266  1.00  0.00     0.074 A 
ATOM     48  C   UNL A   1      42.847  22.967  29.405  1.00  0.00     0.029 A 
ATOM     49  N   UNL A   1      44.774  23.848  28.833  1.00  0.00    -0.354 N 
ATOM     50  N   UNL A   1      46.313  27.650  30.346  1.00  0.00    -0.248 NA
ATOM     51  C   UNL A   1      46.729  27.611  28.053  1.00  0.00     0.031 C 
ATOM     52  C   UNL A   1      43.402  23.674  30.513  1.00  0.00     0.029 A 
ATOM     53  C   UNL A   1      44.506  24.402  30.060  1.00  0.00     0.049 A 
ATOM     54  H   UNL A   1      45.657  23.789  28.402  1.00  0.00     0.167 HD
ATOM     55  C   UNL A   1      46.012  26.376  29.888  1.00  0.00     0.074 A 
ATOM     56  C   UNL A   1      46.382  26.390  28.473  1.00  0.00     0.031 C 
ATOM     57  C   UNL A   1      45.233  25.526  30.622  1.00  0.00     0.034 A 
BRANCH  44  58
ATOM     58  C   UNL A   1      44.161  23.320  25.791  1.00  0.00     0.023 A 
ATOM     59  C   UNL A   1      44.051  21.984  25.351  1.00  0.00     0.031 A 
ATOM     60  C   UNL A   1      45.291  24.022  25.316  1.00  0.00     0.131 A 
ATOM     61  C   UNL A   1      45.084  21.371  24.621  1.00  0.00     0.055 A 
ATOM     62  C   UNL A   1      46.284  23.425  24.532  1.00  0.00     0.041 A 
ATOM     63  F   UNL A   1      45.550  25.291  25.644  1.00  0.00    -0.206 F 
ATOM     64  C   UNL A   1      46.206  22.081  24.214  1.00  0.00     0.022 A 
BRANCH  61  65
ATOM     65  S   UNL A   1      45.019  19.575  24.394  1.00  0.00     0.124 S 
ATOM     66  O   UNL A   1      44.106  19.182  25.462  1.00  0.00    -0.237 OA
ATOM     67  O   UNL A   1      44.507  19.463  23.032  1.00  0.00    -0.237 OA
ATOM     68  O   UNL A   1      46.409  19.162  24.574  1.00  0.00    -0.744 OA
ENDBRANCH  61  65
ENDBRANCH  44  58
BRANCH  45  69
ATOM     69  C   UNL A   1      46.728  30.902  28.649  1.00  0.00     0.023 A 
ATOM     70  C   UNL A   1      46.308  31.771  27.615  1.00  0.00     0.031 A 
ATOM     71  C   UNL A   1      47.840  31.323  29.413  1.00  0.00     0.131 A 
ATOM     72  C   UNL A   1      46.987  32.995  27.390  1.00  0.00     0.055 A 
ATOM     73  C   UNL A   1      48.500  32.535  29.189  1.00  0.00     0.041 A 
ATOM     74  F   UNL A   1      48.270  30.608  30.465  1.00  0.00    -0.206 F 
ATOM     75  C   UNL A   1      48.069  33.382  28.183  1.00  0.00     0.022 A 
BRANCH  72  76
ATOM     76  S   UNL A   1      46.418  34.162  26.105  1.00  0.00     0.124 S 
ATOM     77  O   UNL A   1      45.435  33.367  25.377  1.00  0.00    -0.237 OA
ATOM     78  O   UNL A   1      45.900  35.273  26.894  1.00  0.00    -0.237 OA
ATOM     79  O   UNL A   1      47.637  34.464  25.353  1.00  0.00    -0.744 OA
ENDBRANCH  72  76
ENDBRANCH  45  69
BRANCH  57  80
ATOM     80  C   UNL A   1      44.954  25.868  32.075  1.00  0.00     0.023 A 
ATOM     81  C   UNL A   1      43.786  26.504  32.560  1.00  0.00     0.031 A 
ATOM     82  C   UNL A   1      45.888  25.414  33.023  1.00  0.00     0.131 A 
ATOM     83  C   UNL A   1      43.600  26.671  33.949  1.00  0.00     0.055 A 
ATOM     84  C   UNL A   1      45.688  25.559  34.395  1.00  0.00     0.041 A 
ATOM     85  F   UNL A   1      47.007  24.783  32.629  1.00  0.00    -0.206 F 
ATOM     86  C   UNL A   1      44.545  26.194  34.863  1.00  0.00     0.022 A 
BRANCH  83  87
ATOM     87  S   UNL A   1      42.132  27.536  34.601  1.00  0.00     0.124 S 
ATOM     88  O   UNL A   1      42.618  28.162  35.824  1.00  0.00    -0.237 OA
ATOM     89  O   UNL A   1      41.788  28.445  33.511  1.00  0.00    -0.237 OA
ATOM     90  O   UNL A   1      41.167  26.455  34.814  1.00  0.00    -0.744 OA
ENDBRANCH  83  87
ENDBRANCH  57  80
ENDBRANCH  31  32
ENDBRANCH  23  26
ENDBRANCH  21  22
ENDBRANCH  20  21
ENDBRANCH   1  20
TORSDOF 17
ENDMDL
