MODEL 1
REMARK VINA RESULT:      -9.9      0.000      0.000
REMARK SMILES O=C(CNc1nccs1)NCCCCNC(=O)c1ccc(-c2c3nc(c(-c4cc(S(=O)(=O)[O-])ccc4F)c4ccc([nH]4)c(-c4cc(S(=O)(=O)[O-])ccc4F)c4nc(c(-c5cc(S(=O)(=O)[O-])ccc5F)c5ccc2[nH]5)C=C4)C=C3)cc1
REMARK SMILES IDX 13 1 12 2 11 3 10 4 1 5 2 6 3 8 4 9 5 11 6 12 9 13 7 14 8 15
REMARK SMILES IDX 14 16 15 17 16 18 17 20 18 21 19 22 80 23 20 24 79 25 21 26
REMARK SMILES IDX 22 27 23 28 73 29 24 30 78 31 72 32 74 33 25 34 77 35 71 36
REMARK SMILES IDX 70 37 26 39 58 40 38 41 57 42 39 43 42 44 56 45 75 46 40 47
REMARK SMILES IDX 41 48 55 50 76 51 43 52 27 53 28 54 36 55 29 56 35 57 37 58
REMARK SMILES IDX 34 59 30 60 31 61 32 62 33 63 59 64 60 65 68 66 61 67 67 68
REMARK SMILES IDX 69 69 66 70 62 71 63 72 64 73 65 74 44 75 45 76 53 77 46 78
REMARK SMILES IDX 52 79 54 80 51 81 47 82 48 83 49 84 50 85
REMARK H PARENT 10 7 4 10 15 19 74 38 42 49
REMARK Flexibility Score: inf
ROOT
ATOM      1  C   UNL A   1      41.069  20.237  27.020  1.00  0.00     0.023 C 
ENDROOT
BRANCH   1   2
ATOM      2  C   UNL A   1      41.371  19.104  26.034  1.00  0.00     0.023 C 
BRANCH   2   3
ATOM      3  C   UNL A   1      42.730  18.431  26.212  1.00  0.00     0.116 C 
BRANCH   3   4
ATOM      4  N   UNL A   1      43.832  19.346  26.008  1.00  0.00    -0.355 N 
ATOM      5  O   UNL A   1      44.678  18.374  24.098  1.00  0.00    -0.273 OA
ATOM      6  C   UNL A   1      44.713  19.259  24.947  1.00  0.00     0.239 C 
ATOM      7  H   UNL A   1      43.962  20.070  26.663  1.00  0.00     0.163 HD
BRANCH   6   8
ATOM      8  C   UNL A   1      45.767  20.375  24.944  1.00  0.00     0.215 C 
BRANCH   8   9
ATOM      9  N   UNL A   1      45.516  21.283  26.055  1.00  0.00    -0.352 N 
ATOM     10  H   UNL A   1      45.570  20.940  26.977  1.00  0.00     0.163 HD
BRANCH   9  11
ATOM     11  C   UNL A   1      45.211  22.576  25.854  1.00  0.00     0.183 A 
ATOM     12  N   UNL A   1      45.651  23.578  26.577  1.00  0.00    -0.229 NA
ATOM     13  S   UNL A   1      44.126  23.012  24.588  1.00  0.00    -0.106 S 
ATOM     14  C   UNL A   1      45.099  24.763  26.131  1.00  0.00     0.125 A 
ATOM     15  C   UNL A   1      44.223  24.650  25.075  1.00  0.00     0.088 A 
ENDBRANCH   9  11
ENDBRANCH   8   9
ENDBRANCH   6   8
ENDBRANCH   3   4
ENDBRANCH   2   3
ENDBRANCH   1   2
BRANCH   1  16
ATOM     16  C   UNL A   1      40.915  21.626  26.406  1.00  0.00     0.116 C 
BRANCH  16  17
ATOM     17  N   UNL A   1      39.555  21.912  25.978  1.00  0.00    -0.352 N 
ATOM     18  C   UNL A   1      38.794  23.042  26.169  1.00  0.00     0.251 C 
ATOM     19  H   UNL A   1      39.113  21.189  25.477  1.00  0.00     0.163 HD
ATOM     20  O   UNL A   1      37.606  23.029  25.850  1.00  0.00    -0.269 OA
BRANCH  18  21
ATOM     21  C   UNL A   1      39.383  24.254  26.785  1.00  0.00     0.039 A 
ATOM     22  C   UNL A   1      40.061  25.164  25.969  1.00  0.00     0.014 A 
ATOM     23  C   UNL A   1      39.275  24.500  28.157  1.00  0.00     0.014 A 
ATOM     24  C   UNL A   1      40.559  26.353  26.513  1.00  0.00     0.010 A 
ATOM     25  C   UNL A   1      39.705  25.719  28.682  1.00  0.00     0.010 A 
ATOM     26  C   UNL A   1      40.348  26.663  27.866  1.00  0.00    -0.014 A 
BRANCH  26  27
ATOM     27  C   UNL A   1      40.779  27.970  28.437  1.00  0.00     0.031 A 
ATOM     28  C   UNL A   1      42.239  28.256  28.665  1.00  0.00     0.074 A 
ATOM     29  C   UNL A   1      39.852  28.877  28.807  1.00  0.00     0.049 A 
ATOM     30  N   UNL A   1      42.803  29.297  29.224  1.00  0.00    -0.248 NA
ATOM     31  C   UNL A   1      43.189  27.220  28.231  1.00  0.00     0.031 C 
ATOM     32  C   UNL A   1      38.404  28.706  28.672  1.00  0.00     0.029 A 
ATOM     33  N   UNL A   1      39.985  30.118  29.380  1.00  0.00    -0.354 N 
ATOM     34  C   UNL A   1      44.170  29.040  29.216  1.00  0.00     0.074 A 
ATOM     35  C   UNL A   1      44.341  27.715  28.658  1.00  0.00     0.031 C 
ATOM     36  C   UNL A   1      37.786  29.808  29.125  1.00  0.00     0.029 A 
ATOM     37  C   UNL A   1      38.785  30.744  29.634  1.00  0.00     0.049 A 
ATOM     38  H   UNL A   1      40.857  30.523  29.590  1.00  0.00     0.167 HD
ATOM     39  C   UNL A   1      45.189  29.844  29.613  1.00  0.00     0.034 A 
ATOM     40  C   UNL A   1      38.515  31.926  30.224  1.00  0.00     0.034 A 
ATOM     41  C   UNL A   1      45.004  31.164  30.166  1.00  0.00     0.049 A 
ATOM     42  C   UNL A   1      39.662  32.783  30.700  1.00  0.00     0.074 A 
ATOM     43  C   UNL A   1      45.967  32.077  30.560  1.00  0.00     0.029 A 
ATOM     44  N   UNL A   1      43.773  31.760  30.415  1.00  0.00    -0.354 N 
ATOM     45  N   UNL A   1      40.951  32.543  30.643  1.00  0.00    -0.248 NA
ATOM     46  C   UNL A   1      39.316  34.074  31.308  1.00  0.00     0.031 C 
ATOM     47  C   UNL A   1      45.323  33.186  31.116  1.00  0.00     0.029 A 
ATOM     48  C   UNL A   1      43.955  33.010  30.989  1.00  0.00     0.049 A 
ATOM     49  H   UNL A   1      42.899  31.354  30.213  1.00  0.00     0.167 HD
ATOM     50  C   UNL A   1      41.571  33.670  31.180  1.00  0.00     0.074 A 
ATOM     51  C   UNL A   1      40.514  34.593  31.537  1.00  0.00     0.031 C 
ATOM     52  C   UNL A   1      42.893  33.920  31.354  1.00  0.00     0.034 A 
BRANCH  39  53
ATOM     53  C   UNL A   1      46.594  29.301  29.485  1.00  0.00     0.023 A 
ATOM     54  C   UNL A   1      47.353  29.484  28.315  1.00  0.00     0.031 A 
ATOM     55  C   UNL A   1      47.176  28.567  30.534  1.00  0.00     0.131 A 
ATOM     56  C   UNL A   1      48.612  28.877  28.192  1.00  0.00     0.055 A 
ATOM     57  C   UNL A   1      48.466  28.041  30.440  1.00  0.00     0.041 A 
ATOM     58  F   UNL A   1      46.495  28.338  31.668  1.00  0.00    -0.206 F 
ATOM     59  C   UNL A   1      49.186  28.180  29.257  1.00  0.00     0.022 A 
BRANCH  56  60
ATOM     60  S   UNL A   1      49.416  28.877  26.567  1.00  0.00     0.124 S 
ATOM     61  O   UNL A   1      50.453  27.865  26.750  1.00  0.00    -0.237 OA
ATOM     62  O   UNL A   1      48.321  28.516  25.674  1.00  0.00    -0.237 OA
ATOM     63  O   UNL A   1      49.909  30.246  26.429  1.00  0.00    -0.744 OA
ENDBRANCH  56  60
ENDBRANCH  39  53
BRANCH  40  64
ATOM     64  C   UNL A   1      37.102  32.366  30.423  1.00  0.00     0.023 A 
ATOM     65  C   UNL A   1      36.372  32.956  29.380  1.00  0.00     0.031 A 
ATOM     66  C   UNL A   1      36.477  32.244  31.678  1.00  0.00     0.131 A 
ATOM     67  C   UNL A   1      35.079  33.447  29.622  1.00  0.00     0.055 A 
ATOM     68  C   UNL A   1      35.169  32.679  31.897  1.00  0.00     0.041 A 
ATOM     69  F   UNL A   1      37.129  31.688  32.711  1.00  0.00    -0.206 F 
ATOM     70  C   UNL A   1      34.467  33.298  30.868  1.00  0.00     0.022 A 
BRANCH  67  71
ATOM     71  S   UNL A   1      34.242  34.373  28.305  1.00  0.00     0.124 S 
ATOM     72  O   UNL A   1      33.090  33.522  28.032  1.00  0.00    -0.237 OA
ATOM     73  O   UNL A   1      33.960  35.644  28.961  1.00  0.00    -0.237 OA
ATOM     74  O   UNL A   1      35.243  34.431  27.241  1.00  0.00    -0.744 OA
ENDBRANCH  67  71
ENDBRANCH  40  64
BRANCH  52  75
ATOM     75  C   UNL A   1      43.271  35.272  31.916  1.00  0.00     0.023 A 
ATOM     76  C   UNL A   1      43.321  35.514  33.300  1.00  0.00     0.031 A 
ATOM     77  C   UNL A   1      43.578  36.336  31.049  1.00  0.00     0.131 A 
ATOM     78  C   UNL A   1      43.612  36.803  33.775  1.00  0.00     0.055 A 
ATOM     79  C   UNL A   1      43.933  37.598  31.528  1.00  0.00     0.041 A 
ATOM     80  F   UNL A   1      43.543  36.165  29.717  1.00  0.00    -0.206 F 
ATOM     81  C   UNL A   1      43.937  37.840  32.898  1.00  0.00     0.022 A 
BRANCH  78  82
ATOM     82  S   UNL A   1      43.461  37.131  35.552  1.00  0.00     0.124 S 
ATOM     83  O   UNL A   1      43.880  38.526  35.641  1.00  0.00    -0.237 OA
ATOM     84  O   UNL A   1      42.046  36.874  35.798  1.00  0.00    -0.237 OA
ATOM     85  O   UNL A   1      44.379  36.168  36.159  1.00  0.00    -0.744 OA
ENDBRANCH  78  82
ENDBRANCH  52  75
ENDBRANCH  26  27
ENDBRANCH  18  21
ENDBRANCH  16  17
ENDBRANCH   1  16
TORSDOF 16
ENDMDL
MODEL 2
REMARK VINA RESULT:      -9.8      2.083      2.465
REMARK SMILES O=C(CNc1nccs1)NCCCCNC(=O)c1ccc(-c2c3nc(c(-c4cc(S(=O)(=O)[O-])ccc4F)c4ccc([nH]4)c(-c4cc(S(=O)(=O)[O-])ccc4F)c4nc(c(-c5cc(S(=O)(=O)[O-])ccc5F)c5ccc2[nH]5)C=C4)C=C3)cc1
REMARK SMILES IDX 13 1 12 2 11 3 10 4 1 5 2 6 3 8 4 9 5 11 6 12 9 13 7 14 8 15
REMARK SMILES IDX 14 16 15 17 16 18 17 20 18 21 19 22 80 23 20 24 79 25 21 26
REMARK SMILES IDX 22 27 23 28 73 29 24 30 78 31 72 32 74 33 25 34 77 35 71 36
REMARK SMILES IDX 70 37 26 39 58 40 38 41 57 42 39 43 42 44 56 45 75 46 40 47
REMARK SMILES IDX 41 48 55 50 76 51 43 52 27 53 28 54 36 55 29 56 35 57 37 58
REMARK SMILES IDX 34 59 30 60 31 61 32 62 33 63 59 64 60 65 68 66 61 67 67 68
REMARK SMILES IDX 69 69 66 70 62 71 63 72 64 73 65 74 44 75 45 76 53 77 46 78
REMARK SMILES IDX 52 79 54 80 51 81 47 82 48 83 49 84 50 85
REMARK H PARENT 10 7 4 10 15 19 74 38 42 49
REMARK Flexibility Score: inf
ROOT
ATOM      1  C   UNL A   1      42.304  20.588  27.132  1.00  0.00     0.023 C 
ENDROOT
BRANCH   1   2
ATOM      2  C   UNL A   1      42.032  19.187  26.574  1.00  0.00     0.023 C 
BRANCH   2   3
ATOM      3  C   UNL A   1      43.256  18.456  26.027  1.00  0.00     0.116 C 
BRANCH   3   4
ATOM      4  N   UNL A   1      44.249  19.362  25.490  1.00  0.00    -0.355 N 
ATOM      5  O   UNL A   1      45.985  17.854  25.351  1.00  0.00    -0.273 OA
ATOM      6  C   UNL A   1      45.539  18.982  25.170  1.00  0.00     0.239 C 
ATOM      7  H   UNL A   1      43.991  20.301  25.346  1.00  0.00     0.163 HD
BRANCH   6   8
ATOM      8  C   UNL A   1      46.377  20.127  24.583  1.00  0.00     0.215 C 
BRANCH   8   9
ATOM      9  N   UNL A   1      45.553  21.323  24.470  1.00  0.00    -0.352 N 
ATOM     10  H   UNL A   1      44.847  21.357  23.784  1.00  0.00     0.163 HD
BRANCH   9  11
ATOM     11  C   UNL A   1      45.732  22.381  25.279  1.00  0.00     0.183 A 
ATOM     12  N   UNL A   1      45.330  22.458  26.525  1.00  0.00    -0.229 NA
ATOM     13  S   UNL A   1      46.507  23.797  24.675  1.00  0.00    -0.106 S 
ATOM     14  C   UNL A   1      45.627  23.703  27.044  1.00  0.00     0.125 A 
ATOM     15  C   UNL A   1      46.243  24.577  26.176  1.00  0.00     0.088 A 
ENDBRANCH   9  11
ENDBRANCH   8   9
ENDBRANCH   6   8
ENDBRANCH   3   4
ENDBRANCH   2   3
ENDBRANCH   1   2
BRANCH   1  16
ATOM     16  C   UNL A   1      41.716  21.746  26.331  1.00  0.00     0.116 C 
BRANCH  16  17
ATOM     17  N   UNL A   1      40.292  21.599  26.076  1.00  0.00    -0.352 N 
ATOM     18  C   UNL A   1      39.266  22.492  26.282  1.00  0.00     0.251 C 
ATOM     19  H   UNL A   1      40.022  20.730  25.700  1.00  0.00     0.163 HD
ATOM     20  O   UNL A   1      38.104  22.118  26.134  1.00  0.00    -0.269 OA
BRANCH  18  21
ATOM     21  C   UNL A   1      39.550  23.881  26.713  1.00  0.00     0.039 A 
ATOM     22  C   UNL A   1      39.335  24.229  28.050  1.00  0.00     0.014 A 
ATOM     23  C   UNL A   1      40.022  24.841  25.814  1.00  0.00     0.014 A 
ATOM     24  C   UNL A   1      39.667  25.512  28.498  1.00  0.00     0.010 A 
ATOM     25  C   UNL A   1      40.423  26.094  26.279  1.00  0.00     0.010 A 
ATOM     26  C   UNL A   1      40.256  26.443  27.628  1.00  0.00    -0.014 A 
BRANCH  26  27
ATOM     27  C   UNL A   1      40.712  27.776  28.114  1.00  0.00     0.031 A 
ATOM     28  C   UNL A   1      42.178  28.119  28.133  1.00  0.00     0.074 A 
ATOM     29  C   UNL A   1      39.811  28.657  28.594  1.00  0.00     0.049 A 
ATOM     30  N   UNL A   1      42.773  29.190  28.592  1.00  0.00    -0.248 NA
ATOM     31  C   UNL A   1      43.097  27.108  27.588  1.00  0.00     0.031 C 
ATOM     32  C   UNL A   1      38.366  28.432  28.663  1.00  0.00     0.029 A 
ATOM     33  N   UNL A   1      39.975  29.914  29.124  1.00  0.00    -0.354 N 
ATOM     34  C   UNL A   1      44.135  28.982  28.398  1.00  0.00     0.074 A 
ATOM     35  C   UNL A   1      44.278  27.653  27.843  1.00  0.00     0.031 C 
ATOM     36  C   UNL A   1      37.775  29.521  29.180  1.00  0.00     0.029 A 
ATOM     37  C   UNL A   1      38.798  30.502  29.531  1.00  0.00     0.049 A 
ATOM     38  H   UNL A   1      40.851  30.354  29.205  1.00  0.00     0.167 HD
ATOM     39  C   UNL A   1      45.168  29.830  28.638  1.00  0.00     0.034 A 
ATOM     40  C   UNL A   1      38.567  31.685  30.135  1.00  0.00     0.034 A 
ATOM     41  C   UNL A   1      45.010  31.154  29.191  1.00  0.00     0.049 A 
ATOM     42  C   UNL A   1      39.735  32.593  30.433  1.00  0.00     0.074 A 
ATOM     43  C   UNL A   1      45.984  32.108  29.433  1.00  0.00     0.029 A 
ATOM     44  N   UNL A   1      43.804  31.711  29.598  1.00  0.00    -0.354 N 
ATOM     45  N   UNL A   1      41.012  32.397  30.203  1.00  0.00    -0.248 NA
ATOM     46  C   UNL A   1      39.428  33.883  31.063  1.00  0.00     0.031 C 
ATOM     47  C   UNL A   1      45.380  33.205  30.056  1.00  0.00     0.029 A 
ATOM     48  C   UNL A   1      44.015  32.978  30.121  1.00  0.00     0.049 A 
ATOM     49  H   UNL A   1      42.926  31.269  29.526  1.00  0.00     0.167 HD
ATOM     50  C   UNL A   1      41.657  33.556  30.630  1.00  0.00     0.074 A 
ATOM     51  C   UNL A   1      40.625  34.449  31.116  1.00  0.00     0.031 C 
ATOM     52  C   UNL A   1      42.980  33.857  30.616  1.00  0.00     0.034 A 
BRANCH  39  53
ATOM     53  C   UNL A   1      46.561  29.334  28.325  1.00  0.00     0.023 A 
ATOM     54  C   UNL A   1      47.340  28.664  29.286  1.00  0.00     0.031 A 
ATOM     55  C   UNL A   1      47.131  29.554  27.059  1.00  0.00     0.131 A 
ATOM     56  C   UNL A   1      48.666  28.311  28.994  1.00  0.00     0.055 A 
ATOM     57  C   UNL A   1      48.421  29.120  26.745  1.00  0.00     0.041 A 
ATOM     58  F   UNL A   1      46.448  30.207  26.105  1.00  0.00    -0.206 F 
ATOM     59  C   UNL A   1      49.203  28.509  27.721  1.00  0.00     0.022 A 
BRANCH  56  60
ATOM     60  S   UNL A   1      49.725  27.737  30.349  1.00  0.00     0.124 S 
ATOM     61  O   UNL A   1      49.352  28.654  31.424  1.00  0.00    -0.237 OA
ATOM     62  O   UNL A   1      49.303  26.352  30.515  1.00  0.00    -0.237 OA
ATOM     63  O   UNL A   1      51.078  27.920  29.827  1.00  0.00    -0.744 OA
ENDBRANCH  56  60
ENDBRANCH  39  53
BRANCH  40  64
ATOM     64  C   UNL A   1      37.180  32.079  30.521  1.00  0.00     0.023 A 
ATOM     65  C   UNL A   1      36.302  32.654  29.588  1.00  0.00     0.031 A 
ATOM     66  C   UNL A   1      36.727  31.928  31.845  1.00  0.00     0.131 A 
ATOM     67  C   UNL A   1      35.037  33.101  30.001  1.00  0.00     0.055 A 
ATOM     68  C   UNL A   1      35.446  32.320  32.236  1.00  0.00     0.041 A 
ATOM     69  F   UNL A   1      37.525  31.385  32.777  1.00  0.00    -0.206 F 
ATOM     70  C   UNL A   1      34.597  32.924  31.314  1.00  0.00     0.022 A 
BRANCH  67  71
ATOM     71  S   UNL A   1      34.008  34.010  28.815  1.00  0.00     0.124 S 
ATOM     72  O   UNL A   1      34.957  34.980  28.282  1.00  0.00    -0.237 OA
ATOM     73  O   UNL A   1      33.590  32.952  27.903  1.00  0.00    -0.237 OA
ATOM     74  O   UNL A   1      32.944  34.569  29.648  1.00  0.00    -0.744 OA
ENDBRANCH  67  71
ENDBRANCH  40  64
BRANCH  52  75
ATOM     75  C   UNL A   1      43.380  35.233  31.099  1.00  0.00     0.023 A 
ATOM     76  C   UNL A   1      43.464  36.331  30.226  1.00  0.00     0.031 A 
ATOM     77  C   UNL A   1      43.690  35.442  32.455  1.00  0.00     0.131 A 
ATOM     78  C   UNL A   1      43.904  37.575  30.707  1.00  0.00     0.055 A 
ATOM     79  C   UNL A   1      44.062  36.697  32.940  1.00  0.00     0.041 A 
ATOM     80  F   UNL A   1      43.632  34.429  33.334  1.00  0.00    -0.206 F 
ATOM     81  C   UNL A   1      44.185  37.769  32.061  1.00  0.00     0.022 A 
BRANCH  78  82
ATOM     82  S   UNL A   1      44.203  38.912  29.518  1.00  0.00     0.124 S 
ATOM     83  O   UNL A   1      45.442  39.496  30.021  1.00  0.00    -0.237 OA
ATOM     84  O   UNL A   1      44.306  38.190  28.255  1.00  0.00    -0.237 OA
ATOM     85  O   UNL A   1      43.020  39.761  29.651  1.00  0.00    -0.744 OA
ENDBRANCH  78  82
ENDBRANCH  52  75
ENDBRANCH  26  27
ENDBRANCH  18  21
ENDBRANCH  16  17
ENDBRANCH   1  16
TORSDOF 16
ENDMDL
MODEL 3
REMARK VINA RESULT:      -9.6      5.477     11.467
REMARK SMILES O=C(CNc1nccs1)NCCCCNC(=O)c1ccc(-c2c3nc(c(-c4cc(S(=O)(=O)[O-])ccc4F)c4ccc([nH]4)c(-c4cc(S(=O)(=O)[O-])ccc4F)c4nc(c(-c5cc(S(=O)(=O)[O-])ccc5F)c5ccc2[nH]5)C=C4)C=C3)cc1
REMARK SMILES IDX 13 1 12 2 11 3 10 4 1 5 2 6 3 8 4 9 5 11 6 12 9 13 7 14 8 15
REMARK SMILES IDX 14 16 15 17 16 18 17 20 18 21 19 22 80 23 20 24 79 25 21 26
REMARK SMILES IDX 22 27 23 28 73 29 24 30 78 31 72 32 74 33 25 34 77 35 71 36
REMARK SMILES IDX 70 37 26 39 58 40 38 41 57 42 39 43 42 44 56 45 75 46 40 47
REMARK SMILES IDX 41 48 55 50 76 51 43 52 27 53 28 54 36 55 29 56 35 57 37 58
REMARK SMILES IDX 34 59 30 60 31 61 32 62 33 63 59 64 60 65 68 66 61 67 67 68
REMARK SMILES IDX 69 69 66 70 62 71 63 72 64 73 65 74 44 75 45 76 53 77 46 78
REMARK SMILES IDX 52 79 54 80 51 81 47 82 48 83 49 84 50 85
REMARK H PARENT 10 7 4 10 15 19 74 38 42 49
REMARK Flexibility Score: inf
ROOT
ATOM      1  C   UNL A   1      31.867  29.091  26.809  1.00  0.00     0.023 C 
ENDROOT
BRANCH   1   2
ATOM      2  C   UNL A   1      32.139  27.623  27.152  1.00  0.00     0.023 C 
BRANCH   2   3
ATOM      3  C   UNL A   1      31.806  26.624  26.046  1.00  0.00     0.116 C 
BRANCH   3   4
ATOM      4  N   UNL A   1      31.039  27.220  24.974  1.00  0.00    -0.355 N 
ATOM      5  O   UNL A   1      32.640  27.038  23.326  1.00  0.00    -0.273 OA
ATOM      6  C   UNL A   1      31.511  27.361  23.682  1.00  0.00     0.239 C 
ATOM      7  H   UNL A   1      30.132  27.545  25.176  1.00  0.00     0.163 HD
BRANCH   6   8
ATOM      8  C   UNL A   1      30.485  27.991  22.730  1.00  0.00     0.215 C 
BRANCH   8   9
ATOM      9  N   UNL A   1      29.819  29.101  23.399  1.00  0.00    -0.352 N 
ATOM     10  H   UNL A   1      29.819  29.138  24.383  1.00  0.00     0.163 HD
BRANCH   9  11
ATOM     11  C   UNL A   1      29.206  30.075  22.706  1.00  0.00     0.183 A 
ATOM     12  N   UNL A   1      28.920  30.029  21.427  1.00  0.00    -0.229 NA
ATOM     13  S   UNL A   1      28.774  31.545  23.497  1.00  0.00    -0.106 S 
ATOM     14  C   UNL A   1      28.342  31.218  21.027  1.00  0.00     0.125 A 
ATOM     15  C   UNL A   1      28.207  32.174  22.009  1.00  0.00     0.088 A 
ENDBRANCH   9  11
ENDBRANCH   8   9
ENDBRANCH   6   8
ENDBRANCH   3   4
ENDBRANCH   2   3
ENDBRANCH   1   2
BRANCH   1  16
ATOM     16  C   UNL A   1      33.075  29.898  26.341  1.00  0.00     0.116 C 
BRANCH  16  17
ATOM     17  N   UNL A   1      33.041  31.283  26.783  1.00  0.00    -0.352 N 
ATOM     18  C   UNL A   1      33.894  31.956  27.627  1.00  0.00     0.251 C 
ATOM     19  H   UNL A   1      32.297  31.819  26.425  1.00  0.00     0.163 HD
ATOM     20  O   UNL A   1      33.606  33.095  27.990  1.00  0.00    -0.269 OA
BRANCH  18  21
ATOM     21  C   UNL A   1      35.130  31.308  28.126  1.00  0.00     0.039 A 
ATOM     22  C   UNL A   1      36.320  32.041  28.133  1.00  0.00     0.014 A 
ATOM     23  C   UNL A   1      35.126  29.988  28.585  1.00  0.00     0.014 A 
ATOM     24  C   UNL A   1      37.483  31.478  28.670  1.00  0.00     0.010 A 
ATOM     25  C   UNL A   1      36.266  29.457  29.189  1.00  0.00     0.010 A 
ATOM     26  C   UNL A   1      37.457  30.198  29.244  1.00  0.00    -0.014 A 
BRANCH  26  27
ATOM     27  C   UNL A   1      38.659  29.626  29.913  1.00  0.00     0.031 A 
ATOM     28  C   UNL A   1      39.097  30.138  31.260  1.00  0.00     0.074 A 
ATOM     29  C   UNL A   1      39.393  28.686  29.283  1.00  0.00     0.049 A 
ATOM     30  N   UNL A   1      40.156  29.825  31.962  1.00  0.00    -0.248 NA
ATOM     31  C   UNL A   1      38.242  31.159  31.885  1.00  0.00     0.031 C 
ATOM     32  C   UNL A   1      39.095  28.131  27.961  1.00  0.00     0.029 A 
ATOM     33  N   UNL A   1      40.542  28.036  29.662  1.00  0.00    -0.354 N 
ATOM     34  C   UNL A   1      40.101  30.612  33.108  1.00  0.00     0.074 A 
ATOM     35  C   UNL A   1      38.939  31.465  32.970  1.00  0.00     0.031 C 
ATOM     36  C   UNL A   1      40.022  27.210  27.651  1.00  0.00     0.029 A 
ATOM     37  C   UNL A   1      41.011  27.144  28.723  1.00  0.00     0.049 A 
ATOM     38  H   UNL A   1      40.989  28.193  30.524  1.00  0.00     0.167 HD
ATOM     39  C   UNL A   1      40.927  30.607  34.185  1.00  0.00     0.034 A 
ATOM     40  C   UNL A   1      42.118  26.375  28.715  1.00  0.00     0.034 A 
ATOM     41  C   UNL A   1      42.081  29.749  34.309  1.00  0.00     0.049 A 
ATOM     42  C   UNL A   1      43.047  26.418  29.903  1.00  0.00     0.074 A 
ATOM     43  C   UNL A   1      42.958  29.633  35.374  1.00  0.00     0.029 A 
ATOM     44  N   UNL A   1      42.527  28.865  33.334  1.00  0.00    -0.354 N 
ATOM     45  N   UNL A   1      42.954  27.138  30.997  1.00  0.00    -0.248 NA
ATOM     46  C   UNL A   1      44.222  25.539  29.858  1.00  0.00     0.031 C 
ATOM     47  C   UNL A   1      43.974  28.743  35.014  1.00  0.00     0.029 A 
ATOM     48  C   UNL A   1      43.685  28.230  33.760  1.00  0.00     0.049 A 
ATOM     49  H   UNL A   1      42.086  28.712  32.467  1.00  0.00     0.167 HD
ATOM     50  C   UNL A   1      44.043  26.771  31.785  1.00  0.00     0.074 A 
ATOM     51  C   UNL A   1      44.766  25.757  31.047  1.00  0.00     0.031 C 
ATOM     52  C   UNL A   1      44.408  27.228  33.010  1.00  0.00     0.034 A 
BRANCH  39  53
ATOM     53  C   UNL A   1      40.621  31.580  35.300  1.00  0.00     0.023 A 
ATOM     54  C   UNL A   1      39.565  31.360  36.204  1.00  0.00     0.031 A 
ATOM     55  C   UNL A   1      41.376  32.756  35.450  1.00  0.00     0.131 A 
ATOM     56  C   UNL A   1      39.245  32.335  37.161  1.00  0.00     0.055 A 
ATOM     57  C   UNL A   1      41.109  33.681  36.463  1.00  0.00     0.041 A 
ATOM     58  F   UNL A   1      42.383  33.035  34.607  1.00  0.00    -0.206 F 
ATOM     59  C   UNL A   1      40.027  33.482  37.315  1.00  0.00     0.022 A 
BRANCH  56  60
ATOM     60  S   UNL A   1      37.698  32.157  38.090  1.00  0.00     0.124 S 
ATOM     61  O   UNL A   1      36.818  33.081  37.380  1.00  0.00    -0.237 OA
ATOM     62  O   UNL A   1      37.397  30.738  37.933  1.00  0.00    -0.237 OA
ATOM     63  O   UNL A   1      38.062  32.571  39.444  1.00  0.00    -0.744 OA
ENDBRANCH  56  60
ENDBRANCH  39  53
BRANCH  40  64
ATOM     64  C   UNL A   1      42.429  25.511  27.537  1.00  0.00     0.023 A 
ATOM     65  C   UNL A   1      41.968  24.187  27.466  1.00  0.00     0.031 A 
ATOM     66  C   UNL A   1      43.234  25.985  26.485  1.00  0.00     0.131 A 
ATOM     67  C   UNL A   1      42.355  23.368  26.393  1.00  0.00     0.055 A 
ATOM     68  C   UNL A   1      43.565  25.186  25.390  1.00  0.00     0.041 A 
ATOM     69  F   UNL A   1      43.702  27.243  26.502  1.00  0.00    -0.206 F 
ATOM     70  C   UNL A   1      43.136  23.862  25.348  1.00  0.00     0.022 A 
BRANCH  67  71
ATOM     71  S   UNL A   1      41.900  21.612  26.433  1.00  0.00     0.124 S 
ATOM     72  O   UNL A   1      42.741  21.064  25.376  1.00  0.00    -0.237 OA
ATOM     73  O   UNL A   1      42.256  21.238  27.797  1.00  0.00    -0.237 OA
ATOM     74  O   UNL A   1      40.466  21.627  26.147  1.00  0.00    -0.744 OA
ENDBRANCH  67  71
ENDBRANCH  40  64
BRANCH  52  75
ATOM     75  C   UNL A   1      45.622  26.593  33.650  1.00  0.00     0.023 A 
ATOM     76  C   UNL A   1      46.920  27.084  33.429  1.00  0.00     0.031 A 
ATOM     77  C   UNL A   1      45.474  25.473  34.487  1.00  0.00     0.131 A 
ATOM     78  C   UNL A   1      48.024  26.421  33.991  1.00  0.00     0.055 A 
ATOM     79  C   UNL A   1      46.569  24.859  35.098  1.00  0.00     0.041 A 
ATOM     80  F   UNL A   1      44.258  24.957  34.731  1.00  0.00    -0.206 F 
ATOM     81  C   UNL A   1      47.854  25.325  34.838  1.00  0.00     0.022 A 
BRANCH  78  82
ATOM     82  S   UNL A   1      49.692  26.952  33.516  1.00  0.00     0.124 S 
ATOM     83  O   UNL A   1      50.371  27.012  34.806  1.00  0.00    -0.237 OA
ATOM     84  O   UNL A   1      50.118  25.881  32.621  1.00  0.00    -0.237 OA
ATOM     85  O   UNL A   1      49.471  28.245  32.871  1.00  0.00    -0.744 OA
ENDBRANCH  78  82
ENDBRANCH  52  75
ENDBRANCH  26  27
ENDBRANCH  18  21
ENDBRANCH  16  17
ENDBRANCH   1  16
TORSDOF 16
ENDMDL
