MODEL 1
REMARK VINA RESULT:     -11.4      0.000      0.000
REMARK SMILES COc1cccc(-c2cc(C(=O)NCCCCNC(=O)c3ccc(-c4c5nc(c(-c6cc(S(=O)(=O)[O-])ccc6F)c6ccc([nH]6)c(-c6cc(S(=O)(=O)[O-])ccc6F)c6nc(c(-c7cc(S(=O)(=O)[O-])ccc7F)c7ccc4[nH]7)C=C6)C=C5)cc3)cs2)c1
REMARK SMILES IDX 16 1 15 2 14 3 13 4 11 5 12 6 10 8 8 9 9 10 85 11 84 12 7 13
REMARK SMILES IDX 3 14 4 15 86 16 5 17 6 18 2 19 1 20 17 21 18 22 19 23 20 25
REMARK SMILES IDX 21 26 22 27 83 28 23 29 82 30 24 31 25 32 26 33 76 34 27 35
REMARK SMILES IDX 81 36 75 37 77 38 28 39 80 40 74 41 73 42 29 44 61 45 41 46
REMARK SMILES IDX 60 47 42 48 45 49 59 50 78 51 43 52 44 53 58 55 79 56 46 57
REMARK SMILES IDX 30 58 31 59 39 60 32 61 38 62 40 63 37 64 33 65 34 66 35 67
REMARK SMILES IDX 36 68 62 69 63 70 71 71 64 72 70 73 72 74 69 75 65 76 66 77
REMARK SMILES IDX 67 78 68 79 47 80 48 81 56 82 49 83 55 84 57 85 54 86 50 87
REMARK SMILES IDX 51 88 52 89 53 90
REMARK H PARENT 13 7 18 24 77 43 45 54
REMARK Flexibility Score: inf
ROOT
ATOM      1  C   UNL A   1      38.052  20.676  25.084  1.00  0.00     0.023 C 
ENDROOT
BRANCH   1   2
ATOM      2  C   UNL A   1      37.425  22.013  24.674  1.00  0.00     0.023 C 
BRANCH   2   3
ATOM      3  C   UNL A   1      36.859  22.813  25.849  1.00  0.00     0.116 C 
BRANCH   3   4
ATOM      4  N   UNL A   1      36.193  24.015  25.385  1.00  0.00    -0.352 N 
ATOM      5  C   UNL A   1      34.899  24.260  24.995  1.00  0.00     0.252 C 
ATOM      6  O   UNL A   1      34.610  25.421  24.710  1.00  0.00    -0.269 OA
ATOM      7  H   UNL A   1      36.780  24.803  25.341  1.00  0.00     0.163 HD
BRANCH   5   8
ATOM      8  C   UNL A   1      33.887  23.200  24.975  1.00  0.00     0.051 A 
ATOM      9  C   UNL A   1      32.831  21.126  24.644  1.00  0.00     0.035 A 
ATOM     10  C   UNL A   1      33.865  21.958  24.267  1.00  0.00     0.034 A 
ATOM     11  S   UNL A   1      31.723  21.927  25.654  1.00  0.00    -0.143 S 
ATOM     12  C   UNL A   1      32.707  23.329  25.695  1.00  0.00     0.079 A 
BRANCH   9  13
ATOM     13  C   UNL A   1      32.680  19.723  24.282  1.00  0.00    -0.005 A 
ATOM     14  C   UNL A   1      32.966  17.394  24.920  1.00  0.00     0.119 A 
ATOM     15  C   UNL A   1      32.794  17.027  23.585  1.00  0.00     0.046 A 
ATOM     16  C   UNL A   1      32.911  18.743  25.266  1.00  0.00     0.056 A 
ATOM     17  C   UNL A   1      32.528  17.988  22.608  1.00  0.00     0.004 A 
ATOM     18  C   UNL A   1      32.469  19.338  22.956  1.00  0.00     0.010 A 
BRANCH  14  19
ATOM     19  O   UNL A   1      33.247  16.365  25.776  1.00  0.00    -0.497 OA
ATOM     20  C   UNL A   1      32.426  15.208  25.664  1.00  0.00     0.278 C 
ENDBRANCH  14  19
ENDBRANCH   9  13
ENDBRANCH   5   8
ENDBRANCH   3   4
ENDBRANCH   2   3
ENDBRANCH   1   2
BRANCH   1  21
ATOM     21  C   UNL A   1      39.231  20.787  26.049  1.00  0.00     0.116 C 
BRANCH  21  22
ATOM     22  N   UNL A   1      40.117  19.634  26.008  1.00  0.00    -0.352 N 
ATOM     23  C   UNL A   1      41.490  19.612  26.089  1.00  0.00     0.251 C 
ATOM     24  H   UNL A   1      39.678  18.759  25.911  1.00  0.00     0.163 HD
ATOM     25  O   UNL A   1      42.100  18.562  25.910  1.00  0.00    -0.269 OA
BRANCH  23  26
ATOM     26  C   UNL A   1      42.214  20.874  26.346  1.00  0.00     0.039 A 
ATOM     27  C   UNL A   1      42.532  21.701  25.269  1.00  0.00     0.014 A 
ATOM     28  C   UNL A   1      42.519  21.262  27.654  1.00  0.00     0.014 A 
ATOM     29  C   UNL A   1      43.089  22.960  25.511  1.00  0.00     0.010 A 
ATOM     30  C   UNL A   1      43.000  22.544  27.896  1.00  0.00     0.010 A 
ATOM     31  C   UNL A   1      43.284  23.409  26.828  1.00  0.00    -0.014 A 
BRANCH  31  32
ATOM     32  C   UNL A   1      43.771  24.786  27.106  1.00  0.00     0.031 A 
ATOM     33  C   UNL A   1      42.834  25.820  27.668  1.00  0.00     0.074 A 
ATOM     34  C   UNL A   1      45.041  25.119  26.796  1.00  0.00     0.049 A 
ATOM     35  N   UNL A   1      43.051  27.086  27.913  1.00  0.00    -0.248 NA
ATOM     36  C   UNL A   1      41.464  25.376  27.965  1.00  0.00     0.031 C 
ATOM     37  C   UNL A   1      46.032  24.213  26.211  1.00  0.00     0.029 A 
ATOM     38  N   UNL A   1      45.716  26.308  26.922  1.00  0.00    -0.354 N 
ATOM     39  C   UNL A   1      41.844  27.593  28.386  1.00  0.00     0.074 A 
ATOM     40  C   UNL A   1      40.885  26.511  28.325  1.00  0.00     0.031 C 
ATOM     41  C   UNL A   1      47.194  24.868  26.060  1.00  0.00     0.029 A 
ATOM     42  C   UNL A   1      47.020  26.254  26.484  1.00  0.00     0.049 A 
ATOM     43  H   UNL A   1      45.306  27.122  27.292  1.00  0.00     0.167 HD
ATOM     44  C   UNL A   1      41.571  28.837  28.849  1.00  0.00     0.034 A 
ATOM     45  C   UNL A   1      47.964  27.215  26.416  1.00  0.00     0.034 A 
ATOM     46  C   UNL A   1      42.542  29.903  28.906  1.00  0.00     0.049 A 
ATOM     47  C   UNL A   1      47.620  28.604  26.892  1.00  0.00     0.074 A 
ATOM     48  C   UNL A   1      42.387  31.184  29.404  1.00  0.00     0.029 A 
ATOM     49  N   UNL A   1      43.848  29.817  28.436  1.00  0.00    -0.354 N 
ATOM     50  N   UNL A   1      46.489  29.053  27.388  1.00  0.00    -0.248 NA
ATOM     51  C   UNL A   1      48.683  29.615  26.810  1.00  0.00     0.031 C 
ATOM     52  C   UNL A   1      43.566  31.896  29.162  1.00  0.00     0.029 A 
ATOM     53  C   UNL A   1      44.492  31.034  28.597  1.00  0.00     0.049 A 
ATOM     54  H   UNL A   1      44.255  29.010  28.047  1.00  0.00     0.167 HD
ATOM     55  C   UNL A   1      46.717  30.389  27.706  1.00  0.00     0.074 A 
ATOM     56  C   UNL A   1      48.097  30.667  27.362  1.00  0.00     0.031 C 
ATOM     57  C   UNL A   1      45.866  31.303  28.239  1.00  0.00     0.034 A 
BRANCH  44  58
ATOM     58  C   UNL A   1      40.157  29.117  29.303  1.00  0.00     0.023 A 
ATOM     59  C   UNL A   1      39.791  29.060  30.660  1.00  0.00     0.031 A 
ATOM     60  C   UNL A   1      39.154  29.424  28.366  1.00  0.00     0.131 A 
ATOM     61  C   UNL A   1      38.448  29.228  31.032  1.00  0.00     0.055 A 
ATOM     62  C   UNL A   1      37.837  29.678  28.752  1.00  0.00     0.041 A 
ATOM     63  F   UNL A   1      39.436  29.469  27.054  1.00  0.00    -0.206 F 
ATOM     64  C   UNL A   1      37.474  29.565  30.090  1.00  0.00     0.022 A 
BRANCH  61  65
ATOM     65  S   UNL A   1      37.970  28.848  32.740  1.00  0.00     0.124 S 
ATOM     66  O   UNL A   1      38.069  27.390  32.755  1.00  0.00    -0.237 OA
ATOM     67  O   UNL A   1      38.975  29.564  33.516  1.00  0.00    -0.237 OA
ATOM     68  O   UNL A   1      36.610  29.373  32.840  1.00  0.00    -0.744 OA
ENDBRANCH  61  65
ENDBRANCH  44  58
BRANCH  45  69
ATOM     69  C   UNL A   1      49.317  26.913  25.863  1.00  0.00     0.023 A 
ATOM     70  C   UNL A   1      50.398  26.627  26.712  1.00  0.00     0.031 A 
ATOM     71  C   UNL A   1      49.562  26.955  24.479  1.00  0.00     0.131 A 
ATOM     72  C   UNL A   1      51.682  26.447  26.175  1.00  0.00     0.055 A 
ATOM     73  C   UNL A   1      50.829  26.715  23.944  1.00  0.00     0.041 A 
ATOM     74  F   UNL A   1      48.565  27.224  23.620  1.00  0.00    -0.206 F 
ATOM     75  C   UNL A   1      51.902  26.472  24.796  1.00  0.00     0.022 A 
BRANCH  72  76
ATOM     76  S   UNL A   1      53.083  26.279  27.314  1.00  0.00     0.124 S 
ATOM     77  O   UNL A   1      52.407  26.014  28.579  1.00  0.00    -0.237 OA
ATOM     78  O   UNL A   1      53.816  25.160  26.730  1.00  0.00    -0.237 OA
ATOM     79  O   UNL A   1      53.752  27.575  27.223  1.00  0.00    -0.744 OA
ENDBRANCH  72  76
ENDBRANCH  45  69
BRANCH  57  80
ATOM     80  C   UNL A   1      46.422  32.678  28.525  1.00  0.00     0.023 A 
ATOM     81  C   UNL A   1      46.597  33.635  27.510  1.00  0.00     0.031 A 
ATOM     82  C   UNL A   1      46.788  33.033  29.837  1.00  0.00     0.131 A 
ATOM     83  C   UNL A   1      47.176  34.877  27.812  1.00  0.00     0.055 A 
ATOM     84  C   UNL A   1      47.298  34.295  30.143  1.00  0.00     0.041 A 
ATOM     85  F   UNL A   1      46.648  32.158  30.846  1.00  0.00    -0.206 F 
ATOM     86  C   UNL A   1      47.509  35.221  29.125  1.00  0.00     0.022 A 
BRANCH  83  87
ATOM     87  S   UNL A   1      47.583  36.002  26.450  1.00  0.00     0.124 S 
ATOM     88  O   UNL A   1      47.623  35.094  25.308  1.00  0.00    -0.237 OA
ATOM     89  O   UNL A   1      46.467  36.944  26.478  1.00  0.00    -0.237 OA
ATOM     90  O   UNL A   1      48.875  36.563  26.842  1.00  0.00    -0.744 OA
ENDBRANCH  83  87
ENDBRANCH  57  80
ENDBRANCH  31  32
ENDBRANCH  23  26
ENDBRANCH  21  22
ENDBRANCH   1  21
TORSDOF 16
ENDMDL
MODEL 2
REMARK VINA RESULT:     -11.3      5.760      8.836
REMARK SMILES COc1cccc(-c2cc(C(=O)NCCCCNC(=O)c3ccc(-c4c5nc(c(-c6cc(S(=O)(=O)[O-])ccc6F)c6ccc([nH]6)c(-c6cc(S(=O)(=O)[O-])ccc6F)c6nc(c(-c7cc(S(=O)(=O)[O-])ccc7F)c7ccc4[nH]7)C=C6)C=C5)cc3)cs2)c1
REMARK SMILES IDX 16 1 15 2 14 3 13 4 11 5 12 6 10 8 8 9 9 10 85 11 84 12 7 13
REMARK SMILES IDX 3 14 4 15 86 16 5 17 6 18 2 19 1 20 17 21 18 22 19 23 20 25
REMARK SMILES IDX 21 26 22 27 83 28 23 29 82 30 24 31 25 32 26 33 76 34 27 35
REMARK SMILES IDX 81 36 75 37 77 38 28 39 80 40 74 41 73 42 29 44 61 45 41 46
REMARK SMILES IDX 60 47 42 48 45 49 59 50 78 51 43 52 44 53 58 55 79 56 46 57
REMARK SMILES IDX 30 58 31 59 39 60 32 61 38 62 40 63 37 64 33 65 34 66 35 67
REMARK SMILES IDX 36 68 62 69 63 70 71 71 64 72 70 73 72 74 69 75 65 76 66 77
REMARK SMILES IDX 67 78 68 79 47 80 48 81 56 82 49 83 55 84 57 85 54 86 50 87
REMARK SMILES IDX 51 88 52 89 53 90
REMARK H PARENT 13 7 18 24 77 43 45 54
REMARK Flexibility Score: inf
ROOT
ATOM      1  C   UNL A   1      31.736  28.922  25.567  1.00  0.00     0.023 C 
ENDROOT
BRANCH   1   2
ATOM      2  C   UNL A   1      30.982  28.967  24.233  1.00  0.00     0.023 C 
BRANCH   2   3
ATOM      3  C   UNL A   1      30.926  27.618  23.513  1.00  0.00     0.116 C 
BRANCH   3   4
ATOM      4  N   UNL A   1      31.926  27.547  22.466  1.00  0.00    -0.352 N 
ATOM      5  C   UNL A   1      33.027  26.743  22.295  1.00  0.00     0.252 C 
ATOM      6  O   UNL A   1      33.662  26.877  21.250  1.00  0.00    -0.269 OA
ATOM      7  H   UNL A   1      31.791  28.198  21.742  1.00  0.00     0.163 HD
BRANCH   5   8
ATOM      8  C   UNL A   1      33.400  25.727  23.283  1.00  0.00     0.051 A 
ATOM      9  C   UNL A   1      33.898  23.657  24.279  1.00  0.00     0.035 A 
ATOM     10  C   UNL A   1      33.256  24.305  23.244  1.00  0.00     0.034 A 
ATOM     11  S   UNL A   1      34.453  24.753  25.453  1.00  0.00    -0.143 S 
ATOM     12  C   UNL A   1      33.960  26.090  24.501  1.00  0.00     0.079 A 
BRANCH   9  13
ATOM     13  C   UNL A   1      34.130  22.222  24.383  1.00  0.00    -0.005 A 
ATOM     14  C   UNL A   1      33.175  19.996  24.589  1.00  0.00     0.119 A 
ATOM     15  C   UNL A   1      34.431  19.511  24.955  1.00  0.00     0.046 A 
ATOM     16  C   UNL A   1      33.026  21.352  24.306  1.00  0.00     0.056 A 
ATOM     17  C   UNL A   1      35.539  20.359  24.998  1.00  0.00     0.004 A 
ATOM     18  C   UNL A   1      35.391  21.716  24.710  1.00  0.00     0.010 A 
BRANCH  14  19
ATOM     19  O   UNL A   1      32.165  19.074  24.611  1.00  0.00    -0.497 OA
ATOM     20  C   UNL A   1      32.381  17.884  23.860  1.00  0.00     0.278 C 
ENDBRANCH  14  19
ENDBRANCH   9  13
ENDBRANCH   5   8
ENDBRANCH   3   4
ENDBRANCH   2   3
ENDBRANCH   1   2
BRANCH   1  21
ATOM     21  C   UNL A   1      32.926  29.873  25.665  1.00  0.00     0.116 C 
BRANCH  21  22
ATOM     22  N   UNL A   1      32.577  31.176  26.212  1.00  0.00    -0.352 N 
ATOM     23  C   UNL A   1      33.223  31.888  27.195  1.00  0.00     0.251 C 
ATOM     24  H   UNL A   1      31.777  31.601  25.828  1.00  0.00     0.163 HD
ATOM     25  O   UNL A   1      32.727  32.920  27.635  1.00  0.00    -0.269 OA
BRANCH  23  26
ATOM     26  C   UNL A   1      34.493  31.366  27.742  1.00  0.00     0.039 A 
ATOM     27  C   UNL A   1      35.535  32.257  27.999  1.00  0.00     0.014 A 
ATOM     28  C   UNL A   1      34.626  30.010  28.055  1.00  0.00     0.014 A 
ATOM     29  C   UNL A   1      36.686  31.800  28.645  1.00  0.00     0.010 A 
ATOM     30  C   UNL A   1      35.738  29.574  28.766  1.00  0.00     0.010 A 
ATOM     31  C   UNL A   1      36.778  30.466  29.075  1.00  0.00    -0.014 A 
BRANCH  31  32
ATOM     32  C   UNL A   1      37.946  29.989  29.861  1.00  0.00     0.031 A 
ATOM     33  C   UNL A   1      38.187  30.513  31.250  1.00  0.00     0.074 A 
ATOM     34  C   UNL A   1      38.821  29.130  29.299  1.00  0.00     0.049 A 
ATOM     35  N   UNL A   1      39.182  30.273  32.063  1.00  0.00    -0.248 NA
ATOM     36  C   UNL A   1      37.191  31.456  31.781  1.00  0.00     0.031 C 
ATOM     37  C   UNL A   1      38.715  28.582  27.945  1.00  0.00     0.029 A 
ATOM     38  N   UNL A   1      39.975  28.572  29.790  1.00  0.00    -0.354 N 
ATOM     39  C   UNL A   1      38.938  31.038  33.199  1.00  0.00     0.074 A 
ATOM     40  C   UNL A   1      37.736  31.802  32.936  1.00  0.00     0.031 C 
ATOM     41  C   UNL A   1      39.739  27.743  27.727  1.00  0.00     0.029 A 
ATOM     42  C   UNL A   1      40.608  27.734  28.899  1.00  0.00     0.049 A 
ATOM     43  H   UNL A   1      40.319  28.753  30.694  1.00  0.00     0.167 HD
ATOM     44  C   UNL A   1      39.637  31.081  34.360  1.00  0.00     0.034 A 
ATOM     45  C   UNL A   1      41.763  27.047  29.009  1.00  0.00     0.034 A 
ATOM     46  C   UNL A   1      40.831  30.308  34.605  1.00  0.00     0.049 A 
ATOM     47  C   UNL A   1      42.549  27.148  30.293  1.00  0.00     0.074 A 
ATOM     48  C   UNL A   1      41.588  30.235  35.761  1.00  0.00     0.029 A 
ATOM     49  N   UNL A   1      41.452  29.484  33.673  1.00  0.00    -0.354 N 
ATOM     50  N   UNL A   1      42.274  27.835  31.378  1.00  0.00    -0.248 NA
ATOM     51  C   UNL A   1      43.795  26.375  30.370  1.00  0.00     0.031 C 
ATOM     52  C   UNL A   1      42.706  29.436  35.504  1.00  0.00     0.029 A 
ATOM     53  C   UNL A   1      42.603  28.933  34.218  1.00  0.00     0.049 A 
ATOM     54  H   UNL A   1      41.123  29.315  32.761  1.00  0.00     0.167 HD
ATOM     55  C   UNL A   1      43.297  27.549  32.278  1.00  0.00     0.074 A 
ATOM     56  C   UNL A   1      44.183  26.615  31.614  1.00  0.00     0.031 C 
ATOM     57  C   UNL A   1      43.485  28.011  33.541  1.00  0.00     0.034 A 
BRANCH  44  58
ATOM     58  C   UNL A   1      39.141  32.015  35.438  1.00  0.00     0.023 A 
ATOM     59  C   UNL A   1      39.566  33.354  35.511  1.00  0.00     0.031 A 
ATOM     60  C   UNL A   1      38.246  31.557  36.422  1.00  0.00     0.131 A 
ATOM     61  C   UNL A   1      39.160  34.161  36.584  1.00  0.00     0.055 A 
ATOM     62  C   UNL A   1      37.776  32.392  37.438  1.00  0.00     0.041 A 
ATOM     63  F   UNL A   1      37.823  30.283  36.422  1.00  0.00    -0.206 F 
ATOM     64  C   UNL A   1      38.245  33.698  37.532  1.00  0.00     0.022 A 
BRANCH  61  65
ATOM     65  S   UNL A   1      39.965  35.772  36.806  1.00  0.00     0.124 S 
ATOM     66  O   UNL A   1      41.360  35.380  36.992  1.00  0.00    -0.237 OA
ATOM     67  O   UNL A   1      39.654  36.455  35.557  1.00  0.00    -0.237 OA
ATOM     68  O   UNL A   1      39.316  36.317  37.998  1.00  0.00    -0.744 OA
ENDBRANCH  61  65
ENDBRANCH  44  58
BRANCH  45  69
ATOM     69  C   UNL A   1      42.264  26.217  27.874  1.00  0.00     0.023 A 
ATOM     70  C   UNL A   1      41.840  24.889  27.707  1.00  0.00     0.031 A 
ATOM     71  C   UNL A   1      43.214  26.722  26.968  1.00  0.00     0.131 A 
ATOM     72  C   UNL A   1      42.402  24.096  26.694  1.00  0.00     0.055 A 
ATOM     73  C   UNL A   1      43.724  25.949  25.924  1.00  0.00     0.041 A 
ATOM     74  F   UNL A   1      43.655  27.985  27.080  1.00  0.00    -0.206 F 
ATOM     75  C   UNL A   1      43.328  24.622  25.791  1.00  0.00     0.022 A 
BRANCH  72  76
ATOM     76  S   UNL A   1      41.978  22.334  26.636  1.00  0.00     0.124 S 
ATOM     77  O   UNL A   1      40.520  22.378  26.661  1.00  0.00    -0.237 OA
ATOM     78  O   UNL A   1      42.587  21.917  25.377  1.00  0.00    -0.237 OA
ATOM     79  O   UNL A   1      42.608  21.793  27.839  1.00  0.00    -0.744 OA
ENDBRANCH  72  76
ENDBRANCH  45  69
BRANCH  57  80
ATOM     80  C   UNL A   1      44.675  27.473  34.302  1.00  0.00     0.023 A 
ATOM     81  C   UNL A   1      44.595  26.302  35.075  1.00  0.00     0.031 A 
ATOM     82  C   UNL A   1      45.907  28.152  34.255  1.00  0.00     0.131 A 
ATOM     83  C   UNL A   1      45.709  25.877  35.815  1.00  0.00     0.055 A 
ATOM     84  C   UNL A   1      47.031  27.684  34.939  1.00  0.00     0.041 A 
ATOM     85  F   UNL A   1      46.041  29.279  33.537  1.00  0.00    -0.206 F 
ATOM     86  C   UNL A   1      46.931  26.548  35.736  1.00  0.00     0.022 A 
BRANCH  83  87
ATOM     87  S   UNL A   1      45.510  24.488  36.965  1.00  0.00     0.124 S 
ATOM     88  O   UNL A   1      46.895  24.117  37.234  1.00  0.00    -0.237 OA
ATOM     89  O   UNL A   1      44.786  25.101  38.074  1.00  0.00    -0.237 OA
ATOM     90  O   UNL A   1      44.745  23.510  36.193  1.00  0.00    -0.744 OA
ENDBRANCH  83  87
ENDBRANCH  57  80
ENDBRANCH  31  32
ENDBRANCH  23  26
ENDBRANCH  21  22
ENDBRANCH   1  21
TORSDOF 16
ENDMDL
MODEL 3
REMARK VINA RESULT:     -11.2      5.501      8.479
REMARK SMILES COc1cccc(-c2cc(C(=O)NCCCCNC(=O)c3ccc(-c4c5nc(c(-c6cc(S(=O)(=O)[O-])ccc6F)c6ccc([nH]6)c(-c6cc(S(=O)(=O)[O-])ccc6F)c6nc(c(-c7cc(S(=O)(=O)[O-])ccc7F)c7ccc4[nH]7)C=C6)C=C5)cc3)cs2)c1
REMARK SMILES IDX 16 1 15 2 14 3 13 4 11 5 12 6 10 8 8 9 9 10 85 11 84 12 7 13
REMARK SMILES IDX 3 14 4 15 86 16 5 17 6 18 2 19 1 20 17 21 18 22 19 23 20 25
REMARK SMILES IDX 21 26 22 27 83 28 23 29 82 30 24 31 25 32 26 33 76 34 27 35
REMARK SMILES IDX 81 36 75 37 77 38 28 39 80 40 74 41 73 42 29 44 61 45 41 46
REMARK SMILES IDX 60 47 42 48 45 49 59 50 78 51 43 52 44 53 58 55 79 56 46 57
REMARK SMILES IDX 30 58 31 59 39 60 32 61 38 62 40 63 37 64 33 65 34 66 35 67
REMARK SMILES IDX 36 68 62 69 63 70 71 71 64 72 70 73 72 74 69 75 65 76 66 77
REMARK SMILES IDX 67 78 68 79 47 80 48 81 56 82 49 83 55 84 57 85 54 86 50 87
REMARK SMILES IDX 51 88 52 89 53 90
REMARK H PARENT 13 7 18 24 77 43 45 54
REMARK Flexibility Score: inf
ROOT
ATOM      1  C   UNL A   1      32.568  28.547  27.215  1.00  0.00     0.023 C 
ENDROOT
BRANCH   1   2
ATOM      2  C   UNL A   1      32.450  27.192  26.508  1.00  0.00     0.023 C 
BRANCH   2   3
ATOM      3  C   UNL A   1      31.072  26.936  25.896  1.00  0.00     0.116 C 
BRANCH   3   4
ATOM      4  N   UNL A   1      30.421  25.810  26.537  1.00  0.00    -0.352 N 
ATOM      5  C   UNL A   1      30.563  24.453  26.383  1.00  0.00     0.252 C 
ATOM      6  O   UNL A   1      29.904  23.732  27.131  1.00  0.00    -0.269 OA
ATOM      7  H   UNL A   1      29.750  26.068  27.209  1.00  0.00     0.163 HD
BRANCH   5   8
ATOM      8  C   UNL A   1      31.501  23.882  25.413  1.00  0.00     0.051 A 
ATOM      9  C   UNL A   1      33.400  22.860  24.475  1.00  0.00     0.035 A 
ATOM     10  C   UNL A   1      32.888  23.565  25.546  1.00  0.00     0.034 A 
ATOM     11  S   UNL A   1      32.297  22.804  23.183  1.00  0.00    -0.143 S 
ATOM     12  C   UNL A   1      31.096  23.593  24.116  1.00  0.00     0.079 A 
BRANCH   9  13
ATOM     13  C   UNL A   1      34.697  22.199  24.421  1.00  0.00    -0.005 A 
ATOM     14  C   UNL A   1      35.982  20.166  24.773  1.00  0.00     0.119 A 
ATOM     15  C   UNL A   1      37.155  20.920  24.719  1.00  0.00     0.046 A 
ATOM     16  C   UNL A   1      34.754  20.808  24.626  1.00  0.00     0.056 A 
ATOM     17  C   UNL A   1      37.109  22.294  24.480  1.00  0.00     0.004 A 
ATOM     18  C   UNL A   1      35.880  22.936  24.328  1.00  0.00     0.010 A 
BRANCH  14  19
ATOM     19  O   UNL A   1      36.156  18.836  25.040  1.00  0.00    -0.497 OA
ATOM     20  C   UNL A   1      35.178  17.951  24.506  1.00  0.00     0.278 C 
ENDBRANCH  14  19
ENDBRANCH   9  13
ENDBRANCH   5   8
ENDBRANCH   3   4
ENDBRANCH   2   3
ENDBRANCH   1   2
BRANCH   1  21
ATOM     21  C   UNL A   1      33.527  29.536  26.556  1.00  0.00     0.116 C 
BRANCH  21  22
ATOM     22  N   UNL A   1      33.493  30.859  27.160  1.00  0.00    -0.352 N 
ATOM     23  C   UNL A   1      34.384  31.412  28.049  1.00  0.00     0.251 C 
ATOM     24  H   UNL A   1      32.736  31.431  26.898  1.00  0.00     0.163 HD
ATOM     25  O   UNL A   1      34.144  32.499  28.566  1.00  0.00    -0.269 OA
BRANCH  23  26
ATOM     26  C   UNL A   1      35.604  30.658  28.404  1.00  0.00     0.039 A 
ATOM     27  C   UNL A   1      36.757  30.839  27.639  1.00  0.00     0.014 A 
ATOM     28  C   UNL A   1      35.621  29.825  29.526  1.00  0.00     0.014 A 
ATOM     29  C   UNL A   1      37.952  30.242  28.047  1.00  0.00     0.010 A 
ATOM     30  C   UNL A   1      36.827  29.296  29.972  1.00  0.00     0.010 A 
ATOM     31  C   UNL A   1      38.007  29.505  29.241  1.00  0.00    -0.014 A 
BRANCH  31  32
ATOM     32  C   UNL A   1      39.293  28.956  29.748  1.00  0.00     0.031 A 
ATOM     33  C   UNL A   1      40.001  29.626  30.895  1.00  0.00     0.074 A 
ATOM     34  C   UNL A   1      39.850  27.892  29.136  1.00  0.00     0.049 A 
ATOM     35  N   UNL A   1      41.158  29.340  31.432  1.00  0.00    -0.248 NA
ATOM     36  C   UNL A   1      39.328  30.788  31.496  1.00  0.00     0.031 C 
ATOM     37  C   UNL A   1      39.278  27.182  27.989  1.00  0.00     0.029 A 
ATOM     38  N   UNL A   1      41.024  27.224  29.383  1.00  0.00    -0.354 N 
ATOM     39  C   UNL A   1      41.358  30.290  32.428  1.00  0.00     0.074 A 
ATOM     40  C   UNL A   1      40.233  31.199  32.371  1.00  0.00     0.031 C 
ATOM     41  C   UNL A   1      40.083  26.161  27.656  1.00  0.00     0.029 A 
ATOM     42  C   UNL A   1      41.256  26.174  28.524  1.00  0.00     0.049 A 
ATOM     43  H   UNL A   1      41.642  27.472  30.108  1.00  0.00     0.167 HD
ATOM     44  C   UNL A   1      42.374  30.380  33.322  1.00  0.00     0.034 A 
ATOM     45  C   UNL A   1      42.301  25.326  28.436  1.00  0.00     0.034 A 
ATOM     46  C   UNL A   1      43.486  29.461  33.367  1.00  0.00     0.049 A 
ATOM     47  C   UNL A   1      43.442  25.476  29.411  1.00  0.00     0.074 A 
ATOM     48  C   UNL A   1      44.540  29.428  34.262  1.00  0.00     0.029 A 
ATOM     49  N   UNL A   1      43.696  28.420  32.470  1.00  0.00    -0.354 N 
ATOM     50  N   UNL A   1      43.589  26.347  30.384  1.00  0.00    -0.248 NA
ATOM     51  C   UNL A   1      44.553  24.524  29.284  1.00  0.00     0.031 C 
ATOM     52  C   UNL A   1      45.427  28.425  33.859  1.00  0.00     0.029 A 
ATOM     53  C   UNL A   1      44.883  27.768  32.767  1.00  0.00     0.049 A 
ATOM     54  H   UNL A   1      43.091  28.181  31.731  1.00  0.00     0.167 HD
ATOM     55  C   UNL A   1      44.794  26.025  31.003  1.00  0.00     0.074 A 
ATOM     56  C   UNL A   1      45.322  24.870  30.305  1.00  0.00     0.031 C 
ATOM     57  C   UNL A   1      45.406  26.624  32.056  1.00  0.00     0.034 A 
BRANCH  44  58
ATOM     58  C   UNL A   1      42.339  31.528  34.303  1.00  0.00     0.023 A 
ATOM     59  C   UNL A   1      41.489  31.517  35.425  1.00  0.00     0.031 A 
ATOM     60  C   UNL A   1      43.150  32.660  34.107  1.00  0.00     0.131 A 
ATOM     61  C   UNL A   1      41.413  32.644  36.258  1.00  0.00     0.055 A 
ATOM     62  C   UNL A   1      43.134  33.741  34.990  1.00  0.00     0.041 A 
ATOM     63  F   UNL A   1      43.964  32.740  33.042  1.00  0.00    -0.206 F 
ATOM     64  C   UNL A   1      42.251  33.744  36.064  1.00  0.00     0.022 A 
BRANCH  61  65
ATOM     65  S   UNL A   1      40.095  32.711  37.503  1.00  0.00     0.124 S 
ATOM     66  O   UNL A   1      39.225  31.620  37.069  1.00  0.00    -0.237 OA
ATOM     67  O   UNL A   1      40.824  32.491  38.745  1.00  0.00    -0.237 OA
ATOM     68  O   UNL A   1      39.533  34.050  37.334  1.00  0.00    -0.744 OA
ENDBRANCH  61  65
ENDBRANCH  44  58
BRANCH  45  69
ATOM     69  C   UNL A   1      42.336  24.270  27.381  1.00  0.00     0.023 A 
ATOM     70  C   UNL A   1      41.746  23.014  27.595  1.00  0.00     0.031 A 
ATOM     71  C   UNL A   1      43.004  24.483  26.162  1.00  0.00     0.131 A 
ATOM     72  C   UNL A   1      41.880  22.004  26.629  1.00  0.00     0.055 A 
ATOM     73  C   UNL A   1      43.082  23.495  25.179  1.00  0.00     0.041 A 
ATOM     74  F   UNL A   1      43.587  25.665  25.904  1.00  0.00    -0.206 F 
ATOM     75  C   UNL A   1      42.529  22.241  25.417  1.00  0.00     0.022 A 
BRANCH  72  76
ATOM     76  S   UNL A   1      41.278  20.340  27.027  1.00  0.00     0.124 S 
ATOM     77  O   UNL A   1      40.841  20.504  28.409  1.00  0.00    -0.237 OA
ATOM     78  O   UNL A   1      40.223  20.155  26.037  1.00  0.00    -0.237 OA
ATOM     79  O   UNL A   1      42.459  19.499  26.840  1.00  0.00    -0.744 OA
ENDBRANCH  72  76
ENDBRANCH  45  69
BRANCH  57  80
ATOM     80  C   UNL A   1      46.697  26.009  32.545  1.00  0.00     0.023 A 
ATOM     81  C   UNL A   1      46.715  24.995  33.519  1.00  0.00     0.031 A 
ATOM     82  C   UNL A   1      47.929  26.452  32.030  1.00  0.00     0.131 A 
ATOM     83  C   UNL A   1      47.941  24.499  33.988  1.00  0.00     0.055 A 
ATOM     84  C   UNL A   1      49.142  25.905  32.450  1.00  0.00     0.041 A 
ATOM     85  F   UNL A   1      47.973  27.422  31.101  1.00  0.00    -0.206 F 
ATOM     86  C   UNL A   1      49.153  24.933  33.446  1.00  0.00     0.022 A 
BRANCH  83  87
ATOM     87  S   UNL A   1      47.935  23.349  35.390  1.00  0.00     0.124 S 
ATOM     88  O   UNL A   1      48.178  22.069  34.734  1.00  0.00    -0.237 OA
ATOM     89  O   UNL A   1      49.023  23.859  36.218  1.00  0.00    -0.237 OA
ATOM     90  O   UNL A   1      46.598  23.510  35.960  1.00  0.00    -0.744 OA
ENDBRANCH  83  87
ENDBRANCH  57  80
ENDBRANCH  31  32
ENDBRANCH  23  26
ENDBRANCH  21  22
ENDBRANCH   1  21
TORSDOF 16
ENDMDL
