MODEL 1
REMARK VINA RESULT:     -10.7      0.000      0.000
REMARK SMILES O=C(CNS(=O)(=O)c1ccc2[nH]c(=O)cnc2c1)NCCCCNC(=O)c1ccc(-c2c3nc(c(-c4cc(S(=O)(=O)[O-])ccc4F)c4ccc([nH]4)c(-c4cc(S(=O)(=O)[O-])ccc4F)c4nc(c(-c5cc(S(=O)(=O)[O-])ccc5F)c5ccc2[nH]5)C=C4)C=C3)cc1
REMARK SMILES IDX 21 1 20 2 19 3 1 4 2 5 3 7 4 8 5 10 6 11 7 12 8 13 9 14
REMARK SMILES IDX 18 15 10 16 17 17 11 18 16 19 12 20 15 21 13 22 14 24 22 25
REMARK SMILES IDX 23 26 24 27 25 28 26 30 27 31 28 32 89 33 29 34 88 35 30 36
REMARK SMILES IDX 31 37 32 38 82 39 33 40 87 41 81 42 83 43 34 44 86 45 80 46
REMARK SMILES IDX 79 47 35 49 67 50 47 51 66 52 48 53 51 54 65 55 84 56 49 57
REMARK SMILES IDX 50 58 64 60 85 61 52 62 36 63 37 64 45 65 38 66 44 67 46 68
REMARK SMILES IDX 43 69 39 70 40 71 41 72 42 73 68 74 69 75 77 76 70 77 76 78
REMARK SMILES IDX 78 79 75 80 71 81 72 82 73 83 74 84 53 85 54 86 62 87 55 88
REMARK SMILES IDX 61 89 63 90 60 91 56 92 57 93 58 94 59 95
REMARK H PARENT 19 6 4 9 12 23 24 29 83 48 51 59
REMARK Flexibility Score: inf
ROOT
ATOM      1  C   UNL A   1      31.942  30.281  26.034  1.00  0.00     0.023 C 
ENDROOT
BRANCH   1   2
ATOM      2  C   UNL A   1      32.317  29.266  27.113  1.00  0.00     0.116 C 
BRANCH   2   3
ATOM      3  N   UNL A   1      31.984  27.907  26.731  1.00  0.00    -0.355 N 
ATOM      4  O   UNL A   1      34.136  27.301  26.206  1.00  0.00    -0.274 OA
ATOM      5  C   UNL A   1      32.944  27.019  26.291  1.00  0.00     0.235 C 
ATOM      6  H   UNL A   1      31.047  27.609  26.788  1.00  0.00     0.163 HD
BRANCH   5   7
ATOM      7  C   UNL A   1      32.412  25.673  25.830  1.00  0.00     0.198 C 
BRANCH   7   8
ATOM      8  N   UNL A   1      31.990  25.667  24.410  1.00  0.00    -0.202 NA
ATOM      9  H   UNL A   1      32.304  24.792  23.992  1.00  0.00     0.141 HD
BRANCH   8  10
ATOM     10  S   UNL A   1      30.317  25.802  24.153  1.00  0.00     0.241 S 
ATOM     11  O   UNL A   1      29.904  24.825  23.174  1.00  0.00    -0.207 OA
ATOM     12  O   UNL A   1      29.746  25.842  25.482  1.00  0.00    -0.207 OA
BRANCH  10  13
ATOM     13  C   UNL A   1      30.105  27.407  23.432  1.00  0.00     0.084 A 
ATOM     14  C   UNL A   1      31.189  28.040  22.811  1.00  0.00     0.024 A 
ATOM     15  C   UNL A   1      28.866  28.045  23.520  1.00  0.00     0.052 A 
ATOM     16  C   UNL A   1      31.030  29.322  22.278  1.00  0.00     0.030 A 
ATOM     17  C   UNL A   1      28.694  29.314  22.975  1.00  0.00     0.088 A 
ATOM     18  C   UNL A   1      29.786  29.950  22.360  1.00  0.00     0.067 A 
ATOM     19  N   UNL A   1      27.420  29.905  23.061  1.00  0.00    -0.249 NA
ATOM     20  N   UNL A   1      29.612  31.234  21.835  1.00  0.00    -0.319 N 
ATOM     21  C   UNL A   1      27.280  31.091  22.551  1.00  0.00     0.183 A 
ATOM     22  C   UNL A   1      28.401  31.874  21.904  1.00  0.00     0.266 A 
ATOM     23  H   UNL A   1      30.374  31.687  21.406  1.00  0.00     0.170 HD
ATOM     24  O   UNL A   1      28.187  33.007  21.501  1.00  0.00    -0.268 OA
ENDBRANCH  10  13
ENDBRANCH   8  10
ENDBRANCH   7   8
ENDBRANCH   5   7
ENDBRANCH   2   3
ENDBRANCH   1   2
BRANCH   1  25
ATOM     25  C   UNL A   1      31.653  31.694  26.546  1.00  0.00     0.023 C 
BRANCH  25  26
ATOM     26  C   UNL A   1      32.789  32.361  27.318  1.00  0.00     0.116 C 
BRANCH  26  27
ATOM     27  N   UNL A   1      32.537  33.762  27.614  1.00  0.00    -0.352 N 
ATOM     28  C   UNL A   1      33.154  34.587  28.525  1.00  0.00     0.251 C 
ATOM     29  H   UNL A   1      31.819  34.180  27.086  1.00  0.00     0.163 HD
ATOM     30  O   UNL A   1      32.710  35.716  28.712  1.00  0.00    -0.269 OA
BRANCH  28  31
ATOM     31  C   UNL A   1      34.320  34.108  29.305  1.00  0.00     0.039 A 
ATOM     32  C   UNL A   1      34.095  33.282  30.409  1.00  0.00     0.014 A 
ATOM     33  C   UNL A   1      35.626  34.466  28.958  1.00  0.00     0.014 A 
ATOM     34  C   UNL A   1      35.179  32.754  31.119  1.00  0.00     0.010 A 
ATOM     35  C   UNL A   1      36.706  33.887  29.625  1.00  0.00     0.010 A 
ATOM     36  C   UNL A   1      36.495  33.020  30.707  1.00  0.00    -0.014 A 
BRANCH  36  37
ATOM     37  C   UNL A   1      37.660  32.393  31.389  1.00  0.00     0.031 A 
ATOM     38  C   UNL A   1      38.388  31.246  30.742  1.00  0.00     0.074 A 
ATOM     39  C   UNL A   1      38.016  32.808  32.620  1.00  0.00     0.049 A 
ATOM     40  N   UNL A   1      39.355  30.505  31.218  1.00  0.00    -0.248 NA
ATOM     41  C   UNL A   1      37.946  30.865  29.393  1.00  0.00     0.031 C 
ATOM     42  C   UNL A   1      37.366  33.885  33.370  1.00  0.00     0.029 A 
ATOM     43  N   UNL A   1      39.003  32.366  33.466  1.00  0.00    -0.354 N 
ATOM     44  C   UNL A   1      39.632  29.562  30.233  1.00  0.00     0.074 A 
ATOM     45  C   UNL A   1      38.687  29.792  29.160  1.00  0.00     0.031 C 
ATOM     46  C   UNL A   1      37.978  34.027  34.557  1.00  0.00     0.029 A 
ATOM     47  C   UNL A   1      39.035  33.027  34.673  1.00  0.00     0.049 A 
ATOM     48  H   UNL A   1      39.629  31.644  33.232  1.00  0.00     0.167 HD
ATOM     49  C   UNL A   1      40.597  28.607  30.216  1.00  0.00     0.034 A 
ATOM     50  C   UNL A   1      39.814  32.840  35.757  1.00  0.00     0.034 A 
ATOM     51  C   UNL A   1      41.539  28.396  31.288  1.00  0.00     0.049 A 
ATOM     52  C   UNL A   1      40.869  31.764  35.722  1.00  0.00     0.074 A 
ATOM     53  C   UNL A   1      42.585  27.490  31.352  1.00  0.00     0.029 A 
ATOM     54  N   UNL A   1      41.550  29.095  32.488  1.00  0.00    -0.354 N 
ATOM     55  N   UNL A   1      41.141  30.905  34.767  1.00  0.00    -0.248 NA
ATOM     56  C   UNL A   1      41.726  31.638  36.908  1.00  0.00     0.031 C 
ATOM     57  C   UNL A   1      43.188  27.601  32.612  1.00  0.00     0.029 A 
ATOM     58  C   UNL A   1      42.565  28.624  33.308  1.00  0.00     0.049 A 
ATOM     59  H   UNL A   1      40.927  29.821  32.724  1.00  0.00     0.167 HD
ATOM     60  C   UNL A   1      42.223  30.159  35.228  1.00  0.00     0.074 A 
ATOM     61  C   UNL A   1      42.557  30.675  36.538  1.00  0.00     0.031 C 
ATOM     62  C   UNL A   1      42.881  29.139  34.619  1.00  0.00     0.034 A 
BRANCH  49  63
ATOM     63  C   UNL A   1      40.658  27.708  29.005  1.00  0.00     0.023 A 
ATOM     64  C   UNL A   1      41.609  27.904  27.988  1.00  0.00     0.031 A 
ATOM     65  C   UNL A   1      39.734  26.660  28.846  1.00  0.00     0.131 A 
ATOM     66  C   UNL A   1      41.566  27.121  26.826  1.00  0.00     0.055 A 
ATOM     67  C   UNL A   1      39.749  25.829  27.723  1.00  0.00     0.041 A 
ATOM     68  F   UNL A   1      38.789  26.434  29.772  1.00  0.00    -0.206 F 
ATOM     69  C   UNL A   1      40.658  26.068  26.696  1.00  0.00     0.022 A 
BRANCH  66  70
ATOM     70  S   UNL A   1      42.615  27.595  25.425  1.00  0.00     0.124 S 
ATOM     71  O   UNL A   1      43.853  27.976  26.100  1.00  0.00    -0.237 OA
ATOM     72  O   UNL A   1      42.665  26.368  24.638  1.00  0.00    -0.237 OA
ATOM     73  O   UNL A   1      41.884  28.701  24.809  1.00  0.00    -0.744 OA
ENDBRANCH  66  70
ENDBRANCH  49  63
BRANCH  50  74
ATOM     74  C   UNL A   1      39.622  33.676  36.975  1.00  0.00     0.023 A 
ATOM     75  C   UNL A   1      40.438  34.791  37.224  1.00  0.00     0.031 A 
ATOM     76  C   UNL A   1      38.641  33.348  37.929  1.00  0.00     0.131 A 
ATOM     77  C   UNL A   1      40.291  35.511  38.420  1.00  0.00     0.055 A 
ATOM     78  C   UNL A   1      38.466  34.098  39.093  1.00  0.00     0.041 A 
ATOM     79  F   UNL A   1      37.829  32.297  37.734  1.00  0.00    -0.206 F 
ATOM     80  C   UNL A   1      39.303  35.180  39.350  1.00  0.00     0.022 A 
BRANCH  77  81
ATOM     81  S   UNL A   1      41.465  36.846  38.778  1.00  0.00     0.124 S 
ATOM     82  O   UNL A   1      42.038  37.098  37.461  1.00  0.00    -0.237 OA
ATOM     83  O   UNL A   1      40.589  37.885  39.307  1.00  0.00    -0.237 OA
ATOM     84  O   UNL A   1      42.375  36.245  39.750  1.00  0.00    -0.744 OA
ENDBRANCH  77  81
ENDBRANCH  50  74
BRANCH  62  85
ATOM     85  C   UNL A   1      44.059  28.550  35.356  1.00  0.00     0.023 A 
ATOM     86  C   UNL A   1      43.896  27.558  36.339  1.00  0.00     0.031 A 
ATOM     87  C   UNL A   1      45.361  29.002  35.079  1.00  0.00     0.131 A 
ATOM     88  C   UNL A   1      45.012  27.088  37.047  1.00  0.00     0.055 A 
ATOM     89  C   UNL A   1      46.474  28.490  35.747  1.00  0.00     0.041 A 
ATOM     90  F   UNL A   1      45.574  29.948  34.151  1.00  0.00    -0.206 F 
ATOM     91  C   UNL A   1      46.302  27.535  36.748  1.00  0.00     0.022 A 
BRANCH  88  92
ATOM     92  S   UNL A   1      44.749  25.940  38.427  1.00  0.00     0.124 S 
ATOM     93  O   UNL A   1      43.393  26.277  38.848  1.00  0.00    -0.237 OA
ATOM     94  O   UNL A   1      44.911  24.638  37.785  1.00  0.00    -0.237 OA
ATOM     95  O   UNL A   1      45.801  26.297  39.377  1.00  0.00    -0.744 OA
ENDBRANCH  88  92
ENDBRANCH  62  85
ENDBRANCH  36  37
ENDBRANCH  28  31
ENDBRANCH  26  27
ENDBRANCH  25  26
ENDBRANCH   1  25
TORSDOF 17
ENDMDL
MODEL 2
REMARK VINA RESULT:     -10.7      4.238     10.547
REMARK SMILES O=C(CNS(=O)(=O)c1ccc2[nH]c(=O)cnc2c1)NCCCCNC(=O)c1ccc(-c2c3nc(c(-c4cc(S(=O)(=O)[O-])ccc4F)c4ccc([nH]4)c(-c4cc(S(=O)(=O)[O-])ccc4F)c4nc(c(-c5cc(S(=O)(=O)[O-])ccc5F)c5ccc2[nH]5)C=C4)C=C3)cc1
REMARK SMILES IDX 21 1 20 2 19 3 1 4 2 5 3 7 4 8 5 10 6 11 7 12 8 13 9 14
REMARK SMILES IDX 18 15 10 16 17 17 11 18 16 19 12 20 15 21 13 22 14 24 22 25
REMARK SMILES IDX 23 26 24 27 25 28 26 30 27 31 28 32 89 33 29 34 88 35 30 36
REMARK SMILES IDX 31 37 32 38 82 39 33 40 87 41 81 42 83 43 34 44 86 45 80 46
REMARK SMILES IDX 79 47 35 49 67 50 47 51 66 52 48 53 51 54 65 55 84 56 49 57
REMARK SMILES IDX 50 58 64 60 85 61 52 62 36 63 37 64 45 65 38 66 44 67 46 68
REMARK SMILES IDX 43 69 39 70 40 71 41 72 42 73 68 74 69 75 77 76 70 77 76 78
REMARK SMILES IDX 78 79 75 80 71 81 72 82 73 83 74 84 53 85 54 86 62 87 55 88
REMARK SMILES IDX 61 89 63 90 60 91 56 92 57 93 58 94 59 95
REMARK H PARENT 19 6 4 9 12 23 24 29 83 48 51 59
REMARK Flexibility Score: inf
ROOT
ATOM      1  C   UNL A   1      34.308  35.484  28.490  1.00  0.00     0.023 C 
ENDROOT
BRANCH   1   2
ATOM      2  C   UNL A   1      32.908  35.654  29.079  1.00  0.00     0.116 C 
BRANCH   2   3
ATOM      3  N   UNL A   1      32.881  35.431  30.512  1.00  0.00    -0.355 N 
ATOM      4  O   UNL A   1      32.903  37.658  31.074  1.00  0.00    -0.274 OA
ATOM      5  C   UNL A   1      32.889  36.477  31.411  1.00  0.00     0.235 C 
ATOM      6  H   UNL A   1      32.857  34.507  30.852  1.00  0.00     0.163 HD
BRANCH   5   7
ATOM      7  C   UNL A   1      32.967  36.069  32.872  1.00  0.00     0.198 C 
BRANCH   7   8
ATOM      8  N   UNL A   1      34.356  35.883  33.353  1.00  0.00    -0.202 NA
ATOM      9  H   UNL A   1      34.434  36.325  34.269  1.00  0.00     0.141 HD
BRANCH   8  10
ATOM     10  S   UNL A   1      34.859  34.268  33.505  1.00  0.00     0.241 S 
ATOM     11  O   UNL A   1      35.295  34.029  34.860  1.00  0.00    -0.207 OA
ATOM     12  O   UNL A   1      33.796  33.497  32.896  1.00  0.00    -0.207 OA
BRANCH  10  13
ATOM     13  C   UNL A   1      36.279  34.143  32.453  1.00  0.00     0.084 A 
ATOM     14  C   UNL A   1      36.124  33.754  31.117  1.00  0.00     0.024 A 
ATOM     15  C   UNL A   1      37.549  34.397  32.975  1.00  0.00     0.052 A 
ATOM     16  C   UNL A   1      37.250  33.617  30.301  1.00  0.00     0.030 A 
ATOM     17  C   UNL A   1      38.674  34.282  32.164  1.00  0.00     0.088 A 
ATOM     18  C   UNL A   1      38.516  33.884  30.825  1.00  0.00     0.067 A 
ATOM     19  N   UNL A   1      39.929  34.578  32.725  1.00  0.00    -0.249 NA
ATOM     20  N   UNL A   1      39.652  33.748  30.021  1.00  0.00    -0.319 N 
ATOM     21  C   UNL A   1      40.967  34.460  31.953  1.00  0.00     0.183 A 
ATOM     22  C   UNL A   1      40.907  34.001  30.514  1.00  0.00     0.266 A 
ATOM     23  H   UNL A   1      39.549  33.466  29.084  1.00  0.00     0.170 HD
ATOM     24  O   UNL A   1      41.943  33.868  29.882  1.00  0.00    -0.268 OA
ENDBRANCH  10  13
ENDBRANCH   8  10
ENDBRANCH   7   8
ENDBRANCH   5   7
ENDBRANCH   2   3
ENDBRANCH   1   2
BRANCH   1  25
ATOM     25  C   UNL A   1      34.543  34.166  27.749  1.00  0.00     0.023 C 
BRANCH  25  26
ATOM     26  C   UNL A   1      34.131  32.902  28.501  1.00  0.00     0.116 C 
BRANCH  26  27
ATOM     27  N   UNL A   1      33.660  31.842  27.625  1.00  0.00    -0.352 N 
ATOM     28  C   UNL A   1      34.268  30.655  27.286  1.00  0.00     0.251 C 
ATOM     29  H   UNL A   1      32.778  31.995  27.215  1.00  0.00     0.163 HD
ATOM     30  O   UNL A   1      33.758  29.941  26.427  1.00  0.00    -0.269 OA
BRANCH  28  31
ATOM     31  C   UNL A   1      35.547  30.257  27.919  1.00  0.00     0.039 A 
ATOM     32  C   UNL A   1      35.518  29.703  29.202  1.00  0.00     0.014 A 
ATOM     33  C   UNL A   1      36.769  30.427  27.263  1.00  0.00     0.014 A 
ATOM     34  C   UNL A   1      36.701  29.250  29.794  1.00  0.00     0.010 A 
ATOM     35  C   UNL A   1      37.939  29.916  27.826  1.00  0.00     0.010 A 
ATOM     36  C   UNL A   1      37.916  29.316  29.094  1.00  0.00    -0.014 A 
BRANCH  36  37
ATOM     37  C   UNL A   1      39.169  28.753  29.667  1.00  0.00     0.031 A 
ATOM     38  C   UNL A   1      39.781  29.365  30.897  1.00  0.00     0.074 A 
ATOM     39  C   UNL A   1      39.794  27.739  29.037  1.00  0.00     0.049 A 
ATOM     40  N   UNL A   1      40.916  29.085  31.486  1.00  0.00    -0.248 NA
ATOM     41  C   UNL A   1      39.029  30.458  31.531  1.00  0.00     0.031 C 
ATOM     42  C   UNL A   1      39.323  27.084  27.815  1.00  0.00     0.029 A 
ATOM     43  N   UNL A   1      40.967  27.088  29.328  1.00  0.00    -0.354 N 
ATOM     44  C   UNL A   1      41.022  29.972  32.552  1.00  0.00     0.074 A 
ATOM     45  C   UNL A   1      39.862  30.837  32.489  1.00  0.00     0.031 C 
ATOM     46  C   UNL A   1      40.191  26.120  27.469  1.00  0.00     0.029 A 
ATOM     47  C   UNL A   1      41.301  26.112  28.417  1.00  0.00     0.049 A 
ATOM     48  H   UNL A   1      41.519  27.299  30.116  1.00  0.00     0.167 HD
ATOM     49  C   UNL A   1      41.984  30.046  33.506  1.00  0.00     0.034 A 
ATOM     50  C   UNL A   1      42.384  25.314  28.341  1.00  0.00     0.034 A 
ATOM     51  C   UNL A   1      43.130  29.170  33.562  1.00  0.00     0.049 A 
ATOM     52  C   UNL A   1      43.449  25.423  29.402  1.00  0.00     0.074 A 
ATOM     53  C   UNL A   1      44.138  29.129  34.511  1.00  0.00     0.029 A 
ATOM     54  N   UNL A   1      43.426  28.185  32.630  1.00  0.00    -0.354 N 
ATOM     55  N   UNL A   1      43.514  26.243  30.425  1.00  0.00    -0.248 NA
ATOM     56  C   UNL A   1      44.581  24.493  29.303  1.00  0.00     0.031 C 
ATOM     57  C   UNL A   1      45.071  28.160  34.120  1.00  0.00     0.029 A 
ATOM     58  C   UNL A   1      44.612  27.548  32.965  1.00  0.00     0.049 A 
ATOM     59  H   UNL A   1      42.874  27.968  31.843  1.00  0.00     0.167 HD
ATOM     60  C   UNL A   1      44.680  25.905  31.107  1.00  0.00     0.074 A 
ATOM     61  C   UNL A   1      45.278  24.802  30.386  1.00  0.00     0.031 C 
ATOM     62  C   UNL A   1      45.206  26.457  32.231  1.00  0.00     0.034 A 
BRANCH  49  63
ATOM     63  C   UNL A   1      41.843  31.129  34.548  1.00  0.00     0.023 A 
ATOM     64  C   UNL A   1      42.560  32.336  34.458  1.00  0.00     0.031 A 
ATOM     65  C   UNL A   1      41.006  30.944  35.662  1.00  0.00     0.131 A 
ATOM     66  C   UNL A   1      42.491  33.273  35.500  1.00  0.00     0.055 A 
ATOM     67  C   UNL A   1      40.877  31.918  36.656  1.00  0.00     0.041 A 
ATOM     68  F   UNL A   1      40.311  29.806  35.815  1.00  0.00    -0.206 F 
ATOM     69  C   UNL A   1      41.635  33.084  36.587  1.00  0.00     0.022 A 
BRANCH  66  70
ATOM     70  S   UNL A   1      43.647  34.669  35.484  1.00  0.00     0.124 S 
ATOM     71  O   UNL A   1      44.842  34.055  34.911  1.00  0.00    -0.237 OA
ATOM     72  O   UNL A   1      42.958  35.640  34.642  1.00  0.00    -0.237 OA
ATOM     73  O   UNL A   1      43.760  35.035  36.895  1.00  0.00    -0.744 OA
ENDBRANCH  66  70
ENDBRANCH  49  63
BRANCH  50  74
ATOM     74  C   UNL A   1      42.531  24.350  27.214  1.00  0.00     0.023 A 
ATOM     75  C   UNL A   1      41.970  23.064  27.284  1.00  0.00     0.031 A 
ATOM     76  C   UNL A   1      43.268  24.689  26.065  1.00  0.00     0.131 A 
ATOM     77  C   UNL A   1      42.195  22.148  26.245  1.00  0.00     0.055 A 
ATOM     78  C   UNL A   1      43.446  23.789  25.012  1.00  0.00     0.041 A 
ATOM     79  F   UNL A   1      43.818  25.907  25.946  1.00  0.00    -0.206 F 
ATOM     80  C   UNL A   1      42.918  22.505  25.105  1.00  0.00     0.022 A 
BRANCH  77  81
ATOM     81  S   UNL A   1      41.589  20.449  26.442  1.00  0.00     0.124 S 
ATOM     82  O   UNL A   1      42.029  20.133  27.796  1.00  0.00    -0.237 OA
ATOM     83  O   UNL A   1      40.153  20.618  26.257  1.00  0.00    -0.237 OA
ATOM     84  O   UNL A   1      42.272  19.720  25.376  1.00  0.00    -0.744 OA
ENDBRANCH  77  81
ENDBRANCH  50  74
BRANCH  62  85
ATOM     85  C   UNL A   1      46.472  25.836  32.768  1.00  0.00     0.023 A 
ATOM     86  C   UNL A   1      46.443  24.777  33.691  1.00  0.00     0.031 A 
ATOM     87  C   UNL A   1      47.725  26.324  32.359  1.00  0.00     0.131 A 
ATOM     88  C   UNL A   1      47.643  24.275  34.216  1.00  0.00     0.055 A 
ATOM     89  C   UNL A   1      48.918  25.784  32.843  1.00  0.00     0.041 A 
ATOM     90  F   UNL A   1      47.811  27.335  31.480  1.00  0.00    -0.206 F 
ATOM     91  C   UNL A   1      48.881  24.761  33.787  1.00  0.00     0.022 A 
BRANCH  88  92
ATOM     92  S   UNL A   1      47.565  23.031  35.535  1.00  0.00     0.124 S 
ATOM     93  O   UNL A   1      48.520  23.556  36.505  1.00  0.00    -0.237 OA
ATOM     94  O   UNL A   1      46.161  23.084  35.931  1.00  0.00    -0.237 OA
ATOM     95  O   UNL A   1      47.974  21.796  34.867  1.00  0.00    -0.744 OA
ENDBRANCH  88  92
ENDBRANCH  62  85
ENDBRANCH  36  37
ENDBRANCH  28  31
ENDBRANCH  26  27
ENDBRANCH  25  26
ENDBRANCH   1  25
TORSDOF 17
ENDMDL
MODEL 3
REMARK VINA RESULT:     -10.5      2.862      4.718
REMARK SMILES O=C(CNS(=O)(=O)c1ccc2[nH]c(=O)cnc2c1)NCCCCNC(=O)c1ccc(-c2c3nc(c(-c4cc(S(=O)(=O)[O-])ccc4F)c4ccc([nH]4)c(-c4cc(S(=O)(=O)[O-])ccc4F)c4nc(c(-c5cc(S(=O)(=O)[O-])ccc5F)c5ccc2[nH]5)C=C4)C=C3)cc1
REMARK SMILES IDX 21 1 20 2 19 3 1 4 2 5 3 7 4 8 5 10 6 11 7 12 8 13 9 14
REMARK SMILES IDX 18 15 10 16 17 17 11 18 16 19 12 20 15 21 13 22 14 24 22 25
REMARK SMILES IDX 23 26 24 27 25 28 26 30 27 31 28 32 89 33 29 34 88 35 30 36
REMARK SMILES IDX 31 37 32 38 82 39 33 40 87 41 81 42 83 43 34 44 86 45 80 46
REMARK SMILES IDX 79 47 35 49 67 50 47 51 66 52 48 53 51 54 65 55 84 56 49 57
REMARK SMILES IDX 50 58 64 60 85 61 52 62 36 63 37 64 45 65 38 66 44 67 46 68
REMARK SMILES IDX 43 69 39 70 40 71 41 72 42 73 68 74 69 75 77 76 70 77 76 78
REMARK SMILES IDX 78 79 75 80 71 81 72 82 73 83 74 84 53 85 54 86 62 87 55 88
REMARK SMILES IDX 61 89 63 90 60 91 56 92 57 93 58 94 59 95
REMARK H PARENT 19 6 4 9 12 23 24 29 83 48 51 59
REMARK Flexibility Score: inf
ROOT
ATOM      1  C   UNL A   1      32.156  29.946  25.779  1.00  0.00     0.023 C 
ENDROOT
BRANCH   1   2
ATOM      2  C   UNL A   1      31.834  28.591  26.408  1.00  0.00     0.116 C 
BRANCH   2   3
ATOM      3  N   UNL A   1      31.896  27.508  25.446  1.00  0.00    -0.355 N 
ATOM      4  O   UNL A   1      30.305  26.214  26.480  1.00  0.00    -0.274 OA
ATOM      5  C   UNL A   1      31.113  26.379  25.569  1.00  0.00     0.235 C 
ATOM      6  H   UNL A   1      32.514  27.580  24.682  1.00  0.00     0.163 HD
BRANCH   5   7
ATOM      7  C   UNL A   1      31.378  25.295  24.538  1.00  0.00     0.198 C 
BRANCH   7   8
ATOM      8  N   UNL A   1      31.432  23.935  25.122  1.00  0.00    -0.202 NA
ATOM      9  H   UNL A   1      31.517  23.267  24.356  1.00  0.00     0.141 HD
BRANCH   8  10
ATOM     10  S   UNL A   1      32.715  23.662  26.201  1.00  0.00     0.241 S 
ATOM     11  O   UNL A   1      33.746  24.646  25.975  1.00  0.00    -0.207 OA
ATOM     12  O   UNL A   1      32.078  23.503  27.491  1.00  0.00    -0.207 OA
BRANCH  10  13
ATOM     13  C   UNL A   1      33.366  22.083  25.729  1.00  0.00     0.084 A 
ATOM     14  C   UNL A   1      34.729  21.952  25.438  1.00  0.00     0.024 A 
ATOM     15  C   UNL A   1      32.507  20.989  25.614  1.00  0.00     0.052 A 
ATOM     16  C   UNL A   1      35.233  20.715  25.028  1.00  0.00     0.030 A 
ATOM     17  C   UNL A   1      33.004  19.749  25.225  1.00  0.00     0.088 A 
ATOM     18  C   UNL A   1      34.372  19.621  24.926  1.00  0.00     0.067 A 
ATOM     19  N   UNL A   1      32.107  18.667  25.153  1.00  0.00    -0.249 NA
ATOM     20  N   UNL A   1      34.861  18.378  24.513  1.00  0.00    -0.319 N 
ATOM     21  C   UNL A   1      32.589  17.520  24.783  1.00  0.00     0.183 A 
ATOM     22  C   UNL A   1      34.034  17.289  24.403  1.00  0.00     0.266 A 
ATOM     23  H   UNL A   1      35.817  18.283  24.298  1.00  0.00     0.170 HD
ATOM     24  O   UNL A   1      34.384  16.186  24.014  1.00  0.00    -0.268 OA
ENDBRANCH  10  13
ENDBRANCH   8  10
ENDBRANCH   7   8
ENDBRANCH   5   7
ENDBRANCH   2   3
ENDBRANCH   1   2
BRANCH   1  25
ATOM     25  C   UNL A   1      31.800  31.161  26.640  1.00  0.00     0.023 C 
BRANCH  25  26
ATOM     26  C   UNL A   1      32.986  31.936  27.210  1.00  0.00     0.116 C 
BRANCH  26  27
ATOM     27  N   UNL A   1      32.678  33.328  27.494  1.00  0.00    -0.352 N 
ATOM     28  C   UNL A   1      33.250  34.179  28.411  1.00  0.00     0.251 C 
ATOM     29  H   UNL A   1      31.955  33.718  26.953  1.00  0.00     0.163 HD
ATOM     30  O   UNL A   1      32.763  35.292  28.586  1.00  0.00    -0.269 OA
BRANCH  28  31
ATOM     31  C   UNL A   1      34.420  33.745  29.212  1.00  0.00     0.039 A 
ATOM     32  C   UNL A   1      34.214  32.869  30.282  1.00  0.00     0.014 A 
ATOM     33  C   UNL A   1      35.711  34.194  28.919  1.00  0.00     0.014 A 
ATOM     34  C   UNL A   1      35.307  32.385  31.008  1.00  0.00     0.010 A 
ATOM     35  C   UNL A   1      36.805  33.661  29.601  1.00  0.00     0.010 A 
ATOM     36  C   UNL A   1      36.615  32.746  30.648  1.00  0.00    -0.014 A 
BRANCH  36  37
ATOM     37  C   UNL A   1      37.796  32.168  31.346  1.00  0.00     0.031 A 
ATOM     38  C   UNL A   1      38.574  31.046  30.715  1.00  0.00     0.074 A 
ATOM     39  C   UNL A   1      38.123  32.605  32.578  1.00  0.00     0.049 A 
ATOM     40  N   UNL A   1      39.564  30.345  31.206  1.00  0.00    -0.248 NA
ATOM     41  C   UNL A   1      38.161  30.639  29.364  1.00  0.00     0.031 C 
ATOM     42  C   UNL A   1      37.424  33.661  33.314  1.00  0.00     0.029 A 
ATOM     43  N   UNL A   1      39.117  32.207  33.437  1.00  0.00    -0.354 N 
ATOM     44  C   UNL A   1      39.887  29.407  30.231  1.00  0.00     0.074 A 
ATOM     45  C   UNL A   1      38.945  29.593  29.147  1.00  0.00     0.031 C 
ATOM     46  C   UNL A   1      38.018  33.834  34.506  1.00  0.00     0.029 A 
ATOM     47  C   UNL A   1      39.111  32.877  34.639  1.00  0.00     0.049 A 
ATOM     48  H   UNL A   1      39.773  31.508  33.214  1.00  0.00     0.167 HD
ATOM     49  C   UNL A   1      40.888  28.490  30.230  1.00  0.00     0.034 A 
ATOM     50  C   UNL A   1      39.885  32.728  35.732  1.00  0.00     0.034 A 
ATOM     51  C   UNL A   1      41.826  28.322  31.314  1.00  0.00     0.049 A 
ATOM     52  C   UNL A   1      40.981  31.692  35.717  1.00  0.00     0.074 A 
ATOM     53  C   UNL A   1      42.905  27.457  31.395  1.00  0.00     0.029 A 
ATOM     54  N   UNL A   1      41.798  29.029  32.509  1.00  0.00    -0.354 N 
ATOM     55  N   UNL A   1      41.296  30.838  34.770  1.00  0.00    -0.248 NA
ATOM     56  C   UNL A   1      41.830  31.607  36.912  1.00  0.00     0.031 C 
ATOM     57  C   UNL A   1      43.490  27.600  32.660  1.00  0.00     0.029 A 
ATOM     58  C   UNL A   1      42.821  28.603  33.343  1.00  0.00     0.049 A 
ATOM     59  H   UNL A   1      41.145  29.732  32.733  1.00  0.00     0.167 HD
ATOM     60  C   UNL A   1      42.400  30.136  35.247  1.00  0.00     0.074 A 
ATOM     61  C   UNL A   1      42.701  30.674  36.557  1.00  0.00     0.031 C 
ATOM     62  C   UNL A   1      43.103  29.138  34.653  1.00  0.00     0.034 A 
BRANCH  49  63
ATOM     63  C   UNL A   1      40.995  27.585  29.027  1.00  0.00     0.023 A 
ATOM     64  C   UNL A   1      42.000  27.763  28.059  1.00  0.00     0.031 A 
ATOM     65  C   UNL A   1      40.065  26.551  28.824  1.00  0.00     0.131 A 
ATOM     66  C   UNL A   1      42.003  26.977  26.897  1.00  0.00     0.055 A 
ATOM     67  C   UNL A   1      40.124  25.715  27.706  1.00  0.00     0.041 A 
ATOM     68  F   UNL A   1      39.072  26.342  29.703  1.00  0.00    -0.206 F 
ATOM     69  C   UNL A   1      41.087  25.937  26.726  1.00  0.00     0.022 A 
BRANCH  66  70
ATOM     70  S   UNL A   1      43.127  27.430  25.549  1.00  0.00     0.124 S 
ATOM     71  O   UNL A   1      43.521  26.118  25.041  1.00  0.00    -0.237 OA
ATOM     72  O   UNL A   1      42.271  28.224  24.677  1.00  0.00    -0.237 OA
ATOM     73  O   UNL A   1      44.190  28.172  26.225  1.00  0.00    -0.744 OA
ENDBRANCH  66  70
ENDBRANCH  49  63
BRANCH  50  74
ATOM     74  C   UNL A   1      39.649  33.563  36.943  1.00  0.00     0.023 A 
ATOM     75  C   UNL A   1      38.945  33.056  38.046  1.00  0.00     0.031 A 
ATOM     76  C   UNL A   1      40.094  34.896  36.998  1.00  0.00     0.131 A 
ATOM     77  C   UNL A   1      38.664  33.890  39.140  1.00  0.00     0.055 A 
ATOM     78  C   UNL A   1      39.855  35.707  38.109  1.00  0.00     0.041 A 
ATOM     79  F   UNL A   1      40.778  35.427  35.973  1.00  0.00    -0.206 F 
ATOM     80  C   UNL A   1      39.125  35.208  39.184  1.00  0.00     0.022 A 
BRANCH  77  81
ATOM     81  S   UNL A   1      37.618  33.247  40.475  1.00  0.00     0.124 S 
ATOM     82  O   UNL A   1      38.464  32.199  41.035  1.00  0.00    -0.237 OA
ATOM     83  O   UNL A   1      37.429  34.431  41.306  1.00  0.00    -0.237 OA
ATOM     84  O   UNL A   1      36.424  32.780  39.775  1.00  0.00    -0.744 OA
ENDBRANCH  77  81
ENDBRANCH  50  74
BRANCH  62  85
ATOM     85  C   UNL A   1      44.295  28.600  35.406  1.00  0.00     0.023 A 
ATOM     86  C   UNL A   1      44.167  27.574  36.358  1.00  0.00     0.031 A 
ATOM     87  C   UNL A   1      45.575  29.135  35.176  1.00  0.00     0.131 A 
ATOM     88  C   UNL A   1      45.291  27.151  37.083  1.00  0.00     0.055 A 
ATOM     89  C   UNL A   1      46.699  28.672  35.861  1.00  0.00     0.041 A 
ATOM     90  F   UNL A   1      45.754  30.118  34.279  1.00  0.00    -0.206 F 
ATOM     91  C   UNL A   1      46.558  27.682  36.831  1.00  0.00     0.022 A 
BRANCH  88  92
ATOM     92  S   UNL A   1      45.061  25.952  38.425  1.00  0.00     0.124 S 
ATOM     93  O   UNL A   1      44.688  24.745  37.695  1.00  0.00    -0.237 OA
ATOM     94  O   UNL A   1      46.378  25.934  39.056  1.00  0.00    -0.237 OA
ATOM     95  O   UNL A   1      43.996  26.541  39.235  1.00  0.00    -0.744 OA
ENDBRANCH  88  92
ENDBRANCH  62  85
ENDBRANCH  36  37
ENDBRANCH  28  31
ENDBRANCH  26  27
ENDBRANCH  25  26
ENDBRANCH   1  25
TORSDOF 17
ENDMDL
