MODEL 1
REMARK VINA RESULT:     -11.5      0.000      0.000
REMARK SMILES O=C(Cc1cccn(C(F)F)c1=O)NCCCCNC(=O)c1ccc(-c2c3nc(c(-c4cc(S(=O)(=O)[O-])ccc4F)c4ccc([nH]4)c(-c4cc(S(=O)(=O)[O-])ccc4F)c4nc(c(-c5cc(S(=O)(=O)[O-])ccc5F)c5ccc2[nH]5)C=C4)C=C3)cc1
REMARK SMILES IDX 17 1 16 2 15 3 14 4 1 5 2 6 3 8 4 9 5 10 12 11 6 12 8 13
REMARK SMILES IDX 13 14 7 15 9 16 10 17 11 18 18 19 19 20 20 21 21 23 22 24
REMARK SMILES IDX 23 25 84 26 24 27 83 28 25 29 26 30 27 31 77 32 28 33 82 34
REMARK SMILES IDX 76 35 78 36 29 37 81 38 75 39 74 40 30 42 62 43 42 44 61 45
REMARK SMILES IDX 43 46 46 47 60 48 79 49 44 50 45 51 59 53 80 54 47 55 31 56
REMARK SMILES IDX 32 57 40 58 33 59 39 60 41 61 38 62 34 63 35 64 36 65 37 66
REMARK SMILES IDX 63 67 64 68 72 69 65 70 71 71 73 72 70 73 66 74 67 75 68 76
REMARK SMILES IDX 69 77 48 78 49 79 57 80 50 81 56 82 58 83 55 84 51 85 52 86
REMARK SMILES IDX 53 87 54 88
REMARK H PARENT 14 7 19 22 78 41 46 52
REMARK Flexibility Score: inf
ROOT
ATOM      1  C   UNL A   1      32.306  30.319  25.628  1.00  0.00     0.023 C 
ENDROOT
BRANCH   1   2
ATOM      2  C   UNL A   1      33.085  29.007  25.486  1.00  0.00     0.023 C 
BRANCH   2   3
ATOM      3  C   UNL A   1      32.274  27.807  24.994  1.00  0.00     0.116 C 
BRANCH   3   4
ATOM      4  N   UNL A   1      30.943  28.181  24.572  1.00  0.00    -0.356 N 
ATOM      5  O   UNL A   1      31.292  28.057  22.302  1.00  0.00    -0.275 OA
ATOM      6  C   UNL A   1      30.551  28.270  23.256  1.00  0.00     0.224 C 
ATOM      7  H   UNL A   1      30.277  28.385  25.267  1.00  0.00     0.163 HD
BRANCH   6   8
ATOM      8  C   UNL A   1      29.085  28.654  23.081  1.00  0.00     0.141 C 
BRANCH   8   9
ATOM      9  C   UNL A   1      28.929  30.139  22.922  1.00  0.00     0.027 A 
ATOM     10  C   UNL A   1      29.321  31.033  23.846  1.00  0.00     0.011 A 
ATOM     11  C   UNL A   1      28.264  30.636  21.667  1.00  0.00     0.258 A 
ATOM     12  C   UNL A   1      29.141  32.447  23.640  1.00  0.00     0.019 A 
ATOM     13  N   UNL A   1      28.190  32.009  21.519  1.00  0.00    -0.258 N 
ATOM     14  O   UNL A   1      27.833  29.832  20.841  1.00  0.00    -0.269 OA
ATOM     15  C   UNL A   1      28.606  32.891  22.499  1.00  0.00     0.095 A 
BRANCH  13  16
ATOM     16  C   UNL A   1      27.632  32.530  20.296  1.00  0.00     0.451 C 
ATOM     17  F   UNL A   1      27.243  33.817  20.486  1.00  0.00    -0.185 F 
ATOM     18  F   UNL A   1      28.602  32.562  19.341  1.00  0.00    -0.185 F 
ENDBRANCH  13  16
ENDBRANCH   8   9
ENDBRANCH   6   8
ENDBRANCH   3   4
ENDBRANCH   2   3
ENDBRANCH   1   2
BRANCH   1  19
ATOM     19  C   UNL A   1      32.188  30.865  27.048  1.00  0.00     0.116 C 
BRANCH  19  20
ATOM     20  N   UNL A   1      32.339  32.311  27.111  1.00  0.00    -0.352 N 
ATOM     21  C   UNL A   1      33.383  33.069  27.599  1.00  0.00     0.251 C 
ATOM     22  H   UNL A   1      31.581  32.826  26.752  1.00  0.00     0.163 HD
ATOM     23  O   UNL A   1      33.253  34.283  27.698  1.00  0.00    -0.269 OA
BRANCH  21  24
ATOM     24  C   UNL A   1      34.640  32.416  28.039  1.00  0.00     0.039 A 
ATOM     25  C   UNL A   1      34.647  31.096  28.494  1.00  0.00     0.014 A 
ATOM     26  C   UNL A   1      35.832  33.146  28.008  1.00  0.00     0.014 A 
ATOM     27  C   UNL A   1      35.794  30.575  29.088  1.00  0.00     0.010 A 
ATOM     28  C   UNL A   1      37.007  32.588  28.528  1.00  0.00     0.010 A 
ATOM     29  C   UNL A   1      36.985  31.320  29.129  1.00  0.00    -0.014 A 
BRANCH  29  30
ATOM     30  C   UNL A   1      38.180  30.759  29.818  1.00  0.00     0.031 A 
ATOM     31  C   UNL A   1      38.494  31.132  31.245  1.00  0.00     0.074 A 
ATOM     32  C   UNL A   1      38.957  29.863  29.176  1.00  0.00     0.049 A 
ATOM     33  N   UNL A   1      39.462  30.701  32.015  1.00  0.00    -0.248 NA
ATOM     34  C   UNL A   1      37.612  32.116  31.894  1.00  0.00     0.031 C 
ATOM     35  C   UNL A   1      38.754  29.423  27.796  1.00  0.00     0.029 A 
ATOM     36  N   UNL A   1      40.051  29.147  29.597  1.00  0.00    -0.354 N 
ATOM     37  C   UNL A   1      39.314  31.365  33.227  1.00  0.00     0.074 A 
ATOM     38  C   UNL A   1      38.186  32.259  33.081  1.00  0.00     0.031 C 
ATOM     39  C   UNL A   1      39.657  28.479  27.500  1.00  0.00     0.029 A 
ATOM     40  C   UNL A   1      40.548  28.289  28.643  1.00  0.00     0.049 A 
ATOM     41  H   UNL A   1      40.442  29.240  30.495  1.00  0.00     0.167 HD
ATOM     42  C   UNL A   1      40.039  31.228  34.364  1.00  0.00     0.034 A 
ATOM     43  C   UNL A   1      41.603  27.447  28.675  1.00  0.00     0.034 A 
ATOM     44  C   UNL A   1      41.145  30.317  34.508  1.00  0.00     0.049 A 
ATOM     45  C   UNL A   1      42.409  27.333  29.942  1.00  0.00     0.074 A 
ATOM     46  C   UNL A   1      41.918  30.086  35.632  1.00  0.00     0.029 A 
ATOM     47  N   UNL A   1      41.636  29.487  33.511  1.00  0.00    -0.354 N 
ATOM     48  N   UNL A   1      42.219  27.929  31.096  1.00  0.00    -0.248 NA
ATOM     49  C   UNL A   1      43.572  26.434  29.920  1.00  0.00     0.031 C 
ATOM     50  C   UNL A   1      42.910  29.163  35.301  1.00  0.00     0.029 A 
ATOM     51  C   UNL A   1      42.716  28.762  33.989  1.00  0.00     0.049 A 
ATOM     52  H   UNL A   1      41.271  29.421  32.599  1.00  0.00     0.167 HD
ATOM     53  C   UNL A   1      43.223  27.464  31.940  1.00  0.00     0.074 A 
ATOM     54  C   UNL A   1      44.001  26.513  31.173  1.00  0.00     0.031 C 
ATOM     55  C   UNL A   1      43.479  27.801  33.229  1.00  0.00     0.034 A 
BRANCH  42  56
ATOM     56  C   UNL A   1      39.666  32.056  35.570  1.00  0.00     0.023 A 
ATOM     57  C   UNL A   1      38.841  31.510  36.571  1.00  0.00     0.031 A 
ATOM     58  C   UNL A   1      39.999  33.420  35.652  1.00  0.00     0.131 A 
ATOM     59  C   UNL A   1      38.344  32.333  37.590  1.00  0.00     0.055 A 
ATOM     60  C   UNL A   1      39.534  34.227  36.692  1.00  0.00     0.041 A 
ATOM     61  F   UNL A   1      40.782  33.988  34.720  1.00  0.00    -0.206 F 
ATOM     62  C   UNL A   1      38.691  33.687  37.659  1.00  0.00     0.022 A 
BRANCH  59  63
ATOM     63  S   UNL A   1      37.176  31.701  38.824  1.00  0.00     0.124 S 
ATOM     64  O   UNL A   1      36.043  32.610  38.658  1.00  0.00    -0.237 OA
ATOM     65  O   UNL A   1      36.952  30.335  38.361  1.00  0.00    -0.237 OA
ATOM     66  O   UNL A   1      37.894  31.830  40.087  1.00  0.00    -0.744 OA
ENDBRANCH  59  63
ENDBRANCH  42  56
BRANCH  43  67
ATOM     67  C   UNL A   1      41.912  26.623  27.468  1.00  0.00     0.023 A 
ATOM     68  C   UNL A   1      41.554  25.264  27.410  1.00  0.00     0.031 A 
ATOM     69  C   UNL A   1      42.660  27.153  26.404  1.00  0.00     0.131 A 
ATOM     70  C   UNL A   1      42.008  24.466  26.353  1.00  0.00     0.055 A 
ATOM     71  C   UNL A   1      43.046  26.372  25.313  1.00  0.00     0.041 A 
ATOM     72  F   UNL A   1      43.036  28.441  26.417  1.00  0.00    -0.206 F 
ATOM     73  C   UNL A   1      42.737  25.015  25.294  1.00  0.00     0.022 A 
BRANCH  70  74
ATOM     74  S   UNL A   1      41.795  22.664  26.393  1.00  0.00     0.124 S 
ATOM     75  O   UNL A   1      42.262  22.333  27.734  1.00  0.00    -0.237 OA
ATOM     76  O   UNL A   1      40.355  22.529  26.176  1.00  0.00    -0.237 OA
ATOM     77  O   UNL A   1      42.632  22.195  25.294  1.00  0.00    -0.744 OA
ENDBRANCH  70  74
ENDBRANCH  43  67
BRANCH  55  78
ATOM     78  C   UNL A   1      44.647  27.151  33.931  1.00  0.00     0.023 A 
ATOM     79  C   UNL A   1      44.445  26.001  34.719  1.00  0.00     0.031 A 
ATOM     80  C   UNL A   1      45.915  27.758  33.955  1.00  0.00     0.131 A 
ATOM     81  C   UNL A   1      45.480  25.521  35.531  1.00  0.00     0.055 A 
ATOM     82  C   UNL A   1      46.958  27.247  34.729  1.00  0.00     0.041 A 
ATOM     83  F   UNL A   1      46.155  28.863  33.231  1.00  0.00    -0.206 F 
ATOM     84  C   UNL A   1      46.738  26.133  35.534  1.00  0.00     0.022 A 
BRANCH  81  85
ATOM     85  S   UNL A   1      45.208  24.144  36.681  1.00  0.00     0.124 S 
ATOM     86  O   UNL A   1      46.571  23.827  37.100  1.00  0.00    -0.237 OA
ATOM     87  O   UNL A   1      44.367  24.759  37.704  1.00  0.00    -0.237 OA
ATOM     88  O   UNL A   1      44.557  23.125  35.863  1.00  0.00    -0.744 OA
ENDBRANCH  81  85
ENDBRANCH  55  78
ENDBRANCH  29  30
ENDBRANCH  21  24
ENDBRANCH  19  20
ENDBRANCH   1  19
TORSDOF 16
ENDMDL
MODEL 2
REMARK VINA RESULT:     -11.2      2.194      8.215
REMARK SMILES O=C(Cc1cccn(C(F)F)c1=O)NCCCCNC(=O)c1ccc(-c2c3nc(c(-c4cc(S(=O)(=O)[O-])ccc4F)c4ccc([nH]4)c(-c4cc(S(=O)(=O)[O-])ccc4F)c4nc(c(-c5cc(S(=O)(=O)[O-])ccc5F)c5ccc2[nH]5)C=C4)C=C3)cc1
REMARK SMILES IDX 17 1 16 2 15 3 14 4 1 5 2 6 3 8 4 9 5 10 12 11 6 12 8 13
REMARK SMILES IDX 13 14 7 15 9 16 10 17 11 18 18 19 19 20 20 21 21 23 22 24
REMARK SMILES IDX 23 25 84 26 24 27 83 28 25 29 26 30 27 31 77 32 28 33 82 34
REMARK SMILES IDX 76 35 78 36 29 37 81 38 75 39 74 40 30 42 62 43 42 44 61 45
REMARK SMILES IDX 43 46 46 47 60 48 79 49 44 50 45 51 59 53 80 54 47 55 31 56
REMARK SMILES IDX 32 57 40 58 33 59 39 60 41 61 38 62 34 63 35 64 36 65 37 66
REMARK SMILES IDX 63 67 64 68 72 69 65 70 71 71 73 72 70 73 66 74 67 75 68 76
REMARK SMILES IDX 69 77 48 78 49 79 57 80 50 81 56 82 58 83 55 84 51 85 52 86
REMARK SMILES IDX 53 87 54 88
REMARK H PARENT 14 7 19 22 78 41 46 52
REMARK Flexibility Score: inf
ROOT
ATOM      1  C   UNL A   1      31.753  31.806  26.609  1.00  0.00     0.023 C 
ENDROOT
BRANCH   1   2
ATOM      2  C   UNL A   1      31.818  30.278  26.534  1.00  0.00     0.023 C 
BRANCH   2   3
ATOM      3  C   UNL A   1      32.774  29.707  25.487  1.00  0.00     0.116 C 
BRANCH   3   4
ATOM      4  N   UNL A   1      32.075  29.166  24.343  1.00  0.00    -0.356 N 
ATOM      5  O   UNL A   1      32.066  26.962  24.999  1.00  0.00    -0.275 OA
ATOM      6  C   UNL A   1      31.767  27.834  24.190  1.00  0.00     0.224 C 
ATOM      7  H   UNL A   1      31.802  29.788  23.630  1.00  0.00     0.163 HD
BRANCH   6   8
ATOM      8  C   UNL A   1      30.998  27.530  22.908  1.00  0.00     0.141 C 
BRANCH   8   9
ATOM      9  C   UNL A   1      29.747  28.354  22.817  1.00  0.00     0.027 A 
ATOM     10  C   UNL A   1      28.557  27.958  23.301  1.00  0.00     0.011 A 
ATOM     11  C   UNL A   1      29.840  29.681  22.113  1.00  0.00     0.258 A 
ATOM     12  C   UNL A   1      27.388  28.790  23.181  1.00  0.00     0.019 A 
ATOM     13  N   UNL A   1      28.687  30.445  22.099  1.00  0.00    -0.258 N 
ATOM     14  O   UNL A   1      30.902  30.030  21.600  1.00  0.00    -0.269 OA
ATOM     15  C   UNL A   1      27.484  29.995  22.609  1.00  0.00     0.095 A 
BRANCH  13  16
ATOM     16  C   UNL A   1      28.751  31.757  21.505  1.00  0.00     0.451 C 
ATOM     17  F   UNL A   1      27.504  32.150  21.136  1.00  0.00    -0.185 F 
ATOM     18  F   UNL A   1      29.171  32.652  22.441  1.00  0.00    -0.185 F 
ENDBRANCH  13  16
ENDBRANCH   8   9
ENDBRANCH   6   8
ENDBRANCH   3   4
ENDBRANCH   2   3
ENDBRANCH   1   2
BRANCH   1  19
ATOM     19  C   UNL A   1      32.875  32.476  27.397  1.00  0.00     0.116 C 
BRANCH  19  20
ATOM     20  N   UNL A   1      32.604  33.877  27.685  1.00  0.00    -0.352 N 
ATOM     21  C   UNL A   1      33.159  34.706  28.637  1.00  0.00     0.251 C 
ATOM     22  H   UNL A   1      31.921  34.296  27.114  1.00  0.00     0.163 HD
ATOM     23  O   UNL A   1      32.686  35.821  28.817  1.00  0.00    -0.269 OA
BRANCH  21  24
ATOM     24  C   UNL A   1      34.296  34.235  29.467  1.00  0.00     0.039 A 
ATOM     25  C   UNL A   1      35.613  34.351  29.019  1.00  0.00     0.014 A 
ATOM     26  C   UNL A   1      34.035  33.656  30.712  1.00  0.00     0.014 A 
ATOM     27  C   UNL A   1      36.640  33.723  29.721  1.00  0.00     0.010 A 
ATOM     28  C   UNL A   1      35.081  33.100  31.458  1.00  0.00     0.010 A 
ATOM     29  C   UNL A   1      36.385  33.074  30.941  1.00  0.00    -0.014 A 
BRANCH  29  30
ATOM     30  C   UNL A   1      37.492  32.366  31.642  1.00  0.00     0.031 A 
ATOM     31  C   UNL A   1      38.218  31.222  30.980  1.00  0.00     0.074 A 
ATOM     32  C   UNL A   1      37.886  32.791  32.859  1.00  0.00     0.049 A 
ATOM     33  N   UNL A   1      39.236  30.527  31.421  1.00  0.00    -0.248 NA
ATOM     34  C   UNL A   1      37.742  30.801  29.652  1.00  0.00     0.031 C 
ATOM     35  C   UNL A   1      37.263  33.887  33.601  1.00  0.00     0.029 A 
ATOM     36  N   UNL A   1      38.909  32.376  33.676  1.00  0.00    -0.354 N 
ATOM     37  C   UNL A   1      39.514  29.584  30.438  1.00  0.00     0.074 A 
ATOM     38  C   UNL A   1      38.533  29.769  29.391  1.00  0.00     0.031 C 
ATOM     39  C   UNL A   1      37.944  34.091  34.736  1.00  0.00     0.029 A 
ATOM     40  C   UNL A   1      39.014  33.102  34.841  1.00  0.00     0.049 A 
ATOM     41  H   UNL A   1      39.510  31.630  33.450  1.00  0.00     0.167 HD
ATOM     42  C   UNL A   1      40.507  28.663  30.402  1.00  0.00     0.034 A 
ATOM     43  C   UNL A   1      39.867  32.985  35.881  1.00  0.00     0.034 A 
ATOM     44  C   UNL A   1      41.494  28.503  31.440  1.00  0.00     0.049 A 
ATOM     45  C   UNL A   1      40.946  31.935  35.829  1.00  0.00     0.074 A 
ATOM     46  C   UNL A   1      42.557  27.618  31.474  1.00  0.00     0.029 A 
ATOM     47  N   UNL A   1      41.549  29.236  32.615  1.00  0.00    -0.354 N 
ATOM     48  N   UNL A   1      41.226  31.090  34.864  1.00  0.00    -0.248 NA
ATOM     49  C   UNL A   1      41.827  31.818  36.999  1.00  0.00     0.031 C 
ATOM     50  C   UNL A   1      43.219  27.774  32.692  1.00  0.00     0.029 A 
ATOM     51  C   UNL A   1      42.613  28.806  33.392  1.00  0.00     0.049 A 
ATOM     52  H   UNL A   1      40.925  29.957  32.862  1.00  0.00     0.167 HD
ATOM     53  C   UNL A   1      42.325  30.357  35.302  1.00  0.00     0.074 A 
ATOM     54  C   UNL A   1      42.677  30.878  36.607  1.00  0.00     0.031 C 
ATOM     55  C   UNL A   1      42.975  29.339  34.683  1.00  0.00     0.034 A 
BRANCH  42  56
ATOM     56  C   UNL A   1      40.615  27.755  29.201  1.00  0.00     0.023 A 
ATOM     57  C   UNL A   1      41.531  28.050  28.175  1.00  0.00     0.031 A 
ATOM     58  C   UNL A   1      39.714  26.692  29.004  1.00  0.00     0.131 A 
ATOM     59  C   UNL A   1      41.500  27.318  26.981  1.00  0.00     0.055 A 
ATOM     60  C   UNL A   1      39.714  25.940  27.829  1.00  0.00     0.041 A 
ATOM     61  F   UNL A   1      38.819  26.372  29.953  1.00  0.00    -0.206 F 
ATOM     62  C   UNL A   1      40.600  26.261  26.805  1.00  0.00     0.022 A 
BRANCH  59  63
ATOM     63  S   UNL A   1      42.574  27.750  25.585  1.00  0.00     0.124 S 
ATOM     64  O   UNL A   1      43.870  27.909  26.242  1.00  0.00    -0.237 OA
ATOM     65  O   UNL A   1      42.449  26.574  24.729  1.00  0.00    -0.237 OA
ATOM     66  O   UNL A   1      41.990  28.979  25.059  1.00  0.00    -0.744 OA
ENDBRANCH  59  63
ENDBRANCH  42  56
BRANCH  43  67
ATOM     67  C   UNL A   1      39.742  33.930  37.031  1.00  0.00     0.023 A 
ATOM     68  C   UNL A   1      39.201  33.506  38.259  1.00  0.00     0.031 A 
ATOM     69  C   UNL A   1      40.061  35.290  36.886  1.00  0.00     0.131 A 
ATOM     70  C   UNL A   1      38.926  34.443  39.262  1.00  0.00     0.055 A 
ATOM     71  C   UNL A   1      39.856  36.209  37.917  1.00  0.00     0.041 A 
ATOM     72  F   UNL A   1      40.569  35.747  35.731  1.00  0.00    -0.206 F 
ATOM     73  C   UNL A   1      39.267  35.790  39.106  1.00  0.00     0.022 A 
BRANCH  70  74
ATOM     74  S   UNL A   1      37.983  33.971  40.739  1.00  0.00     0.124 S 
ATOM     75  O   UNL A   1      36.854  33.251  40.161  1.00  0.00    -0.237 OA
ATOM     76  O   UNL A   1      38.952  33.150  41.462  1.00  0.00    -0.237 OA
ATOM     77  O   UNL A   1      37.666  35.249  41.367  1.00  0.00    -0.744 OA
ENDBRANCH  70  74
ENDBRANCH  43  67
BRANCH  55  78
ATOM     78  C   UNL A   1      44.149  28.696  35.380  1.00  0.00     0.023 A 
ATOM     79  C   UNL A   1      43.935  27.651  36.301  1.00  0.00     0.031 A 
ATOM     80  C   UNL A   1      45.448  29.220  35.259  1.00  0.00     0.131 A 
ATOM     81  C   UNL A   1      44.994  27.195  37.097  1.00  0.00     0.055 A 
ATOM     82  C   UNL A   1      46.509  28.729  36.021  1.00  0.00     0.041 A 
ATOM     83  F   UNL A   1      45.700  30.224  34.404  1.00  0.00    -0.206 F 
ATOM     84  C   UNL A   1      46.282  27.723  36.956  1.00  0.00     0.022 A 
BRANCH  81  85
ATOM     85  S   UNL A   1      44.723  25.969  38.407  1.00  0.00     0.124 S 
ATOM     86  O   UNL A   1      44.040  24.900  37.682  1.00  0.00    -0.237 OA
ATOM     87  O   UNL A   1      46.087  25.664  38.830  1.00  0.00    -0.237 OA
ATOM     88  O   UNL A   1      43.905  26.676  39.387  1.00  0.00    -0.744 OA
ENDBRANCH  81  85
ENDBRANCH  55  78
ENDBRANCH  29  30
ENDBRANCH  21  24
ENDBRANCH  19  20
ENDBRANCH   1  19
TORSDOF 16
ENDMDL
MODEL 3
REMARK VINA RESULT:     -11.1      5.373     10.330
REMARK SMILES O=C(Cc1cccn(C(F)F)c1=O)NCCCCNC(=O)c1ccc(-c2c3nc(c(-c4cc(S(=O)(=O)[O-])ccc4F)c4ccc([nH]4)c(-c4cc(S(=O)(=O)[O-])ccc4F)c4nc(c(-c5cc(S(=O)(=O)[O-])ccc5F)c5ccc2[nH]5)C=C4)C=C3)cc1
REMARK SMILES IDX 17 1 16 2 15 3 14 4 1 5 2 6 3 8 4 9 5 10 12 11 6 12 8 13
REMARK SMILES IDX 13 14 7 15 9 16 10 17 11 18 18 19 19 20 20 21 21 23 22 24
REMARK SMILES IDX 23 25 84 26 24 27 83 28 25 29 26 30 27 31 77 32 28 33 82 34
REMARK SMILES IDX 76 35 78 36 29 37 81 38 75 39 74 40 30 42 62 43 42 44 61 45
REMARK SMILES IDX 43 46 46 47 60 48 79 49 44 50 45 51 59 53 80 54 47 55 31 56
REMARK SMILES IDX 32 57 40 58 33 59 39 60 41 61 38 62 34 63 35 64 36 65 37 66
REMARK SMILES IDX 63 67 64 68 72 69 65 70 71 71 73 72 70 73 66 74 67 75 68 76
REMARK SMILES IDX 69 77 48 78 49 79 57 80 50 81 56 82 58 83 55 84 51 85 52 86
REMARK SMILES IDX 53 87 54 88
REMARK H PARENT 14 7 19 22 78 41 46 52
REMARK Flexibility Score: inf
ROOT
ATOM      1  C   UNL A   1      35.633  20.823  25.003  1.00  0.00     0.023 C 
ENDROOT
BRANCH   1   2
ATOM      2  C   UNL A   1      34.594  21.912  24.720  1.00  0.00     0.023 C 
BRANCH   2   3
ATOM      3  C   UNL A   1      34.968  22.915  23.628  1.00  0.00     0.116 C 
BRANCH   3   4
ATOM      4  N   UNL A   1      34.519  24.254  23.937  1.00  0.00    -0.356 N 
ATOM      5  O   UNL A   1      33.670  24.782  21.866  1.00  0.00    -0.275 OA
ATOM      6  C   UNL A   1      33.896  25.083  23.034  1.00  0.00     0.224 C 
ATOM      7  H   UNL A   1      34.667  24.593  24.850  1.00  0.00     0.163 HD
BRANCH   6   8
ATOM      8  C   UNL A   1      33.495  26.432  23.621  1.00  0.00     0.141 C 
BRANCH   8   9
ATOM      9  C   UNL A   1      32.002  26.582  23.665  1.00  0.00     0.027 A 
ATOM     10  C   UNL A   1      31.173  25.645  24.158  1.00  0.00     0.011 A 
ATOM     11  C   UNL A   1      31.413  27.843  23.091  1.00  0.00     0.258 A 
ATOM     12  C   UNL A   1      29.746  25.842  24.170  1.00  0.00     0.019 A 
ATOM     13  N   UNL A   1      30.042  27.980  23.202  1.00  0.00    -0.258 N 
ATOM     14  O   UNL A   1      32.148  28.681  22.570  1.00  0.00    -0.269 OA
ATOM     15  C   UNL A   1      29.229  26.988  23.716  1.00  0.00     0.095 A 
BRANCH  13  16
ATOM     16  C   UNL A   1      29.444  29.207  22.736  1.00  0.00     0.451 C 
ATOM     17  F   UNL A   1      28.093  29.072  22.707  1.00  0.00    -0.185 F 
ATOM     18  F   UNL A   1      29.708  30.200  23.630  1.00  0.00    -0.185 F 
ENDBRANCH  13  16
ENDBRANCH   8   9
ENDBRANCH   6   8
ENDBRANCH   3   4
ENDBRANCH   2   3
ENDBRANCH   1   2
BRANCH   1  19
ATOM     19  C   UNL A   1      37.087  21.224  24.776  1.00  0.00     0.116 C 
BRANCH  19  20
ATOM     20  N   UNL A   1      38.025  20.165  25.116  1.00  0.00    -0.352 N 
ATOM     21  C   UNL A   1      39.237  20.236  25.772  1.00  0.00     0.251 C 
ATOM     22  H   UNL A   1      37.755  19.262  24.836  1.00  0.00     0.163 HD
ATOM     23  O   UNL A   1      39.951  19.242  25.831  1.00  0.00    -0.269 OA
BRANCH  21  24
ATOM     24  C   UNL A   1      39.692  21.517  26.368  1.00  0.00     0.039 A 
ATOM     25  C   UNL A   1      39.115  22.731  25.993  1.00  0.00     0.014 A 
ATOM     26  C   UNL A   1      40.724  21.500  27.310  1.00  0.00     0.014 A 
ATOM     27  C   UNL A   1      39.692  23.928  26.411  1.00  0.00     0.010 A 
ATOM     28  C   UNL A   1      41.247  22.704  27.796  1.00  0.00     0.010 A 
ATOM     29  C   UNL A   1      40.776  23.931  27.305  1.00  0.00    -0.014 A 
BRANCH  29  30
ATOM     30  C   UNL A   1      41.407  25.224  27.693  1.00  0.00     0.031 A 
ATOM     31  C   UNL A   1      42.814  25.555  27.265  1.00  0.00     0.074 A 
ATOM     32  C   UNL A   1      40.688  26.131  28.385  1.00  0.00     0.049 A 
ATOM     33  N   UNL A   1      43.500  26.651  27.469  1.00  0.00    -0.248 NA
ATOM     34  C   UNL A   1      43.549  24.525  26.512  1.00  0.00     0.031 C 
ATOM     35  C   UNL A   1      39.318  25.926  28.854  1.00  0.00     0.029 A 
ATOM     36  N   UNL A   1      40.994  27.406  28.796  1.00  0.00    -0.354 N 
ATOM     37  C   UNL A   1      44.744  26.441  26.885  1.00  0.00     0.074 A 
ATOM     38  C   UNL A   1      44.735  25.097  26.351  1.00  0.00     0.031 C 
ATOM     39  C   UNL A   1      38.884  27.049  29.442  1.00  0.00     0.029 A 
ATOM     40  C   UNL A   1      39.962  28.035  29.453  1.00  0.00     0.049 A 
ATOM     41  H   UNL A   1      41.868  27.828  28.635  1.00  0.00     0.167 HD
ATOM     42  C   UNL A   1      45.791  27.297  26.786  1.00  0.00     0.034 A 
ATOM     43  C   UNL A   1      39.887  29.263  30.009  1.00  0.00     0.034 A 
ATOM     44  C   UNL A   1      45.781  28.643  27.300  1.00  0.00     0.049 A 
ATOM     45  C   UNL A   1      41.074  30.186  29.908  1.00  0.00     0.074 A 
ATOM     46  C   UNL A   1      46.783  29.593  27.216  1.00  0.00     0.029 A 
ATOM     47  N   UNL A   1      44.729  29.233  27.984  1.00  0.00    -0.354 N 
ATOM     48  N   UNL A   1      42.221  29.988  29.303  1.00  0.00    -0.248 NA
ATOM     49  C   UNL A   1      40.962  31.499  30.561  1.00  0.00     0.031 C 
ATOM     50  C   UNL A   1      46.363  30.735  27.899  1.00  0.00     0.029 A 
ATOM     51  C   UNL A   1      45.069  30.526  28.349  1.00  0.00     0.049 A 
ATOM     52  H   UNL A   1      43.868  28.799  28.181  1.00  0.00     0.167 HD
ATOM     53  C   UNL A   1      42.959  31.155  29.484  1.00  0.00     0.074 A 
ATOM     54  C   UNL A   1      42.116  32.065  30.231  1.00  0.00     0.031 C 
ATOM     55  C   UNL A   1      44.221  31.439  29.077  1.00  0.00     0.034 A 
BRANCH  42  56
ATOM     56  C   UNL A   1      47.042  26.837  26.078  1.00  0.00     0.023 A 
ATOM     57  C   UNL A   1      48.086  26.241  26.810  1.00  0.00     0.031 A 
ATOM     58  C   UNL A   1      47.261  27.124  24.718  1.00  0.00     0.131 A 
ATOM     59  C   UNL A   1      49.315  25.986  26.188  1.00  0.00     0.055 A 
ATOM     60  C   UNL A   1      48.474  26.832  24.094  1.00  0.00     0.041 A 
ATOM     61  F   UNL A   1      46.296  27.694  23.979  1.00  0.00    -0.206 F 
ATOM     62  C   UNL A   1      49.513  26.274  24.833  1.00  0.00     0.022 A 
BRANCH  59  63
ATOM     63  S   UNL A   1      50.727  25.340  27.125  1.00  0.00     0.124 S 
ATOM     64  O   UNL A   1      50.102  24.278  27.913  1.00  0.00    -0.237 OA
ATOM     65  O   UNL A   1      51.617  24.885  26.062  1.00  0.00    -0.237 OA
ATOM     66  O   UNL A   1      51.195  26.489  27.893  1.00  0.00    -0.744 OA
ENDBRANCH  59  63
ENDBRANCH  42  56
BRANCH  43  67
ATOM     67  C   UNL A   1      38.615  29.686  30.668  1.00  0.00     0.023 A 
ATOM     68  C   UNL A   1      37.647  30.425  29.964  1.00  0.00     0.031 A 
ATOM     69  C   UNL A   1      38.397  29.449  32.035  1.00  0.00     0.131 A 
ATOM     70  C   UNL A   1      36.548  30.965  30.644  1.00  0.00     0.055 A 
ATOM     71  C   UNL A   1      37.261  29.924  32.694  1.00  0.00     0.041 A 
ATOM     72  F   UNL A   1      39.296  28.758  32.754  1.00  0.00    -0.206 F 
ATOM     73  C   UNL A   1      36.339  30.703  32.001  1.00  0.00     0.022 A 
BRANCH  70  74
ATOM     74  S   UNL A   1      35.438  32.143  29.825  1.00  0.00     0.124 S 
ATOM     75  O   UNL A   1      34.936  31.358  28.703  1.00  0.00    -0.237 OA
ATOM     76  O   UNL A   1      34.468  32.423  30.882  1.00  0.00    -0.237 OA
ATOM     77  O   UNL A   1      36.314  33.257  29.479  1.00  0.00    -0.744 OA
ENDBRANCH  70  74
ENDBRANCH  43  67
BRANCH  55  78
ATOM     78  C   UNL A   1      44.805  32.791  29.410  1.00  0.00     0.023 A 
ATOM     79  C   UNL A   1      44.643  33.868  28.516  1.00  0.00     0.031 A 
ATOM     80  C   UNL A   1      45.650  32.969  30.519  1.00  0.00     0.131 A 
ATOM     81  C   UNL A   1      45.352  35.058  28.722  1.00  0.00     0.055 A 
ATOM     82  C   UNL A   1      46.318  34.174  30.745  1.00  0.00     0.041 A 
ATOM     83  F   UNL A   1      45.846  31.969  31.393  1.00  0.00    -0.206 F 
ATOM     84  C   UNL A   1      46.182  35.219  29.836  1.00  0.00     0.022 A 
BRANCH  81  85
ATOM     85  S   UNL A   1      45.298  36.404  27.506  1.00  0.00     0.124 S 
ATOM     86  O   UNL A   1      44.155  36.021  26.682  1.00  0.00    -0.237 OA
ATOM     87  O   UNL A   1      45.092  37.575  28.354  1.00  0.00    -0.237 OA
ATOM     88  O   UNL A   1      46.596  36.332  26.842  1.00  0.00    -0.744 OA
ENDBRANCH  81  85
ENDBRANCH  55  78
ENDBRANCH  29  30
ENDBRANCH  21  24
ENDBRANCH  19  20
ENDBRANCH   1  19
TORSDOF 16
ENDMDL
