MODEL 1
REMARK VINA RESULT:     -12.2      0.000      0.000
REMARK SMILES O=C(NCc1ccsc1)NC[C@H]1CC[C@@H](C(=O)NCCCCNC(=O)c2ccc(-c3c4nc(c(-c5cc(S(=O)(=O)[O-])ccc5F)c5ccc([nH]5)c(-c5cc(S(=O)(=O)[O-])ccc5F)c5nc(c(-c6cc(S(=O)(=O)[O-])ccc6F)c6ccc3[nH]6)C=C5)C=C4)cc2)CC1
REMARK SMILES IDX 20 1 19 2 18 3 16 4 17 5 15 7 12 8 13 9 90 10 14 11 89 12
REMARK SMILES IDX 11 13 10 14 1 15 2 16 3 17 4 20 5 21 6 22 9 23 7 24 8 25
REMARK SMILES IDX 21 26 22 27 23 28 24 29 25 31 26 32 27 33 88 34 28 35 87 36
REMARK SMILES IDX 29 37 30 38 31 39 81 40 32 41 86 42 80 43 82 44 33 45 85 46
REMARK SMILES IDX 79 47 78 48 34 50 66 51 46 52 65 53 47 54 50 55 64 56 83 57
REMARK SMILES IDX 48 58 49 59 63 61 84 62 51 63 35 64 36 65 44 66 37 67 43 68
REMARK SMILES IDX 45 69 42 70 38 71 39 72 40 73 41 74 67 75 68 76 76 77 69 78
REMARK SMILES IDX 75 79 77 80 74 81 70 82 71 83 72 84 73 85 52 86 53 87 61 88
REMARK SMILES IDX 54 89 60 90 62 91 59 92 55 93 56 94 57 95 58 96
REMARK H PARENT 18 6 3 18 10 19 23 30 82 49 50 60
REMARK Flexibility Score: inf
ROOT
ATOM      1  C   UNL A   1      35.866  23.290  23.959  1.00  0.00     0.023 C 
ENDROOT
BRANCH   1   2
ATOM      2  C   UNL A   1      34.410  23.741  23.869  1.00  0.00     0.116 C 
BRANCH   2   3
ATOM      3  N   UNL A   1      34.119  24.508  22.680  1.00  0.00    -0.356 N 
ATOM      4  C   UNL A   1      33.160  25.415  22.375  1.00  0.00     0.223 C 
ATOM      5  O   UNL A   1      33.278  25.965  21.272  1.00  0.00    -0.275 OA
ATOM      6  H   UNL A   1      34.745  24.336  21.940  1.00  0.00     0.163 HD
BRANCH   4   7
ATOM      7  C   UNL A   1      31.962  25.795  23.264  1.00  0.00     0.078 C 
ATOM      8  C   UNL A   1      31.479  24.526  25.963  1.00  0.00     0.008 C 
ATOM      9  C   UNL A   1      32.406  25.750  25.818  1.00  0.00     0.006 C 
ATOM     10  C   UNL A   1      31.066  23.833  24.650  1.00  0.00     0.006 C 
ATOM     11  C   UNL A   1      32.251  26.570  24.545  1.00  0.00     0.014 C 
ATOM     12  C   UNL A   1      30.890  24.729  23.441  1.00  0.00     0.014 C 
BRANCH   8  13
ATOM     13  C   UNL A   1      32.132  23.478  26.900  1.00  0.00     0.121 C 
BRANCH  13  14
ATOM     14  N   UNL A   1      32.335  22.198  26.263  1.00  0.00    -0.338 N 
ATOM     15  O   UNL A   1      34.043  21.573  27.643  1.00  0.00    -0.249 OA
ATOM     16  C   UNL A   1      33.268  21.322  26.726  1.00  0.00     0.315 C 
ATOM     17  N   UNL A   1      33.341  20.119  26.118  1.00  0.00    -0.334 N 
ATOM     18  H   UNL A   1      33.939  19.472  26.557  1.00  0.00     0.165 HD
ATOM     19  H   UNL A   1      31.789  21.955  25.481  1.00  0.00     0.165 HD
BRANCH  17  20
ATOM     20  C   UNL A   1      32.686  19.625  24.932  1.00  0.00     0.154 C 
BRANCH  20  21
ATOM     21  C   UNL A   1      33.022  18.174  24.788  1.00  0.00    -0.018 A 
ATOM     22  C   UNL A   1      33.770  17.609  23.699  1.00  0.00     0.017 A 
ATOM     23  C   UNL A   1      32.664  17.191  25.693  1.00  0.00     0.070 A 
ATOM     24  C   UNL A   1      33.954  16.251  23.827  1.00  0.00     0.065 A 
ATOM     25  S   UNL A   1      33.218  15.637  25.242  1.00  0.00    -0.152 S 
ENDBRANCH  20  21
ENDBRANCH  17  20
ENDBRANCH  13  14
ENDBRANCH   8  13
ENDBRANCH   4   7
ENDBRANCH   2   3
ENDBRANCH   1   2
BRANCH   1  26
ATOM     26  C   UNL A   1      36.072  21.850  24.416  1.00  0.00     0.023 C 
BRANCH  26  27
ATOM     27  C   UNL A   1      36.913  21.672  25.679  1.00  0.00     0.116 C 
BRANCH  27  28
ATOM     28  N   UNL A   1      37.974  20.678  25.581  1.00  0.00    -0.352 N 
ATOM     29  C   UNL A   1      39.276  20.798  26.021  1.00  0.00     0.251 C 
ATOM     30  H   UNL A   1      37.735  19.825  25.151  1.00  0.00     0.163 HD
ATOM     31  O   UNL A   1      40.079  19.884  25.867  1.00  0.00    -0.269 OA
BRANCH  29  32
ATOM     32  C   UNL A   1      39.699  22.077  26.627  1.00  0.00     0.039 A 
ATOM     33  C   UNL A   1      40.697  22.062  27.604  1.00  0.00     0.014 A 
ATOM     34  C   UNL A   1      39.203  23.285  26.133  1.00  0.00     0.014 A 
ATOM     35  C   UNL A   1      41.274  23.266  28.013  1.00  0.00     0.010 A 
ATOM     36  C   UNL A   1      39.833  24.474  26.483  1.00  0.00     0.010 A 
ATOM     37  C   UNL A   1      40.886  24.474  27.413  1.00  0.00    -0.014 A 
BRANCH  37  38
ATOM     38  C   UNL A   1      41.583  25.752  27.717  1.00  0.00     0.031 A 
ATOM     39  C   UNL A   1      40.856  26.844  28.452  1.00  0.00     0.074 A 
ATOM     40  C   UNL A   1      42.823  25.967  27.236  1.00  0.00     0.049 A 
ATOM     41  N   UNL A   1      41.235  28.070  28.700  1.00  0.00    -0.248 NA
ATOM     42  C   UNL A   1      39.503  26.521  28.926  1.00  0.00     0.031 C 
ATOM     43  C   UNL A   1      43.604  25.013  26.444  1.00  0.00     0.029 A 
ATOM     44  N   UNL A   1      43.638  27.067  27.322  1.00  0.00    -0.354 N 
ATOM     45  C   UNL A   1      40.154  28.678  29.329  1.00  0.00     0.074 A 
ATOM     46  C   UNL A   1      39.088  27.698  29.367  1.00  0.00     0.031 C 
ATOM     47  C   UNL A   1      44.787  25.564  26.131  1.00  0.00     0.029 A 
ATOM     48  C   UNL A   1      44.839  26.920  26.667  1.00  0.00     0.049 A 
ATOM     49  H   UNL A   1      43.388  27.886  27.808  1.00  0.00     0.167 HD
ATOM     50  C   UNL A   1      40.065  29.930  29.843  1.00  0.00     0.034 A 
ATOM     51  C   UNL A   1      45.860  27.784  26.505  1.00  0.00     0.034 A 
ATOM     52  C   UNL A   1      41.149  30.881  29.826  1.00  0.00     0.049 A 
ATOM     53  C   UNL A   1      45.762  29.152  27.124  1.00  0.00     0.074 A 
ATOM     54  C   UNL A   1      41.204  32.141  30.394  1.00  0.00     0.029 A 
ATOM     55  N   UNL A   1      42.374  30.676  29.201  1.00  0.00    -0.354 N 
ATOM     56  N   UNL A   1      44.758  29.691  27.776  1.00  0.00    -0.248 NA
ATOM     57  C   UNL A   1      46.938  30.022  26.998  1.00  0.00     0.031 C 
ATOM     58  C   UNL A   1      42.439  32.716  30.072  1.00  0.00     0.029 A 
ATOM     59  C   UNL A   1      43.180  31.794  29.352  1.00  0.00     0.049 A 
ATOM     60  H   UNL A   1      42.631  29.856  28.721  1.00  0.00     0.167 HD
ATOM     61  C   UNL A   1      45.191  30.958  28.156  1.00  0.00     0.074 A 
ATOM     62  C   UNL A   1      46.550  31.095  27.671  1.00  0.00     0.031 C 
ATOM     63  C   UNL A   1      44.527  31.919  28.848  1.00  0.00     0.034 A 
BRANCH  50  64
ATOM     64  C   UNL A   1      38.739  30.335  30.442  1.00  0.00     0.023 A 
ATOM     65  C   UNL A   1      37.764  31.011  29.687  1.00  0.00     0.031 A 
ATOM     66  C   UNL A   1      38.469  30.098  31.801  1.00  0.00     0.131 A 
ATOM     67  C   UNL A   1      36.616  31.517  30.316  1.00  0.00     0.055 A 
ATOM     68  C   UNL A   1      37.282  30.524  32.401  1.00  0.00     0.041 A 
ATOM     69  F   UNL A   1      39.367  29.472  32.578  1.00  0.00    -0.206 F 
ATOM     70  C   UNL A   1      36.357  31.257  31.663  1.00  0.00     0.022 A 
BRANCH  67  71
ATOM     71  S   UNL A   1      35.561  32.664  29.389  1.00  0.00     0.124 S 
ATOM     72  O   UNL A   1      36.440  33.048  28.286  1.00  0.00    -0.237 OA
ATOM     73  O   UNL A   1      34.420  31.828  29.036  1.00  0.00    -0.237 OA
ATOM     74  O   UNL A   1      35.282  33.728  30.352  1.00  0.00    -0.744 OA
ENDBRANCH  67  71
ENDBRANCH  50  64
BRANCH  51  75
ATOM     75  C   UNL A   1      47.062  27.385  25.721  1.00  0.00     0.023 A 
ATOM     76  C   UNL A   1      47.188  27.732  24.367  1.00  0.00     0.031 A 
ATOM     77  C   UNL A   1      48.093  26.635  26.313  1.00  0.00     0.131 A 
ATOM     78  C   UNL A   1      48.305  27.299  23.637  1.00  0.00     0.055 A 
ATOM     79  C   UNL A   1      49.221  26.239  25.592  1.00  0.00     0.041 A 
ATOM     80  F   UNL A   1      48.023  26.290  27.609  1.00  0.00    -0.206 F 
ATOM     81  C   UNL A   1      49.327  26.562  24.243  1.00  0.00     0.022 A 
BRANCH  78  82
ATOM     82  S   UNL A   1      48.381  27.669  21.863  1.00  0.00     0.124 S 
ATOM     83  O   UNL A   1      47.073  28.269  21.627  1.00  0.00    -0.237 OA
ATOM     84  O   UNL A   1      49.524  28.574  21.791  1.00  0.00    -0.237 OA
ATOM     85  O   UNL A   1      48.589  26.359  21.250  1.00  0.00    -0.744 OA
ENDBRANCH  78  82
ENDBRANCH  51  75
BRANCH  63  86
ATOM     86  C   UNL A   1      45.285  33.186  29.149  1.00  0.00     0.023 A 
ATOM     87  C   UNL A   1      45.245  34.293  28.284  1.00  0.00     0.031 A 
ATOM     88  C   UNL A   1      46.068  33.280  30.313  1.00  0.00     0.131 A 
ATOM     89  C   UNL A   1      46.010  35.432  28.574  1.00  0.00     0.055 A 
ATOM     90  C   UNL A   1      46.789  34.434  30.621  1.00  0.00     0.041 A 
ATOM     91  F   UNL A   1      46.141  32.249  31.171  1.00  0.00    -0.206 F 
ATOM     92  C   UNL A   1      46.771  35.514  29.744  1.00  0.00     0.022 A 
BRANCH  89  93
ATOM     93  S   UNL A   1      46.060  36.781  27.363  1.00  0.00     0.124 S 
ATOM     94  O   UNL A   1      46.870  37.780  28.053  1.00  0.00    -0.237 OA
ATOM     95  O   UNL A   1      46.683  36.141  26.208  1.00  0.00    -0.237 OA
ATOM     96  O   UNL A   1      44.652  37.138  27.188  1.00  0.00    -0.744 OA
ENDBRANCH  89  93
ENDBRANCH  63  86
ENDBRANCH  37  38
ENDBRANCH  29  32
ENDBRANCH  27  28
ENDBRANCH  26  27
ENDBRANCH   1  26
TORSDOF 18
ENDMDL
MODEL 2
REMARK VINA RESULT:     -11.7      5.009      9.935
REMARK SMILES O=C(NCc1ccsc1)NC[C@H]1CC[C@@H](C(=O)NCCCCNC(=O)c2ccc(-c3c4nc(c(-c5cc(S(=O)(=O)[O-])ccc5F)c5ccc([nH]5)c(-c5cc(S(=O)(=O)[O-])ccc5F)c5nc(c(-c6cc(S(=O)(=O)[O-])ccc6F)c6ccc3[nH]6)C=C5)C=C4)cc2)CC1
REMARK SMILES IDX 20 1 19 2 18 3 16 4 17 5 15 7 12 8 13 9 90 10 14 11 89 12
REMARK SMILES IDX 11 13 10 14 1 15 2 16 3 17 4 20 5 21 6 22 9 23 7 24 8 25
REMARK SMILES IDX 21 26 22 27 23 28 24 29 25 31 26 32 27 33 88 34 28 35 87 36
REMARK SMILES IDX 29 37 30 38 31 39 81 40 32 41 86 42 80 43 82 44 33 45 85 46
REMARK SMILES IDX 79 47 78 48 34 50 66 51 46 52 65 53 47 54 50 55 64 56 83 57
REMARK SMILES IDX 48 58 49 59 63 61 84 62 51 63 35 64 36 65 44 66 37 67 43 68
REMARK SMILES IDX 45 69 42 70 38 71 39 72 40 73 41 74 67 75 68 76 76 77 69 78
REMARK SMILES IDX 75 79 77 80 74 81 70 82 71 83 72 84 73 85 52 86 53 87 61 88
REMARK SMILES IDX 54 89 60 90 62 91 59 92 55 93 56 94 57 95 58 96
REMARK H PARENT 18 6 3 18 10 19 23 30 82 49 50 60
REMARK Flexibility Score: inf
ROOT
ATOM      1  C   UNL A   1      31.706  29.004  26.252  1.00  0.00     0.023 C 
ENDROOT
BRANCH   1   2
ATOM      2  C   UNL A   1      32.297  28.996  24.844  1.00  0.00     0.116 C 
BRANCH   2   3
ATOM      3  N   UNL A   1      31.427  29.586  23.854  1.00  0.00    -0.356 N 
ATOM      4  C   UNL A   1      30.513  29.070  22.999  1.00  0.00     0.223 C 
ATOM      5  O   UNL A   1      29.859  29.899  22.351  1.00  0.00    -0.275 OA
ATOM      6  H   UNL A   1      31.518  30.565  23.785  1.00  0.00     0.163 HD
BRANCH   4   7
ATOM      7  C   UNL A   1      30.239  27.573  22.767  1.00  0.00     0.078 C 
ATOM      8  C   UNL A   1      31.521  25.412  24.445  1.00  0.00     0.008 C 
ATOM      9  C   UNL A   1      30.217  26.098  24.900  1.00  0.00     0.006 C 
ATOM     10  C   UNL A   1      32.263  26.082  23.273  1.00  0.00     0.006 C 
ATOM     11  C   UNL A   1      29.427  26.832  23.825  1.00  0.00     0.014 C 
ATOM     12  C   UNL A   1      31.399  26.751  22.223  1.00  0.00     0.014 C 
BRANCH   8  13
ATOM     13  C   UNL A   1      32.494  25.281  25.645  1.00  0.00     0.121 C 
BRANCH  13  14
ATOM     14  N   UNL A   1      32.857  23.914  25.931  1.00  0.00    -0.338 N 
ATOM     15  O   UNL A   1      31.237  23.618  27.512  1.00  0.00    -0.249 OA
ATOM     16  C   UNL A   1      32.156  23.173  26.832  1.00  0.00     0.315 C 
ATOM     17  N   UNL A   1      32.517  21.881  26.985  1.00  0.00    -0.334 N 
ATOM     18  H   UNL A   1      31.912  21.349  27.550  1.00  0.00     0.165 HD
ATOM     19  H   UNL A   1      33.626  23.510  25.467  1.00  0.00     0.165 HD
BRANCH  17  20
ATOM     20  C   UNL A   1      33.642  21.152  26.455  1.00  0.00     0.154 C 
BRANCH  20  21
ATOM     21  C   UNL A   1      33.149  20.291  25.334  1.00  0.00    -0.018 A 
ATOM     22  C   UNL A   1      32.639  20.782  24.084  1.00  0.00     0.017 A 
ATOM     23  C   UNL A   1      33.132  18.908  25.355  1.00  0.00     0.070 A 
ATOM     24  C   UNL A   1      32.275  19.773  23.223  1.00  0.00     0.065 A 
ATOM     25  S   UNL A   1      32.523  18.228  23.909  1.00  0.00    -0.152 S 
ENDBRANCH  20  21
ENDBRANCH  17  20
ENDBRANCH  13  14
ENDBRANCH   8  13
ENDBRANCH   4   7
ENDBRANCH   2   3
ENDBRANCH   1   2
BRANCH   1  26
ATOM     26  C   UNL A   1      31.427  30.387  26.832  1.00  0.00     0.023 C 
BRANCH  26  27
ATOM     27  C   UNL A   1      32.438  31.472  26.468  1.00  0.00     0.116 C 
BRANCH  27  28
ATOM     28  N   UNL A   1      32.198  32.773  27.080  1.00  0.00    -0.352 N 
ATOM     29  C   UNL A   1      33.054  33.487  27.893  1.00  0.00     0.251 C 
ATOM     30  H   UNL A   1      31.325  33.189  26.893  1.00  0.00     0.163 HD
ATOM     31  O   UNL A   1      32.723  34.573  28.355  1.00  0.00    -0.269 OA
BRANCH  29  32
ATOM     32  C   UNL A   1      34.355  32.883  28.246  1.00  0.00     0.039 A 
ATOM     33  C   UNL A   1      35.469  33.715  28.379  1.00  0.00     0.014 A 
ATOM     34  C   UNL A   1      34.435  31.528  28.571  1.00  0.00     0.014 A 
ATOM     35  C   UNL A   1      36.642  33.205  28.940  1.00  0.00     0.010 A 
ATOM     36  C   UNL A   1      35.576  31.044  29.201  1.00  0.00     0.010 A 
ATOM     37  C   UNL A   1      36.684  31.882  29.407  1.00  0.00    -0.014 A 
BRANCH  37  38
ATOM     38  C   UNL A   1      37.864  31.355  30.142  1.00  0.00     0.031 A 
ATOM     39  C   UNL A   1      38.754  30.332  29.492  1.00  0.00     0.074 A 
ATOM     40  C   UNL A   1      38.066  31.711  31.425  1.00  0.00     0.049 A 
ATOM     41  N   UNL A   1      39.749  29.655  30.002  1.00  0.00    -0.248 NA
ATOM     42  C   UNL A   1      38.448  29.996  28.094  1.00  0.00     0.031 C 
ATOM     43  C   UNL A   1      37.227  32.638  32.191  1.00  0.00     0.029 A 
ATOM     44  N   UNL A   1      39.027  31.320  32.323  1.00  0.00    -0.354 N 
ATOM     45  C   UNL A   1      40.167  28.786  29.000  1.00  0.00     0.074 A 
ATOM     46  C   UNL A   1      39.276  28.986  27.876  1.00  0.00     0.031 C 
ATOM     47  C   UNL A   1      37.719  32.753  33.434  1.00  0.00     0.029 A 
ATOM     48  C   UNL A   1      38.884  31.885  33.569  1.00  0.00     0.049 A 
ATOM     49  H   UNL A   1      39.751  30.694  32.097  1.00  0.00     0.167 HD
ATOM     50  C   UNL A   1      41.208  27.917  29.010  1.00  0.00     0.034 A 
ATOM     51  C   UNL A   1      39.603  31.714  34.696  1.00  0.00     0.034 A 
ATOM     52  C   UNL A   1      42.106  27.756  30.127  1.00  0.00     0.049 A 
ATOM     53  C   UNL A   1      40.784  30.781  34.673  1.00  0.00     0.074 A 
ATOM     54  C   UNL A   1      43.245  26.975  30.216  1.00  0.00     0.029 A 
ATOM     55  N   UNL A   1      41.964  28.390  31.356  1.00  0.00    -0.354 N 
ATOM     56  N   UNL A   1      41.209  30.015  33.695  1.00  0.00    -0.248 NA
ATOM     57  C   UNL A   1      41.588  30.701  35.898  1.00  0.00     0.031 C 
ATOM     58  C   UNL A   1      43.761  27.097  31.511  1.00  0.00     0.029 A 
ATOM     59  C   UNL A   1      42.980  27.999  32.215  1.00  0.00     0.049 A 
ATOM     60  H   UNL A   1      41.245  29.023  31.584  1.00  0.00     0.167 HD
ATOM     61  C   UNL A   1      42.345  29.376  34.182  1.00  0.00     0.074 A 
ATOM     62  C   UNL A   1      42.544  29.857  35.535  1.00  0.00     0.031 C 
ATOM     63  C   UNL A   1      43.154  28.477  33.566  1.00  0.00     0.034 A 
BRANCH  50  64
ATOM     64  C   UNL A   1      41.404  27.065  27.778  1.00  0.00     0.023 A 
ATOM     65  C   UNL A   1      40.980  25.725  27.733  1.00  0.00     0.031 A 
ATOM     66  C   UNL A   1      42.077  27.578  26.656  1.00  0.00     0.131 A 
ATOM     67  C   UNL A   1      41.324  24.917  26.639  1.00  0.00     0.055 A 
ATOM     68  C   UNL A   1      42.337  26.793  25.531  1.00  0.00     0.041 A 
ATOM     69  F   UNL A   1      42.522  28.845  26.645  1.00  0.00    -0.206 F 
ATOM     70  C   UNL A   1      41.979  25.448  25.526  1.00  0.00     0.022 A 
BRANCH  67  71
ATOM     71  S   UNL A   1      41.058  23.128  26.772  1.00  0.00     0.124 S 
ATOM     72  O   UNL A   1      41.879  22.625  25.672  1.00  0.00    -0.237 OA
ATOM     73  O   UNL A   1      41.542  22.836  28.115  1.00  0.00    -0.237 OA
ATOM     74  O   UNL A   1      39.617  22.981  26.581  1.00  0.00    -0.744 OA
ENDBRANCH  67  71
ENDBRANCH  50  64
BRANCH  51  75
ATOM     75  C   UNL A   1      39.226  32.437  35.942  1.00  0.00     0.023 A 
ATOM     76  C   UNL A   1      38.407  31.832  36.908  1.00  0.00     0.031 A 
ATOM     77  C   UNL A   1      39.666  33.752  36.175  1.00  0.00     0.131 A 
ATOM     78  C   UNL A   1      38.023  32.554  38.048  1.00  0.00     0.055 A 
ATOM     79  C   UNL A   1      39.312  34.453  37.329  1.00  0.00     0.041 A 
ATOM     80  F   UNL A   1      40.462  34.368  35.286  1.00  0.00    -0.206 F 
ATOM     81  C   UNL A   1      38.478  33.857  38.270  1.00  0.00     0.022 A 
BRANCH  78  82
ATOM     82  S   UNL A   1      36.874  31.782  39.220  1.00  0.00     0.124 S 
ATOM     83  O   UNL A   1      37.586  31.938  40.483  1.00  0.00    -0.237 OA
ATOM     84  O   UNL A   1      35.676  32.600  39.053  1.00  0.00    -0.237 OA
ATOM     85  O   UNL A   1      36.760  30.410  38.731  1.00  0.00    -0.744 OA
ENDBRANCH  78  82
ENDBRANCH  51  75
BRANCH  63  86
ATOM     86  C   UNL A   1      44.347  27.991  34.345  1.00  0.00     0.023 A 
ATOM     87  C   UNL A   1      45.561  28.700  34.357  1.00  0.00     0.031 A 
ATOM     88  C   UNL A   1      44.271  26.793  35.078  1.00  0.00     0.131 A 
ATOM     89  C   UNL A   1      46.664  28.182  35.050  1.00  0.00     0.055 A 
ATOM     90  C   UNL A   1      45.357  26.307  35.806  1.00  0.00     0.041 A 
ATOM     91  F   UNL A   1      43.135  26.077  35.098  1.00  0.00    -0.206 F 
ATOM     92  C   UNL A   1      46.566  26.997  35.786  1.00  0.00     0.022 A 
BRANCH  89  93
ATOM     93  S   UNL A   1      48.258  29.039  34.919  1.00  0.00     0.124 S 
ATOM     94  O   UNL A   1      49.031  28.409  35.985  1.00  0.00    -0.237 OA
ATOM     95  O   UNL A   1      48.673  28.719  33.556  1.00  0.00    -0.237 OA
ATOM     96  O   UNL A   1      47.914  30.441  35.148  1.00  0.00    -0.744 OA
ENDBRANCH  89  93
ENDBRANCH  63  86
ENDBRANCH  37  38
ENDBRANCH  29  32
ENDBRANCH  27  28
ENDBRANCH  26  27
ENDBRANCH   1  26
TORSDOF 18
ENDMDL
MODEL 3
REMARK VINA RESULT:     -11.6      4.998      7.524
REMARK SMILES O=C(NCc1ccsc1)NC[C@H]1CC[C@@H](C(=O)NCCCCNC(=O)c2ccc(-c3c4nc(c(-c5cc(S(=O)(=O)[O-])ccc5F)c5ccc([nH]5)c(-c5cc(S(=O)(=O)[O-])ccc5F)c5nc(c(-c6cc(S(=O)(=O)[O-])ccc6F)c6ccc3[nH]6)C=C5)C=C4)cc2)CC1
REMARK SMILES IDX 20 1 19 2 18 3 16 4 17 5 15 7 12 8 13 9 90 10 14 11 89 12
REMARK SMILES IDX 11 13 10 14 1 15 2 16 3 17 4 20 5 21 6 22 9 23 7 24 8 25
REMARK SMILES IDX 21 26 22 27 23 28 24 29 25 31 26 32 27 33 88 34 28 35 87 36
REMARK SMILES IDX 29 37 30 38 31 39 81 40 32 41 86 42 80 43 82 44 33 45 85 46
REMARK SMILES IDX 79 47 78 48 34 50 66 51 46 52 65 53 47 54 50 55 64 56 83 57
REMARK SMILES IDX 48 58 49 59 63 61 84 62 51 63 35 64 36 65 44 66 37 67 43 68
REMARK SMILES IDX 45 69 42 70 38 71 39 72 40 73 41 74 67 75 68 76 76 77 69 78
REMARK SMILES IDX 75 79 77 80 74 81 70 82 71 83 72 84 73 85 52 86 53 87 61 88
REMARK SMILES IDX 54 89 60 90 62 91 59 92 55 93 56 94 57 95 58 96
REMARK H PARENT 18 6 3 18 10 19 23 30 82 49 50 60
REMARK Flexibility Score: inf
ROOT
ATOM      1  C   UNL A   1      33.695  26.408  25.827  1.00  0.00     0.023 C 
ENDROOT
BRANCH   1   2
ATOM      2  C   UNL A   1      33.676  25.675  24.487  1.00  0.00     0.116 C 
BRANCH   2   3
ATOM      3  N   UNL A   1      34.074  26.505  23.374  1.00  0.00    -0.356 N 
ATOM      4  C   UNL A   1      33.381  27.144  22.402  1.00  0.00     0.223 C 
ATOM      5  O   UNL A   1      34.053  27.870  21.656  1.00  0.00    -0.275 OA
ATOM      6  H   UNL A   1      35.049  26.630  23.307  1.00  0.00     0.163 HD
BRANCH   4   7
ATOM      7  C   UNL A   1      31.866  27.034  22.152  1.00  0.00     0.078 C 
ATOM      8  C   UNL A   1      29.948  26.011  24.250  1.00  0.00     0.008 C 
ATOM      9  C   UNL A   1      30.357  27.497  24.209  1.00  0.00     0.006 C 
ATOM     10  C   UNL A   1      30.780  25.057  23.371  1.00  0.00     0.006 C 
ATOM     11  C   UNL A   1      30.955  27.999  22.902  1.00  0.00     0.014 C 
ATOM     12  C   UNL A   1      31.299  25.624  22.065  1.00  0.00     0.014 C 
BRANCH   8  13
ATOM     13  C   UNL A   1      29.974  25.497  25.712  1.00  0.00     0.121 C 
BRANCH  13  14
ATOM     14  N   UNL A   1      30.872  24.384  25.905  1.00  0.00    -0.338 N 
ATOM     15  O   UNL A   1      29.538  23.328  27.427  1.00  0.00    -0.249 OA
ATOM     16  C   UNL A   1      30.550  23.355  26.735  1.00  0.00     0.315 C 
ATOM     17  N   UNL A   1      31.415  22.319  26.799  1.00  0.00    -0.334 N 
ATOM     18  H   UNL A   1      31.091  21.545  27.312  1.00  0.00     0.165 HD
ATOM     19  H   UNL A   1      31.733  24.369  25.427  1.00  0.00     0.165 HD
BRANCH  17  20
ATOM     20  C   UNL A   1      32.734  22.162  26.240  1.00  0.00     0.154 C 
BRANCH  20  21
ATOM     21  C   UNL A   1      32.685  21.044  25.246  1.00  0.00    -0.018 A 
ATOM     22  C   UNL A   1      32.175  21.157  23.908  1.00  0.00     0.017 A 
ATOM     23  C   UNL A   1      33.136  19.758  25.486  1.00  0.00     0.070 A 
ATOM     24  C   UNL A   1      32.269  19.980  23.200  1.00  0.00     0.065 A 
ATOM     25  S   UNL A   1      32.951  18.725  24.136  1.00  0.00    -0.152 S 
ENDBRANCH  20  21
ENDBRANCH  17  20
ENDBRANCH  13  14
ENDBRANCH   8  13
ENDBRANCH   4   7
ENDBRANCH   2   3
ENDBRANCH   1   2
BRANCH   1  26
ATOM     26  C   UNL A   1      33.936  27.911  25.742  1.00  0.00     0.023 C 
BRANCH  26  27
ATOM     27  C   UNL A   1      34.224  28.610  27.068  1.00  0.00     0.116 C 
BRANCH  27  28
ATOM     28  N   UNL A   1      33.803  30.004  27.137  1.00  0.00    -0.352 N 
ATOM     29  C   UNL A   1      34.456  31.045  27.763  1.00  0.00     0.251 C 
ATOM     30  H   UNL A   1      32.956  30.227  26.687  1.00  0.00     0.163 HD
ATOM     31  O   UNL A   1      33.986  32.178  27.757  1.00  0.00    -0.269 OA
BRANCH  29  32
ATOM     32  C   UNL A   1      35.704  30.753  28.497  1.00  0.00     0.039 A 
ATOM     33  C   UNL A   1      35.650  29.909  29.610  1.00  0.00     0.014 A 
ATOM     34  C   UNL A   1      36.930  31.205  28.006  1.00  0.00     0.014 A 
ATOM     35  C   UNL A   1      36.838  29.434  30.168  1.00  0.00     0.010 A 
ATOM     36  C   UNL A   1      38.107  30.669  28.513  1.00  0.00     0.010 A 
ATOM     37  C   UNL A   1      38.073  29.765  29.588  1.00  0.00    -0.014 A 
BRANCH  37  38
ATOM     38  C   UNL A   1      39.343  29.158  30.065  1.00  0.00     0.031 A 
ATOM     39  C   UNL A   1      40.089  29.785  31.209  1.00  0.00     0.074 A 
ATOM     40  C   UNL A   1      39.876  28.115  29.399  1.00  0.00     0.049 A 
ATOM     41  N   UNL A   1      41.269  29.493  31.690  1.00  0.00    -0.248 NA
ATOM     42  C   UNL A   1      39.435  30.927  31.865  1.00  0.00     0.031 C 
ATOM     43  C   UNL A   1      39.285  27.464  28.226  1.00  0.00     0.029 A 
ATOM     44  N   UNL A   1      41.049  27.430  29.598  1.00  0.00    -0.354 N 
ATOM     45  C   UNL A   1      41.516  30.435  32.683  1.00  0.00     0.074 A 
ATOM     46  C   UNL A   1      40.385  31.341  32.689  1.00  0.00     0.031 C 
ATOM     47  C   UNL A   1      40.090  26.469  27.822  1.00  0.00     0.029 A 
ATOM     48  C   UNL A   1      41.270  26.430  28.679  1.00  0.00     0.049 A 
ATOM     49  H   UNL A   1      41.674  27.635  30.330  1.00  0.00     0.167 HD
ATOM     50  C   UNL A   1      42.576  30.525  33.523  1.00  0.00     0.034 A 
ATOM     51  C   UNL A   1      42.311  25.586  28.536  1.00  0.00     0.034 A 
ATOM     52  C   UNL A   1      43.677  29.593  33.525  1.00  0.00     0.049 A 
ATOM     53  C   UNL A   1      43.456  25.671  29.508  1.00  0.00     0.074 A 
ATOM     54  C   UNL A   1      44.757  29.533  34.387  1.00  0.00     0.029 A 
ATOM     55  N   UNL A   1      43.839  28.556  32.614  1.00  0.00    -0.354 N 
ATOM     56  N   UNL A   1      43.645  26.527  30.487  1.00  0.00    -0.248 NA
ATOM     57  C   UNL A   1      44.521  24.670  29.366  1.00  0.00     0.031 C 
ATOM     58  C   UNL A   1      45.596  28.493  33.968  1.00  0.00     0.029 A 
ATOM     59  C   UNL A   1      45.012  27.866  32.880  1.00  0.00     0.049 A 
ATOM     60  H   UNL A   1      43.212  28.343  31.885  1.00  0.00     0.167 HD
ATOM     61  C   UNL A   1      44.841  26.152  31.090  1.00  0.00     0.074 A 
ATOM     62  C   UNL A   1      45.321  24.987  30.373  1.00  0.00     0.031 C 
ATOM     63  C   UNL A   1      45.483  26.716  32.145  1.00  0.00     0.034 A 
BRANCH  50  64
ATOM     64  C   UNL A   1      42.593  31.688  34.486  1.00  0.00     0.023 A 
ATOM     65  C   UNL A   1      41.969  31.613  35.745  1.00  0.00     0.031 A 
ATOM     66  C   UNL A   1      43.186  32.909  34.120  1.00  0.00     0.131 A 
ATOM     67  C   UNL A   1      41.861  32.762  36.543  1.00  0.00     0.055 A 
ATOM     68  C   UNL A   1      43.154  34.024  34.960  1.00  0.00     0.041 A 
ATOM     69  F   UNL A   1      43.783  33.048  32.926  1.00  0.00    -0.206 F 
ATOM     70  C   UNL A   1      42.471  33.961  36.171  1.00  0.00     0.022 A 
BRANCH  67  71
ATOM     71  S   UNL A   1      40.764  32.707  37.987  1.00  0.00     0.124 S 
ATOM     72  O   UNL A   1      39.615  31.976  37.456  1.00  0.00    -0.237 OA
ATOM     73  O   UNL A   1      41.573  31.998  38.970  1.00  0.00    -0.237 OA
ATOM     74  O   UNL A   1      40.514  34.116  38.281  1.00  0.00    -0.744 OA
ENDBRANCH  67  71
ENDBRANCH  50  64
BRANCH  51  75
ATOM     75  C   UNL A   1      42.321  24.591  27.429  1.00  0.00     0.023 A 
ATOM     76  C   UNL A   1      41.592  23.395  27.526  1.00  0.00     0.031 A 
ATOM     77  C   UNL A   1      43.076  24.814  26.265  1.00  0.00     0.131 A 
ATOM     78  C   UNL A   1      41.661  22.450  26.492  1.00  0.00     0.055 A 
ATOM     79  C   UNL A   1      43.112  23.887  25.221  1.00  0.00     0.041 A 
ATOM     80  F   UNL A   1      43.780  25.949  26.120  1.00  0.00    -0.206 F 
ATOM     81  C   UNL A   1      42.408  22.692  25.336  1.00  0.00     0.022 A 
BRANCH  78  82
ATOM     82  S   UNL A   1      40.797  20.869  26.700  1.00  0.00     0.124 S 
ATOM     83  O   UNL A   1      39.491  21.165  26.124  1.00  0.00    -0.237 OA
ATOM     84  O   UNL A   1      41.644  19.958  25.936  1.00  0.00    -0.237 OA
ATOM     85  O   UNL A   1      40.811  20.661  28.146  1.00  0.00    -0.744 OA
ENDBRANCH  78  82
ENDBRANCH  51  75
BRANCH  63  86
ATOM     86  C   UNL A   1      46.754  26.050  32.603  1.00  0.00     0.023 A 
ATOM     87  C   UNL A   1      46.747  25.036  33.576  1.00  0.00     0.031 A 
ATOM     88  C   UNL A   1      47.991  26.445  32.064  1.00  0.00     0.131 A 
ATOM     89  C   UNL A   1      47.958  24.482  34.015  1.00  0.00     0.055 A 
ATOM     90  C   UNL A   1      49.189  25.856  32.469  1.00  0.00     0.041 A 
ATOM     91  F   UNL A   1      48.052  27.410  31.133  1.00  0.00    -0.206 F 
ATOM     92  C   UNL A   1      49.178  24.876  33.457  1.00  0.00     0.022 A 
BRANCH  89  93
ATOM     93  S   UNL A   1      47.929  23.289  35.380  1.00  0.00     0.124 S 
ATOM     94  O   UNL A   1      49.296  23.369  35.884  1.00  0.00    -0.237 OA
ATOM     95  O   UNL A   1      46.894  23.838  36.252  1.00  0.00    -0.237 OA
ATOM     96  O   UNL A   1      47.581  22.027  34.727  1.00  0.00    -0.744 OA
ENDBRANCH  89  93
ENDBRANCH  63  86
ENDBRANCH  37  38
ENDBRANCH  29  32
ENDBRANCH  27  28
ENDBRANCH  26  27
ENDBRANCH   1  26
TORSDOF 18
ENDMDL
