MODEL 1
REMARK VINA RESULT:     -12.1      0.000      0.000
REMARK SMILES C[C@@H](C(=O)NCCCCNC(=O)c1ccc(-c2c3nc(c(-c4cc(S(=O)(=O)[O-])ccc4F)c4ccc([nH]4)c(-c4cc(S(=O)(=O)[O-])ccc4F)c4nc(c(-c5cc(S(=O)(=O)[O-])ccc5F)c5ccc2[nH]5)C=C4)C=C3)cc1)c1ccc(O[C@H]2CCCC2=O)cc1F
REMARK SMILES IDX 7 1 6 2 5 3 3 4 4 5 2 7 1 8 76 9 77 10 88 11 78 12 87 13
REMARK SMILES IDX 89 14 79 15 80 16 81 17 82 18 85 19 83 20 84 21 86 22 8 23
REMARK SMILES IDX 9 24 10 25 11 26 12 28 13 29 14 30 75 31 15 32 74 33 16 34
REMARK SMILES IDX 17 35 18 36 68 37 19 38 73 39 67 40 69 41 20 42 72 43 66 44
REMARK SMILES IDX 65 45 21 47 53 48 33 49 52 50 34 51 37 52 51 53 70 54 35 55
REMARK SMILES IDX 36 56 50 58 71 59 38 60 22 61 23 62 31 63 24 64 30 65 32 66
REMARK SMILES IDX 29 67 25 68 26 69 27 70 28 71 54 72 55 73 63 74 56 75 62 76
REMARK SMILES IDX 64 77 61 78 57 79 58 80 59 81 60 82 39 83 40 84 48 85 41 86
REMARK SMILES IDX 47 87 49 88 46 89 42 90 43 91 44 92 45 93
REMARK H PARENT 5 6 10 27 69 46 37 57
REMARK Flexibility Score: inf
ROOT
ATOM      1  C   UNL A   1      37.042  22.198  24.283  1.00  0.00     0.023 C 
ENDROOT
BRANCH   1   2
ATOM      2  C   UNL A   1      36.890  23.490  25.086  1.00  0.00     0.116 C 
BRANCH   2   3
ATOM      3  N   UNL A   1      36.191  23.277  26.336  1.00  0.00    -0.356 N 
ATOM      4  C   UNL A   1      34.861  23.118  26.597  1.00  0.00     0.227 C 
ATOM      5  O   UNL A   1      34.565  22.813  27.755  1.00  0.00    -0.274 OA
ATOM      6  H   UNL A   1      36.772  23.243  27.130  1.00  0.00     0.163 HD
BRANCH   4   7
ATOM      7  C   UNL A   1      33.818  23.223  25.466  1.00  0.00     0.108 C 
ATOM      8  C   UNL A   1      32.618  24.112  25.808  1.00  0.00     0.023 C 
BRANCH   7   9
ATOM      9  C   UNL A   1      33.288  21.859  25.037  1.00  0.00     0.000 A 
ATOM     10  C   UNL A   1      33.255  20.785  25.932  1.00  0.00     0.011 A 
ATOM     11  C   UNL A   1      32.876  21.628  23.720  1.00  0.00     0.130 A 
ATOM     12  C   UNL A   1      32.825  19.525  25.500  1.00  0.00     0.047 A 
ATOM     13  C   UNL A   1      32.439  20.376  23.290  1.00  0.00     0.086 A 
ATOM     14  F   UNL A   1      32.928  22.618  22.817  1.00  0.00    -0.207 F 
ATOM     15  C   UNL A   1      32.408  19.312  24.181  1.00  0.00     0.123 A 
BRANCH  15  16
ATOM     16  O   UNL A   1      32.038  18.029  23.910  1.00  0.00    -0.483 OA
BRANCH  16  17
ATOM     17  C   UNL A   1      32.953  16.962  23.964  1.00  0.00     0.239 C 
ATOM     18  C   UNL A   1      34.368  17.331  23.496  1.00  0.00     0.054 C 
ATOM     19  C   UNL A   1      33.196  16.097  25.198  1.00  0.00     0.173 C 
ATOM     20  C   UNL A   1      35.319  16.948  24.627  1.00  0.00     0.012 C 
ATOM     21  C   UNL A   1      34.660  15.805  25.384  1.00  0.00     0.080 C 
ATOM     22  O   UNL A   1      32.318  15.643  25.922  1.00  0.00    -0.296 OA
ENDBRANCH  16  17
ENDBRANCH  15  16
ENDBRANCH   7   9
ENDBRANCH   4   7
ENDBRANCH   2   3
ENDBRANCH   1   2
BRANCH   1  23
ATOM     23  C   UNL A   1      37.567  20.996  25.076  1.00  0.00     0.023 C 
BRANCH  23  24
ATOM     24  C   UNL A   1      38.908  21.196  25.775  1.00  0.00     0.116 C 
BRANCH  24  25
ATOM     25  N   UNL A   1      39.720  19.988  25.808  1.00  0.00    -0.352 N 
ATOM     26  C   UNL A   1      41.069  19.855  26.045  1.00  0.00     0.251 C 
ATOM     27  H   UNL A   1      39.236  19.149  25.637  1.00  0.00     0.163 HD
ATOM     28  O   UNL A   1      41.604  18.757  25.921  1.00  0.00    -0.269 OA
BRANCH  26  29
ATOM     29  C   UNL A   1      41.871  21.044  26.405  1.00  0.00     0.039 A 
ATOM     30  C   UNL A   1      42.276  21.916  25.390  1.00  0.00     0.014 A 
ATOM     31  C   UNL A   1      42.183  21.320  27.739  1.00  0.00     0.014 A 
ATOM     32  C   UNL A   1      42.907  23.117  25.722  1.00  0.00     0.010 A 
ATOM     33  C   UNL A   1      42.764  22.543  28.071  1.00  0.00     0.010 A 
ATOM     34  C   UNL A   1      43.107  23.464  27.068  1.00  0.00    -0.014 A 
BRANCH  34  35
ATOM     35  C   UNL A   1      43.602  24.811  27.458  1.00  0.00     0.031 A 
ATOM     36  C   UNL A   1      42.647  25.853  27.968  1.00  0.00     0.074 A 
ATOM     37  C   UNL A   1      44.897  25.122  27.243  1.00  0.00     0.049 A 
ATOM     38  N   UNL A   1      42.866  27.117  28.223  1.00  0.00    -0.248 NA
ATOM     39  C   UNL A   1      41.260  25.422  28.200  1.00  0.00     0.031 C 
ATOM     40  C   UNL A   1      45.910  24.203  26.714  1.00  0.00     0.029 A 
ATOM     41  N   UNL A   1      45.581  26.301  27.413  1.00  0.00    -0.354 N 
ATOM     42  C   UNL A   1      41.642  27.641  28.623  1.00  0.00     0.074 A 
ATOM     43  C   UNL A   1      40.679  26.562  28.551  1.00  0.00     0.031 C 
ATOM     44  C   UNL A   1      47.078  24.855  26.597  1.00  0.00     0.029 A 
ATOM     45  C   UNL A   1      46.891  26.246  26.994  1.00  0.00     0.049 A 
ATOM     46  H   UNL A   1      45.172  27.109  27.799  1.00  0.00     0.167 HD
ATOM     47  C   UNL A   1      41.355  28.905  29.022  1.00  0.00     0.034 A 
ATOM     48  C   UNL A   1      47.827  27.213  26.903  1.00  0.00     0.034 A 
ATOM     49  C   UNL A   1      42.331  29.962  29.114  1.00  0.00     0.049 A 
ATOM     50  C   UNL A   1      47.468  28.616  27.327  1.00  0.00     0.074 A 
ATOM     51  C   UNL A   1      42.165  31.243  29.612  1.00  0.00     0.029 A 
ATOM     52  N   UNL A   1      43.647  29.870  28.684  1.00  0.00    -0.354 N 
ATOM     53  N   UNL A   1      46.325  29.072  27.782  1.00  0.00    -0.248 NA
ATOM     54  C   UNL A   1      48.526  29.631  27.226  1.00  0.00     0.031 C 
ATOM     55  C   UNL A   1      43.359  31.947  29.418  1.00  0.00     0.029 A 
ATOM     56  C   UNL A   1      44.290  31.086  28.861  1.00  0.00     0.049 A 
ATOM     57  H   UNL A   1      44.064  29.061  28.309  1.00  0.00     0.167 HD
ATOM     58  C   UNL A   1      46.534  30.424  28.040  1.00  0.00     0.074 A 
ATOM     59  C   UNL A   1      47.916  30.704  27.710  1.00  0.00     0.031 C 
ATOM     60  C   UNL A   1      45.663  31.352  28.510  1.00  0.00     0.034 A 
BRANCH  47  61
ATOM     61  C   UNL A   1      39.923  29.227  29.362  1.00  0.00     0.023 A 
ATOM     62  C   UNL A   1      39.483  29.339  30.691  1.00  0.00     0.031 A 
ATOM     63  C   UNL A   1      38.990  29.452  28.334  1.00  0.00     0.131 A 
ATOM     64  C   UNL A   1      38.135  29.625  30.958  1.00  0.00     0.055 A 
ATOM     65  C   UNL A   1      37.665  29.797  28.605  1.00  0.00     0.041 A 
ATOM     66  F   UNL A   1      39.353  29.340  27.045  1.00  0.00    -0.206 F 
ATOM     67  C   UNL A   1      37.228  29.878  29.924  1.00  0.00     0.022 A 
BRANCH  64  68
ATOM     68  S   UNL A   1      37.560  29.578  32.677  1.00  0.00     0.124 S 
ATOM     69  O   UNL A   1      38.608  30.334  33.358  1.00  0.00    -0.237 OA
ATOM     70  O   UNL A   1      36.257  30.227  32.593  1.00  0.00    -0.237 OA
ATOM     71  O   UNL A   1      37.527  28.151  32.989  1.00  0.00    -0.744 OA
ENDBRANCH  64  68
ENDBRANCH  47  61
BRANCH  48  72
ATOM     72  C   UNL A   1      49.177  26.917  26.342  1.00  0.00     0.023 A 
ATOM     73  C   UNL A   1      49.540  27.354  25.060  1.00  0.00     0.031 A 
ATOM     74  C   UNL A   1      50.098  26.127  27.055  1.00  0.00     0.131 A 
ATOM     75  C   UNL A   1      50.765  26.953  24.505  1.00  0.00     0.055 A 
ATOM     76  C   UNL A   1      51.339  25.779  26.521  1.00  0.00     0.041 A 
ATOM     77  F   UNL A   1      49.802  25.684  28.287  1.00  0.00    -0.206 F 
ATOM     78  C   UNL A   1      51.672  26.178  25.231  1.00  0.00     0.022 A 
BRANCH  75  79
ATOM     79  S   UNL A   1      51.109  27.368  22.772  1.00  0.00     0.124 S 
ATOM     80  O   UNL A   1      52.444  26.808  22.591  1.00  0.00    -0.237 OA
ATOM     81  O   UNL A   1      50.026  26.681  22.078  1.00  0.00    -0.237 OA
ATOM     82  O   UNL A   1      51.037  28.827  22.751  1.00  0.00    -0.744 OA
ENDBRANCH  75  79
ENDBRANCH  48  72
BRANCH  60  83
ATOM     83  C   UNL A   1      46.198  32.746  28.715  1.00  0.00     0.023 A 
ATOM     84  C   UNL A   1      46.058  33.739  27.729  1.00  0.00     0.031 A 
ATOM     85  C   UNL A   1      46.863  33.082  29.907  1.00  0.00     0.131 A 
ATOM     86  C   UNL A   1      46.618  35.008  27.934  1.00  0.00     0.055 A 
ATOM     87  C   UNL A   1      47.371  34.364  30.126  1.00  0.00     0.041 A 
ATOM     88  F   UNL A   1      47.026  32.171  30.879  1.00  0.00    -0.206 F 
ATOM     89  C   UNL A   1      47.259  35.332  29.133  1.00  0.00     0.022 A 
BRANCH  86  90
ATOM     90  S   UNL A   1      46.555  36.216  26.582  1.00  0.00     0.124 S 
ATOM     91  O   UNL A   1      45.313  36.927  26.869  1.00  0.00    -0.237 OA
ATOM     92  O   UNL A   1      47.784  36.976  26.783  1.00  0.00    -0.237 OA
ATOM     93  O   UNL A   1      46.532  35.385  25.380  1.00  0.00    -0.744 OA
ENDBRANCH  86  90
ENDBRANCH  60  83
ENDBRANCH  34  35
ENDBRANCH  26  29
ENDBRANCH  24  25
ENDBRANCH  23  24
ENDBRANCH   1  23
TORSDOF 17
ENDMDL
MODEL 2
REMARK VINA RESULT:     -12.0      6.728     12.054
REMARK SMILES C[C@@H](C(=O)NCCCCNC(=O)c1ccc(-c2c3nc(c(-c4cc(S(=O)(=O)[O-])ccc4F)c4ccc([nH]4)c(-c4cc(S(=O)(=O)[O-])ccc4F)c4nc(c(-c5cc(S(=O)(=O)[O-])ccc5F)c5ccc2[nH]5)C=C4)C=C3)cc1)c1ccc(O[C@H]2CCCC2=O)cc1F
REMARK SMILES IDX 7 1 6 2 5 3 3 4 4 5 2 7 1 8 76 9 77 10 88 11 78 12 87 13
REMARK SMILES IDX 89 14 79 15 80 16 81 17 82 18 85 19 83 20 84 21 86 22 8 23
REMARK SMILES IDX 9 24 10 25 11 26 12 28 13 29 14 30 75 31 15 32 74 33 16 34
REMARK SMILES IDX 17 35 18 36 68 37 19 38 73 39 67 40 69 41 20 42 72 43 66 44
REMARK SMILES IDX 65 45 21 47 53 48 33 49 52 50 34 51 37 52 51 53 70 54 35 55
REMARK SMILES IDX 36 56 50 58 71 59 38 60 22 61 23 62 31 63 24 64 30 65 32 66
REMARK SMILES IDX 29 67 25 68 26 69 27 70 28 71 54 72 55 73 63 74 56 75 62 76
REMARK SMILES IDX 64 77 61 78 57 79 58 80 59 81 60 82 39 83 40 84 48 85 41 86
REMARK SMILES IDX 47 87 49 88 46 89 42 90 43 91 44 92 45 93
REMARK H PARENT 5 6 10 27 69 46 37 57
REMARK Flexibility Score: inf
ROOT
ATOM      1  C   UNL A   1      32.380  30.077  25.522  1.00  0.00     0.023 C 
ENDROOT
BRANCH   1   2
ATOM      2  C   UNL A   1      33.510  29.048  25.530  1.00  0.00     0.116 C 
BRANCH   2   3
ATOM      3  N   UNL A   1      34.147  28.926  24.235  1.00  0.00    -0.356 N 
ATOM      4  C   UNL A   1      33.861  28.115  23.175  1.00  0.00     0.227 C 
ATOM      5  O   UNL A   1      34.496  28.328  22.139  1.00  0.00    -0.274 OA
ATOM      6  H   UNL A   1      34.914  29.528  24.097  1.00  0.00     0.163 HD
BRANCH   4   7
ATOM      7  C   UNL A   1      32.736  27.065  23.267  1.00  0.00     0.108 C 
ATOM      8  C   UNL A   1      32.935  25.858  22.345  1.00  0.00     0.023 C 
BRANCH   7   9
ATOM      9  C   UNL A   1      31.362  27.660  22.976  1.00  0.00     0.000 A 
ATOM     10  C   UNL A   1      31.225  28.798  22.175  1.00  0.00     0.011 A 
ATOM     11  C   UNL A   1      30.206  27.119  23.550  1.00  0.00     0.130 A 
ATOM     12  C   UNL A   1      29.961  29.365  21.973  1.00  0.00     0.047 A 
ATOM     13  C   UNL A   1      28.946  27.678  23.343  1.00  0.00     0.086 A 
ATOM     14  F   UNL A   1      30.294  26.052  24.358  1.00  0.00    -0.207 F 
ATOM     15  C   UNL A   1      28.814  28.807  22.548  1.00  0.00     0.123 A 
BRANCH  15  16
ATOM     16  O   UNL A   1      27.664  29.485  22.275  1.00  0.00    -0.483 OA
BRANCH  16  17
ATOM     17  C   UNL A   1      27.535  30.865  22.518  1.00  0.00     0.239 C 
ATOM     18  C   UNL A   1      27.969  31.292  23.928  1.00  0.00     0.054 C 
ATOM     19  C   UNL A   1      28.112  31.956  21.619  1.00  0.00     0.173 C 
ATOM     20  C   UNL A   1      29.014  32.391  23.753  1.00  0.00     0.012 C 
ATOM     21  C   UNL A   1      28.713  33.073  22.427  1.00  0.00     0.080 C 
ATOM     22  O   UNL A   1      28.050  31.962  20.395  1.00  0.00    -0.296 OA
ENDBRANCH  16  17
ENDBRANCH  15  16
ENDBRANCH   7   9
ENDBRANCH   4   7
ENDBRANCH   2   3
ENDBRANCH   1   2
BRANCH   1  23
ATOM     23  C   UNL A   1      32.137  30.788  26.857  1.00  0.00     0.023 C 
BRANCH  23  24
ATOM     24  C   UNL A   1      33.240  31.737  27.315  1.00  0.00     0.116 C 
BRANCH  24  25
ATOM     25  N   UNL A   1      32.769  33.097  27.536  1.00  0.00    -0.352 N 
ATOM     26  C   UNL A   1      33.236  34.045  28.417  1.00  0.00     0.251 C 
ATOM     27  H   UNL A   1      32.010  33.377  26.975  1.00  0.00     0.163 HD
ATOM     28  O   UNL A   1      32.636  35.109  28.542  1.00  0.00    -0.269 OA
BRANCH  26  29
ATOM     29  C   UNL A   1      34.431  33.757  29.239  1.00  0.00     0.039 A 
ATOM     30  C   UNL A   1      34.287  32.973  30.386  1.00  0.00     0.014 A 
ATOM     31  C   UNL A   1      35.692  34.222  28.855  1.00  0.00     0.014 A 
ATOM     32  C   UNL A   1      35.421  32.569  31.095  1.00  0.00     0.010 A 
ATOM     33  C   UNL A   1      36.826  33.773  29.531  1.00  0.00     0.010 A 
ATOM     34  C   UNL A   1      36.702  32.921  30.641  1.00  0.00    -0.014 A 
BRANCH  34  35
ATOM     35  C   UNL A   1      37.930  32.354  31.260  1.00  0.00     0.031 A 
ATOM     36  C   UNL A   1      38.641  31.197  30.616  1.00  0.00     0.074 A 
ATOM     37  C   UNL A   1      38.332  32.817  32.461  1.00  0.00     0.049 A 
ATOM     38  N   UNL A   1      39.635  30.483  31.076  1.00  0.00    -0.248 NA
ATOM     39  C   UNL A   1      38.153  30.774  29.295  1.00  0.00     0.031 C 
ATOM     40  C   UNL A   1      37.697  33.911  33.201  1.00  0.00     0.029 A 
ATOM     41  N   UNL A   1      39.352  32.410  33.288  1.00  0.00    -0.354 N 
ATOM     42  C   UNL A   1      39.880  29.511  30.112  1.00  0.00     0.074 A 
ATOM     43  C   UNL A   1      38.911  29.712  29.055  1.00  0.00     0.031 C 
ATOM     44  C   UNL A   1      38.335  34.082  34.371  1.00  0.00     0.029 A 
ATOM     45  C   UNL A   1      39.391  33.082  34.489  1.00  0.00     0.049 A 
ATOM     46  H   UNL A   1      39.994  31.705  33.044  1.00  0.00     0.167 HD
ATOM     47  C   UNL A   1      40.834  28.546  30.109  1.00  0.00     0.034 A 
ATOM     48  C   UNL A   1      40.163  32.892  35.578  1.00  0.00     0.034 A 
ATOM     49  C   UNL A   1      41.809  28.376  31.157  1.00  0.00     0.049 A 
ATOM     50  C   UNL A   1      41.196  31.792  35.557  1.00  0.00     0.074 A 
ATOM     51  C   UNL A   1      42.884  27.504  31.197  1.00  0.00     0.029 A 
ATOM     52  N   UNL A   1      41.821  29.074  32.356  1.00  0.00    -0.354 N 
ATOM     53  N   UNL A   1      41.468  30.937  34.599  1.00  0.00    -0.248 NA
ATOM     54  C   UNL A   1      42.025  31.636  36.759  1.00  0.00     0.031 C 
ATOM     55  C   UNL A   1      43.502  27.626  32.447  1.00  0.00     0.029 A 
ATOM     56  C   UNL A   1      42.855  28.620  33.161  1.00  0.00     0.049 A 
ATOM     57  H   UNL A   1      41.189  29.789  32.600  1.00  0.00     0.167 HD
ATOM     58  C   UNL A   1      42.513  30.153  35.079  1.00  0.00     0.074 A 
ATOM     59  C   UNL A   1      42.836  30.650  36.400  1.00  0.00     0.031 C 
ATOM     60  C   UNL A   1      43.151  29.115  34.483  1.00  0.00     0.034 A 
BRANCH  47  61
ATOM     61  C   UNL A   1      40.855  27.580  28.954  1.00  0.00     0.023 A 
ATOM     62  C   UNL A   1      41.778  27.700  27.903  1.00  0.00     0.031 A 
ATOM     63  C   UNL A   1      39.949  26.504  28.921  1.00  0.00     0.131 A 
ATOM     64  C   UNL A   1      41.747  26.785  26.839  1.00  0.00     0.055 A 
ATOM     65  C   UNL A   1      39.964  25.561  27.892  1.00  0.00     0.041 A 
ATOM     66  F   UNL A   1      39.033  26.353  29.892  1.00  0.00    -0.206 F 
ATOM     67  C   UNL A   1      40.862  25.703  26.839  1.00  0.00     0.022 A 
BRANCH  64  68
ATOM     68  S   UNL A   1      42.825  27.076  25.410  1.00  0.00     0.124 S 
ATOM     69  O   UNL A   1      44.120  27.277  26.054  1.00  0.00    -0.237 OA
ATOM     70  O   UNL A   1      42.677  25.843  24.645  1.00  0.00    -0.237 OA
ATOM     71  O   UNL A   1      42.253  28.268  24.787  1.00  0.00    -0.744 OA
ENDBRANCH  64  68
ENDBRANCH  47  61
BRANCH  48  72
ATOM     72  C   UNL A   1      39.967  33.717  36.805  1.00  0.00     0.023 A 
ATOM     73  C   UNL A   1      40.861  34.746  37.137  1.00  0.00     0.031 A 
ATOM     74  C   UNL A   1      38.919  33.439  37.703  1.00  0.00     0.131 A 
ATOM     75  C   UNL A   1      40.728  35.422  38.360  1.00  0.00     0.055 A 
ATOM     76  C   UNL A   1      38.758  34.153  38.892  1.00  0.00     0.041 A 
ATOM     77  F   UNL A   1      38.034  32.466  37.434  1.00  0.00    -0.206 F 
ATOM     78  C   UNL A   1      39.676  35.140  39.234  1.00  0.00     0.022 A 
BRANCH  75  79
ATOM     79  S   UNL A   1      42.019  36.601  38.844  1.00  0.00     0.124 S 
ATOM     80  O   UNL A   1      42.389  37.182  37.558  1.00  0.00    -0.237 OA
ATOM     81  O   UNL A   1      41.299  37.476  39.760  1.00  0.00    -0.237 OA
ATOM     82  O   UNL A   1      43.038  35.754  39.461  1.00  0.00    -0.744 OA
ENDBRANCH  75  79
ENDBRANCH  48  72
BRANCH  60  83
ATOM     83  C   UNL A   1      44.278  28.475  35.252  1.00  0.00     0.023 A 
ATOM     84  C   UNL A   1      44.038  27.469  36.205  1.00  0.00     0.031 A 
ATOM     85  C   UNL A   1      45.606  28.881  35.035  1.00  0.00     0.131 A 
ATOM     86  C   UNL A   1      45.106  26.937  36.941  1.00  0.00     0.055 A 
ATOM     87  C   UNL A   1      46.671  28.309  35.732  1.00  0.00     0.041 A 
ATOM     88  F   UNL A   1      45.889  29.839  34.137  1.00  0.00    -0.206 F 
ATOM     89  C   UNL A   1      46.423  27.339  36.699  1.00  0.00     0.022 A 
BRANCH  86  90
ATOM     90  S   UNL A   1      44.747  25.755  38.269  1.00  0.00     0.124 S 
ATOM     91  O   UNL A   1      43.994  26.579  39.210  1.00  0.00    -0.237 OA
ATOM     92  O   UNL A   1      43.985  24.724  37.575  1.00  0.00    -0.237 OA
ATOM     93  O   UNL A   1      46.072  25.342  38.728  1.00  0.00    -0.744 OA
ENDBRANCH  86  90
ENDBRANCH  60  83
ENDBRANCH  34  35
ENDBRANCH  26  29
ENDBRANCH  24  25
ENDBRANCH  23  24
ENDBRANCH   1  23
TORSDOF 17
ENDMDL
MODEL 3
REMARK VINA RESULT:     -11.8      1.852      2.393
REMARK SMILES C[C@@H](C(=O)NCCCCNC(=O)c1ccc(-c2c3nc(c(-c4cc(S(=O)(=O)[O-])ccc4F)c4ccc([nH]4)c(-c4cc(S(=O)(=O)[O-])ccc4F)c4nc(c(-c5cc(S(=O)(=O)[O-])ccc5F)c5ccc2[nH]5)C=C4)C=C3)cc1)c1ccc(O[C@H]2CCCC2=O)cc1F
REMARK SMILES IDX 7 1 6 2 5 3 3 4 4 5 2 7 1 8 76 9 77 10 88 11 78 12 87 13
REMARK SMILES IDX 89 14 79 15 80 16 81 17 82 18 85 19 83 20 84 21 86 22 8 23
REMARK SMILES IDX 9 24 10 25 11 26 12 28 13 29 14 30 75 31 15 32 74 33 16 34
REMARK SMILES IDX 17 35 18 36 68 37 19 38 73 39 67 40 69 41 20 42 72 43 66 44
REMARK SMILES IDX 65 45 21 47 53 48 33 49 52 50 34 51 37 52 51 53 70 54 35 55
REMARK SMILES IDX 36 56 50 58 71 59 38 60 22 61 23 62 31 63 24 64 30 65 32 66
REMARK SMILES IDX 29 67 25 68 26 69 27 70 28 71 54 72 55 73 63 74 56 75 62 76
REMARK SMILES IDX 64 77 61 78 57 79 58 80 59 81 60 82 39 83 40 84 48 85 41 86
REMARK SMILES IDX 47 87 49 88 46 89 42 90 43 91 44 92 45 93
REMARK H PARENT 5 6 10 27 69 46 37 57
REMARK Flexibility Score: inf
ROOT
ATOM      1  C   UNL A   1      36.656  22.501  23.437  1.00  0.00     0.023 C 
ENDROOT
BRANCH   1   2
ATOM      2  C   UNL A   1      35.391  23.360  23.408  1.00  0.00     0.116 C 
BRANCH   2   3
ATOM      3  N   UNL A   1      34.900  23.654  24.738  1.00  0.00    -0.356 N 
ATOM      4  C   UNL A   1      33.648  23.541  25.270  1.00  0.00     0.227 C 
ATOM      5  O   UNL A   1      33.552  23.737  26.484  1.00  0.00    -0.274 OA
ATOM      6  H   UNL A   1      35.582  23.991  25.362  1.00  0.00     0.163 HD
BRANCH   4   7
ATOM      7  C   UNL A   1      32.458  23.098  24.396  1.00  0.00     0.108 C 
ATOM      8  C   UNL A   1      31.097  23.581  24.909  1.00  0.00     0.023 C 
BRANCH   7   9
ATOM      9  C   UNL A   1      32.390  21.584  24.232  1.00  0.00     0.000 A 
ATOM     10  C   UNL A   1      32.527  20.733  25.335  1.00  0.00     0.011 A 
ATOM     11  C   UNL A   1      32.249  21.001  22.968  1.00  0.00     0.130 A 
ATOM     12  C   UNL A   1      32.525  19.345  25.154  1.00  0.00     0.047 A 
ATOM     13  C   UNL A   1      32.239  19.619  22.788  1.00  0.00     0.086 A 
ATOM     14  F   UNL A   1      32.155  21.777  21.878  1.00  0.00    -0.207 F 
ATOM     15  C   UNL A   1      32.375  18.778  23.883  1.00  0.00     0.123 A 
BRANCH  15  16
ATOM     16  O   UNL A   1      32.415  17.416  23.869  1.00  0.00    -0.483 OA
BRANCH  16  17
ATOM     17  C   UNL A   1      33.627  16.704  23.914  1.00  0.00     0.239 C 
ATOM     18  C   UNL A   1      34.876  17.596  23.852  1.00  0.00     0.054 C 
ATOM     19  C   UNL A   1      33.979  15.668  24.978  1.00  0.00     0.173 C 
ATOM     20  C   UNL A   1      35.729  17.245  25.068  1.00  0.00     0.012 C 
ATOM     21  C   UNL A   1      35.410  15.800  25.423  1.00  0.00     0.080 C 
ATOM     22  O   UNL A   1      33.221  14.796  25.387  1.00  0.00    -0.296 OA
ENDBRANCH  16  17
ENDBRANCH  15  16
ENDBRANCH   7   9
ENDBRANCH   4   7
ENDBRANCH   2   3
ENDBRANCH   1   2
BRANCH   1  23
ATOM     23  C   UNL A   1      36.597  21.288  24.372  1.00  0.00     0.023 C 
BRANCH  23  24
ATOM     24  C   UNL A   1      37.395  21.408  25.667  1.00  0.00     0.116 C 
BRANCH  24  25
ATOM     25  N   UNL A   1      38.516  20.482  25.735  1.00  0.00    -0.352 N 
ATOM     26  C   UNL A   1      39.799  20.704  26.179  1.00  0.00     0.251 C 
ATOM     27  H   UNL A   1      38.330  19.569  25.419  1.00  0.00     0.163 HD
ATOM     28  O   UNL A   1      40.647  19.824  26.056  1.00  0.00    -0.269 OA
BRANCH  26  29
ATOM     29  C   UNL A   1      40.158  22.015  26.760  1.00  0.00     0.039 A 
ATOM     30  C   UNL A   1      40.963  22.048  27.903  1.00  0.00     0.014 A 
ATOM     31  C   UNL A   1      39.741  23.204  26.156  1.00  0.00     0.014 A 
ATOM     32  C   UNL A   1      41.432  23.273  28.383  1.00  0.00     0.010 A 
ATOM     33  C   UNL A   1      40.255  24.420  26.603  1.00  0.00     0.010 A 
ATOM     34  C   UNL A   1      41.126  24.464  27.704  1.00  0.00    -0.014 A 
BRANCH  34  35
ATOM     35  C   UNL A   1      41.760  25.756  28.077  1.00  0.00     0.031 A 
ATOM     36  C   UNL A   1      40.956  26.830  28.755  1.00  0.00     0.074 A 
ATOM     37  C   UNL A   1      43.033  25.995  27.700  1.00  0.00     0.049 A 
ATOM     38  N   UNL A   1      41.294  28.063  29.027  1.00  0.00    -0.248 NA
ATOM     39  C   UNL A   1      39.587  26.475  29.156  1.00  0.00     0.031 C 
ATOM     40  C   UNL A   1      43.901  25.042  27.001  1.00  0.00     0.029 A 
ATOM     41  N   UNL A   1      43.814  27.119  27.822  1.00  0.00    -0.354 N 
ATOM     42  C   UNL A   1      40.173  28.642  29.612  1.00  0.00     0.074 A 
ATOM     43  C   UNL A   1      39.137  27.631  29.629  1.00  0.00     0.031 C 
ATOM     44  C   UNL A   1      45.085  25.624  26.751  1.00  0.00     0.029 A 
ATOM     45  C   UNL A   1      45.049  27.003  27.225  1.00  0.00     0.049 A 
ATOM     46  H   UNL A   1      43.516  27.932  28.292  1.00  0.00     0.167 HD
ATOM     47  C   UNL A   1      40.029  29.901  30.097  1.00  0.00     0.034 A 
ATOM     48  C   UNL A   1      46.028  27.913  27.046  1.00  0.00     0.034 A 
ATOM     49  C   UNL A   1      41.080  30.888  30.097  1.00  0.00     0.049 A 
ATOM     50  C   UNL A   1      45.827  29.313  27.571  1.00  0.00     0.074 A 
ATOM     51  C   UNL A   1      41.071  32.151  30.664  1.00  0.00     0.029 A 
ATOM     52  N   UNL A   1      42.317  30.736  29.488  1.00  0.00    -0.354 N 
ATOM     53  N   UNL A   1      44.790  29.817  28.197  1.00  0.00    -0.248 NA
ATOM     54  C   UNL A   1      46.929  30.263  27.368  1.00  0.00     0.031 C 
ATOM     55  C   UNL A   1      42.274  32.788  30.337  1.00  0.00     0.029 A 
ATOM     56  C   UNL A   1      43.060  31.898  29.624  1.00  0.00     0.049 A 
ATOM     57  H   UNL A   1      42.623  29.921  29.027  1.00  0.00     0.167 HD
ATOM     58  C   UNL A   1      45.123  31.138  28.478  1.00  0.00     0.074 A 
ATOM     59  C   UNL A   1      46.464  31.347  27.973  1.00  0.00     0.031 C 
ATOM     60  C   UNL A   1      44.389  32.095  29.099  1.00  0.00     0.034 A 
BRANCH  47  61
ATOM     61  C   UNL A   1      38.681  30.295  30.642  1.00  0.00     0.023 A 
ATOM     62  C   UNL A   1      37.733  30.971  29.859  1.00  0.00     0.031 A 
ATOM     63  C   UNL A   1      38.333  29.961  31.964  1.00  0.00     0.131 A 
ATOM     64  C   UNL A   1      36.496  31.332  30.417  1.00  0.00     0.055 A 
ATOM     65  C   UNL A   1      37.079  30.268  32.494  1.00  0.00     0.041 A 
ATOM     66  F   UNL A   1      39.210  29.330  32.762  1.00  0.00    -0.206 F 
ATOM     67  C   UNL A   1      36.155  30.964  31.721  1.00  0.00     0.022 A 
BRANCH  64  68
ATOM     68  S   UNL A   1      35.370  32.365  29.441  1.00  0.00     0.124 S 
ATOM     69  O   UNL A   1      34.320  32.656  30.413  1.00  0.00    -0.237 OA
ATOM     70  O   UNL A   1      36.219  33.489  29.063  1.00  0.00    -0.237 OA
ATOM     71  O   UNL A   1      34.969  31.490  28.341  1.00  0.00    -0.744 OA
ENDBRANCH  64  68
ENDBRANCH  47  61
BRANCH  48  72
ATOM     72  C   UNL A   1      47.267  27.560  26.295  1.00  0.00     0.023 A 
ATOM     73  C   UNL A   1      47.393  27.849  24.928  1.00  0.00     0.031 A 
ATOM     74  C   UNL A   1      48.317  26.861  26.919  1.00  0.00     0.131 A 
ATOM     75  C   UNL A   1      48.512  27.394  24.215  1.00  0.00     0.055 A 
ATOM     76  C   UNL A   1      49.455  26.459  26.218  1.00  0.00     0.041 A 
ATOM     77  F   UNL A   1      48.250  26.560  28.226  1.00  0.00    -0.206 F 
ATOM     78  C   UNL A   1      49.550  26.711  24.853  1.00  0.00     0.022 A 
BRANCH  75  79
ATOM     79  S   UNL A   1      48.540  27.609  22.414  1.00  0.00     0.124 S 
ATOM     80  O   UNL A   1      47.240  28.221  22.167  1.00  0.00    -0.237 OA
ATOM     81  O   UNL A   1      49.701  28.473  22.233  1.00  0.00    -0.237 OA
ATOM     82  O   UNL A   1      48.694  26.245  21.911  1.00  0.00    -0.744 OA
ENDBRANCH  75  79
ENDBRANCH  48  72
BRANCH  60  83
ATOM     83  C   UNL A   1      45.041  33.441  29.285  1.00  0.00     0.023 A 
ATOM     84  C   UNL A   1      45.002  34.422  28.278  1.00  0.00     0.031 A 
ATOM     85  C   UNL A   1      45.717  33.743  30.480  1.00  0.00     0.131 A 
ATOM     86  C   UNL A   1      45.668  35.641  28.466  1.00  0.00     0.055 A 
ATOM     87  C   UNL A   1      46.332  34.979  30.682  1.00  0.00     0.041 A 
ATOM     88  F   UNL A   1      45.786  32.841  31.472  1.00  0.00    -0.206 F 
ATOM     89  C   UNL A   1      46.319  35.932  29.668  1.00  0.00     0.022 A 
BRANCH  86  90
ATOM     90  S   UNL A   1      45.729  36.822  27.091  1.00  0.00     0.124 S 
ATOM     91  O   UNL A   1      46.152  35.973  25.982  1.00  0.00    -0.237 OA
ATOM     92  O   UNL A   1      44.355  37.308  27.032  1.00  0.00    -0.237 OA
ATOM     93  O   UNL A   1      46.715  37.808  27.529  1.00  0.00    -0.744 OA
ENDBRANCH  86  90
ENDBRANCH  60  83
ENDBRANCH  34  35
ENDBRANCH  26  29
ENDBRANCH  24  25
ENDBRANCH  23  24
ENDBRANCH   1  23
TORSDOF 17
ENDMDL
