MODEL 1
REMARK VINA RESULT:     -12.6      0.000      0.000
REMARK SMILES Cn1c(=O)c(=O)n(C)c2cc(S(=O)(=O)N3CCC[C@H]3C(=O)NCCCCNC(=O)c3ccc(-c4c5nc(c(-c6cc(S(=O)(=O)[O-])ccc6F)c6ccc([nH]6)c(-c6cc(S(=O)(=O)[O-])ccc6F)c6nc(c(-c7cc(S(=O)(=O)[O-])ccc7F)c7ccc4[nH]7)C=C6)C=C5)cc3)ccc21
REMARK SMILES IDX 25 1 24 2 23 3 22 4 20 5 21 6 19 8 15 9 16 10 17 11 18 12
REMARK SMILES IDX 12 13 13 14 14 15 11 16 1 17 2 18 3 19 95 20 4 21 5 22 9 23
REMARK SMILES IDX 94 24 6 25 7 26 10 27 93 28 8 29 26 30 27 31 28 32 29 34
REMARK SMILES IDX 30 35 31 36 92 37 32 38 91 39 33 40 34 41 35 42 85 43 36 44
REMARK SMILES IDX 90 45 84 46 86 47 37 48 89 49 83 50 82 51 38 53 70 54 50 55
REMARK SMILES IDX 69 56 51 57 54 58 68 59 87 60 52 61 53 62 67 64 88 65 55 66
REMARK SMILES IDX 39 67 40 68 48 69 41 70 47 71 49 72 46 73 42 74 43 75 44 76
REMARK SMILES IDX 45 77 71 78 72 79 80 80 73 81 79 82 81 83 78 84 74 85 75 86
REMARK SMILES IDX 76 87 77 88 56 89 57 90 65 91 58 92 64 93 66 94 63 95 59 96
REMARK SMILES IDX 60 97 61 98 62 99
REMARK H PARENT 22 7 27 33 86 52 54 63
REMARK Flexibility Score: inf
ROOT
ATOM      1  C   UNL A   1      31.552  31.465  27.215  1.00  0.00     0.023 C 
ENDROOT
BRANCH   1   2
ATOM      2  C   UNL A   1      32.026  30.063  26.848  1.00  0.00     0.023 C 
BRANCH   2   3
ATOM      3  C   UNL A   1      32.360  29.869  25.369  1.00  0.00     0.116 C 
BRANCH   3   4
ATOM      4  N   UNL A   1      31.179  29.831  24.515  1.00  0.00    -0.355 N 
ATOM      5  C   UNL A   1      30.615  28.758  23.856  1.00  0.00     0.238 C 
ATOM      6  O   UNL A   1      29.592  28.925  23.198  1.00  0.00    -0.273 OA
ATOM      7  H   UNL A   1      30.720  30.693  24.389  1.00  0.00     0.163 HD
BRANCH   5   8
ATOM      8  C   UNL A   1      31.348  27.430  23.943  1.00  0.00     0.162 C 
ATOM      9  N   UNL A   1      30.603  26.239  24.407  1.00  0.00    -0.185 NA
ATOM     10  C   UNL A   1      30.381  25.328  23.277  1.00  0.00     0.103 C 
ATOM     11  C   UNL A   1      31.576  25.563  22.379  1.00  0.00     0.019 C 
ATOM     12  C   UNL A   1      31.874  27.042  22.551  1.00  0.00     0.032 C 
BRANCH   9  13
ATOM     13  S   UNL A   1      30.899  25.630  25.948  1.00  0.00     0.243 S 
ATOM     14  O   UNL A   1      29.618  25.363  26.562  1.00  0.00    -0.207 OA
ATOM     15  O   UNL A   1      31.886  26.478  26.587  1.00  0.00    -0.207 OA
BRANCH  13  16
ATOM     16  C   UNL A   1      31.705  24.030  25.776  1.00  0.00     0.084 A 
ATOM     17  C   UNL A   1      32.926  19.100  25.117  1.00  0.00     0.154 C 
ATOM     18  N   UNL A   1      33.694  20.339  25.122  1.00  0.00    -0.305 N 
ATOM     19  C   UNL A   1      35.069  20.256  24.932  1.00  0.00     0.316 A 
ATOM     20  C   UNL A   1      33.046  21.583  25.332  1.00  0.00     0.068 A 
ATOM     21  O   UNL A   1      35.672  19.196  24.790  1.00  0.00    -0.263 OA
ATOM     22  C   UNL A   1      35.865  21.568  24.893  1.00  0.00     0.316 A 
ATOM     23  C   UNL A   1      33.776  22.785  25.367  1.00  0.00     0.069 A 
ATOM     24  C   UNL A   1      31.661  21.629  25.505  1.00  0.00     0.030 A 
ATOM     25  O   UNL A   1      37.070  21.512  24.658  1.00  0.00    -0.263 OA
ATOM     26  N   UNL A   1      35.178  22.761  25.127  1.00  0.00    -0.305 N 
ATOM     27  C   UNL A   1      33.097  24.000  25.609  1.00  0.00     0.050 A 
ATOM     28  C   UNL A   1      31.000  22.836  25.710  1.00  0.00     0.024 A 
ATOM     29  C   UNL A   1      35.935  24.002  25.073  1.00  0.00     0.154 C 
ENDBRANCH  13  16
ENDBRANCH   9  13
ENDBRANCH   5   8
ENDBRANCH   3   4
ENDBRANCH   2   3
ENDBRANCH   1   2
BRANCH   1  30
ATOM     30  C   UNL A   1      32.435  32.593  26.703  1.00  0.00     0.116 C 
BRANCH  30  31
ATOM     31  N   UNL A   1      32.334  33.818  27.485  1.00  0.00    -0.352 N 
ATOM     32  C   UNL A   1      33.192  34.271  28.465  1.00  0.00     0.251 C 
ATOM     33  H   UNL A   1      31.560  34.393  27.289  1.00  0.00     0.163 HD
ATOM     34  O   UNL A   1      32.919  35.278  29.109  1.00  0.00    -0.269 OA
BRANCH  32  35
ATOM     35  C   UNL A   1      34.410  33.485  28.760  1.00  0.00     0.039 A 
ATOM     36  C   UNL A   1      34.326  32.335  29.546  1.00  0.00     0.014 A 
ATOM     37  C   UNL A   1      35.654  33.961  28.338  1.00  0.00     0.014 A 
ATOM     38  C   UNL A   1      35.483  31.788  30.081  1.00  0.00     0.010 A 
ATOM     39  C   UNL A   1      36.821  33.340  28.794  1.00  0.00     0.010 A 
ATOM     40  C   UNL A   1      36.747  32.288  29.720  1.00  0.00    -0.014 A 
BRANCH  40  41
ATOM     41  C   UNL A   1      37.963  31.689  30.336  1.00  0.00     0.031 A 
ATOM     42  C   UNL A   1      38.367  32.026  31.747  1.00  0.00     0.074 A 
ATOM     43  C   UNL A   1      38.659  30.770  29.636  1.00  0.00     0.049 A 
ATOM     44  N   UNL A   1      39.355  31.541  32.456  1.00  0.00    -0.248 NA
ATOM     45  C   UNL A   1      37.565  33.035  32.460  1.00  0.00     0.031 C 
ATOM     46  C   UNL A   1      38.350  30.359  28.266  1.00  0.00     0.029 A 
ATOM     47  N   UNL A   1      39.733  29.989  29.983  1.00  0.00    -0.354 N 
ATOM     48  C   UNL A   1      39.303  32.189  33.685  1.00  0.00     0.074 A 
ATOM     49  C   UNL A   1      38.209  33.133  33.615  1.00  0.00     0.031 C 
ATOM     50  C   UNL A   1      39.158  29.350  27.918  1.00  0.00     0.029 A 
ATOM     51  C   UNL A   1      40.099  29.093  29.004  1.00  0.00     0.049 A 
ATOM     52  H   UNL A   1      40.196  30.063  30.848  1.00  0.00     0.167 HD
ATOM     53  C   UNL A   1      40.087  32.003  34.775  1.00  0.00     0.034 A 
ATOM     54  C   UNL A   1      41.082  28.169  28.977  1.00  0.00     0.034 A 
ATOM     55  C   UNL A   1      41.160  31.042  34.837  1.00  0.00     0.049 A 
ATOM     56  C   UNL A   1      41.958  28.009  30.191  1.00  0.00     0.074 A 
ATOM     57  C   UNL A   1      41.999  30.770  35.904  1.00  0.00     0.029 A 
ATOM     58  N   UNL A   1      41.537  30.191  33.807  1.00  0.00    -0.354 N 
ATOM     59  N   UNL A   1      41.875  28.613  31.353  1.00  0.00    -0.248 NA
ATOM     60  C   UNL A   1      43.064  27.047  30.093  1.00  0.00     0.031 C 
ATOM     61  C   UNL A   1      42.919  29.802  35.500  1.00  0.00     0.029 A 
ATOM     62  C   UNL A   1      42.611  29.412  34.207  1.00  0.00     0.049 A 
ATOM     63  H   UNL A   1      41.104  30.148  32.924  1.00  0.00     0.167 HD
ATOM     64  C   UNL A   1      42.904  28.089  32.131  1.00  0.00     0.074 A 
ATOM     65  C   UNL A   1      43.575  27.097  31.317  1.00  0.00     0.031 C 
ATOM     66  C   UNL A   1      43.264  28.411  33.399  1.00  0.00     0.034 A 
BRANCH  53  67
ATOM     67  C   UNL A   1      39.824  32.825  36.014  1.00  0.00     0.023 A 
ATOM     68  C   UNL A   1      38.950  32.342  37.007  1.00  0.00     0.031 A 
ATOM     69  C   UNL A   1      40.311  34.138  36.139  1.00  0.00     0.131 A 
ATOM     70  C   UNL A   1      38.554  33.183  38.055  1.00  0.00     0.055 A 
ATOM     71  C   UNL A   1      39.945  34.957  37.208  1.00  0.00     0.041 A 
ATOM     72  F   UNL A   1      41.149  34.643  35.219  1.00  0.00    -0.206 F 
ATOM     73  C   UNL A   1      39.051  34.486  38.164  1.00  0.00     0.022 A 
BRANCH  70  74
ATOM     74  S   UNL A   1      37.327  32.646  39.279  1.00  0.00     0.124 S 
ATOM     75  O   UNL A   1      37.536  33.611  40.356  1.00  0.00    -0.237 OA
ATOM     76  O   UNL A   1      36.075  32.795  38.541  1.00  0.00    -0.237 OA
ATOM     77  O   UNL A   1      37.718  31.276  39.590  1.00  0.00    -0.744 OA
ENDBRANCH  70  74
ENDBRANCH  53  67
BRANCH  54  78
ATOM     78  C   UNL A   1      41.236  27.301  27.773  1.00  0.00     0.023 A 
ATOM     79  C   UNL A   1      40.847  25.949  27.796  1.00  0.00     0.031 A 
ATOM     80  C   UNL A   1      41.870  27.784  26.616  1.00  0.00     0.131 A 
ATOM     81  C   UNL A   1      41.166  25.112  26.719  1.00  0.00     0.055 A 
ATOM     82  C   UNL A   1      42.115  26.965  25.513  1.00  0.00     0.041 A 
ATOM     83  F   UNL A   1      42.272  29.063  26.550  1.00  0.00    -0.206 F 
ATOM     84  C   UNL A   1      41.781  25.616  25.570  1.00  0.00     0.022 A 
BRANCH  81  85
ATOM     85  S   UNL A   1      40.930  23.317  26.841  1.00  0.00     0.124 S 
ATOM     86  O   UNL A   1      41.240  23.064  28.244  1.00  0.00    -0.237 OA
ATOM     87  O   UNL A   1      39.524  23.174  26.467  1.00  0.00    -0.237 OA
ATOM     88  O   UNL A   1      41.882  22.779  25.875  1.00  0.00    -0.744 OA
ENDBRANCH  81  85
ENDBRANCH  54  78
BRANCH  66  89
ATOM     89  C   UNL A   1      44.437  27.691  34.020  1.00  0.00     0.023 A 
ATOM     90  C   UNL A   1      44.224  26.536  34.796  1.00  0.00     0.031 A 
ATOM     91  C   UNL A   1      45.735  28.228  33.969  1.00  0.00     0.131 A 
ATOM     92  C   UNL A   1      45.283  25.979  35.523  1.00  0.00     0.055 A 
ATOM     93  C   UNL A   1      46.799  27.641  34.656  1.00  0.00     0.041 A 
ATOM     94  F   UNL A   1      45.988  29.336  33.253  1.00  0.00    -0.206 F 
ATOM     95  C   UNL A   1      46.571  26.520  35.450  1.00  0.00     0.022 A 
BRANCH  92  96
ATOM     96  S   UNL A   1      45.011  24.594  36.663  1.00  0.00     0.124 S 
ATOM     97  O   UNL A   1      43.562  24.424  36.589  1.00  0.00    -0.237 OA
ATOM     98  O   UNL A   1      45.797  23.529  36.046  1.00  0.00    -0.237 OA
ATOM     99  O   UNL A   1      45.516  25.085  37.942  1.00  0.00    -0.744 OA
ENDBRANCH  92  96
ENDBRANCH  66  89
ENDBRANCH  40  41
ENDBRANCH  32  35
ENDBRANCH  30  31
ENDBRANCH   1  30
TORSDOF 16
ENDMDL
MODEL 2
REMARK VINA RESULT:     -12.6      1.531      1.852
REMARK SMILES Cn1c(=O)c(=O)n(C)c2cc(S(=O)(=O)N3CCC[C@H]3C(=O)NCCCCNC(=O)c3ccc(-c4c5nc(c(-c6cc(S(=O)(=O)[O-])ccc6F)c6ccc([nH]6)c(-c6cc(S(=O)(=O)[O-])ccc6F)c6nc(c(-c7cc(S(=O)(=O)[O-])ccc7F)c7ccc4[nH]7)C=C6)C=C5)cc3)ccc21
REMARK SMILES IDX 25 1 24 2 23 3 22 4 20 5 21 6 19 8 15 9 16 10 17 11 18 12
REMARK SMILES IDX 12 13 13 14 14 15 11 16 1 17 2 18 3 19 95 20 4 21 5 22 9 23
REMARK SMILES IDX 94 24 6 25 7 26 10 27 93 28 8 29 26 30 27 31 28 32 29 34
REMARK SMILES IDX 30 35 31 36 92 37 32 38 91 39 33 40 34 41 35 42 85 43 36 44
REMARK SMILES IDX 90 45 84 46 86 47 37 48 89 49 83 50 82 51 38 53 70 54 50 55
REMARK SMILES IDX 69 56 51 57 54 58 68 59 87 60 52 61 53 62 67 64 88 65 55 66
REMARK SMILES IDX 39 67 40 68 48 69 41 70 47 71 49 72 46 73 42 74 43 75 44 76
REMARK SMILES IDX 45 77 71 78 72 79 80 80 73 81 79 82 81 83 78 84 74 85 75 86
REMARK SMILES IDX 76 87 77 88 56 89 57 90 65 91 58 92 64 93 66 94 63 95 59 96
REMARK SMILES IDX 60 97 61 98 62 99
REMARK H PARENT 22 7 27 33 86 52 54 63
REMARK Flexibility Score: inf
ROOT
ATOM      1  C   UNL A   1      32.553  30.939  27.260  1.00  0.00     0.023 C 
ENDROOT
BRANCH   1   2
ATOM      2  C   UNL A   1      33.184  29.563  27.081  1.00  0.00     0.023 C 
BRANCH   2   3
ATOM      3  C   UNL A   1      33.332  29.113  25.627  1.00  0.00     0.116 C 
BRANCH   3   4
ATOM      4  N   UNL A   1      32.159  29.405  24.814  1.00  0.00    -0.355 N 
ATOM      5  C   UNL A   1      31.339  28.535  24.125  1.00  0.00     0.238 C 
ATOM      6  O   UNL A   1      30.371  28.976  23.511  1.00  0.00    -0.273 OA
ATOM      7  H   UNL A   1      31.918  30.357  24.744  1.00  0.00     0.163 HD
BRANCH   5   8
ATOM      8  C   UNL A   1      31.733  27.067  24.124  1.00  0.00     0.162 C 
ATOM      9  N   UNL A   1      30.747  26.069  24.594  1.00  0.00    -0.185 NA
ATOM     10  C   UNL A   1      30.254  25.291  23.451  1.00  0.00     0.103 C 
ATOM     11  C   UNL A   1      31.423  25.274  22.490  1.00  0.00     0.019 C 
ATOM     12  C   UNL A   1      32.077  26.630  22.691  1.00  0.00     0.032 C 
BRANCH   9  13
ATOM     13  S   UNL A   1      30.964  25.337  26.093  1.00  0.00     0.243 S 
ATOM     14  O   UNL A   1      29.661  24.937  26.575  1.00  0.00    -0.207 OA
ATOM     15  O   UNL A   1      31.842  26.178  26.884  1.00  0.00    -0.207 OA
BRANCH  13  16
ATOM     16  C   UNL A   1      31.887  23.811  25.846  1.00  0.00     0.084 A 
ATOM     17  C   UNL A   1      33.490  19.058  24.812  1.00  0.00     0.154 C 
ATOM     18  N   UNL A   1      34.171  20.327  25.037  1.00  0.00    -0.305 N 
ATOM     19  C   UNL A   1      35.561  20.339  24.999  1.00  0.00     0.316 A 
ATOM     20  C   UNL A   1      33.425  21.503  25.303  1.00  0.00     0.068 A 
ATOM     21  O   UNL A   1      36.244  19.334  24.816  1.00  0.00    -0.263 OA
ATOM     22  C   UNL A   1      36.269  21.687  25.192  1.00  0.00     0.316 A 
ATOM     23  C   UNL A   1      34.067  22.731  25.549  1.00  0.00     0.069 A 
ATOM     24  C   UNL A   1      32.028  21.457  25.319  1.00  0.00     0.030 A 
ATOM     25  O   UNL A   1      37.494  21.721  25.093  1.00  0.00    -0.263 OA
ATOM     26  N   UNL A   1      35.485  22.808  25.470  1.00  0.00    -0.305 N 
ATOM     27  C   UNL A   1      33.288  23.873  25.839  1.00  0.00     0.050 A 
ATOM     28  C   UNL A   1      31.273  22.596  25.574  1.00  0.00     0.024 A 
ATOM     29  C   UNL A   1      36.161  24.085  25.636  1.00  0.00     0.154 C 
ENDBRANCH  13  16
ENDBRANCH   9  13
ENDBRANCH   5   8
ENDBRANCH   3   4
ENDBRANCH   2   3
ENDBRANCH   1   2
BRANCH   1  30
ATOM     30  C   UNL A   1      33.536  32.099  27.256  1.00  0.00     0.116 C 
BRANCH  30  31
ATOM     31  N   UNL A   1      32.927  33.385  27.574  1.00  0.00    -0.352 N 
ATOM     32  C   UNL A   1      33.261  34.251  28.594  1.00  0.00     0.251 C 
ATOM     33  H   UNL A   1      32.190  33.670  26.989  1.00  0.00     0.163 HD
ATOM     34  O   UNL A   1      32.588  35.255  28.797  1.00  0.00    -0.269 OA
BRANCH  32  35
ATOM     35  C   UNL A   1      34.405  33.911  29.468  1.00  0.00     0.039 A 
ATOM     36  C   UNL A   1      35.681  34.388  29.164  1.00  0.00     0.014 A 
ATOM     37  C   UNL A   1      34.219  33.023  30.531  1.00  0.00     0.014 A 
ATOM     38  C   UNL A   1      36.786  33.821  29.782  1.00  0.00     0.010 A 
ATOM     39  C   UNL A   1      35.330  32.534  31.223  1.00  0.00     0.010 A 
ATOM     40  C   UNL A   1      36.628  32.880  30.815  1.00  0.00    -0.014 A 
BRANCH  40  41
ATOM     41  C   UNL A   1      37.839  32.276  31.434  1.00  0.00     0.031 A 
ATOM     42  C   UNL A   1      38.297  32.687  32.809  1.00  0.00     0.074 A 
ATOM     43  C   UNL A   1      38.480  31.288  30.777  1.00  0.00     0.049 A 
ATOM     44  N   UNL A   1      39.289  32.211  33.520  1.00  0.00    -0.248 NA
ATOM     45  C   UNL A   1      37.555  33.769  33.476  1.00  0.00     0.031 C 
ATOM     46  C   UNL A   1      38.115  30.802  29.445  1.00  0.00     0.029 A 
ATOM     47  N   UNL A   1      39.535  30.491  31.143  1.00  0.00    -0.354 N 
ATOM     48  C   UNL A   1      39.298  32.938  34.705  1.00  0.00     0.074 A 
ATOM     49  C   UNL A   1      38.237  33.916  34.604  1.00  0.00     0.031 C 
ATOM     50  C   UNL A   1      38.875  29.743  29.141  1.00  0.00     0.029 A 
ATOM     51  C   UNL A   1      39.838  29.520  30.215  1.00  0.00     0.049 A 
ATOM     52  H   UNL A   1      40.027  30.602  31.988  1.00  0.00     0.167 HD
ATOM     53  C   UNL A   1      40.107  32.792  35.783  1.00  0.00     0.034 A 
ATOM     54  C   UNL A   1      40.786  28.559  30.221  1.00  0.00     0.034 A 
ATOM     55  C   UNL A   1      41.146  31.797  35.877  1.00  0.00     0.049 A 
ATOM     56  C   UNL A   1      41.692  28.444  31.418  1.00  0.00     0.074 A 
ATOM     57  C   UNL A   1      42.007  31.562  36.935  1.00  0.00     0.029 A 
ATOM     58  N   UNL A   1      41.460  30.868  34.895  1.00  0.00    -0.354 N 
ATOM     59  N   UNL A   1      41.666  29.125  32.540  1.00  0.00    -0.248 NA
ATOM     60  C   UNL A   1      42.759  27.436  31.352  1.00  0.00     0.031 C 
ATOM     61  C   UNL A   1      42.878  30.536  36.570  1.00  0.00     0.029 A 
ATOM     62  C   UNL A   1      42.517  30.076  35.314  1.00  0.00     0.049 A 
ATOM     63  H   UNL A   1      41.000  30.785  34.029  1.00  0.00     0.167 HD
ATOM     64  C   UNL A   1      42.698  28.613  33.321  1.00  0.00     0.074 A 
ATOM     65  C   UNL A   1      43.308  27.546  32.555  1.00  0.00     0.031 C 
ATOM     66  C   UNL A   1      43.109  29.001  34.555  1.00  0.00     0.034 A 
BRANCH  53  67
ATOM     67  C   UNL A   1      39.911  33.701  36.972  1.00  0.00     0.023 A 
ATOM     68  C   UNL A   1      39.238  33.230  38.115  1.00  0.00     0.031 A 
ATOM     69  C   UNL A   1      40.252  35.064  36.915  1.00  0.00     0.131 A 
ATOM     70  C   UNL A   1      38.884  34.125  39.133  1.00  0.00     0.055 A 
ATOM     71  C   UNL A   1      39.933  35.943  37.953  1.00  0.00     0.041 A 
ATOM     72  F   UNL A   1      40.897  35.561  35.848  1.00  0.00    -0.206 F 
ATOM     73  C   UNL A   1      39.233  35.478  39.061  1.00  0.00     0.022 A 
BRANCH  70  74
ATOM     74  S   UNL A   1      37.899  33.586  40.558  1.00  0.00     0.124 S 
ATOM     75  O   UNL A   1      37.727  34.837  41.294  1.00  0.00    -0.237 OA
ATOM     76  O   UNL A   1      36.693  33.069  39.917  1.00  0.00    -0.237 OA
ATOM     77  O   UNL A   1      38.743  32.593  41.213  1.00  0.00    -0.744 OA
ENDBRANCH  70  74
ENDBRANCH  53  67
BRANCH  54  78
ATOM     78  C   UNL A   1      40.872  27.611  29.072  1.00  0.00     0.023 A 
ATOM     79  C   UNL A   1      41.810  27.803  28.040  1.00  0.00     0.031 A 
ATOM     80  C   UNL A   1      39.951  26.560  28.938  1.00  0.00     0.131 A 
ATOM     81  C   UNL A   1      41.753  27.008  26.889  1.00  0.00     0.055 A 
ATOM     82  C   UNL A   1      39.949  25.719  27.823  1.00  0.00     0.041 A 
ATOM     83  F   UNL A   1      39.028  26.343  29.888  1.00  0.00    -0.206 F 
ATOM     84  C   UNL A   1      40.841  25.955  26.782  1.00  0.00     0.022 A 
BRANCH  81  85
ATOM     85  S   UNL A   1      42.759  27.413  25.434  1.00  0.00     0.124 S 
ATOM     86  O   UNL A   1      42.057  28.571  24.892  1.00  0.00    -0.237 OA
ATOM     87  O   UNL A   1      44.061  27.688  26.038  1.00  0.00    -0.237 OA
ATOM     88  O   UNL A   1      42.698  26.200  24.625  1.00  0.00    -0.744 OA
ENDBRANCH  81  85
ENDBRANCH  54  78
BRANCH  66  89
ATOM     89  C   UNL A   1      44.273  28.278  35.188  1.00  0.00     0.023 A 
ATOM     90  C   UNL A   1      44.041  27.274  36.147  1.00  0.00     0.031 A 
ATOM     91  C   UNL A   1      45.599  28.683  34.958  1.00  0.00     0.131 A 
ATOM     92  C   UNL A   1      45.115  26.737  36.869  1.00  0.00     0.055 A 
ATOM     93  C   UNL A   1      46.671  28.110  35.644  1.00  0.00     0.041 A 
ATOM     94  F   UNL A   1      45.872  29.647  34.062  1.00  0.00    -0.206 F 
ATOM     95  C   UNL A   1      46.429  27.144  36.616  1.00  0.00     0.022 A 
BRANCH  92  96
ATOM     96  S   UNL A   1      44.839  25.565  38.226  1.00  0.00     0.124 S 
ATOM     97  O   UNL A   1      44.244  24.429  37.526  1.00  0.00    -0.237 OA
ATOM     98  O   UNL A   1      46.194  25.350  38.726  1.00  0.00    -0.237 OA
ATOM     99  O   UNL A   1      43.942  26.277  39.131  1.00  0.00    -0.744 OA
ENDBRANCH  92  96
ENDBRANCH  66  89
ENDBRANCH  40  41
ENDBRANCH  32  35
ENDBRANCH  30  31
ENDBRANCH   1  30
TORSDOF 16
ENDMDL
MODEL 3
REMARK VINA RESULT:     -12.5      1.723      7.612
REMARK SMILES Cn1c(=O)c(=O)n(C)c2cc(S(=O)(=O)N3CCC[C@H]3C(=O)NCCCCNC(=O)c3ccc(-c4c5nc(c(-c6cc(S(=O)(=O)[O-])ccc6F)c6ccc([nH]6)c(-c6cc(S(=O)(=O)[O-])ccc6F)c6nc(c(-c7cc(S(=O)(=O)[O-])ccc7F)c7ccc4[nH]7)C=C6)C=C5)cc3)ccc21
REMARK SMILES IDX 25 1 24 2 23 3 22 4 20 5 21 6 19 8 15 9 16 10 17 11 18 12
REMARK SMILES IDX 12 13 13 14 14 15 11 16 1 17 2 18 3 19 95 20 4 21 5 22 9 23
REMARK SMILES IDX 94 24 6 25 7 26 10 27 93 28 8 29 26 30 27 31 28 32 29 34
REMARK SMILES IDX 30 35 31 36 92 37 32 38 91 39 33 40 34 41 35 42 85 43 36 44
REMARK SMILES IDX 90 45 84 46 86 47 37 48 89 49 83 50 82 51 38 53 70 54 50 55
REMARK SMILES IDX 69 56 51 57 54 58 68 59 87 60 52 61 53 62 67 64 88 65 55 66
REMARK SMILES IDX 39 67 40 68 48 69 41 70 47 71 49 72 46 73 42 74 43 75 44 76
REMARK SMILES IDX 45 77 71 78 72 79 80 80 73 81 79 82 81 83 78 84 74 85 75 86
REMARK SMILES IDX 76 87 77 88 56 89 57 90 65 91 58 92 64 93 66 94 63 95 59 96
REMARK SMILES IDX 60 97 61 98 62 99
REMARK H PARENT 22 7 27 33 86 52 54 63
REMARK Flexibility Score: inf
ROOT
ATOM      1  C   UNL A   1      32.474  31.411  27.296  1.00  0.00     0.023 C 
ENDROOT
BRANCH   1   2
ATOM      2  C   UNL A   1      33.072  30.022  27.107  1.00  0.00     0.023 C 
BRANCH   2   3
ATOM      3  C   UNL A   1      33.150  29.553  25.654  1.00  0.00     0.116 C 
BRANCH   3   4
ATOM      4  N   UNL A   1      31.948  29.857  24.888  1.00  0.00    -0.355 N 
ATOM      5  C   UNL A   1      31.135  29.004  24.170  1.00  0.00     0.238 C 
ATOM      6  O   UNL A   1      30.140  29.453  23.607  1.00  0.00    -0.273 OA
ATOM      7  H   UNL A   1      31.680  30.804  24.880  1.00  0.00     0.163 HD
BRANCH   5   8
ATOM      8  C   UNL A   1      31.569  27.552  24.074  1.00  0.00     0.162 C 
ATOM      9  N   UNL A   1      30.687  26.510  24.646  1.00  0.00    -0.185 NA
ATOM     10  C   UNL A   1      30.065  25.743  23.560  1.00  0.00     0.103 C 
ATOM     11  C   UNL A   1      31.090  25.788  22.448  1.00  0.00     0.019 C 
ATOM     12  C   UNL A   1      31.725  27.160  22.595  1.00  0.00     0.032 C 
BRANCH   9  13
ATOM     13  S   UNL A   1      31.132  25.750  26.080  1.00  0.00     0.243 S 
ATOM     14  O   UNL A   1      30.105  24.783  26.396  1.00  0.00    -0.207 OA
ATOM     15  O   UNL A   1      31.530  26.772  27.028  1.00  0.00    -0.207 OA
BRANCH  13  16
ATOM     16  C   UNL A   1      32.627  24.797  25.773  1.00  0.00     0.084 A 
ATOM     17  C   UNL A   1      37.404  22.995  25.368  1.00  0.00     0.154 C 
ATOM     18  N   UNL A   1      36.083  22.388  25.262  1.00  0.00    -0.305 N 
ATOM     19  C   UNL A   1      36.009  21.030  24.971  1.00  0.00     0.316 A 
ATOM     20  C   UNL A   1      34.917  23.175  25.435  1.00  0.00     0.068 A 
ATOM     21  O   UNL A   1      36.995  20.324  24.770  1.00  0.00    -0.263 OA
ATOM     22  C   UNL A   1      34.617  20.388  24.906  1.00  0.00     0.316 A 
ATOM     23  C   UNL A   1      33.634  22.610  25.310  1.00  0.00     0.069 A 
ATOM     24  C   UNL A   1      35.029  24.534  25.741  1.00  0.00     0.030 A 
ATOM     25  O   UNL A   1      34.542  19.176  24.717  1.00  0.00    -0.263 OA
ATOM     26  N   UNL A   1      33.503  21.216  25.065  1.00  0.00    -0.305 N 
ATOM     27  C   UNL A   1      32.497  23.435  25.462  1.00  0.00     0.050 A 
ATOM     28  C   UNL A   1      33.901  25.328  25.919  1.00  0.00     0.024 A 
ATOM     29  C   UNL A   1      32.188  20.598  25.018  1.00  0.00     0.154 C 
ENDBRANCH  13  16
ENDBRANCH   9  13
ENDBRANCH   5   8
ENDBRANCH   3   4
ENDBRANCH   2   3
ENDBRANCH   1   2
BRANCH   1  30
ATOM     30  C   UNL A   1      33.488  32.544  27.340  1.00  0.00     0.116 C 
BRANCH  30  31
ATOM     31  N   UNL A   1      32.912  33.833  27.703  1.00  0.00    -0.352 N 
ATOM     32  C   UNL A   1      33.220  34.621  28.792  1.00  0.00     0.251 C 
ATOM     33  H   UNL A   1      32.220  34.183  27.097  1.00  0.00     0.163 HD
ATOM     34  O   UNL A   1      32.575  35.639  29.019  1.00  0.00    -0.269 OA
BRANCH  32  35
ATOM     35  C   UNL A   1      34.298  34.182  29.704  1.00  0.00     0.039 A 
ATOM     36  C   UNL A   1      35.628  34.487  29.409  1.00  0.00     0.014 A 
ATOM     37  C   UNL A   1      33.986  33.370  30.797  1.00  0.00     0.014 A 
ATOM     38  C   UNL A   1      36.645  33.816  30.075  1.00  0.00     0.010 A 
ATOM     39  C   UNL A   1      35.017  32.779  31.534  1.00  0.00     0.010 A 
ATOM     40  C   UNL A   1      36.354  32.946  31.140  1.00  0.00    -0.014 A 
BRANCH  40  41
ATOM     41  C   UNL A   1      37.472  32.226  31.810  1.00  0.00     0.031 A 
ATOM     42  C   UNL A   1      38.215  31.120  31.110  1.00  0.00     0.074 A 
ATOM     43  C   UNL A   1      37.867  32.637  33.032  1.00  0.00     0.049 A 
ATOM     44  N   UNL A   1      39.256  30.440  31.524  1.00  0.00    -0.248 NA
ATOM     45  C   UNL A   1      37.738  30.719  29.776  1.00  0.00     0.031 C 
ATOM     46  C   UNL A   1      37.226  33.708  33.798  1.00  0.00     0.029 A 
ATOM     47  N   UNL A   1      38.914  32.243  33.827  1.00  0.00    -0.354 N 
ATOM     48  C   UNL A   1      39.547  29.529  30.516  1.00  0.00     0.074 A 
ATOM     49  C   UNL A   1      38.552  29.714  29.483  1.00  0.00     0.031 C 
ATOM     50  C   UNL A   1      37.937  33.939  34.908  1.00  0.00     0.029 A 
ATOM     51  C   UNL A   1      39.037  32.983  34.981  1.00  0.00     0.049 A 
ATOM     52  H   UNL A   1      39.518  31.502  33.593  1.00  0.00     0.167 HD
ATOM     53  C   UNL A   1      40.562  28.632  30.451  1.00  0.00     0.034 A 
ATOM     54  C   UNL A   1      39.931  32.904  35.988  1.00  0.00     0.034 A 
ATOM     55  C   UNL A   1      41.560  28.475  31.479  1.00  0.00     0.049 A 
ATOM     56  C   UNL A   1      41.027  31.874  35.904  1.00  0.00     0.074 A 
ATOM     57  C   UNL A   1      42.636  27.604  31.496  1.00  0.00     0.029 A 
ATOM     58  N   UNL A   1      41.620  29.204  32.659  1.00  0.00    -0.354 N 
ATOM     59  N   UNL A   1      41.301  31.040  34.929  1.00  0.00    -0.248 NA
ATOM     60  C   UNL A   1      41.933  31.768  37.056  1.00  0.00     0.031 C 
ATOM     61  C   UNL A   1      43.308  27.762  32.708  1.00  0.00     0.029 A 
ATOM     62  C   UNL A   1      42.700  28.784  33.419  1.00  0.00     0.049 A 
ATOM     63  H   UNL A   1      40.989  29.914  32.916  1.00  0.00     0.167 HD
ATOM     64  C   UNL A   1      42.423  30.326  35.341  1.00  0.00     0.074 A 
ATOM     65  C   UNL A   1      42.793  30.848  36.640  1.00  0.00     0.031 C 
ATOM     66  C   UNL A   1      43.076  29.321  34.705  1.00  0.00     0.034 A 
BRANCH  53  67
ATOM     67  C   UNL A   1      40.682  27.751  29.231  1.00  0.00     0.023 A 
ATOM     68  C   UNL A   1      41.595  28.081  28.212  1.00  0.00     0.031 A 
ATOM     69  C   UNL A   1      39.795  26.683  29.009  1.00  0.00     0.131 A 
ATOM     70  C   UNL A   1      41.568  27.380  26.998  1.00  0.00     0.055 A 
ATOM     71  C   UNL A   1      39.802  25.961  27.814  1.00  0.00     0.041 A 
ATOM     72  F   UNL A   1      38.907  26.327  29.952  1.00  0.00    -0.206 F 
ATOM     73  C   UNL A   1      40.681  26.319  26.796  1.00  0.00     0.022 A 
BRANCH  70  74
ATOM     74  S   UNL A   1      42.635  27.861  25.611  1.00  0.00     0.124 S 
ATOM     75  O   UNL A   1      42.569  26.676  24.759  1.00  0.00    -0.237 OA
ATOM     76  O   UNL A   1      41.948  29.041  25.094  1.00  0.00    -0.237 OA
ATOM     77  O   UNL A   1      43.931  28.105  26.234  1.00  0.00    -0.744 OA
ENDBRANCH  70  74
ENDBRANCH  53  67
BRANCH  54  78
ATOM     78  C   UNL A   1      39.841  33.868  37.124  1.00  0.00     0.023 A 
ATOM     79  C   UNL A   1      39.298  33.483  38.363  1.00  0.00     0.031 A 
ATOM     80  C   UNL A   1      40.201  35.215  36.952  1.00  0.00     0.131 A 
ATOM     81  C   UNL A   1      39.058  34.447  39.350  1.00  0.00     0.055 A 
ATOM     82  C   UNL A   1      40.034  36.158  37.969  1.00  0.00     0.041 A 
ATOM     83  F   UNL A   1      40.711  35.635  35.784  1.00  0.00    -0.206 F 
ATOM     84  C   UNL A   1      39.440  35.778  39.168  1.00  0.00     0.022 A 
BRANCH  81  85
ATOM     85  S   UNL A   1      38.107  34.031  40.839  1.00  0.00     0.124 S 
ATOM     86  O   UNL A   1      36.992  33.270  40.284  1.00  0.00    -0.237 OA
ATOM     87  O   UNL A   1      39.079  33.258  41.609  1.00  0.00    -0.237 OA
ATOM     88  O   UNL A   1      37.767  35.333  41.404  1.00  0.00    -0.744 OA
ENDBRANCH  81  85
ENDBRANCH  54  78
BRANCH  66  89
ATOM     89  C   UNL A   1      44.276  28.701  35.379  1.00  0.00     0.023 A 
ATOM     90  C   UNL A   1      44.114  27.578  36.212  1.00  0.00     0.031 A 
ATOM     91  C   UNL A   1      45.544  29.305  35.318  1.00  0.00     0.131 A 
ATOM     92  C   UNL A   1      45.190  27.119  36.982  1.00  0.00     0.055 A 
ATOM     93  C   UNL A   1      46.626  28.814  36.049  1.00  0.00     0.041 A 
ATOM     94  F   UNL A   1      45.747  30.386  34.547  1.00  0.00    -0.206 F 
ATOM     95  C   UNL A   1      46.447  27.725  36.898  1.00  0.00     0.022 A 
BRANCH  92  96
ATOM     96  S   UNL A   1      44.975  25.782  38.190  1.00  0.00     0.124 S 
ATOM     97  O   UNL A   1      43.771  25.120  37.695  1.00  0.00    -0.237 OA
ATOM     98  O   UNL A   1      46.214  25.024  38.033  1.00  0.00    -0.237 OA
ATOM     99  O   UNL A   1      44.824  26.478  39.464  1.00  0.00    -0.744 OA
ENDBRANCH  92  96
ENDBRANCH  66  89
ENDBRANCH  40  41
ENDBRANCH  32  35
ENDBRANCH  30  31
ENDBRANCH   1  30
TORSDOF 16
ENDMDL
