MODEL 1
REMARK VINA RESULT:     -10.1      0.000      0.000
REMARK SMILES CCC[C@]1(C(=O)NCCCCNC(=O)c2ccc(-c3c4nc(c(-c5cc(S(=O)(=O)[O-])ccc5F)c5ccc([nH]5)c(-c5cc(S(=O)(=O)[O-])ccc5F)c5nc(c(-c6cc(S(=O)(=O)[O-])ccc6F)c6ccc3[nH]6)C=C5)C=C4)cc2)CCCN(C(=O)[C@H](C[NH3+])CC(C)C)C1
REMARK SMILES IDX 9 1 8 2 7 3 5 4 6 5 4 7 78 8 91 9 79 10 81 11 80 12 3 13
REMARK SMILES IDX 2 14 1 15 82 16 83 17 84 18 87 19 88 20 89 21 90 22 85 23
REMARK SMILES IDX 86 24 10 28 11 29 12 30 13 31 14 33 15 34 16 35 77 36 17 37
REMARK SMILES IDX 76 38 18 39 19 40 20 41 70 42 21 43 75 44 69 45 71 46 22 47
REMARK SMILES IDX 74 48 68 49 67 50 23 52 55 53 35 54 54 55 36 56 39 57 53 58
REMARK SMILES IDX 72 59 37 60 38 61 52 63 73 64 40 65 24 66 25 67 33 68 26 69
REMARK SMILES IDX 32 70 34 71 31 72 27 73 28 74 29 75 30 76 56 77 57 78 65 79
REMARK SMILES IDX 58 80 64 81 66 82 63 83 59 84 60 85 61 86 62 87 41 88 42 89
REMARK SMILES IDX 50 90 43 91 49 92 51 93 48 94 44 95 45 96 46 97 47 98
REMARK H PARENT 7 6 86 25 86 26 86 27 12 32 71 51 39 62
REMARK Flexibility Score: inf
ROOT
ATOM      1  C   UNL A   1      32.353  29.146  24.959  1.00  0.00     0.023 C 
ENDROOT
BRANCH   1   2
ATOM      2  C   UNL A   1      31.299  28.239  25.590  1.00  0.00     0.116 C 
BRANCH   2   3
ATOM      3  N   UNL A   1      30.519  27.528  24.589  1.00  0.00    -0.356 N 
ATOM      4  C   UNL A   1      30.581  26.245  24.121  1.00  0.00     0.228 C 
ATOM      5  O   UNL A   1      29.780  25.951  23.230  1.00  0.00    -0.274 OA
ATOM      6  H   UNL A   1      29.814  28.072  24.171  1.00  0.00     0.163 HD
BRANCH   4   7
ATOM      7  C   UNL A   1      31.594  25.213  24.675  1.00  0.00     0.067 C 
ATOM      8  C   UNL A   1      31.387  25.042  26.202  1.00  0.00     0.020 C 
ATOM      9  C   UNL A   1      31.399  23.893  23.859  1.00  0.00     0.136 C 
ATOM     10  C   UNL A   1      31.936  23.730  26.751  1.00  0.00     0.023 C 
ATOM     11  N   UNL A   1      31.927  22.705  24.555  1.00  0.00    -0.341 N 
ATOM     12  C   UNL A   1      31.406  22.582  25.910  1.00  0.00     0.119 C 
BRANCH   7  13
ATOM     13  C   UNL A   1      33.063  25.675  24.357  1.00  0.00     0.018 C 
BRANCH  13  14
ATOM     14  C   UNL A   1      33.564  25.582  22.907  1.00  0.00    -0.002 C 
ATOM     15  C   UNL A   1      33.558  26.919  22.174  1.00  0.00     0.004 C 
ENDBRANCH  13  14
ENDBRANCH   7  13
BRANCH  11  16
ATOM     16  C   UNL A   1      32.741  21.844  23.834  1.00  0.00     0.231 C 
ATOM     17  O   UNL A   1      32.415  21.577  22.666  1.00  0.00    -0.274 OA
BRANCH  16  18
ATOM     18  C   UNL A   1      34.130  21.319  24.308  1.00  0.00     0.133 C 
BRANCH  18  19
ATOM     19  C   UNL A   1      34.994  22.212  25.208  1.00  0.00     0.022 C 
BRANCH  19  20
ATOM     20  C   UNL A   1      35.846  23.332  24.582  1.00  0.00    -0.016 C 
ATOM     21  C   UNL A   1      36.938  23.810  25.538  1.00  0.00     0.007 C 
ATOM     22  C   UNL A   1      36.491  22.795  23.297  1.00  0.00     0.007 C 
ENDBRANCH  19  20
ENDBRANCH  18  19
BRANCH  18  23
ATOM     23  C   UNL A   1      33.913  19.919  24.949  1.00  0.00     0.272 C 
BRANCH  23  24
ATOM     24  N   UNL A   1      33.032  19.060  24.147  1.00  0.00    -0.357 N 
ATOM     25  H   UNL A   1      32.989  19.414  23.191  1.00  0.00     0.344 HD
ATOM     26  H   UNL A   1      32.096  19.060  24.553  1.00  0.00     0.344 HD
ATOM     27  H   UNL A   1      33.398  18.108  24.141  1.00  0.00     0.344 HD
ENDBRANCH  23  24
ENDBRANCH  18  23
ENDBRANCH  16  18
ENDBRANCH  11  16
ENDBRANCH   4   7
ENDBRANCH   2   3
ENDBRANCH   1   2
BRANCH   1  28
ATOM     28  C   UNL A   1      33.704  29.120  25.664  1.00  0.00     0.023 C 
BRANCH  28  29
ATOM     29  C   UNL A   1      33.638  29.241  27.181  1.00  0.00     0.116 C 
BRANCH  29  30
ATOM     30  N   UNL A   1      33.609  30.618  27.650  1.00  0.00    -0.352 N 
ATOM     31  C   UNL A   1      34.567  31.286  28.381  1.00  0.00     0.251 C 
ATOM     32  H   UNL A   1      32.805  31.137  27.418  1.00  0.00     0.163 HD
ATOM     33  O   UNL A   1      34.346  32.411  28.805  1.00  0.00    -0.269 OA
BRANCH  31  34
ATOM     34  C   UNL A   1      35.841  30.597  28.672  1.00  0.00     0.039 A 
ATOM     35  C   UNL A   1      36.989  30.974  27.973  1.00  0.00     0.014 A 
ATOM     36  C   UNL A   1      35.907  29.634  29.683  1.00  0.00     0.014 A 
ATOM     37  C   UNL A   1      38.221  30.428  28.336  1.00  0.00     0.010 A 
ATOM     38  C   UNL A   1      37.143  29.155  30.095  1.00  0.00     0.010 A 
ATOM     39  C   UNL A   1      38.314  29.542  29.422  1.00  0.00    -0.014 A 
BRANCH  39  40
ATOM     40  C   UNL A   1      39.619  28.985  29.855  1.00  0.00     0.031 A 
ATOM     41  C   UNL A   1      40.369  29.638  30.984  1.00  0.00     0.074 A 
ATOM     42  C   UNL A   1      40.155  27.939  29.196  1.00  0.00     0.049 A 
ATOM     43  N   UNL A   1      41.554  29.361  31.463  1.00  0.00    -0.248 NA
ATOM     44  C   UNL A   1      39.711  30.782  31.634  1.00  0.00     0.031 C 
ATOM     45  C   UNL A   1      39.545  27.256  28.052  1.00  0.00     0.029 A 
ATOM     46  N   UNL A   1      41.341  27.273  29.383  1.00  0.00    -0.354 N 
ATOM     47  C   UNL A   1      41.791  30.305  32.456  1.00  0.00     0.074 A 
ATOM     48  C   UNL A   1      40.656  31.204  32.458  1.00  0.00     0.031 C 
ATOM     49  C   UNL A   1      40.346  26.252  27.660  1.00  0.00     0.029 A 
ATOM     50  C   UNL A   1      41.544  26.244  28.494  1.00  0.00     0.049 A 
ATOM     51  H   UNL A   1      41.984  27.510  30.089  1.00  0.00     0.167 HD
ATOM     52  C   UNL A   1      42.843  30.397  33.307  1.00  0.00     0.034 A 
ATOM     53  C   UNL A   1      42.583  25.395  28.363  1.00  0.00     0.034 A 
ATOM     54  C   UNL A   1      43.955  29.480  33.302  1.00  0.00     0.049 A 
ATOM     55  C   UNL A   1      43.740  25.513  29.321  1.00  0.00     0.074 A 
ATOM     56  C   UNL A   1      45.050  29.445  34.147  1.00  0.00     0.029 A 
ATOM     57  N   UNL A   1      44.117  28.434  32.402  1.00  0.00    -0.354 N 
ATOM     58  N   UNL A   1      43.926  26.380  30.290  1.00  0.00    -0.248 NA
ATOM     59  C   UNL A   1      44.820  24.527  29.180  1.00  0.00     0.031 C 
ATOM     60  C   UNL A   1      45.900  28.417  33.724  1.00  0.00     0.029 A 
ATOM     61  C   UNL A   1      45.302  27.762  32.659  1.00  0.00     0.049 A 
ATOM     62  H   UNL A   1      43.482  28.203  31.686  1.00  0.00     0.167 HD
ATOM     63  C   UNL A   1      45.128  26.021  30.894  1.00  0.00     0.074 A 
ATOM     64  C   UNL A   1      45.614  24.852  30.189  1.00  0.00     0.031 C 
ATOM     65  C   UNL A   1      45.772  26.600  31.941  1.00  0.00     0.034 A 
BRANCH  52  66
ATOM     66  C   UNL A   1      42.837  31.544  34.290  1.00  0.00     0.023 A 
ATOM     67  C   UNL A   1      42.152  31.461  35.516  1.00  0.00     0.031 A 
ATOM     68  C   UNL A   1      43.484  32.753  33.983  1.00  0.00     0.131 A 
ATOM     69  C   UNL A   1      42.055  32.588  36.345  1.00  0.00     0.055 A 
ATOM     70  C   UNL A   1      43.459  33.846  34.852  1.00  0.00     0.041 A 
ATOM     71  F   UNL A   1      44.137  32.903  32.819  1.00  0.00    -0.206 F 
ATOM     72  C   UNL A   1      42.725  33.773  36.034  1.00  0.00     0.022 A 
BRANCH  69  73
ATOM     73  S   UNL A   1      40.910  32.532  37.750  1.00  0.00     0.124 S 
ATOM     74  O   UNL A   1      41.706  31.826  38.751  1.00  0.00    -0.237 OA
ATOM     75  O   UNL A   1      40.661  33.945  38.012  1.00  0.00    -0.237 OA
ATOM     76  O   UNL A   1      39.767  31.782  37.231  1.00  0.00    -0.744 OA
ENDBRANCH  69  73
ENDBRANCH  52  66
BRANCH  53  77
ATOM     77  C   UNL A   1      42.581  24.355  27.295  1.00  0.00     0.023 A 
ATOM     78  C   UNL A   1      41.725  23.245  27.369  1.00  0.00     0.031 A 
ATOM     79  C   UNL A   1      43.463  24.436  26.203  1.00  0.00     0.131 A 
ATOM     80  C   UNL A   1      41.802  22.235  26.397  1.00  0.00     0.055 A 
ATOM     81  C   UNL A   1      43.502  23.453  25.212  1.00  0.00     0.041 A 
ATOM     82  F   UNL A   1      44.297  25.482  26.080  1.00  0.00    -0.206 F 
ATOM     83  C   UNL A   1      42.677  22.337  25.313  1.00  0.00     0.022 A 
BRANCH  80  84
ATOM     84  S   UNL A   1      40.795  20.742  26.614  1.00  0.00     0.124 S 
ATOM     85  O   UNL A   1      40.958  20.478  28.039  1.00  0.00    -0.237 OA
ATOM     86  O   UNL A   1      39.476  21.204  26.193  1.00  0.00    -0.237 OA
ATOM     87  O   UNL A   1      41.428  19.773  25.722  1.00  0.00    -0.744 OA
ENDBRANCH  80  84
ENDBRANCH  53  77
BRANCH  65  88
ATOM     88  C   UNL A   1      47.043  25.938  32.412  1.00  0.00     0.023 A 
ATOM     89  C   UNL A   1      48.277  26.166  31.780  1.00  0.00     0.031 A 
ATOM     90  C   UNL A   1      47.012  25.052  33.504  1.00  0.00     0.131 A 
ATOM     91  C   UNL A   1      49.419  25.470  32.207  1.00  0.00     0.055 A 
ATOM     92  C   UNL A   1      48.162  24.409  33.962  1.00  0.00     0.041 A 
ATOM     93  F   UNL A   1      45.859  24.798  34.145  1.00  0.00    -0.206 F 
ATOM     94  C   UNL A   1      49.371  24.606  33.303  1.00  0.00     0.022 A 
BRANCH  91  95
ATOM     95  S   UNL A   1      50.948  25.635  31.246  1.00  0.00     0.124 S 
ATOM     96  O   UNL A   1      51.865  24.773  31.985  1.00  0.00    -0.237 OA
ATOM     97  O   UNL A   1      50.543  25.154  29.929  1.00  0.00    -0.237 OA
ATOM     98  O   UNL A   1      51.246  27.064  31.318  1.00  0.00    -0.744 OA
ENDBRANCH  91  95
ENDBRANCH  65  88
ENDBRANCH  39  40
ENDBRANCH  31  34
ENDBRANCH  29  30
ENDBRANCH  28  29
ENDBRANCH   1  28
TORSDOF 22
ENDMDL
MODEL 2
REMARK VINA RESULT:     -10.0      2.928      3.812
REMARK SMILES CCC[C@]1(C(=O)NCCCCNC(=O)c2ccc(-c3c4nc(c(-c5cc(S(=O)(=O)[O-])ccc5F)c5ccc([nH]5)c(-c5cc(S(=O)(=O)[O-])ccc5F)c5nc(c(-c6cc(S(=O)(=O)[O-])ccc6F)c6ccc3[nH]6)C=C5)C=C4)cc2)CCCN(C(=O)[C@H](C[NH3+])CC(C)C)C1
REMARK SMILES IDX 9 1 8 2 7 3 5 4 6 5 4 7 78 8 91 9 79 10 81 11 80 12 3 13
REMARK SMILES IDX 2 14 1 15 82 16 83 17 84 18 87 19 88 20 89 21 90 22 85 23
REMARK SMILES IDX 86 24 10 28 11 29 12 30 13 31 14 33 15 34 16 35 77 36 17 37
REMARK SMILES IDX 76 38 18 39 19 40 20 41 70 42 21 43 75 44 69 45 71 46 22 47
REMARK SMILES IDX 74 48 68 49 67 50 23 52 55 53 35 54 54 55 36 56 39 57 53 58
REMARK SMILES IDX 72 59 37 60 38 61 52 63 73 64 40 65 24 66 25 67 33 68 26 69
REMARK SMILES IDX 32 70 34 71 31 72 27 73 28 74 29 75 30 76 56 77 57 78 65 79
REMARK SMILES IDX 58 80 64 81 66 82 63 83 59 84 60 85 61 86 62 87 41 88 42 89
REMARK SMILES IDX 50 90 43 91 49 92 51 93 48 94 44 95 45 96 46 97 47 98
REMARK H PARENT 7 6 86 25 86 26 86 27 12 32 71 51 39 62
REMARK Flexibility Score: inf
ROOT
ATOM      1  C   UNL A   1      30.944  31.464  25.225  1.00  0.00     0.023 C 
ENDROOT
BRANCH   1   2
ATOM      2  C   UNL A   1      30.955  29.963  24.947  1.00  0.00     0.116 C 
BRANCH   2   3
ATOM      3  N   UNL A   1      32.100  29.564  24.143  1.00  0.00    -0.356 N 
ATOM      4  C   UNL A   1      32.872  28.436  24.145  1.00  0.00     0.228 C 
ATOM      5  O   UNL A   1      33.807  28.415  23.339  1.00  0.00    -0.274 OA
ATOM      6  H   UNL A   1      32.368  30.231  23.471  1.00  0.00     0.163 HD
BRANCH   4   7
ATOM      7  C   UNL A   1      32.594  27.248  25.098  1.00  0.00     0.067 C 
ATOM      8  C   UNL A   1      31.113  27.276  25.553  1.00  0.00     0.020 C 
ATOM      9  C   UNL A   1      32.996  25.943  24.336  1.00  0.00     0.136 C 
ATOM     10  C   UNL A   1      30.598  25.928  26.046  1.00  0.00     0.023 C 
ATOM     11  N   UNL A   1      32.365  24.733  24.896  1.00  0.00    -0.341 N 
ATOM     12  C   UNL A   1      30.918  24.867  25.008  1.00  0.00     0.119 C 
BRANCH   7  13
ATOM     13  C   UNL A   1      33.562  27.311  26.335  1.00  0.00     0.018 C 
BRANCH  13  14
ATOM     14  C   UNL A   1      33.512  28.549  27.244  1.00  0.00    -0.002 C 
ATOM     15  C   UNL A   1      34.795  29.375  27.221  1.00  0.00     0.004 C 
ENDBRANCH  13  14
ENDBRANCH   7  13
BRANCH  11  16
ATOM     16  C   UNL A   1      33.178  23.638  25.145  1.00  0.00     0.231 C 
ATOM     17  O   UNL A   1      33.245  23.217  26.311  1.00  0.00    -0.274 OA
BRANCH  16  18
ATOM     18  C   UNL A   1      33.883  22.780  24.051  1.00  0.00     0.133 C 
BRANCH  18  19
ATOM     19  C   UNL A   1      34.965  21.779  24.476  1.00  0.00     0.022 C 
BRANCH  19  20
ATOM     20  C   UNL A   1      36.452  22.155  24.334  1.00  0.00    -0.016 C 
ATOM     21  C   UNL A   1      36.721  22.907  23.031  1.00  0.00     0.007 C 
ATOM     22  C   UNL A   1      36.848  23.038  25.525  1.00  0.00     0.007 C 
ENDBRANCH  19  20
ENDBRANCH  18  19
BRANCH  18  23
ATOM     23  C   UNL A   1      32.775  22.086  23.208  1.00  0.00     0.272 C 
BRANCH  23  24
ATOM     24  N   UNL A   1      32.633  22.672  21.869  1.00  0.00    -0.357 N 
ATOM     25  H   UNL A   1      31.874  22.204  21.372  1.00  0.00     0.344 HD
ATOM     26  H   UNL A   1      33.503  22.554  21.352  1.00  0.00     0.344 HD
ATOM     27  H   UNL A   1      32.420  23.666  21.954  1.00  0.00     0.344 HD
ENDBRANCH  23  24
ENDBRANCH  18  23
ENDBRANCH  16  18
ENDBRANCH  11  16
ENDBRANCH   4   7
ENDBRANCH   2   3
ENDBRANCH   1   2
BRANCH   1  28
ATOM     28  C   UNL A   1      31.231  31.835  26.675  1.00  0.00     0.023 C 
BRANCH  28  29
ATOM     29  C   UNL A   1      32.637  32.359  26.937  1.00  0.00     0.116 C 
BRANCH  29  30
ATOM     30  N   UNL A   1      32.659  33.713  27.469  1.00  0.00    -0.352 N 
ATOM     31  C   UNL A   1      33.543  34.255  28.375  1.00  0.00     0.251 C 
ATOM     32  H   UNL A   1      31.954  34.317  27.142  1.00  0.00     0.163 HD
ATOM     33  O   UNL A   1      33.360  35.379  28.819  1.00  0.00    -0.269 OA
BRANCH  31  34
ATOM     34  C   UNL A   1      34.686  33.433  28.824  1.00  0.00     0.039 A 
ATOM     35  C   UNL A   1      35.981  33.835  28.491  1.00  0.00     0.014 A 
ATOM     36  C   UNL A   1      34.475  32.311  29.630  1.00  0.00     0.014 A 
ATOM     37  C   UNL A   1      37.070  33.145  29.026  1.00  0.00     0.010 A 
ATOM     38  C   UNL A   1      35.558  31.677  30.224  1.00  0.00     0.010 A 
ATOM     39  C   UNL A   1      36.868  32.084  29.924  1.00  0.00    -0.014 A 
BRANCH  39  40
ATOM     40  C   UNL A   1      38.012  31.365  30.540  1.00  0.00     0.031 A 
ATOM     41  C   UNL A   1      38.411  31.678  31.955  1.00  0.00     0.074 A 
ATOM     42  C   UNL A   1      38.724  30.486  29.809  1.00  0.00     0.049 A 
ATOM     43  N   UNL A   1      39.422  31.227  32.652  1.00  0.00    -0.248 NA
ATOM     44  C   UNL A   1      37.582  32.663  32.669  1.00  0.00     0.031 C 
ATOM     45  C   UNL A   1      38.464  30.140  28.409  1.00  0.00     0.029 A 
ATOM     46  N   UNL A   1      39.821  29.729  30.136  1.00  0.00    -0.354 N 
ATOM     47  C   UNL A   1      39.361  31.883  33.876  1.00  0.00     0.074 A 
ATOM     48  C   UNL A   1      38.257  32.816  33.797  1.00  0.00     0.031 C 
ATOM     49  C   UNL A   1      39.357  29.220  28.009  1.00  0.00     0.029 A 
ATOM     50  C   UNL A   1      40.278  28.940  29.106  1.00  0.00     0.049 A 
ATOM     51  H   UNL A   1      40.242  29.749  31.026  1.00  0.00     0.167 HD
ATOM     52  C   UNL A   1      40.136  31.705  34.975  1.00  0.00     0.034 A 
ATOM     53  C   UNL A   1      41.324  28.092  29.052  1.00  0.00     0.034 A 
ATOM     54  C   UNL A   1      41.220  30.756  35.041  1.00  0.00     0.049 A 
ATOM     55  C   UNL A   1      42.170  27.907  30.286  1.00  0.00     0.074 A 
ATOM     56  C   UNL A   1      42.039  30.454  36.114  1.00  0.00     0.029 A 
ATOM     57  N   UNL A   1      41.639  29.955  33.985  1.00  0.00    -0.354 N 
ATOM     58  N   UNL A   1      42.069  28.497  31.455  1.00  0.00    -0.248 NA
ATOM     59  C   UNL A   1      43.261  26.927  30.200  1.00  0.00     0.031 C 
ATOM     60  C   UNL A   1      42.988  29.515  35.692  1.00  0.00     0.029 A 
ATOM     61  C   UNL A   1      42.717  29.176  34.376  1.00  0.00     0.049 A 
ATOM     62  H   UNL A   1      41.229  29.943  33.090  1.00  0.00     0.167 HD
ATOM     63  C   UNL A   1      43.062  27.934  32.251  1.00  0.00     0.074 A 
ATOM     64  C   UNL A   1      43.741  26.949  31.433  1.00  0.00     0.031 C 
ATOM     65  C   UNL A   1      43.384  28.202  33.544  1.00  0.00     0.034 A 
BRANCH  52  66
ATOM     66  C   UNL A   1      39.842  32.574  36.175  1.00  0.00     0.023 A 
ATOM     67  C   UNL A   1      38.973  32.149  37.198  1.00  0.00     0.031 A 
ATOM     68  C   UNL A   1      40.399  33.860  36.281  1.00  0.00     0.131 A 
ATOM     69  C   UNL A   1      38.619  33.031  38.229  1.00  0.00     0.055 A 
ATOM     70  C   UNL A   1      40.111  34.702  37.357  1.00  0.00     0.041 A 
ATOM     71  F   UNL A   1      41.218  34.331  35.327  1.00  0.00    -0.206 F 
ATOM     72  C   UNL A   1      39.201  34.296  38.330  1.00  0.00     0.022 A 
BRANCH  69  73
ATOM     73  S   UNL A   1      37.266  32.560  39.341  1.00  0.00     0.124 S 
ATOM     74  O   UNL A   1      36.094  32.832  38.512  1.00  0.00    -0.237 OA
ATOM     75  O   UNL A   1      37.549  31.154  39.606  1.00  0.00    -0.237 OA
ATOM     76  O   UNL A   1      37.433  33.458  40.483  1.00  0.00    -0.744 OA
ENDBRANCH  69  73
ENDBRANCH  52  66
BRANCH  53  77
ATOM     77  C   UNL A   1      41.632  27.349  27.798  1.00  0.00     0.023 A 
ATOM     78  C   UNL A   1      41.447  25.960  27.717  1.00  0.00     0.031 A 
ATOM     79  C   UNL A   1      42.154  28.011  26.673  1.00  0.00     0.131 A 
ATOM     80  C   UNL A   1      41.826  25.269  26.556  1.00  0.00     0.055 A 
ATOM     81  C   UNL A   1      42.483  27.327  25.501  1.00  0.00     0.041 A 
ATOM     82  F   UNL A   1      42.342  29.341  26.694  1.00  0.00    -0.206 F 
ATOM     83  C   UNL A   1      42.333  25.945  25.443  1.00  0.00     0.022 A 
BRANCH  80  84
ATOM     84  S   UNL A   1      41.722  23.458  26.549  1.00  0.00     0.124 S 
ATOM     85  O   UNL A   1      42.366  23.119  27.813  1.00  0.00    -0.237 OA
ATOM     86  O   UNL A   1      40.281  23.239  26.483  1.00  0.00    -0.237 OA
ATOM     87  O   UNL A   1      42.464  23.079  25.348  1.00  0.00    -0.744 OA
ENDBRANCH  80  84
ENDBRANCH  53  77
BRANCH  65  88
ATOM     88  C   UNL A   1      44.485  27.374  34.160  1.00  0.00     0.023 A 
ATOM     89  C   UNL A   1      44.218  26.184  34.854  1.00  0.00     0.031 A 
ATOM     90  C   UNL A   1      45.823  27.797  34.059  1.00  0.00     0.131 A 
ATOM     91  C   UNL A   1      45.267  25.487  35.474  1.00  0.00     0.055 A 
ATOM     92  C   UNL A   1      46.868  27.068  34.626  1.00  0.00     0.041 A 
ATOM     93  F   UNL A   1      46.134  28.929  33.406  1.00  0.00    -0.206 F 
ATOM     94  C   UNL A   1      46.591  25.913  35.350  1.00  0.00     0.022 A 
BRANCH  91  95
ATOM     95  S   UNL A   1      44.865  24.066  36.528  1.00  0.00     0.124 S 
ATOM     96  O   UNL A   1      43.996  23.279  35.659  1.00  0.00    -0.237 OA
ATOM     97  O   UNL A   1      46.181  23.497  36.799  1.00  0.00    -0.237 OA
ATOM     98  O   UNL A   1      44.202  24.672  37.682  1.00  0.00    -0.744 OA
ENDBRANCH  91  95
ENDBRANCH  65  88
ENDBRANCH  39  40
ENDBRANCH  31  34
ENDBRANCH  29  30
ENDBRANCH  28  29
ENDBRANCH   1  28
TORSDOF 22
ENDMDL
MODEL 3
REMARK VINA RESULT:      -9.8      2.633      3.424
REMARK SMILES CCC[C@]1(C(=O)NCCCCNC(=O)c2ccc(-c3c4nc(c(-c5cc(S(=O)(=O)[O-])ccc5F)c5ccc([nH]5)c(-c5cc(S(=O)(=O)[O-])ccc5F)c5nc(c(-c6cc(S(=O)(=O)[O-])ccc6F)c6ccc3[nH]6)C=C5)C=C4)cc2)CCCN(C(=O)[C@H](C[NH3+])CC(C)C)C1
REMARK SMILES IDX 9 1 8 2 7 3 5 4 6 5 4 7 78 8 91 9 79 10 81 11 80 12 3 13
REMARK SMILES IDX 2 14 1 15 82 16 83 17 84 18 87 19 88 20 89 21 90 22 85 23
REMARK SMILES IDX 86 24 10 28 11 29 12 30 13 31 14 33 15 34 16 35 77 36 17 37
REMARK SMILES IDX 76 38 18 39 19 40 20 41 70 42 21 43 75 44 69 45 71 46 22 47
REMARK SMILES IDX 74 48 68 49 67 50 23 52 55 53 35 54 54 55 36 56 39 57 53 58
REMARK SMILES IDX 72 59 37 60 38 61 52 63 73 64 40 65 24 66 25 67 33 68 26 69
REMARK SMILES IDX 32 70 34 71 31 72 27 73 28 74 29 75 30 76 56 77 57 78 65 79
REMARK SMILES IDX 58 80 64 81 66 82 63 83 59 84 60 85 61 86 62 87 41 88 42 89
REMARK SMILES IDX 50 90 43 91 49 92 51 93 48 94 44 95 45 96 46 97 47 98
REMARK H PARENT 7 6 86 25 86 26 86 27 12 32 71 51 39 62
REMARK Flexibility Score: inf
ROOT
ATOM      1  C   UNL A   1      31.284  28.840  24.503  1.00  0.00     0.023 C 
ENDROOT
BRANCH   1   2
ATOM      2  C   UNL A   1      30.422  27.594  24.313  1.00  0.00     0.116 C 
BRANCH   2   3
ATOM      3  N   UNL A   1      30.987  26.682  23.331  1.00  0.00    -0.356 N 
ATOM      4  C   UNL A   1      31.598  25.465  23.455  1.00  0.00     0.228 C 
ATOM      5  O   UNL A   1      32.000  24.948  22.409  1.00  0.00    -0.274 OA
ATOM      6  H   UNL A   1      30.916  27.001  22.403  1.00  0.00     0.163 HD
BRANCH   4   7
ATOM      7  C   UNL A   1      31.774  24.768  24.826  1.00  0.00     0.067 C 
ATOM      8  C   UNL A   1      30.450  24.845  25.629  1.00  0.00     0.020 C 
ATOM      9  C   UNL A   1      32.256  23.307  24.541  1.00  0.00     0.136 C 
ATOM     10  C   UNL A   1      30.333  23.787  26.721  1.00  0.00     0.023 C 
ATOM     11  N   UNL A   1      32.014  22.392  25.672  1.00  0.00    -0.341 N 
ATOM     12  C   UNL A   1      30.628  22.424  26.122  1.00  0.00     0.119 C 
BRANCH   7  13
ATOM     13  C   UNL A   1      32.953  25.436  25.624  1.00  0.00     0.018 C 
BRANCH  13  14
ATOM     14  C   UNL A   1      34.335  25.520  24.957  1.00  0.00    -0.002 C 
ATOM     15  C   UNL A   1      35.326  24.483  25.476  1.00  0.00     0.004 C 
ENDBRANCH  13  14
ENDBRANCH   7  13
BRANCH  11  16
ATOM     16  C   UNL A   1      33.064  21.585  26.084  1.00  0.00     0.231 C 
ATOM     17  O   UNL A   1      33.479  21.718  27.246  1.00  0.00    -0.274 OA
BRANCH  16  18
ATOM     18  C   UNL A   1      33.656  20.399  25.263  1.00  0.00     0.133 C 
BRANCH  18  19
ATOM     19  C   UNL A   1      32.885  19.884  24.041  1.00  0.00     0.022 C 
BRANCH  19  20
ATOM     20  C   UNL A   1      32.343  18.442  24.032  1.00  0.00    -0.016 C 
ATOM     21  C   UNL A   1      32.756  17.693  22.765  1.00  0.00     0.007 C 
ATOM     22  C   UNL A   1      32.892  17.706  25.262  1.00  0.00     0.007 C 
ENDBRANCH  19  20
ENDBRANCH  18  19
BRANCH  18  23
ATOM     23  C   UNL A   1      35.120  20.767  24.888  1.00  0.00     0.272 C 
BRANCH  23  24
ATOM     24  N   UNL A   1      36.057  19.658  25.110  1.00  0.00    -0.357 N 
ATOM     25  H   UNL A   1      35.568  18.884  25.560  1.00  0.00     0.344 HD
ATOM     26  H   UNL A   1      36.821  19.973  25.708  1.00  0.00     0.344 HD
ATOM     27  H   UNL A   1      36.433  19.347  24.214  1.00  0.00     0.344 HD
ENDBRANCH  23  24
ENDBRANCH  18  23
ENDBRANCH  16  18
ENDBRANCH  11  16
ENDBRANCH   4   7
ENDBRANCH   2   3
ENDBRANCH   1   2
BRANCH   1  28
ATOM     28  C   UNL A   1      31.762  29.059  25.933  1.00  0.00     0.023 C 
BRANCH  28  29
ATOM     29  C   UNL A   1      33.016  29.913  26.066  1.00  0.00     0.116 C 
BRANCH  29  30
ATOM     30  N   UNL A   1      32.747  31.269  26.523  1.00  0.00    -0.352 N 
ATOM     31  C   UNL A   1      33.467  32.018  27.426  1.00  0.00     0.251 C 
ATOM     32  H   UNL A   1      31.951  31.703  26.140  1.00  0.00     0.163 HD
ATOM     33  O   UNL A   1      33.046  33.103  27.801  1.00  0.00    -0.269 OA
BRANCH  31  34
ATOM     34  C   UNL A   1      34.729  31.464  27.958  1.00  0.00     0.039 A 
ATOM     35  C   UNL A   1      35.843  32.298  28.062  1.00  0.00     0.014 A 
ATOM     36  C   UNL A   1      34.782  30.145  28.415  1.00  0.00     0.014 A 
ATOM     37  C   UNL A   1      36.996  31.824  28.689  1.00  0.00     0.010 A 
ATOM     38  C   UNL A   1      35.900  29.703  29.110  1.00  0.00     0.010 A 
ATOM     39  C   UNL A   1      37.022  30.536  29.250  1.00  0.00    -0.014 A 
BRANCH  39  40
ATOM     40  C   UNL A   1      38.221  30.027  29.962  1.00  0.00     0.031 A 
ATOM     41  C   UNL A   1      38.528  30.521  31.348  1.00  0.00     0.074 A 
ATOM     42  C   UNL A   1      39.061  29.177  29.339  1.00  0.00     0.049 A 
ATOM     43  N   UNL A   1      39.560  30.267  32.111  1.00  0.00    -0.248 NA
ATOM     44  C   UNL A   1      37.561  31.459  31.940  1.00  0.00     0.031 C 
ATOM     45  C   UNL A   1      38.895  28.669  27.975  1.00  0.00     0.029 A 
ATOM     46  N   UNL A   1      40.229  28.598  29.767  1.00  0.00    -0.354 N 
ATOM     47  C   UNL A   1      39.376  31.026  33.262  1.00  0.00     0.074 A 
ATOM     48  C   UNL A   1      38.170  31.802  33.063  1.00  0.00     0.031 C 
ATOM     49  C   UNL A   1      39.907  27.833  27.690  1.00  0.00     0.029 A 
ATOM     50  C   UNL A   1      40.815  27.776  28.832  1.00  0.00     0.049 A 
ATOM     51  H   UNL A   1      40.611  28.754  30.661  1.00  0.00     0.167 HD
ATOM     52  C   UNL A   1      40.126  31.051  34.391  1.00  0.00     0.034 A 
ATOM     53  C   UNL A   1      41.958  27.064  28.888  1.00  0.00     0.034 A 
ATOM     54  C   UNL A   1      41.314  30.255  34.578  1.00  0.00     0.049 A 
ATOM     55  C   UNL A   1      42.775  27.104  30.154  1.00  0.00     0.074 A 
ATOM     56  C   UNL A   1      42.124  30.161  35.695  1.00  0.00     0.029 A 
ATOM     57  N   UNL A   1      41.865  29.415  33.617  1.00  0.00    -0.354 N 
ATOM     58  N   UNL A   1      42.560  27.786  31.255  1.00  0.00    -0.248 NA
ATOM     59  C   UNL A   1      43.979  26.263  30.192  1.00  0.00     0.031 C 
ATOM     60  C   UNL A   1      43.195  29.311  35.392  1.00  0.00     0.029 A 
ATOM     61  C   UNL A   1      43.015  28.817  34.109  1.00  0.00     0.049 A 
ATOM     62  H   UNL A   1      41.493  29.267  32.718  1.00  0.00     0.167 HD
ATOM     63  C   UNL A   1      43.585  27.430  32.128  1.00  0.00     0.074 A 
ATOM     64  C   UNL A   1      44.407  26.463  31.428  1.00  0.00     0.031 C 
ATOM     65  C   UNL A   1      43.825  27.858  33.395  1.00  0.00     0.034 A 
BRANCH  52  66
ATOM     66  C   UNL A   1      39.685  31.987  35.492  1.00  0.00     0.023 A 
ATOM     67  C   UNL A   1      40.247  33.269  35.639  1.00  0.00     0.031 A 
ATOM     68  C   UNL A   1      38.724  31.582  36.433  1.00  0.00     0.131 A 
ATOM     69  C   UNL A   1      39.911  34.060  36.748  1.00  0.00     0.055 A 
ATOM     70  C   UNL A   1      38.328  32.409  37.487  1.00  0.00     0.041 A 
ATOM     71  F   UNL A   1      38.166  30.362  36.359  1.00  0.00    -0.206 F 
ATOM     72  C   UNL A   1      38.937  33.650  37.659  1.00  0.00     0.022 A 
BRANCH  69  73
ATOM     73  S   UNL A   1      40.884  35.557  37.067  1.00  0.00     0.124 S 
ATOM     74  O   UNL A   1      41.432  35.276  38.392  1.00  0.00    -0.237 OA
ATOM     75  O   UNL A   1      41.841  35.552  35.966  1.00  0.00    -0.237 OA
ATOM     76  O   UNL A   1      39.889  36.627  37.027  1.00  0.00    -0.744 OA
ENDBRANCH  69  73
ENDBRANCH  52  66
BRANCH  53  77
ATOM     77  C   UNL A   1      42.399  26.248  27.722  1.00  0.00     0.023 A 
ATOM     78  C   UNL A   1      41.955  24.927  27.555  1.00  0.00     0.031 A 
ATOM     79  C   UNL A   1      43.303  26.764  26.777  1.00  0.00     0.131 A 
ATOM     80  C   UNL A   1      42.452  24.149  26.498  1.00  0.00     0.055 A 
ATOM     81  C   UNL A   1      43.757  26.003  25.697  1.00  0.00     0.041 A 
ATOM     82  F   UNL A   1      43.752  28.025  26.884  1.00  0.00    -0.206 F 
ATOM     83  C   UNL A   1      43.341  24.682  25.561  1.00  0.00     0.022 A 
BRANCH  80  84
ATOM     84  S   UNL A   1      41.980  22.399  26.409  1.00  0.00     0.124 S 
ATOM     85  O   UNL A   1      42.604  21.862  27.612  1.00  0.00    -0.237 OA
ATOM     86  O   UNL A   1      40.522  22.480  26.422  1.00  0.00    -0.237 OA
ATOM     87  O   UNL A   1      42.566  21.953  25.147  1.00  0.00    -0.744 OA
ENDBRANCH  80  84
ENDBRANCH  53  77
BRANCH  65  88
ATOM     88  C   UNL A   1      44.995  27.237  34.116  1.00  0.00     0.023 A 
ATOM     89  C   UNL A   1      44.855  26.077  34.896  1.00  0.00     0.031 A 
ATOM     90  C   UNL A   1      46.269  27.828  34.031  1.00  0.00     0.131 A 
ATOM     91  C   UNL A   1      45.956  25.578  35.609  1.00  0.00     0.055 A 
ATOM     92  C   UNL A   1      47.373  27.292  34.693  1.00  0.00     0.041 A 
ATOM     93  F   UNL A   1      46.459  28.938  33.300  1.00  0.00    -0.206 F 
ATOM     94  C   UNL A   1      47.217  26.169  35.499  1.00  0.00     0.022 A 
BRANCH  91  95
ATOM     95  S   UNL A   1      45.696  24.200  36.760  1.00  0.00     0.124 S 
ATOM     96  O   UNL A   1      45.130  23.177  35.886  1.00  0.00    -0.237 OA
ATOM     97  O   UNL A   1      47.047  23.944  37.249  1.00  0.00    -0.237 OA
ATOM     98  O   UNL A   1      44.772  24.750  37.750  1.00  0.00    -0.744 OA
ENDBRANCH  91  95
ENDBRANCH  65  88
ENDBRANCH  39  40
ENDBRANCH  31  34
ENDBRANCH  29  30
ENDBRANCH  28  29
ENDBRANCH   1  28
TORSDOF 22
ENDMDL
