MODEL 1
REMARK VINA RESULT:     -11.3      0.000      0.000
REMARK SMILES O=C(Cc1ccccc1Nc1c(Cl)cccc1Cl)NCCCCNC(=O)c1ccc(-c2c3nc(c(-c4cc(S(=O)(=O)[O-])ccc4F)c4ccc([nH]4)c(-c4cc(S(=O)(=O)[O-])ccc4F)c4nc(c(-c5cc(S(=O)(=O)[O-])ccc5F)c5ccc2[nH]5)C=C4)C=C3)cc1
REMARK SMILES IDX 21 1 20 2 19 3 1 4 2 5 3 7 4 8 5 9 9 10 6 11 8 12 7 13 10 14
REMARK SMILES IDX 11 16 12 17 17 18 13 19 14 20 16 21 18 22 15 23 22 24 23 25
REMARK SMILES IDX 24 26 25 27 26 29 27 30 28 31 89 32 29 33 88 34 30 35 31 36
REMARK SMILES IDX 32 37 82 38 33 39 87 40 81 41 83 42 34 43 86 44 80 45 79 46
REMARK SMILES IDX 35 48 67 49 47 50 66 51 48 52 51 53 65 54 84 55 49 56 50 57
REMARK SMILES IDX 64 59 85 60 52 61 36 62 37 63 45 64 38 65 44 66 46 67 43 68
REMARK SMILES IDX 39 69 40 70 41 71 42 72 68 73 69 74 77 75 70 76 76 77 78 78
REMARK SMILES IDX 75 79 71 80 72 81 73 82 74 83 53 84 54 85 62 86 55 87 61 88
REMARK SMILES IDX 63 89 60 90 56 91 57 92 58 93 59 94
REMARK H PARENT 19 6 10 15 24 28 83 47 51 58
REMARK Flexibility Score: inf
ROOT
ATOM      1  C   UNL A   1      31.514  30.360  26.123  1.00  0.00     0.023 C 
ENDROOT
BRANCH   1   2
ATOM      2  C   UNL A   1      32.151  29.445  27.168  1.00  0.00     0.116 C 
BRANCH   2   3
ATOM      3  N   UNL A   1      32.074  28.050  26.786  1.00  0.00    -0.356 N 
ATOM      4  O   UNL A   1      34.217  27.858  25.971  1.00  0.00    -0.275 OA
ATOM      5  C   UNL A   1      33.143  27.345  26.271  1.00  0.00     0.224 C 
ATOM      6  H   UNL A   1      31.215  27.581  26.901  1.00  0.00     0.163 HD
BRANCH   5   7
ATOM      7  C   UNL A   1      32.877  25.850  26.135  1.00  0.00     0.137 C 
BRANCH   7   8
ATOM      8  C   UNL A   1      32.849  25.403  24.685  1.00  0.00    -0.015 A 
ATOM      9  C   UNL A   1      33.801  24.447  24.266  1.00  0.00     0.006 A 
ATOM     10  C   UNL A   1      31.911  25.887  23.747  1.00  0.00     0.042 A 
ATOM     11  C   UNL A   1      33.864  24.007  22.947  1.00  0.00     0.000 A 
ATOM     12  C   UNL A   1      32.003  25.432  22.417  1.00  0.00     0.026 A 
ATOM     13  C   UNL A   1      32.970  24.509  22.018  1.00  0.00     0.002 A 
BRANCH  10  14
ATOM     14  N   UNL A   1      30.868  26.759  24.136  1.00  0.00    -0.353 N 
ATOM     15  H   UNL A   1      30.558  26.656  25.065  1.00  0.00     0.167 HD
BRANCH  14  16
ATOM     16  C   UNL A   1      30.204  27.762  23.383  1.00  0.00     0.076 A 
ATOM     17  C   UNL A   1      28.793  27.752  23.325  1.00  0.00     0.066 A 
ATOM     18  C   UNL A   1      30.862  28.845  22.764  1.00  0.00     0.066 A 
ATOM     19  Cl  UNL A   1      27.889  26.440  24.007  1.00  0.00    -0.082 Cl
ATOM     20  C   UNL A   1      28.074  28.795  22.731  1.00  0.00     0.023 A 
ATOM     21  C   UNL A   1      30.139  29.894  22.177  1.00  0.00     0.023 A 
ATOM     22  Cl  UNL A   1      32.587  28.914  22.597  1.00  0.00    -0.082 Cl
ATOM     23  C   UNL A   1      28.748  29.876  22.172  1.00  0.00     0.003 A 
ENDBRANCH  14  16
ENDBRANCH  10  14
ENDBRANCH   7   8
ENDBRANCH   5   7
ENDBRANCH   2   3
ENDBRANCH   1   2
BRANCH   1  24
ATOM     24  C   UNL A   1      31.426  31.842  26.513  1.00  0.00     0.023 C 
BRANCH  24  25
ATOM     25  C   UNL A   1      32.698  32.441  27.107  1.00  0.00     0.116 C 
BRANCH  25  26
ATOM     26  N   UNL A   1      32.523  33.830  27.497  1.00  0.00    -0.352 N 
ATOM     27  C   UNL A   1      33.158  34.551  28.481  1.00  0.00     0.251 C 
ATOM     28  H   UNL A   1      31.850  34.329  26.982  1.00  0.00     0.163 HD
ATOM     29  O   UNL A   1      32.722  35.660  28.789  1.00  0.00    -0.269 OA
BRANCH  27  30
ATOM     30  C   UNL A   1      34.336  33.995  29.186  1.00  0.00     0.039 A 
ATOM     31  C   UNL A   1      34.133  33.086  30.229  1.00  0.00     0.014 A 
ATOM     32  C   UNL A   1      35.637  34.372  28.839  1.00  0.00     0.014 A 
ATOM     33  C   UNL A   1      35.230  32.507  30.874  1.00  0.00     0.010 A 
ATOM     34  C   UNL A   1      36.729  33.738  29.431  1.00  0.00     0.010 A 
ATOM     35  C   UNL A   1      36.540  32.796  30.454  1.00  0.00    -0.014 A 
BRANCH  35  36
ATOM     36  C   UNL A   1      37.715  32.117  31.069  1.00  0.00     0.031 A 
ATOM     37  C   UNL A   1      38.468  31.058  30.309  1.00  0.00     0.074 A 
ATOM     38  C   UNL A   1      38.070  32.415  32.336  1.00  0.00     0.049 A 
ATOM     39  N   UNL A   1      39.466  30.308  30.703  1.00  0.00    -0.248 NA
ATOM     40  C   UNL A   1      38.022  30.792  28.935  1.00  0.00     0.031 C 
ATOM     41  C   UNL A   1      37.401  33.398  33.191  1.00  0.00     0.029 A 
ATOM     42  N   UNL A   1      39.075  31.919  33.130  1.00  0.00    -0.354 N 
ATOM     43  C   UNL A   1      39.763  29.476  29.628  1.00  0.00     0.074 A 
ATOM     44  C   UNL A   1      38.793  29.771  28.594  1.00  0.00     0.031 C 
ATOM     45  C   UNL A   1      38.026  33.450  34.377  1.00  0.00     0.029 A 
ATOM     46  C   UNL A   1      39.107  32.468  34.392  1.00  0.00     0.049 A 
ATOM     47  H   UNL A   1      39.712  31.233  32.825  1.00  0.00     0.167 HD
ATOM     48  C   UNL A   1      40.765  28.568  29.506  1.00  0.00     0.034 A 
ATOM     49  C   UNL A   1      39.901  32.202  35.448  1.00  0.00     0.034 A 
ATOM     50  C   UNL A   1      41.725  28.285  30.548  1.00  0.00     0.049 A 
ATOM     51  C   UNL A   1      40.979  31.155  35.307  1.00  0.00     0.074 A 
ATOM     52  C   UNL A   1      42.803  27.419  30.512  1.00  0.00     0.029 A 
ATOM     53  N   UNL A   1      41.717  28.853  31.815  1.00  0.00    -0.354 N 
ATOM     54  N   UNL A   1      41.274  30.409  34.267  1.00  0.00    -0.248 NA
ATOM     55  C   UNL A   1      41.835  30.923  36.477  1.00  0.00     0.031 C 
ATOM     56  C   UNL A   1      43.397  27.402  31.778  1.00  0.00     0.029 A 
ATOM     57  C   UNL A   1      42.748  28.327  32.581  1.00  0.00     0.049 A 
ATOM     58  H   UNL A   1      41.073  29.530  32.126  1.00  0.00     0.167 HD
ATOM     59  C   UNL A   1      42.372  29.642  34.650  1.00  0.00     0.074 A 
ATOM     60  C   UNL A   1      42.694  30.030  36.008  1.00  0.00     0.031 C 
ATOM     61  C   UNL A   1      43.056  28.708  33.940  1.00  0.00     0.034 A 
BRANCH  48  62
ATOM     62  C   UNL A   1      40.850  27.797  28.208  1.00  0.00     0.023 A 
ATOM     63  C   UNL A   1      40.297  26.512  28.075  1.00  0.00     0.031 A 
ATOM     64  C   UNL A   1      41.514  28.342  27.094  1.00  0.00     0.131 A 
ATOM     65  C   UNL A   1      40.491  25.782  26.891  1.00  0.00     0.055 A 
ATOM     66  C   UNL A   1      41.625  27.648  25.888  1.00  0.00     0.041 A 
ATOM     67  F   UNL A   1      42.081  29.558  27.163  1.00  0.00    -0.206 F 
ATOM     68  C   UNL A   1      41.127  26.352  25.786  1.00  0.00     0.022 A 
BRANCH  65  69
ATOM     69  S   UNL A   1      40.044  24.025  26.876  1.00  0.00     0.124 S 
ATOM     70  O   UNL A   1      38.780  24.049  26.144  1.00  0.00    -0.237 OA
ATOM     71  O   UNL A   1      41.173  23.418  26.181  1.00  0.00    -0.237 OA
ATOM     72  O   UNL A   1      39.929  23.688  28.293  1.00  0.00    -0.744 OA
ENDBRANCH  65  69
ENDBRANCH  48  62
BRANCH  49  73
ATOM     73  C   UNL A   1      39.702  32.919  36.742  1.00  0.00     0.023 A 
ATOM     74  C   UNL A   1      38.822  32.426  37.719  1.00  0.00     0.031 A 
ATOM     75  C   UNL A   1      40.360  34.136  37.003  1.00  0.00     0.131 A 
ATOM     76  C   UNL A   1      38.587  33.167  38.888  1.00  0.00     0.055 A 
ATOM     77  C   UNL A   1      40.168  34.839  38.193  1.00  0.00     0.041 A 
ATOM     78  F   UNL A   1      41.212  34.653  36.104  1.00  0.00    -0.206 F 
ATOM     79  C   UNL A   1      39.265  34.361  39.138  1.00  0.00     0.022 A 
BRANCH  76  80
ATOM     80  S   UNL A   1      37.308  32.593  40.038  1.00  0.00     0.124 S 
ATOM     81  O   UNL A   1      37.933  31.403  40.605  1.00  0.00    -0.237 OA
ATOM     82  O   UNL A   1      37.170  33.736  40.934  1.00  0.00    -0.237 OA
ATOM     83  O   UNL A   1      36.159  32.342  39.170  1.00  0.00    -0.744 OA
ENDBRANCH  76  80
ENDBRANCH  49  73
BRANCH  61  84
ATOM     84  C   UNL A   1      44.255  28.075  34.608  1.00  0.00     0.023 A 
ATOM     85  C   UNL A   1      44.154  26.876  35.336  1.00  0.00     0.031 A 
ATOM     86  C   UNL A   1      45.517  28.688  34.520  1.00  0.00     0.131 A 
ATOM     87  C   UNL A   1      45.281  26.361  35.996  1.00  0.00     0.055 A 
ATOM     88  C   UNL A   1      46.649  28.134  35.121  1.00  0.00     0.041 A 
ATOM     89  F   UNL A   1      45.674  29.838  33.843  1.00  0.00    -0.206 F 
ATOM     90  C   UNL A   1      46.531  26.973  35.876  1.00  0.00     0.022 A 
BRANCH  87  91
ATOM     91  S   UNL A   1      45.071  24.936  37.099  1.00  0.00     0.124 S 
ATOM     92  O   UNL A   1      43.793  25.234  37.737  1.00  0.00    -0.237 OA
ATOM     93  O   UNL A   1      45.071  23.816  36.164  1.00  0.00    -0.237 OA
ATOM     94  O   UNL A   1      46.236  25.008  37.978  1.00  0.00    -0.744 OA
ENDBRANCH  87  91
ENDBRANCH  61  84
ENDBRANCH  35  36
ENDBRANCH  27  30
ENDBRANCH  25  26
ENDBRANCH  24  25
ENDBRANCH   1  24
TORSDOF 17
ENDMDL
MODEL 2
REMARK VINA RESULT:     -11.3      1.975      2.268
REMARK SMILES O=C(Cc1ccccc1Nc1c(Cl)cccc1Cl)NCCCCNC(=O)c1ccc(-c2c3nc(c(-c4cc(S(=O)(=O)[O-])ccc4F)c4ccc([nH]4)c(-c4cc(S(=O)(=O)[O-])ccc4F)c4nc(c(-c5cc(S(=O)(=O)[O-])ccc5F)c5ccc2[nH]5)C=C4)C=C3)cc1
REMARK SMILES IDX 21 1 20 2 19 3 1 4 2 5 3 7 4 8 5 9 9 10 6 11 8 12 7 13 10 14
REMARK SMILES IDX 11 16 12 17 17 18 13 19 14 20 16 21 18 22 15 23 22 24 23 25
REMARK SMILES IDX 24 26 25 27 26 29 27 30 28 31 89 32 29 33 88 34 30 35 31 36
REMARK SMILES IDX 32 37 82 38 33 39 87 40 81 41 83 42 34 43 86 44 80 45 79 46
REMARK SMILES IDX 35 48 67 49 47 50 66 51 48 52 51 53 65 54 84 55 49 56 50 57
REMARK SMILES IDX 64 59 85 60 52 61 36 62 37 63 45 64 38 65 44 66 46 67 43 68
REMARK SMILES IDX 39 69 40 70 41 71 42 72 68 73 69 74 77 75 70 76 76 77 78 78
REMARK SMILES IDX 75 79 71 80 72 81 73 82 74 83 53 84 54 85 62 86 55 87 61 88
REMARK SMILES IDX 63 89 60 90 56 91 57 92 58 93 59 94
REMARK H PARENT 19 6 10 15 24 28 83 47 51 58
REMARK Flexibility Score: inf
ROOT
ATOM      1  C   UNL A   1      31.369  31.001  26.179  1.00  0.00     0.023 C 
ENDROOT
BRANCH   1   2
ATOM      2  C   UNL A   1      32.095  30.062  27.141  1.00  0.00     0.116 C 
BRANCH   2   3
ATOM      3  N   UNL A   1      31.937  28.672  26.767  1.00  0.00    -0.356 N 
ATOM      4  O   UNL A   1      34.155  28.238  26.332  1.00  0.00    -0.275 OA
ATOM      5  C   UNL A   1      32.997  27.847  26.450  1.00  0.00     0.224 C 
ATOM      6  H   UNL A   1      31.027  28.297  26.738  1.00  0.00     0.163 HD
BRANCH   5   7
ATOM      7  C   UNL A   1      32.602  26.384  26.286  1.00  0.00     0.137 C 
BRANCH   7   8
ATOM      8  C   UNL A   1      32.691  25.925  24.842  1.00  0.00    -0.015 A 
ATOM      9  C   UNL A   1      33.752  25.063  24.484  1.00  0.00     0.006 A 
ATOM     10  C   UNL A   1      31.759  26.307  23.853  1.00  0.00     0.042 A 
ATOM     11  C   UNL A   1      33.924  24.620  23.175  1.00  0.00     0.000 A 
ATOM     12  C   UNL A   1      31.963  25.853  22.535  1.00  0.00     0.026 A 
ATOM     13  C   UNL A   1      33.033  25.026  22.196  1.00  0.00     0.002 A 
BRANCH  10  14
ATOM     14  N   UNL A   1      30.618  27.076  24.177  1.00  0.00    -0.353 N 
ATOM     15  H   UNL A   1      30.266  26.942  25.088  1.00  0.00     0.167 HD
BRANCH  14  16
ATOM     16  C   UNL A   1      29.906  28.013  23.385  1.00  0.00     0.076 A 
ATOM     17  C   UNL A   1      28.500  27.917  23.308  1.00  0.00     0.066 A 
ATOM     18  C   UNL A   1      30.509  29.114  22.739  1.00  0.00     0.066 A 
ATOM     19  Cl  UNL A   1      27.665  26.576  24.020  1.00  0.00    -0.082 Cl
ATOM     20  C   UNL A   1      27.729  28.896  22.672  1.00  0.00     0.023 A 
ATOM     21  C   UNL A   1      29.734  30.099  22.110  1.00  0.00     0.023 A 
ATOM     22  Cl  UNL A   1      32.228  29.280  22.593  1.00  0.00    -0.082 Cl
ATOM     23  C   UNL A   1      28.346  29.998  22.087  1.00  0.00     0.003 A 
ENDBRANCH  14  16
ENDBRANCH  10  14
ENDBRANCH   7   8
ENDBRANCH   5   7
ENDBRANCH   2   3
ENDBRANCH   1   2
BRANCH   1  24
ATOM     24  C   UNL A   1      31.497  32.497  26.497  1.00  0.00     0.023 C 
BRANCH  24  25
ATOM     25  C   UNL A   1      32.794  32.913  27.185  1.00  0.00     0.116 C 
BRANCH  25  26
ATOM     26  N   UNL A   1      32.694  34.225  27.802  1.00  0.00    -0.352 N 
ATOM     27  C   UNL A   1      33.362  34.736  28.889  1.00  0.00     0.251 C 
ATOM     28  H   UNL A   1      32.052  34.840  27.379  1.00  0.00     0.163 HD
ATOM     29  O   UNL A   1      32.987  35.801  29.379  1.00  0.00    -0.269 OA
BRANCH  27  30
ATOM     30  C   UNL A   1      34.504  34.006  29.487  1.00  0.00     0.039 A 
ATOM     31  C   UNL A   1      35.799  34.307  29.054  1.00  0.00     0.014 A 
ATOM     32  C   UNL A   1      34.310  33.019  30.458  1.00  0.00     0.014 A 
ATOM     33  C   UNL A   1      36.896  33.669  29.641  1.00  0.00     0.010 A 
ATOM     34  C   UNL A   1      35.407  32.440  31.095  1.00  0.00     0.010 A 
ATOM     35  C   UNL A   1      36.715  32.760  30.696  1.00  0.00    -0.014 A 
BRANCH  35  36
ATOM     36  C   UNL A   1      37.878  32.143  31.393  1.00  0.00     0.031 A 
ATOM     37  C   UNL A   1      38.646  31.021  30.748  1.00  0.00     0.074 A 
ATOM     38  C   UNL A   1      38.209  32.557  32.634  1.00  0.00     0.049 A 
ATOM     39  N   UNL A   1      39.636  30.312  31.227  1.00  0.00    -0.248 NA
ATOM     40  C   UNL A   1      38.226  30.629  29.395  1.00  0.00     0.031 C 
ATOM     41  C   UNL A   1      37.523  33.612  33.382  1.00  0.00     0.029 A 
ATOM     42  N   UNL A   1      39.199  32.137  33.489  1.00  0.00    -0.354 N 
ATOM     43  C   UNL A   1      39.954  29.385  30.239  1.00  0.00     0.074 A 
ATOM     44  C   UNL A   1      39.003  29.582  29.164  1.00  0.00     0.031 C 
ATOM     45  C   UNL A   1      38.127  33.774  34.570  1.00  0.00     0.029 A 
ATOM     46  C   UNL A   1      39.207  32.800  34.696  1.00  0.00     0.049 A 
ATOM     47  H   UNL A   1      39.842  31.428  33.260  1.00  0.00     0.167 HD
ATOM     48  C   UNL A   1      40.958  28.472  30.219  1.00  0.00     0.034 A 
ATOM     49  C   UNL A   1      39.981  32.633  35.786  1.00  0.00     0.034 A 
ATOM     50  C   UNL A   1      41.898  28.288  31.300  1.00  0.00     0.049 A 
ATOM     51  C   UNL A   1      41.061  31.580  35.762  1.00  0.00     0.074 A 
ATOM     52  C   UNL A   1      42.978  27.424  31.364  1.00  0.00     0.029 A 
ATOM     53  N   UNL A   1      41.867  28.969  32.510  1.00  0.00    -0.354 N 
ATOM     54  N   UNL A   1      41.376  30.742  34.800  1.00  0.00    -0.248 NA
ATOM     55  C   UNL A   1      41.895  31.457  36.964  1.00  0.00     0.031 C 
ATOM     56  C   UNL A   1      43.547  27.524  32.638  1.00  0.00     0.029 A 
ATOM     57  C   UNL A   1      42.883  28.517  33.340  1.00  0.00     0.049 A 
ATOM     58  H   UNL A   1      41.217  29.670  32.746  1.00  0.00     0.167 HD
ATOM     59  C   UNL A   1      42.468  30.016  35.273  1.00  0.00     0.074 A 
ATOM     60  C   UNL A   1      42.764  30.527  36.595  1.00  0.00     0.031 C 
ATOM     61  C   UNL A   1      43.165  29.022  34.664  1.00  0.00     0.034 A 
BRANCH  48  62
ATOM     62  C   UNL A   1      41.068  27.586  28.999  1.00  0.00     0.023 A 
ATOM     63  C   UNL A   1      42.072  27.779  28.034  1.00  0.00     0.031 A 
ATOM     64  C   UNL A   1      40.144  26.548  28.782  1.00  0.00     0.131 A 
ATOM     65  C   UNL A   1      42.077  27.009  26.861  1.00  0.00     0.055 A 
ATOM     66  C   UNL A   1      40.209  25.724  27.657  1.00  0.00     0.041 A 
ATOM     67  F   UNL A   1      39.149  26.324  29.656  1.00  0.00    -0.206 F 
ATOM     68  C   UNL A   1      41.169  25.964  26.678  1.00  0.00     0.022 A 
BRANCH  65  69
ATOM     69  S   UNL A   1      43.182  27.499  25.509  1.00  0.00     0.124 S 
ATOM     70  O   UNL A   1      42.263  28.204  24.619  1.00  0.00    -0.237 OA
ATOM     71  O   UNL A   1      44.170  28.326  26.193  1.00  0.00    -0.237 OA
ATOM     72  O   UNL A   1      43.681  26.226  24.995  1.00  0.00    -0.744 OA
ENDBRANCH  65  69
ENDBRANCH  48  62
BRANCH  49  73
ATOM     73  C   UNL A   1      39.757  33.465  37.005  1.00  0.00     0.023 A 
ATOM     74  C   UNL A   1      40.525  34.614  37.252  1.00  0.00     0.031 A 
ATOM     75  C   UNL A   1      38.796  33.097  37.965  1.00  0.00     0.131 A 
ATOM     76  C   UNL A   1      40.354  35.327  38.450  1.00  0.00     0.055 A 
ATOM     77  C   UNL A   1      38.588  33.843  39.126  1.00  0.00     0.041 A 
ATOM     78  F   UNL A   1      38.034  32.008  37.780  1.00  0.00    -0.206 F 
ATOM     79  C   UNL A   1      39.380  34.959  39.380  1.00  0.00     0.022 A 
BRANCH  76  80
ATOM     80  S   UNL A   1      41.488  36.693  38.817  1.00  0.00     0.124 S 
ATOM     81  O   UNL A   1      42.199  36.836  37.552  1.00  0.00    -0.237 OA
ATOM     82  O   UNL A   1      40.565  37.769  39.162  1.00  0.00    -0.237 OA
ATOM     83  O   UNL A   1      42.288  36.180  39.929  1.00  0.00    -0.744 OA
ENDBRANCH  76  80
ENDBRANCH  49  73
BRANCH  61  84
ATOM     84  C   UNL A   1      44.351  28.455  35.410  1.00  0.00     0.023 A 
ATOM     85  C   UNL A   1      44.198  27.530  36.457  1.00  0.00     0.031 A 
ATOM     86  C   UNL A   1      45.655  28.856  35.070  1.00  0.00     0.131 A 
ATOM     87  C   UNL A   1      45.324  27.082  37.165  1.00  0.00     0.055 A 
ATOM     88  C   UNL A   1      46.777  28.355  35.733  1.00  0.00     0.041 A 
ATOM     89  F   UNL A   1      45.863  29.742  34.081  1.00  0.00    -0.206 F 
ATOM     90  C   UNL A   1      46.614  27.474  36.796  1.00  0.00     0.022 A 
BRANCH  87  91
ATOM     91  S   UNL A   1      45.076  26.060  38.643  1.00  0.00     0.124 S 
ATOM     92  O   UNL A   1      43.749  26.479  39.082  1.00  0.00    -0.237 OA
ATOM     93  O   UNL A   1      45.172  24.706  38.106  1.00  0.00    -0.237 OA
ATOM     94  O   UNL A   1      46.175  26.455  39.523  1.00  0.00    -0.744 OA
ENDBRANCH  87  91
ENDBRANCH  61  84
ENDBRANCH  35  36
ENDBRANCH  27  30
ENDBRANCH  25  26
ENDBRANCH  24  25
ENDBRANCH   1  24
TORSDOF 17
ENDMDL
MODEL 3
REMARK VINA RESULT:     -11.3      5.463     10.570
REMARK SMILES O=C(Cc1ccccc1Nc1c(Cl)cccc1Cl)NCCCCNC(=O)c1ccc(-c2c3nc(c(-c4cc(S(=O)(=O)[O-])ccc4F)c4ccc([nH]4)c(-c4cc(S(=O)(=O)[O-])ccc4F)c4nc(c(-c5cc(S(=O)(=O)[O-])ccc5F)c5ccc2[nH]5)C=C4)C=C3)cc1
REMARK SMILES IDX 21 1 20 2 19 3 1 4 2 5 3 7 4 8 5 9 9 10 6 11 8 12 7 13 10 14
REMARK SMILES IDX 11 16 12 17 17 18 13 19 14 20 16 21 18 22 15 23 22 24 23 25
REMARK SMILES IDX 24 26 25 27 26 29 27 30 28 31 89 32 29 33 88 34 30 35 31 36
REMARK SMILES IDX 32 37 82 38 33 39 87 40 81 41 83 42 34 43 86 44 80 45 79 46
REMARK SMILES IDX 35 48 67 49 47 50 66 51 48 52 51 53 65 54 84 55 49 56 50 57
REMARK SMILES IDX 64 59 85 60 52 61 36 62 37 63 45 64 38 65 44 66 46 67 43 68
REMARK SMILES IDX 39 69 40 70 41 71 42 72 68 73 69 74 77 75 70 76 76 77 78 78
REMARK SMILES IDX 75 79 71 80 72 81 73 82 74 83 53 84 54 85 62 86 55 87 61 88
REMARK SMILES IDX 63 89 60 90 56 91 57 92 58 93 59 94
REMARK H PARENT 19 6 10 15 24 28 83 47 51 58
REMARK Flexibility Score: inf
ROOT
ATOM      1  C   UNL A   1      35.766  23.309  23.328  1.00  0.00     0.023 C 
ENDROOT
BRANCH   1   2
ATOM      2  C   UNL A   1      35.045  24.071  24.439  1.00  0.00     0.116 C 
BRANCH   2   3
ATOM      3  N   UNL A   1      34.487  25.321  23.965  1.00  0.00    -0.356 N 
ATOM      4  O   UNL A   1      32.505  25.209  25.129  1.00  0.00    -0.275 OA
ATOM      5  C   UNL A   1      33.278  25.824  24.401  1.00  0.00     0.224 C 
ATOM      6  H   UNL A   1      34.997  25.837  23.300  1.00  0.00     0.163 HD
BRANCH   5   7
ATOM      7  C   UNL A   1      32.998  27.242  23.914  1.00  0.00     0.137 C 
BRANCH   7   8
ATOM      8  C   UNL A   1      32.933  28.238  25.057  1.00  0.00    -0.015 A 
ATOM      9  C   UNL A   1      33.741  27.999  26.192  1.00  0.00     0.006 A 
ATOM     10  C   UNL A   1      32.118  29.390  25.031  1.00  0.00     0.042 A 
ATOM     11  C   UNL A   1      33.718  28.847  27.297  1.00  0.00     0.000 A 
ATOM     12  C   UNL A   1      32.107  30.225  26.166  1.00  0.00     0.026 A 
ATOM     13  C   UNL A   1      32.890  29.956  27.288  1.00  0.00     0.002 A 
BRANCH  10  14
ATOM     14  N   UNL A   1      31.375  29.737  23.879  1.00  0.00    -0.353 N 
ATOM     15  H   UNL A   1      31.909  30.049  23.112  1.00  0.00     0.167 HD
BRANCH  14  16
ATOM     16  C   UNL A   1      29.972  29.702  23.666  1.00  0.00     0.076 A 
ATOM     17  C   UNL A   1      29.225  30.889  23.824  1.00  0.00     0.066 A 
ATOM     18  C   UNL A   1      29.277  28.565  23.201  1.00  0.00     0.066 A 
ATOM     19  Cl  UNL A   1      29.971  32.327  24.441  1.00  0.00    -0.082 Cl
ATOM     20  C   UNL A   1      27.870  30.957  23.481  1.00  0.00     0.023 A 
ATOM     21  C   UNL A   1      27.921  28.638  22.849  1.00  0.00     0.023 A 
ATOM     22  Cl  UNL A   1      30.008  26.995  23.121  1.00  0.00    -0.082 Cl
ATOM     23  C   UNL A   1      27.222  29.835  22.976  1.00  0.00     0.003 A 
ENDBRANCH  14  16
ENDBRANCH  10  14
ENDBRANCH   7   8
ENDBRANCH   5   7
ENDBRANCH   2   3
ENDBRANCH   1   2
BRANCH   1  24
ATOM     24  C   UNL A   1      36.607  22.111  23.791  1.00  0.00     0.023 C 
BRANCH  24  25
ATOM     25  C   UNL A   1      36.835  22.012  25.297  1.00  0.00     0.116 C 
BRANCH  25  26
ATOM     26  N   UNL A   1      37.762  20.949  25.645  1.00  0.00    -0.352 N 
ATOM     27  C   UNL A   1      39.056  21.029  26.103  1.00  0.00     0.251 C 
ATOM     28  H   UNL A   1      37.413  20.036  25.537  1.00  0.00     0.163 HD
ATOM     29  O   UNL A   1      39.742  20.008  26.147  1.00  0.00    -0.269 OA
BRANCH  27  30
ATOM     30  C   UNL A   1      39.634  22.329  26.516  1.00  0.00     0.039 A 
ATOM     31  C   UNL A   1      40.580  22.351  27.545  1.00  0.00     0.014 A 
ATOM     32  C   UNL A   1      39.241  23.526  25.911  1.00  0.00     0.014 A 
ATOM     33  C   UNL A   1      41.179  23.559  27.917  1.00  0.00     0.010 A 
ATOM     34  C   UNL A   1      39.892  24.718  26.230  1.00  0.00     0.010 A 
ATOM     35  C   UNL A   1      40.872  24.748  27.235  1.00  0.00    -0.014 A 
BRANCH  35  36
ATOM     36  C   UNL A   1      41.569  26.025  27.558  1.00  0.00     0.031 A 
ATOM     37  C   UNL A   1      40.868  27.098  28.348  1.00  0.00     0.074 A 
ATOM     38  C   UNL A   1      42.815  26.242  27.090  1.00  0.00     0.049 A 
ATOM     39  N   UNL A   1      41.282  28.299  28.662  1.00  0.00    -0.248 NA
ATOM     40  C   UNL A   1      39.513  26.786  28.824  1.00  0.00     0.031 C 
ATOM     41  C   UNL A   1      43.591  25.296  26.285  1.00  0.00     0.029 A 
ATOM     42  N   UNL A   1      43.649  27.327  27.216  1.00  0.00    -0.354 N 
ATOM     43  C   UNL A   1      40.237  28.890  29.367  1.00  0.00     0.074 A 
ATOM     44  C   UNL A   1      39.147  27.935  29.371  1.00  0.00     0.031 C 
ATOM     45  C   UNL A   1      44.791  25.830  26.011  1.00  0.00     0.029 A 
ATOM     46  C   UNL A   1      44.855  27.176  26.571  1.00  0.00     0.049 A 
ATOM     47  H   UNL A   1      43.404  28.136  27.720  1.00  0.00     0.167 HD
ATOM     48  C   UNL A   1      40.198  30.103  29.973  1.00  0.00     0.034 A 
ATOM     49  C   UNL A   1      45.890  28.029  26.430  1.00  0.00     0.034 A 
ATOM     50  C   UNL A   1      41.293  31.045  29.959  1.00  0.00     0.049 A 
ATOM     51  C   UNL A   1      45.807  29.392  27.072  1.00  0.00     0.074 A 
ATOM     52  C   UNL A   1      41.374  32.280  30.577  1.00  0.00     0.029 A 
ATOM     53  N   UNL A   1      42.494  30.862  29.286  1.00  0.00    -0.354 N 
ATOM     54  N   UNL A   1      44.827  29.916  27.772  1.00  0.00    -0.248 NA
ATOM     55  C   UNL A   1      46.972  30.272  26.912  1.00  0.00     0.031 C 
ATOM     56  C   UNL A   1      42.585  32.877  30.213  1.00  0.00     0.029 A 
ATOM     57  C   UNL A   1      43.304  31.977  29.442  1.00  0.00     0.049 A 
ATOM     58  H   UNL A   1      42.735  30.058  28.771  1.00  0.00     0.167 HD
ATOM     59  C   UNL A   1      45.275  31.176  28.164  1.00  0.00     0.074 A 
ATOM     60  C   UNL A   1      46.615  31.324  27.635  1.00  0.00     0.031 C 
ATOM     61  C   UNL A   1      44.636  32.122  28.900  1.00  0.00     0.034 A 
BRANCH  48  62
ATOM     62  C   UNL A   1      38.915  30.488  30.676  1.00  0.00     0.023 A 
ATOM     63  C   UNL A   1      37.878  31.160  30.005  1.00  0.00     0.031 A 
ATOM     64  C   UNL A   1      38.734  30.202  32.041  1.00  0.00     0.131 A 
ATOM     65  C   UNL A   1      36.750  31.599  30.715  1.00  0.00     0.055 A 
ATOM     66  C   UNL A   1      37.568  30.561  32.722  1.00  0.00     0.041 A 
ATOM     67  F   UNL A   1      39.695  29.580  32.743  1.00  0.00    -0.206 F 
ATOM     68  C   UNL A   1      36.575  31.279  32.063  1.00  0.00     0.022 A 
BRANCH  65  69
ATOM     69  S   UNL A   1      35.597  32.730  29.892  1.00  0.00     0.124 S 
ATOM     70  O   UNL A   1      34.354  32.459  30.613  1.00  0.00    -0.237 OA
ATOM     71  O   UNL A   1      36.205  34.033  30.136  1.00  0.00    -0.237 OA
ATOM     72  O   UNL A   1      35.612  32.284  28.501  1.00  0.00    -0.744 OA
ENDBRANCH  65  69
ENDBRANCH  48  62
BRANCH  49  73
ATOM     73  C   UNL A   1      47.089  27.635  25.633  1.00  0.00     0.023 A 
ATOM     74  C   UNL A   1      47.195  27.957  24.270  1.00  0.00     0.031 A 
ATOM     75  C   UNL A   1      48.131  26.890  26.215  1.00  0.00     0.131 A 
ATOM     76  C   UNL A   1      48.292  27.497  23.524  1.00  0.00     0.055 A 
ATOM     77  C   UNL A   1      49.249  26.485  25.484  1.00  0.00     0.041 A 
ATOM     78  F   UNL A   1      48.083  26.554  27.514  1.00  0.00    -0.206 F 
ATOM     79  C   UNL A   1      49.326  26.777  24.125  1.00  0.00     0.022 A 
BRANCH  76  80
ATOM     80  S   UNL A   1      48.301  27.773  21.733  1.00  0.00     0.124 S 
ATOM     81  O   UNL A   1      49.393  28.728  21.586  1.00  0.00    -0.237 OA
ATOM     82  O   UNL A   1      48.548  26.429  21.220  1.00  0.00    -0.237 OA
ATOM     83  O   UNL A   1      46.966  28.304  21.464  1.00  0.00    -0.744 OA
ENDBRANCH  76  80
ENDBRANCH  49  73
BRANCH  61  84
ATOM     84  C   UNL A   1      45.405  33.385  29.217  1.00  0.00     0.023 A 
ATOM     85  C   UNL A   1      45.301  34.539  28.421  1.00  0.00     0.031 A 
ATOM     86  C   UNL A   1      46.261  33.428  30.332  1.00  0.00     0.131 A 
ATOM     87  C   UNL A   1      46.085  35.666  28.715  1.00  0.00     0.055 A 
ATOM     88  C   UNL A   1      46.987  34.575  30.659  1.00  0.00     0.041 A 
ATOM     89  F   UNL A   1      46.405  32.354  31.126  1.00  0.00    -0.206 F 
ATOM     90  C   UNL A   1      46.912  35.696  29.841  1.00  0.00     0.022 A 
BRANCH  87  91
ATOM     91  S   UNL A   1      46.089  37.055  27.549  1.00  0.00     0.124 S 
ATOM     92  O   UNL A   1      44.761  37.623  27.751  1.00  0.00    -0.237 OA
ATOM     93  O   UNL A   1      47.207  37.862  28.030  1.00  0.00    -0.237 OA
ATOM     94  O   UNL A   1      46.301  36.414  26.252  1.00  0.00    -0.744 OA
ENDBRANCH  87  91
ENDBRANCH  61  84
ENDBRANCH  35  36
ENDBRANCH  27  30
ENDBRANCH  25  26
ENDBRANCH  24  25
ENDBRANCH   1  24
TORSDOF 17
ENDMDL
