MODEL 1
REMARK VINA RESULT:     -11.9      0.000      0.000
REMARK SMILES CC(C)C[C@H](Nc1ncnc2scc(-c3ccccc3)c12)C(=O)NCCCCNC(=O)c1ccc(-c2c3nc(c(-c4cc(S(=O)(=O)[O-])ccc4F)c4ccc([nH]4)c(-c4cc(S(=O)(=O)[O-])ccc4F)c4nc(c(-c5cc(S(=O)(=O)[O-])ccc5F)c5ccc2[nH]5)C=C4)C=C3)cc1
REMARK SMILES IDX 26 1 25 2 24 3 22 4 23 5 5 7 4 8 2 9 1 10 3 11 6 12 7 14
REMARK SMILES IDX 8 15 21 16 9 17 11 18 14 19 10 20 12 21 13 22 15 23 16 24
REMARK SMILES IDX 20 25 17 26 19 27 18 28 27 29 28 30 29 31 30 32 31 34 32 35
REMARK SMILES IDX 33 36 94 37 34 38 93 39 35 40 36 41 37 42 87 43 38 44 92 45
REMARK SMILES IDX 86 46 88 47 39 48 91 49 85 50 84 51 40 53 72 54 52 55 71 56
REMARK SMILES IDX 53 57 56 58 70 59 89 60 54 61 55 62 69 64 90 65 57 66 41 67
REMARK SMILES IDX 42 68 50 69 43 70 49 71 51 72 48 73 44 74 45 75 46 76 47 77
REMARK SMILES IDX 73 78 74 79 82 80 75 81 81 82 83 83 80 84 76 85 77 86 78 87
REMARK SMILES IDX 79 88 58 89 59 90 67 91 60 92 66 93 68 94 65 95 61 96 62 97
REMARK SMILES IDX 63 98 64 99
REMARK H PARENT 24 6 6 13 29 33 88 52 56 63
REMARK Flexibility Score: inf
ROOT
ATOM      1  C   UNL A   1      31.052  31.174  25.716  1.00  0.00     0.023 C 
ENDROOT
BRANCH   1   2
ATOM      2  C   UNL A   1      31.891  29.903  25.740  1.00  0.00     0.116 C 
BRANCH   2   3
ATOM      3  N   UNL A   1      32.933  29.961  24.743  1.00  0.00    -0.354 N 
ATOM      4  C   UNL A   1      33.315  29.036  23.819  1.00  0.00     0.242 C 
ATOM      5  O   UNL A   1      34.298  29.318  23.124  1.00  0.00    -0.273 OA
ATOM      6  H   UNL A   1      33.448  30.800  24.729  1.00  0.00     0.163 HD
BRANCH   4   7
ATOM      7  C   UNL A   1      32.527  27.726  23.580  1.00  0.00     0.170 C 
BRANCH   7   8
ATOM      8  C   UNL A   1      33.417  26.463  23.588  1.00  0.00     0.038 C 
BRANCH   8   9
ATOM      9  C   UNL A   1      34.151  26.149  24.904  1.00  0.00    -0.015 C 
ATOM     10  C   UNL A   1      33.318  26.512  26.131  1.00  0.00     0.007 C 
ATOM     11  C   UNL A   1      34.510  24.661  24.937  1.00  0.00     0.007 C 
ENDBRANCH   8   9
ENDBRANCH   7   8
BRANCH   7  12
ATOM     12  N   UNL A   1      31.746  27.761  22.328  1.00  0.00    -0.358 N 
ATOM     13  H   UNL A   1      32.081  27.323  21.512  1.00  0.00     0.162 HD
BRANCH  12  14
ATOM     14  C   UNL A   1      30.533  28.425  22.330  1.00  0.00     0.139 A 
ATOM     15  N   UNL A   1      30.483  29.639  21.729  1.00  0.00    -0.219 NA
ATOM     16  C   UNL A   1      29.355  27.929  22.940  1.00  0.00     0.062 A 
ATOM     17  C   UNL A   1      29.329  30.310  21.683  1.00  0.00     0.225 A 
ATOM     18  C   UNL A   1      28.237  28.750  22.820  1.00  0.00     0.129 A 
ATOM     19  C   UNL A   1      29.019  26.757  23.726  1.00  0.00     0.006 A 
ATOM     20  N   UNL A   1      28.163  29.938  22.198  1.00  0.00    -0.225 NA
ATOM     21  S   UNL A   1      26.847  28.131  23.583  1.00  0.00    -0.123 S 
ATOM     22  C   UNL A   1      27.695  26.768  24.134  1.00  0.00     0.076 A 
BRANCH  19  23
ATOM     23  C   UNL A   1      29.843  25.660  24.214  1.00  0.00    -0.017 A 
ATOM     24  C   UNL A   1      30.338  24.708  23.312  1.00  0.00     0.009 A 
ATOM     25  C   UNL A   1      29.964  25.437  25.591  1.00  0.00     0.009 A 
ATOM     26  C   UNL A   1      30.906  23.524  23.783  1.00  0.00     0.001 A 
ATOM     27  C   UNL A   1      30.530  24.249  26.059  1.00  0.00     0.001 A 
ATOM     28  C   UNL A   1      30.982  23.286  25.154  1.00  0.00     0.000 A 
ENDBRANCH  19  23
ENDBRANCH  12  14
ENDBRANCH   7  12
ENDBRANCH   4   7
ENDBRANCH   2   3
ENDBRANCH   1   2
BRANCH   1  29
ATOM     29  C   UNL A   1      31.291  32.140  26.871  1.00  0.00     0.023 C 
BRANCH  29  30
ATOM     30  C   UNL A   1      32.602  32.916  26.833  1.00  0.00     0.116 C 
BRANCH  30  31
ATOM     31  N   UNL A   1      32.590  34.133  27.634  1.00  0.00    -0.352 N 
ATOM     32  C   UNL A   1      33.426  34.505  28.665  1.00  0.00     0.251 C 
ATOM     33  H   UNL A   1      31.883  34.781  27.408  1.00  0.00     0.163 HD
ATOM     34  O   UNL A   1      33.195  35.517  29.314  1.00  0.00    -0.269 OA
BRANCH  32  35
ATOM     35  C   UNL A   1      34.579  33.639  28.994  1.00  0.00     0.039 A 
ATOM     36  C   UNL A   1      35.875  34.147  28.879  1.00  0.00     0.014 A 
ATOM     37  C   UNL A   1      34.362  32.357  29.499  1.00  0.00     0.014 A 
ATOM     38  C   UNL A   1      36.949  33.400  29.371  1.00  0.00     0.010 A 
ATOM     39  C   UNL A   1      35.418  31.663  30.077  1.00  0.00     0.010 A 
ATOM     40  C   UNL A   1      36.722  32.178  30.024  1.00  0.00    -0.014 A 
BRANCH  40  41
ATOM     41  C   UNL A   1      37.821  31.408  30.665  1.00  0.00     0.031 A 
ATOM     42  C   UNL A   1      38.224  31.728  32.079  1.00  0.00     0.074 A 
ATOM     43  C   UNL A   1      38.519  30.504  29.946  1.00  0.00     0.049 A 
ATOM     44  N   UNL A   1      39.245  31.294  32.771  1.00  0.00    -0.248 NA
ATOM     45  C   UNL A   1      37.388  32.708  32.792  1.00  0.00     0.031 C 
ATOM     46  C   UNL A   1      38.255  30.144  28.550  1.00  0.00     0.029 A 
ATOM     47  N   UNL A   1      39.606  29.736  30.282  1.00  0.00    -0.354 N 
ATOM     48  C   UNL A   1      39.189  31.966  33.988  1.00  0.00     0.074 A 
ATOM     49  C   UNL A   1      38.075  32.886  33.909  1.00  0.00     0.031 C 
ATOM     50  C   UNL A   1      39.139  29.211  28.160  1.00  0.00     0.029 A 
ATOM     51  C   UNL A   1      40.065  28.943  29.255  1.00  0.00     0.049 A 
ATOM     52  H   UNL A   1      40.019  29.751  31.176  1.00  0.00     0.167 HD
ATOM     53  C   UNL A   1      39.978  31.809  35.081  1.00  0.00     0.034 A 
ATOM     54  C   UNL A   1      41.121  28.107  29.198  1.00  0.00     0.034 A 
ATOM     55  C   UNL A   1      41.067  30.868  35.146  1.00  0.00     0.049 A 
ATOM     56  C   UNL A   1      41.989  27.953  30.422  1.00  0.00     0.074 A 
ATOM     57  C   UNL A   1      41.895  30.578  36.218  1.00  0.00     0.029 A 
ATOM     58  N   UNL A   1      41.485  30.061  34.094  1.00  0.00    -0.354 N 
ATOM     59  N   UNL A   1      41.893  28.559  31.584  1.00  0.00    -0.248 NA
ATOM     60  C   UNL A   1      43.099  26.997  30.332  1.00  0.00     0.031 C 
ATOM     61  C   UNL A   1      42.851  29.649  35.795  1.00  0.00     0.029 A 
ATOM     62  C   UNL A   1      42.574  29.296  34.483  1.00  0.00     0.049 A 
ATOM     63  H   UNL A   1      41.068  30.037  33.203  1.00  0.00     0.167 HD
ATOM     64  C   UNL A   1      42.911  28.030  32.372  1.00  0.00     0.074 A 
ATOM     65  C   UNL A   1      43.596  27.047  31.559  1.00  0.00     0.031 C 
ATOM     66  C   UNL A   1      43.248  28.325  33.654  1.00  0.00     0.034 A 
BRANCH  53  67
ATOM     67  C   UNL A   1      39.693  32.690  36.276  1.00  0.00     0.023 A 
ATOM     68  C   UNL A   1      38.879  32.255  37.337  1.00  0.00     0.031 A 
ATOM     69  C   UNL A   1      40.211  33.996  36.339  1.00  0.00     0.131 A 
ATOM     70  C   UNL A   1      38.538  33.142  38.369  1.00  0.00     0.055 A 
ATOM     71  C   UNL A   1      39.941  34.844  37.416  1.00  0.00     0.041 A 
ATOM     72  F   UNL A   1      40.976  34.477  35.347  1.00  0.00    -0.206 F 
ATOM     73  C   UNL A   1      39.085  34.425  38.430  1.00  0.00     0.022 A 
BRANCH  70  74
ATOM     74  S   UNL A   1      37.247  32.646  39.543  1.00  0.00     0.124 S 
ATOM     75  O   UNL A   1      37.693  31.307  39.921  1.00  0.00    -0.237 OA
ATOM     76  O   UNL A   1      37.351  33.668  40.576  1.00  0.00    -0.237 OA
ATOM     77  O   UNL A   1      36.025  32.684  38.744  1.00  0.00    -0.744 OA
ENDBRANCH  70  74
ENDBRANCH  53  67
BRANCH  54  78
ATOM     78  C   UNL A   1      41.428  27.354  27.946  1.00  0.00     0.023 A 
ATOM     79  C   UNL A   1      41.187  25.974  27.857  1.00  0.00     0.031 A 
ATOM     80  C   UNL A   1      42.007  27.993  26.835  1.00  0.00     0.131 A 
ATOM     81  C   UNL A   1      41.567  25.268  26.705  1.00  0.00     0.055 A 
ATOM     82  C   UNL A   1      42.332  27.296  25.669  1.00  0.00     0.041 A 
ATOM     83  F   UNL A   1      42.254  29.313  26.862  1.00  0.00    -0.206 F 
ATOM     84  C   UNL A   1      42.125  25.922  25.604  1.00  0.00     0.022 A 
BRANCH  81  85
ATOM     85  S   UNL A   1      41.400  23.462  26.699  1.00  0.00     0.124 S 
ATOM     86  O   UNL A   1      41.853  23.118  28.042  1.00  0.00    -0.237 OA
ATOM     87  O   UNL A   1      39.975  23.290  26.439  1.00  0.00    -0.237 OA
ATOM     88  O   UNL A   1      42.284  23.041  25.614  1.00  0.00    -0.744 OA
ENDBRANCH  81  85
ENDBRANCH  54  78
BRANCH  66  89
ATOM     89  C   UNL A   1      44.379  27.533  34.264  1.00  0.00     0.023 A 
ATOM     90  C   UNL A   1      44.176  26.262  34.824  1.00  0.00     0.031 A 
ATOM     91  C   UNL A   1      45.679  28.069  34.289  1.00  0.00     0.131 A 
ATOM     92  C   UNL A   1      45.244  25.591  35.439  1.00  0.00     0.055 A 
ATOM     93  C   UNL A   1      46.751  27.370  34.845  1.00  0.00     0.041 A 
ATOM     94  F   UNL A   1      45.930  29.282  33.770  1.00  0.00    -0.206 F 
ATOM     95  C   UNL A   1      46.533  26.129  35.437  1.00  0.00     0.022 A 
BRANCH  92  96
ATOM     96  S   UNL A   1      44.906  24.046  36.327  1.00  0.00     0.124 S 
ATOM     97  O   UNL A   1      44.717  24.518  37.694  1.00  0.00    -0.237 OA
ATOM     98  O   UNL A   1      43.711  23.552  35.651  1.00  0.00    -0.237 OA
ATOM     99  O   UNL A   1      46.114  23.253  36.106  1.00  0.00    -0.744 OA
ENDBRANCH  92  96
ENDBRANCH  66  89
ENDBRANCH  40  41
ENDBRANCH  32  35
ENDBRANCH  30  31
ENDBRANCH  29  30
ENDBRANCH   1  29
TORSDOF 19
ENDMDL
MODEL 2
REMARK VINA RESULT:     -11.6      2.099      2.491
REMARK SMILES CC(C)C[C@H](Nc1ncnc2scc(-c3ccccc3)c12)C(=O)NCCCCNC(=O)c1ccc(-c2c3nc(c(-c4cc(S(=O)(=O)[O-])ccc4F)c4ccc([nH]4)c(-c4cc(S(=O)(=O)[O-])ccc4F)c4nc(c(-c5cc(S(=O)(=O)[O-])ccc5F)c5ccc2[nH]5)C=C4)C=C3)cc1
REMARK SMILES IDX 26 1 25 2 24 3 22 4 23 5 5 7 4 8 2 9 1 10 3 11 6 12 7 14
REMARK SMILES IDX 8 15 21 16 9 17 11 18 14 19 10 20 12 21 13 22 15 23 16 24
REMARK SMILES IDX 20 25 17 26 19 27 18 28 27 29 28 30 29 31 30 32 31 34 32 35
REMARK SMILES IDX 33 36 94 37 34 38 93 39 35 40 36 41 37 42 87 43 38 44 92 45
REMARK SMILES IDX 86 46 88 47 39 48 91 49 85 50 84 51 40 53 72 54 52 55 71 56
REMARK SMILES IDX 53 57 56 58 70 59 89 60 54 61 55 62 69 64 90 65 57 66 41 67
REMARK SMILES IDX 42 68 50 69 43 70 49 71 51 72 48 73 44 74 45 75 46 76 47 77
REMARK SMILES IDX 73 78 74 79 82 80 75 81 81 82 83 83 80 84 76 85 77 86 78 87
REMARK SMILES IDX 79 88 58 89 59 90 67 91 60 92 66 93 68 94 65 95 61 96 62 97
REMARK SMILES IDX 63 98 64 99
REMARK H PARENT 24 6 6 13 29 33 88 52 56 63
REMARK Flexibility Score: inf
ROOT
ATOM      1  C   UNL A   1      32.270  30.470  26.882  1.00  0.00     0.023 C 
ENDROOT
BRANCH   1   2
ATOM      2  C   UNL A   1      31.844  29.890  25.540  1.00  0.00     0.116 C 
BRANCH   2   3
ATOM      3  N   UNL A   1      32.945  29.904  24.607  1.00  0.00    -0.354 N 
ATOM      4  C   UNL A   1      33.380  28.938  23.749  1.00  0.00     0.242 C 
ATOM      5  O   UNL A   1      34.403  29.189  23.103  1.00  0.00    -0.273 OA
ATOM      6  H   UNL A   1      33.461  30.741  24.586  1.00  0.00     0.163 HD
BRANCH   4   7
ATOM      7  C   UNL A   1      32.604  27.618  23.523  1.00  0.00     0.170 C 
BRANCH   7   8
ATOM      8  C   UNL A   1      33.512  26.368  23.500  1.00  0.00     0.038 C 
BRANCH   8   9
ATOM      9  C   UNL A   1      34.175  25.977  24.832  1.00  0.00    -0.015 C 
ATOM     10  C   UNL A   1      33.351  26.417  26.040  1.00  0.00     0.007 C 
ATOM     11  C   UNL A   1      34.382  24.460  24.865  1.00  0.00     0.007 C 
ENDBRANCH   8   9
ENDBRANCH   7   8
BRANCH   7  12
ATOM     12  N   UNL A   1      31.791  27.649  22.291  1.00  0.00    -0.358 N 
ATOM     13  H   UNL A   1      32.095  27.194  21.473  1.00  0.00     0.162 HD
BRANCH  12  14
ATOM     14  C   UNL A   1      30.590  28.337  22.316  1.00  0.00     0.139 A 
ATOM     15  N   UNL A   1      30.553  29.553  21.719  1.00  0.00    -0.219 NA
ATOM     16  C   UNL A   1      29.414  27.861  22.944  1.00  0.00     0.062 A 
ATOM     17  C   UNL A   1      29.412  30.246  21.694  1.00  0.00     0.225 A 
ATOM     18  C   UNL A   1      28.309  28.703  22.846  1.00  0.00     0.129 A 
ATOM     19  C   UNL A   1      29.070  26.693  23.733  1.00  0.00     0.006 A 
ATOM     20  N   UNL A   1      28.248  29.894  22.228  1.00  0.00    -0.225 NA
ATOM     21  S   UNL A   1      26.921  28.108  23.630  1.00  0.00    -0.123 S 
ATOM     22  C   UNL A   1      27.753  26.728  24.164  1.00  0.00     0.076 A 
BRANCH  19  23
ATOM     23  C   UNL A   1      29.881  25.579  24.205  1.00  0.00    -0.017 A 
ATOM     24  C   UNL A   1      30.370  24.639  23.287  1.00  0.00     0.009 A 
ATOM     25  C   UNL A   1      29.994  25.330  25.578  1.00  0.00     0.009 A 
ATOM     26  C   UNL A   1      30.925  23.441  23.739  1.00  0.00     0.001 A 
ATOM     27  C   UNL A   1      30.547  24.128  26.026  1.00  0.00     0.001 A 
ATOM     28  C   UNL A   1      30.993  23.177  25.106  1.00  0.00     0.000 A 
ENDBRANCH  19  23
ENDBRANCH  12  14
ENDBRANCH   7  12
ENDBRANCH   4   7
ENDBRANCH   2   3
ENDBRANCH   1   2
BRANCH   1  29
ATOM     29  C   UNL A   1      31.949  31.946  27.092  1.00  0.00     0.023 C 
BRANCH  29  30
ATOM     30  C   UNL A   1      33.135  32.847  27.416  1.00  0.00     0.116 C 
BRANCH  30  31
ATOM     31  N   UNL A   1      32.759  34.203  27.793  1.00  0.00    -0.352 N 
ATOM     32  C   UNL A   1      33.229  34.980  28.831  1.00  0.00     0.251 C 
ATOM     33  H   UNL A   1      32.070  34.624  27.228  1.00  0.00     0.163 HD
ATOM     34  O   UNL A   1      32.710  36.060  29.079  1.00  0.00    -0.269 OA
BRANCH  32  35
ATOM     35  C   UNL A   1      34.341  34.465  29.658  1.00  0.00     0.039 A 
ATOM     36  C   UNL A   1      34.056  33.775  30.839  1.00  0.00     0.014 A 
ATOM     37  C   UNL A   1      35.657  34.592  29.212  1.00  0.00     0.014 A 
ATOM     38  C   UNL A   1      35.089  33.124  31.518  1.00  0.00     0.010 A 
ATOM     39  C   UNL A   1      36.662  33.861  29.832  1.00  0.00     0.010 A 
ATOM     40  C   UNL A   1      36.390  33.115  30.989  1.00  0.00    -0.014 A 
BRANCH  40  41
ATOM     41  C   UNL A   1      37.493  32.339  31.614  1.00  0.00     0.031 A 
ATOM     42  C   UNL A   1      38.045  32.775  32.945  1.00  0.00     0.074 A 
ATOM     43  C   UNL A   1      38.062  31.317  30.943  1.00  0.00     0.049 A 
ATOM     44  N   UNL A   1      39.097  32.342  33.591  1.00  0.00    -0.248 NA
ATOM     45  C   UNL A   1      37.343  33.882  33.614  1.00  0.00     0.031 C 
ATOM     46  C   UNL A   1      37.648  30.832  29.623  1.00  0.00     0.029 A 
ATOM     47  N   UNL A   1      39.126  30.511  31.267  1.00  0.00    -0.354 N 
ATOM     48  C   UNL A   1      39.197  33.140  34.726  1.00  0.00     0.074 A 
ATOM     49  C   UNL A   1      38.141  34.125  34.641  1.00  0.00     0.031 C 
ATOM     50  C   UNL A   1      38.430  29.802  29.264  1.00  0.00     0.029 A 
ATOM     51  C   UNL A   1      39.436  29.583  30.298  1.00  0.00     0.049 A 
ATOM     52  H   UNL A   1      39.621  30.589  32.115  1.00  0.00     0.167 HD
ATOM     53  C   UNL A   1      40.073  33.042  35.758  1.00  0.00     0.034 A 
ATOM     54  C   UNL A   1      40.427  28.671  30.244  1.00  0.00     0.034 A 
ATOM     55  C   UNL A   1      41.102  32.035  35.833  1.00  0.00     0.049 A 
ATOM     56  C   UNL A   1      41.394  28.584  31.399  1.00  0.00     0.074 A 
ATOM     57  C   UNL A   1      42.006  31.800  36.855  1.00  0.00     0.029 A 
ATOM     58  N   UNL A   1      41.369  31.095  34.845  1.00  0.00    -0.354 N 
ATOM     59  N   UNL A   1      41.445  29.313  32.491  1.00  0.00    -0.248 NA
ATOM     60  C   UNL A   1      42.429  27.545  31.320  1.00  0.00     0.031 C 
ATOM     61  C   UNL A   1      42.858  30.765  36.457  1.00  0.00     0.029 A 
ATOM     62  C   UNL A   1      42.439  30.298  35.221  1.00  0.00     0.049 A 
ATOM     63  H   UNL A   1      40.870  31.008  34.000  1.00  0.00     0.167 HD
ATOM     64  C   UNL A   1      42.497  28.796  33.242  1.00  0.00     0.074 A 
ATOM     65  C   UNL A   1      43.040  27.687  32.486  1.00  0.00     0.031 C 
ATOM     66  C   UNL A   1      42.970  29.199  34.450  1.00  0.00     0.034 A 
BRANCH  53  67
ATOM     67  C   UNL A   1      39.956  34.061  36.867  1.00  0.00     0.023 A 
ATOM     68  C   UNL A   1      40.910  35.080  37.037  1.00  0.00     0.031 A 
ATOM     69  C   UNL A   1      38.897  33.993  37.791  1.00  0.00     0.131 A 
ATOM     70  C   UNL A   1      40.836  35.933  38.149  1.00  0.00     0.055 A 
ATOM     71  C   UNL A   1      38.779  34.902  38.844  1.00  0.00     0.041 A 
ATOM     72  F   UNL A   1      37.967  33.030  37.695  1.00  0.00    -0.206 F 
ATOM     73  C   UNL A   1      39.762  35.868  39.039  1.00  0.00     0.022 A 
BRANCH  70  74
ATOM     74  S   UNL A   1      42.244  37.021  38.499  1.00  0.00     0.124 S 
ATOM     75  O   UNL A   1      41.586  38.152  39.150  1.00  0.00    -0.237 OA
ATOM     76  O   UNL A   1      43.079  36.189  39.357  1.00  0.00    -0.237 OA
ATOM     77  O   UNL A   1      42.794  37.306  37.176  1.00  0.00    -0.744 OA
ENDBRANCH  70  74
ENDBRANCH  53  67
BRANCH  54  78
ATOM     78  C   UNL A   1      40.569  27.772  29.062  1.00  0.00     0.023 A 
ATOM     79  C   UNL A   1      41.491  28.059  28.042  1.00  0.00     0.031 A 
ATOM     80  C   UNL A   1      39.758  26.634  28.910  1.00  0.00     0.131 A 
ATOM     81  C   UNL A   1      41.546  27.251  26.896  1.00  0.00     0.055 A 
ATOM     82  C   UNL A   1      39.854  25.801  27.793  1.00  0.00     0.041 A 
ATOM     83  F   UNL A   1      38.862  26.306  29.857  1.00  0.00    -0.206 F 
ATOM     84  C   UNL A   1      40.743  26.115  26.771  1.00  0.00     0.022 A 
BRANCH  81  85
ATOM     85  S   UNL A   1      42.623  27.758  25.527  1.00  0.00     0.124 S 
ATOM     86  O   UNL A   1      43.884  28.002  26.216  1.00  0.00    -0.237 OA
ATOM     87  O   UNL A   1      42.581  26.585  24.660  1.00  0.00    -0.237 OA
ATOM     88  O   UNL A   1      41.961  28.947  24.995  1.00  0.00    -0.744 OA
ENDBRANCH  81  85
ENDBRANCH  54  78
BRANCH  66  89
ATOM     89  C   UNL A   1      44.100  28.395  35.044  1.00  0.00     0.023 A 
ATOM     90  C   UNL A   1      43.876  27.403  36.012  1.00  0.00     0.031 A 
ATOM     91  C   UNL A   1      45.425  28.636  34.636  1.00  0.00     0.131 A 
ATOM     92  C   UNL A   1      44.963  26.727  36.585  1.00  0.00     0.055 A 
ATOM     93  C   UNL A   1      46.498  27.916  35.163  1.00  0.00     0.041 A 
ATOM     94  F   UNL A   1      45.698  29.574  33.715  1.00  0.00    -0.206 F 
ATOM     95  C   UNL A   1      46.271  26.965  36.153  1.00  0.00     0.022 A 
BRANCH  92  96
ATOM     96  S   UNL A   1      44.656  25.599  37.971  1.00  0.00     0.124 S 
ATOM     97  O   UNL A   1      43.836  24.567  37.344  1.00  0.00    -0.237 OA
ATOM     98  O   UNL A   1      46.006  25.197  38.352  1.00  0.00    -0.237 OA
ATOM     99  O   UNL A   1      43.960  26.436  38.946  1.00  0.00    -0.744 OA
ENDBRANCH  92  96
ENDBRANCH  66  89
ENDBRANCH  40  41
ENDBRANCH  32  35
ENDBRANCH  30  31
ENDBRANCH  29  30
ENDBRANCH   1  29
TORSDOF 19
ENDMDL
MODEL 3
REMARK VINA RESULT:     -11.1      1.800      7.526
REMARK SMILES CC(C)C[C@H](Nc1ncnc2scc(-c3ccccc3)c12)C(=O)NCCCCNC(=O)c1ccc(-c2c3nc(c(-c4cc(S(=O)(=O)[O-])ccc4F)c4ccc([nH]4)c(-c4cc(S(=O)(=O)[O-])ccc4F)c4nc(c(-c5cc(S(=O)(=O)[O-])ccc5F)c5ccc2[nH]5)C=C4)C=C3)cc1
REMARK SMILES IDX 26 1 25 2 24 3 22 4 23 5 5 7 4 8 2 9 1 10 3 11 6 12 7 14
REMARK SMILES IDX 8 15 21 16 9 17 11 18 14 19 10 20 12 21 13 22 15 23 16 24
REMARK SMILES IDX 20 25 17 26 19 27 18 28 27 29 28 30 29 31 30 32 31 34 32 35
REMARK SMILES IDX 33 36 94 37 34 38 93 39 35 40 36 41 37 42 87 43 38 44 92 45
REMARK SMILES IDX 86 46 88 47 39 48 91 49 85 50 84 51 40 53 72 54 52 55 71 56
REMARK SMILES IDX 53 57 56 58 70 59 89 60 54 61 55 62 69 64 90 65 57 66 41 67
REMARK SMILES IDX 42 68 50 69 43 70 49 71 51 72 48 73 44 74 45 75 46 76 47 77
REMARK SMILES IDX 73 78 74 79 82 80 75 81 81 82 83 83 80 84 76 85 77 86 78 87
REMARK SMILES IDX 79 88 58 89 59 90 67 91 60 92 66 93 68 94 65 95 61 96 62 97
REMARK SMILES IDX 63 98 64 99
REMARK H PARENT 24 6 6 13 29 33 88 52 56 63
REMARK Flexibility Score: inf
ROOT
ATOM      1  C   UNL A   1      32.593  30.310  27.053  1.00  0.00     0.023 C 
ENDROOT
BRANCH   1   2
ATOM      2  C   UNL A   1      32.108  29.619  25.785  1.00  0.00     0.116 C 
BRANCH   2   3
ATOM      3  N   UNL A   1      33.099  29.716  24.741  1.00  0.00    -0.354 N 
ATOM      4  C   UNL A   1      33.417  28.837  23.749  1.00  0.00     0.242 C 
ATOM      5  O   UNL A   1      34.368  29.141  23.021  1.00  0.00    -0.273 OA
ATOM      6  H   UNL A   1      33.628  30.546  24.746  1.00  0.00     0.163 HD
BRANCH   4   7
ATOM      7  C   UNL A   1      32.593  27.555  23.480  1.00  0.00     0.170 C 
BRANCH   7   8
ATOM      8  C   UNL A   1      33.451  26.271  23.443  1.00  0.00     0.038 C 
BRANCH   8   9
ATOM      9  C   UNL A   1      34.188  25.898  24.741  1.00  0.00    -0.015 C 
ATOM     10  C   UNL A   1      33.373  26.240  25.987  1.00  0.00     0.007 C 
ATOM     11  C   UNL A   1      34.514  24.402  24.725  1.00  0.00     0.007 C 
ENDBRANCH   8   9
ENDBRANCH   7   8
BRANCH   7  12
ATOM     12  N   UNL A   1      31.801  27.646  22.238  1.00  0.00    -0.358 N 
ATOM     13  H   UNL A   1      32.118  27.226  21.406  1.00  0.00     0.162 HD
BRANCH  12  14
ATOM     14  C   UNL A   1      30.603  28.337  22.274  1.00  0.00     0.139 A 
ATOM     15  N   UNL A   1      30.568  29.558  21.687  1.00  0.00    -0.219 NA
ATOM     16  C   UNL A   1      29.428  27.861  22.904  1.00  0.00     0.062 A 
ATOM     17  C   UNL A   1      29.429  30.255  21.672  1.00  0.00     0.225 A 
ATOM     18  C   UNL A   1      28.326  28.707  22.817  1.00  0.00     0.129 A 
ATOM     19  C   UNL A   1      29.083  26.688  23.685  1.00  0.00     0.006 A 
ATOM     20  N   UNL A   1      28.266  29.903  22.209  1.00  0.00    -0.225 NA
ATOM     21  S   UNL A   1      26.940  28.112  23.603  1.00  0.00    -0.123 S 
ATOM     22  C   UNL A   1      27.769  26.724  24.122  1.00  0.00     0.076 A 
BRANCH  19  23
ATOM     23  C   UNL A   1      29.892  25.568  24.144  1.00  0.00    -0.017 A 
ATOM     24  C   UNL A   1      30.332  24.605  23.225  1.00  0.00     0.009 A 
ATOM     25  C   UNL A   1      30.053  25.338  25.516  1.00  0.00     0.009 A 
ATOM     26  C   UNL A   1      30.883  23.405  23.675  1.00  0.00     0.001 A 
ATOM     27  C   UNL A   1      30.602  24.134  25.964  1.00  0.00     0.001 A 
ATOM     28  C   UNL A   1      30.997  23.161  25.043  1.00  0.00     0.000 A 
ENDBRANCH  19  23
ENDBRANCH  12  14
ENDBRANCH   7  12
ENDBRANCH   4   7
ENDBRANCH   2   3
ENDBRANCH   1   2
BRANCH   1  29
ATOM     29  C   UNL A   1      32.117  31.746  27.242  1.00  0.00     0.023 C 
BRANCH  29  30
ATOM     30  C   UNL A   1      33.211  32.801  27.365  1.00  0.00     0.116 C 
BRANCH  30  31
ATOM     31  N   UNL A   1      32.713  34.130  27.697  1.00  0.00    -0.352 N 
ATOM     32  C   UNL A   1      33.130  34.992  28.689  1.00  0.00     0.251 C 
ATOM     33  H   UNL A   1      31.974  34.457  27.135  1.00  0.00     0.163 HD
ATOM     34  O   UNL A   1      32.514  36.027  28.907  1.00  0.00    -0.269 OA
BRANCH  32  35
ATOM     35  C   UNL A   1      34.305  34.623  29.506  1.00  0.00     0.039 A 
ATOM     36  C   UNL A   1      34.115  33.992  30.738  1.00  0.00     0.014 A 
ATOM     37  C   UNL A   1      35.592  34.824  29.004  1.00  0.00     0.014 A 
ATOM     38  C   UNL A   1      35.219  33.471  31.418  1.00  0.00     0.010 A 
ATOM     39  C   UNL A   1      36.673  34.218  29.631  1.00  0.00     0.010 A 
ATOM     40  C   UNL A   1      36.499  33.531  30.843  1.00  0.00    -0.014 A 
BRANCH  40  41
ATOM     41  C   UNL A   1      37.681  32.887  31.475  1.00  0.00     0.031 A 
ATOM     42  C   UNL A   1      38.421  31.806  30.735  1.00  0.00     0.074 A 
ATOM     43  C   UNL A   1      38.020  33.198  32.743  1.00  0.00     0.049 A 
ATOM     44  N   UNL A   1      39.371  31.012  31.154  1.00  0.00    -0.248 NA
ATOM     45  C   UNL A   1      37.997  31.554  29.348  1.00  0.00     0.031 C 
ATOM     46  C   UNL A   1      37.347  34.195  33.581  1.00  0.00     0.029 A 
ATOM     47  N   UNL A   1      39.003  32.696  33.559  1.00  0.00    -0.354 N 
ATOM     48  C   UNL A   1      39.640  30.151  30.095  1.00  0.00     0.074 A 
ATOM     49  C   UNL A   1      38.703  30.477  29.042  1.00  0.00     0.031 C 
ATOM     50  C   UNL A   1      37.951  34.245  34.779  1.00  0.00     0.029 A 
ATOM     51  C   UNL A   1      39.019  33.252  34.818  1.00  0.00     0.049 A 
ATOM     52  H   UNL A   1      39.639  32.001  33.270  1.00  0.00     0.167 HD
ATOM     53  C   UNL A   1      40.598  29.195  29.999  1.00  0.00     0.034 A 
ATOM     54  C   UNL A   1      39.795  32.980  35.886  1.00  0.00     0.034 A 
ATOM     55  C   UNL A   1      41.537  28.904  31.053  1.00  0.00     0.049 A 
ATOM     56  C   UNL A   1      40.850  31.909  35.760  1.00  0.00     0.074 A 
ATOM     57  C   UNL A   1      42.588  28.003  31.048  1.00  0.00     0.029 A 
ATOM     58  N   UNL A   1      41.540  29.507  32.305  1.00  0.00    -0.354 N 
ATOM     59  N   UNL A   1      41.125  31.137  34.733  1.00  0.00    -0.248 NA
ATOM     60  C   UNL A   1      41.704  31.679  36.932  1.00  0.00     0.031 C 
ATOM     61  C   UNL A   1      43.181  28.014  32.314  1.00  0.00     0.029 A 
ATOM     62  C   UNL A   1      42.555  28.979  33.087  1.00  0.00     0.049 A 
ATOM     63  H   UNL A   1      40.912  30.209  32.594  1.00  0.00     0.167 HD
ATOM     64  C   UNL A   1      42.207  30.355  35.127  1.00  0.00     0.074 A 
ATOM     65  C   UNL A   1      42.542  30.760  36.476  1.00  0.00     0.031 C 
ATOM     66  C   UNL A   1      42.869  29.392  34.435  1.00  0.00     0.034 A 
BRANCH  53  67
ATOM     67  C   UNL A   1      40.655  28.394  28.719  1.00  0.00     0.023 A 
ATOM     68  C   UNL A   1      40.001  27.155  28.593  1.00  0.00     0.031 A 
ATOM     69  C   UNL A   1      41.402  28.856  27.621  1.00  0.00     0.131 A 
ATOM     70  C   UNL A   1      40.176  26.384  27.434  1.00  0.00     0.055 A 
ATOM     71  C   UNL A   1      41.498  28.124  26.435  1.00  0.00     0.041 A 
ATOM     72  F   UNL A   1      42.067  30.020  27.686  1.00  0.00    -0.206 F 
ATOM     73  C   UNL A   1      40.898  26.872  26.343  1.00  0.00     0.022 A 
BRANCH  70  74
ATOM     74  S   UNL A   1      39.577  24.672  27.438  1.00  0.00     0.124 S 
ATOM     75  O   UNL A   1      40.832  23.923  27.459  1.00  0.00    -0.237 OA
ATOM     76  O   UNL A   1      38.782  24.619  28.658  1.00  0.00    -0.237 OA
ATOM     77  O   UNL A   1      38.821  24.571  26.192  1.00  0.00    -0.744 OA
ENDBRANCH  70  74
ENDBRANCH  53  67
BRANCH  54  78
ATOM     78  C   UNL A   1      39.610  33.720  37.169  1.00  0.00     0.023 A 
ATOM     79  C   UNL A   1      40.372  34.864  37.459  1.00  0.00     0.031 A 
ATOM     80  C   UNL A   1      38.699  33.274  38.143  1.00  0.00     0.131 A 
ATOM     81  C   UNL A   1      40.248  35.492  38.708  1.00  0.00     0.055 A 
ATOM     82  C   UNL A   1      38.538  33.936  39.362  1.00  0.00     0.041 A 
ATOM     83  F   UNL A   1      37.938  32.190  37.917  1.00  0.00    -0.206 F 
ATOM     84  C   UNL A   1      39.325  35.044  39.656  1.00  0.00     0.022 A 
BRANCH  81  85
ATOM     85  S   UNL A   1      41.375  36.855  39.109  1.00  0.00     0.124 S 
ATOM     86  O   UNL A   1      40.441  37.926  39.435  1.00  0.00    -0.237 OA
ATOM     87  O   UNL A   1      42.132  36.301  40.227  1.00  0.00    -0.237 OA
ATOM     88  O   UNL A   1      42.136  37.042  37.876  1.00  0.00    -0.744 OA
ENDBRANCH  81  85
ENDBRANCH  54  78
BRANCH  66  89
ATOM     89  C   UNL A   1      44.053  28.751  35.116  1.00  0.00     0.023 A 
ATOM     90  C   UNL A   1      43.895  27.784  36.123  1.00  0.00     0.031 A 
ATOM     91  C   UNL A   1      45.360  29.123  34.754  1.00  0.00     0.131 A 
ATOM     92  C   UNL A   1      45.022  27.263  36.774  1.00  0.00     0.055 A 
ATOM     93  C   UNL A   1      46.481  28.555  35.361  1.00  0.00     0.041 A 
ATOM     94  F   UNL A   1      45.570  30.044  33.799  1.00  0.00    -0.206 F 
ATOM     95  C   UNL A   1      46.315  27.629  36.388  1.00  0.00     0.022 A 
BRANCH  92  96
ATOM     96  S   UNL A   1      44.777  26.171  38.201  1.00  0.00     0.124 S 
ATOM     97  O   UNL A   1      45.651  26.778  39.200  1.00  0.00    -0.237 OA
ATOM     98  O   UNL A   1      43.344  26.295  38.447  1.00  0.00    -0.237 OA
ATOM     99  O   UNL A   1      45.210  24.864  37.710  1.00  0.00    -0.744 OA
ENDBRANCH  92  96
ENDBRANCH  66  89
ENDBRANCH  40  41
ENDBRANCH  32  35
ENDBRANCH  30  31
ENDBRANCH  29  30
ENDBRANCH   1  29
TORSDOF 19
ENDMDL
