MODEL 1
REMARK VINA RESULT:     -11.2      0.000      0.000
REMARK SMILES CC(C)(C[S@](=O)c1cccc(Cl)c1)C(=O)NCCCCNC(=O)c1ccc(-c2c3nc(c(-c4cc(S(=O)(=O)[O-])ccc4F)c4ccc([nH]4)c(-c4cc(S(=O)(=O)[O-])ccc4F)c4nc(c(-c5cc(S(=O)(=O)[O-])ccc5F)c5ccc2[nH]5)C=C4)C=C3)cc1
REMARK SMILES IDX 18 1 17 2 16 3 14 4 15 5 2 7 1 8 3 9 4 10 5 11 6 12 7 13
REMARK SMILES IDX 8 14 13 15 9 16 11 17 10 18 12 19 19 20 20 21 21 22 22 23
REMARK SMILES IDX 23 25 24 26 25 27 86 28 26 29 85 30 27 31 28 32 29 33 79 34
REMARK SMILES IDX 30 35 84 36 78 37 80 38 31 39 83 40 77 41 76 42 32 44 64 45
REMARK SMILES IDX 44 46 63 47 45 48 48 49 62 50 81 51 46 52 47 53 61 55 82 56
REMARK SMILES IDX 49 57 33 58 34 59 42 60 35 61 41 62 43 63 40 64 36 65 37 66
REMARK SMILES IDX 38 67 39 68 65 69 66 70 74 71 67 72 73 73 75 74 72 75 68 76
REMARK SMILES IDX 69 77 70 78 71 79 50 80 51 81 59 82 52 83 58 84 60 85 57 86
REMARK SMILES IDX 53 87 54 88 55 89 56 90
REMARK H PARENT 16 6 21 24 80 43 48 54
REMARK Flexibility Score: inf
ROOT
ATOM      1  C   UNL A   1      35.378  23.311  26.134  1.00  0.00     0.023 C 
ENDROOT
BRANCH   1   2
ATOM      2  C   UNL A   1      33.907  23.371  26.533  1.00  0.00     0.116 C 
BRANCH   2   3
ATOM      3  N   UNL A   1      33.065  22.472  25.771  1.00  0.00    -0.356 N 
ATOM      4  C   UNL A   1      32.145  22.674  24.790  1.00  0.00     0.226 C 
ATOM      5  O   UNL A   1      31.691  21.660  24.248  1.00  0.00    -0.274 OA
ATOM      6  H   UNL A   1      33.184  21.524  26.011  1.00  0.00     0.163 HD
BRANCH   4   7
ATOM      7  C   UNL A   1      31.713  24.078  24.321  1.00  0.00     0.055 C 
ATOM      8  C   UNL A   1      31.078  24.829  25.518  1.00  0.00     0.022 C 
ATOM      9  C   UNL A   1      30.552  23.943  23.305  1.00  0.00     0.022 C 
BRANCH   7  10
ATOM     10  C   UNL A   1      32.852  24.921  23.704  1.00  0.00     0.126 C 
BRANCH  10  11
ATOM     11  S   UNL A   1      32.537  25.885  22.188  1.00  0.00     0.054 S 
ATOM     12  O   UNL A   1      33.825  26.386  21.616  1.00  0.00    -0.254 OA
BRANCH  11  13
ATOM     13  C   UNL A   1      31.677  27.310  22.863  1.00  0.00     0.040 A 
ATOM     14  C   UNL A   1      30.408  27.673  22.399  1.00  0.00     0.018 A 
ATOM     15  C   UNL A   1      32.269  28.045  23.894  1.00  0.00     0.038 A 
ATOM     16  C   UNL A   1      29.769  28.809  22.901  1.00  0.00     0.003 A 
ATOM     17  C   UNL A   1      31.613  29.162  24.412  1.00  0.00     0.042 A 
ATOM     18  C   UNL A   1      30.375  29.558  23.907  1.00  0.00     0.020 A 
ATOM     19  Cl  UNL A   1      32.343  30.062  25.684  1.00  0.00    -0.084 Cl
ENDBRANCH  11  13
ENDBRANCH  10  11
ENDBRANCH   7  10
ENDBRANCH   4   7
ENDBRANCH   2   3
ENDBRANCH   1   2
BRANCH   1  20
ATOM     20  C   UNL A   1      35.951  21.908  25.942  1.00  0.00     0.023 C 
BRANCH  20  21
ATOM     21  C   UNL A   1      37.176  21.810  25.037  1.00  0.00     0.116 C 
BRANCH  21  22
ATOM     22  N   UNL A   1      38.068  20.713  25.387  1.00  0.00    -0.352 N 
ATOM     23  C   UNL A   1      39.280  20.758  26.034  1.00  0.00     0.251 C 
ATOM     24  H   UNL A   1      37.761  19.815  25.126  1.00  0.00     0.163 HD
ATOM     25  O   UNL A   1      39.946  19.733  26.157  1.00  0.00    -0.269 OA
BRANCH  23  26
ATOM     26  C   UNL A   1      39.795  22.050  26.539  1.00  0.00     0.039 A 
ATOM     27  C   UNL A   1      40.802  22.047  27.507  1.00  0.00     0.014 A 
ATOM     28  C   UNL A   1      39.312  23.259  26.030  1.00  0.00     0.014 A 
ATOM     29  C   UNL A   1      41.383  23.254  27.905  1.00  0.00     0.010 A 
ATOM     30  C   UNL A   1      39.941  24.452  26.374  1.00  0.00     0.010 A 
ATOM     31  C   UNL A   1      40.987  24.463  27.311  1.00  0.00    -0.014 A 
BRANCH  31  32
ATOM     32  C   UNL A   1      41.641  25.753  27.655  1.00  0.00     0.031 A 
ATOM     33  C   UNL A   1      40.875  26.794  28.426  1.00  0.00     0.074 A 
ATOM     34  C   UNL A   1      42.885  26.019  27.210  1.00  0.00     0.049 A 
ATOM     35  N   UNL A   1      41.205  28.027  28.709  1.00  0.00    -0.248 NA
ATOM     36  C   UNL A   1      39.545  26.398  28.916  1.00  0.00     0.031 C 
ATOM     37  C   UNL A   1      43.719  25.103  26.428  1.00  0.00     0.029 A 
ATOM     38  N   UNL A   1      43.662  27.144  27.336  1.00  0.00    -0.354 N 
ATOM     39  C   UNL A   1      40.119  28.563  29.393  1.00  0.00     0.074 A 
ATOM     40  C   UNL A   1      39.099  27.535  29.429  1.00  0.00     0.031 C 
ATOM     41  C   UNL A   1      44.894  25.696  26.162  1.00  0.00     0.029 A 
ATOM     42  C   UNL A   1      44.882  27.049  26.706  1.00  0.00     0.049 A 
ATOM     43  H   UNL A   1      43.372  27.945  27.830  1.00  0.00     0.167 HD
ATOM     44  C   UNL A   1      39.991  29.788  29.959  1.00  0.00     0.034 A 
ATOM     45  C   UNL A   1      45.870  27.957  26.571  1.00  0.00     0.034 A 
ATOM     46  C   UNL A   1      41.022  30.796  29.929  1.00  0.00     0.049 A 
ATOM     47  C   UNL A   1      45.696  29.323  27.187  1.00  0.00     0.074 A 
ATOM     48  C   UNL A   1      41.012  32.060  30.495  1.00  0.00     0.029 A 
ATOM     49  N   UNL A   1      42.252  30.657  29.298  1.00  0.00    -0.354 N 
ATOM     50  N   UNL A   1      44.671  29.805  27.852  1.00  0.00    -0.248 NA
ATOM     51  C   UNL A   1      46.814  30.264  27.042  1.00  0.00     0.031 C 
ATOM     52  C   UNL A   1      42.210  32.702  30.163  1.00  0.00     0.029 A 
ATOM     53  C   UNL A   1      42.998  31.815  29.448  1.00  0.00     0.049 A 
ATOM     54  H   UNL A   1      42.549  29.852  28.814  1.00  0.00     0.167 HD
ATOM     55  C   UNL A   1      45.042  31.091  28.239  1.00  0.00     0.074 A 
ATOM     56  C   UNL A   1      46.384  31.305  27.739  1.00  0.00     0.031 C 
ATOM     57  C   UNL A   1      44.339  32.010  28.949  1.00  0.00     0.034 A 
BRANCH  44  58
ATOM     58  C   UNL A   1      38.681  30.105  30.637  1.00  0.00     0.023 A 
ATOM     59  C   UNL A   1      37.659  30.805  29.970  1.00  0.00     0.031 A 
ATOM     60  C   UNL A   1      38.458  29.731  31.974  1.00  0.00     0.131 A 
ATOM     61  C   UNL A   1      36.496  31.175  30.663  1.00  0.00     0.055 A 
ATOM     62  C   UNL A   1      37.263  30.031  32.632  1.00  0.00     0.041 A 
ATOM     63  F   UNL A   1      39.404  29.080  32.668  1.00  0.00    -0.206 F 
ATOM     64  C   UNL A   1      36.280  30.770  31.981  1.00  0.00     0.022 A 
BRANCH  61  65
ATOM     65  S   UNL A   1      35.336  32.311  29.856  1.00  0.00     0.124 S 
ATOM     66  O   UNL A   1      36.206  33.438  29.528  1.00  0.00    -0.237 OA
ATOM     67  O   UNL A   1      34.856  31.524  28.726  1.00  0.00    -0.237 OA
ATOM     68  O   UNL A   1      34.343  32.581  30.895  1.00  0.00    -0.744 OA
ENDBRANCH  61  65
ENDBRANCH  44  58
BRANCH  45  69
ATOM     69  C   UNL A   1      47.112  27.623  25.816  1.00  0.00     0.023 A 
ATOM     70  C   UNL A   1      47.222  27.914  24.446  1.00  0.00     0.031 A 
ATOM     71  C   UNL A   1      48.184  26.957  26.435  1.00  0.00     0.131 A 
ATOM     72  C   UNL A   1      48.350  27.487  23.728  1.00  0.00     0.055 A 
ATOM     73  C   UNL A   1      49.329  26.583  25.728  1.00  0.00     0.041 A 
ATOM     74  F   UNL A   1      48.133  26.659  27.744  1.00  0.00    -0.206 F 
ATOM     75  C   UNL A   1      49.410  26.835  24.362  1.00  0.00     0.022 A 
BRANCH  72  76
ATOM     76  S   UNL A   1      48.366  27.710  21.927  1.00  0.00     0.124 S 
ATOM     77  O   UNL A   1      48.569  26.343  21.461  1.00  0.00    -0.237 OA
ATOM     78  O   UNL A   1      47.046  28.282  21.682  1.00  0.00    -0.237 OA
ATOM     79  O   UNL A   1      49.489  28.619  21.707  1.00  0.00    -0.744 OA
ENDBRANCH  72  76
ENDBRANCH  45  69
BRANCH  57  80
ATOM     80  C   UNL A   1      45.041  33.301  29.283  1.00  0.00     0.023 A 
ATOM     81  C   UNL A   1      44.936  34.439  28.465  1.00  0.00     0.031 A 
ATOM     82  C   UNL A   1      45.833  33.387  30.443  1.00  0.00     0.131 A 
ATOM     83  C   UNL A   1      45.654  35.601  28.791  1.00  0.00     0.055 A 
ATOM     84  C   UNL A   1      46.501  34.563  30.791  1.00  0.00     0.041 A 
ATOM     85  F   UNL A   1      45.968  32.329  31.258  1.00  0.00    -0.206 F 
ATOM     86  C   UNL A   1      46.423  35.674  29.956  1.00  0.00     0.022 A 
BRANCH  83  87
ATOM     87  S   UNL A   1      45.632  36.994  27.631  1.00  0.00     0.124 S 
ATOM     88  O   UNL A   1      44.209  37.313  27.565  1.00  0.00    -0.237 OA
ATOM     89  O   UNL A   1      46.474  37.977  28.306  1.00  0.00    -0.237 OA
ATOM     90  O   UNL A   1      46.199  36.430  26.407  1.00  0.00    -0.744 OA
ENDBRANCH  83  87
ENDBRANCH  57  80
ENDBRANCH  31  32
ENDBRANCH  23  26
ENDBRANCH  21  22
ENDBRANCH  20  21
ENDBRANCH   1  20
TORSDOF 17
ENDMDL
MODEL 2
REMARK VINA RESULT:     -11.0      5.357     10.286
REMARK SMILES CC(C)(C[S@](=O)c1cccc(Cl)c1)C(=O)NCCCCNC(=O)c1ccc(-c2c3nc(c(-c4cc(S(=O)(=O)[O-])ccc4F)c4ccc([nH]4)c(-c4cc(S(=O)(=O)[O-])ccc4F)c4nc(c(-c5cc(S(=O)(=O)[O-])ccc5F)c5ccc2[nH]5)C=C4)C=C3)cc1
REMARK SMILES IDX 18 1 17 2 16 3 14 4 15 5 2 7 1 8 3 9 4 10 5 11 6 12 7 13
REMARK SMILES IDX 8 14 13 15 9 16 11 17 10 18 12 19 19 20 20 21 21 22 22 23
REMARK SMILES IDX 23 25 24 26 25 27 86 28 26 29 85 30 27 31 28 32 29 33 79 34
REMARK SMILES IDX 30 35 84 36 78 37 80 38 31 39 83 40 77 41 76 42 32 44 64 45
REMARK SMILES IDX 44 46 63 47 45 48 48 49 62 50 81 51 46 52 47 53 61 55 82 56
REMARK SMILES IDX 49 57 33 58 34 59 42 60 35 61 41 62 43 63 40 64 36 65 37 66
REMARK SMILES IDX 38 67 39 68 65 69 66 70 74 71 67 72 73 73 75 74 72 75 68 76
REMARK SMILES IDX 69 77 70 78 71 79 50 80 51 81 59 82 52 83 58 84 60 85 57 86
REMARK SMILES IDX 53 87 54 88 55 89 56 90
REMARK H PARENT 16 6 21 24 80 43 48 54
REMARK Flexibility Score: inf
ROOT
ATOM      1  C   UNL A   1      32.355  27.945  24.086  1.00  0.00     0.023 C 
ENDROOT
BRANCH   1   2
ATOM      2  C   UNL A   1      32.450  26.846  25.140  1.00  0.00     0.116 C 
BRANCH   2   3
ATOM      3  N   UNL A   1      31.162  26.422  25.648  1.00  0.00    -0.356 N 
ATOM      4  C   UNL A   1      30.654  25.205  25.982  1.00  0.00     0.226 C 
ATOM      5  O   UNL A   1      29.541  25.206  26.520  1.00  0.00    -0.274 OA
ATOM      6  H   UNL A   1      30.527  27.163  25.779  1.00  0.00     0.163 HD
BRANCH   4   7
ATOM      7  C   UNL A   1      31.422  23.886  25.765  1.00  0.00     0.055 C 
ATOM      8  C   UNL A   1      30.593  22.722  26.361  1.00  0.00     0.022 C 
ATOM      9  C   UNL A   1      32.715  23.901  26.617  1.00  0.00     0.022 C 
BRANCH   7  10
ATOM     10  C   UNL A   1      31.774  23.591  24.289  1.00  0.00     0.126 C 
BRANCH  10  11
ATOM     11  S   UNL A   1      33.505  23.726  23.732  1.00  0.00     0.054 S 
ATOM     12  O   UNL A   1      33.565  23.804  22.240  1.00  0.00    -0.254 OA
BRANCH  11  13
ATOM     13  C   UNL A   1      34.139  22.110  24.195  1.00  0.00     0.040 A 
ATOM     14  C   UNL A   1      33.286  21.009  24.323  1.00  0.00     0.018 A 
ATOM     15  C   UNL A   1      35.513  21.943  24.396  1.00  0.00     0.038 A 
ATOM     16  C   UNL A   1      33.785  19.770  24.727  1.00  0.00     0.003 A 
ATOM     17  C   UNL A   1      36.010  20.695  24.772  1.00  0.00     0.042 A 
ATOM     18  C   UNL A   1      35.150  19.613  24.956  1.00  0.00     0.020 A 
ATOM     19  Cl  UNL A   1      37.701  20.492  25.014  1.00  0.00    -0.084 Cl
ENDBRANCH  11  13
ENDBRANCH  10  11
ENDBRANCH   7  10
ENDBRANCH   4   7
ENDBRANCH   2   3
ENDBRANCH   1   2
BRANCH   1  20
ATOM     20  C   UNL A   1      32.863  29.318  24.521  1.00  0.00     0.023 C 
BRANCH  20  21
ATOM     21  C   UNL A   1      32.957  29.544  26.027  1.00  0.00     0.116 C 
BRANCH  21  22
ATOM     22  N   UNL A   1      32.600  30.896  26.434  1.00  0.00    -0.352 N 
ATOM     23  C   UNL A   1      33.276  31.755  27.266  1.00  0.00     0.251 C 
ATOM     24  H   UNL A   1      31.757  31.243  26.061  1.00  0.00     0.163 HD
ATOM     25  O   UNL A   1      32.770  32.830  27.578  1.00  0.00    -0.269 OA
BRANCH  23  26
ATOM     26  C   UNL A   1      34.592  31.359  27.817  1.00  0.00     0.039 A 
ATOM     27  C   UNL A   1      35.571  32.339  28.000  1.00  0.00     0.014 A 
ATOM     28  C   UNL A   1      34.842  30.035  28.186  1.00  0.00     0.014 A 
ATOM     29  C   UNL A   1      36.773  32.005  28.630  1.00  0.00     0.010 A 
ATOM     30  C   UNL A   1      36.009  29.722  28.877  1.00  0.00     0.010 A 
ATOM     31  C   UNL A   1      36.985  30.703  29.112  1.00  0.00    -0.014 A 
BRANCH  31  32
ATOM     32  C   UNL A   1      38.219  30.337  29.857  1.00  0.00     0.031 A 
ATOM     33  C   UNL A   1      39.174  29.335  29.269  1.00  0.00     0.074 A 
ATOM     34  C   UNL A   1      38.439  30.842  31.087  1.00  0.00     0.049 A 
ATOM     35  N   UNL A   1      40.228  28.778  29.806  1.00  0.00    -0.248 NA
ATOM     36  C   UNL A   1      38.882  28.877  27.901  1.00  0.00     0.031 C 
ATOM     37  C   UNL A   1      37.573  31.801  31.778  1.00  0.00     0.029 A 
ATOM     38  N   UNL A   1      39.452  30.609  31.985  1.00  0.00    -0.354 N 
ATOM     39  C   UNL A   1      40.715  27.889  28.853  1.00  0.00     0.074 A 
ATOM     40  C   UNL A   1      39.804  27.942  27.728  1.00  0.00     0.031 C 
ATOM     41  C   UNL A   1      38.101  32.085  32.980  1.00  0.00     0.029 A 
ATOM     42  C   UNL A   1      39.313  31.295  33.170  1.00  0.00     0.049 A 
ATOM     43  H   UNL A   1      40.208  30.005  31.797  1.00  0.00     0.167 HD
ATOM     44  C   UNL A   1      41.829  27.118  28.900  1.00  0.00     0.034 A 
ATOM     45  C   UNL A   1      40.067  31.276  34.286  1.00  0.00     0.034 A 
ATOM     46  C   UNL A   1      42.736  27.088  30.022  1.00  0.00     0.049 A 
ATOM     47  C   UNL A   1      41.289  30.391  34.326  1.00  0.00     0.074 A 
ATOM     48  C   UNL A   1      43.910  26.368  30.164  1.00  0.00     0.029 A 
ATOM     49  N   UNL A   1      42.571  27.811  31.197  1.00  0.00    -0.354 N 
ATOM     50  N   UNL A   1      41.749  29.575  33.406  1.00  0.00    -0.248 NA
ATOM     51  C   UNL A   1      42.098  30.431  35.552  1.00  0.00     0.031 C 
ATOM     52  C   UNL A   1      44.426  26.614  31.441  1.00  0.00     0.029 A 
ATOM     53  C   UNL A   1      43.611  27.541  32.071  1.00  0.00     0.049 A 
ATOM     54  H   UNL A   1      41.823  28.425  31.381  1.00  0.00     0.167 HD
ATOM     55  C   UNL A   1      42.923  29.038  33.928  1.00  0.00     0.074 A 
ATOM     56  C   UNL A   1      43.103  29.627  35.239  1.00  0.00     0.031 C 
ATOM     57  C   UNL A   1      43.780  28.144  33.373  1.00  0.00     0.034 A 
BRANCH  44  58
ATOM     58  C   UNL A   1      42.110  26.233  27.711  1.00  0.00     0.023 A 
ATOM     59  C   UNL A   1      41.642  24.908  27.655  1.00  0.00     0.031 A 
ATOM     60  C   UNL A   1      42.879  26.705  26.633  1.00  0.00     0.131 A 
ATOM     61  C   UNL A   1      42.010  24.079  26.585  1.00  0.00     0.055 A 
ATOM     62  C   UNL A   1      43.172  25.900  25.530  1.00  0.00     0.041 A 
ATOM     63  F   UNL A   1      43.370  27.954  26.639  1.00  0.00    -0.206 F 
ATOM     64  C   UNL A   1      42.750  24.573  25.509  1.00  0.00     0.022 A 
BRANCH  61  65
ATOM     65  S   UNL A   1      41.624  22.310  26.689  1.00  0.00     0.124 S 
ATOM     66  O   UNL A   1      42.484  21.886  27.792  1.00  0.00    -0.237 OA
ATOM     67  O   UNL A   1      40.192  22.314  26.960  1.00  0.00    -0.237 OA
ATOM     68  O   UNL A   1      42.010  21.797  25.375  1.00  0.00    -0.744 OA
ENDBRANCH  61  65
ENDBRANCH  44  58
BRANCH  45  69
ATOM     69  C   UNL A   1      39.699  32.105  35.470  1.00  0.00     0.023 A 
ATOM     70  C   UNL A   1      38.873  31.590  36.482  1.00  0.00     0.031 A 
ATOM     71  C   UNL A   1      40.115  33.444  35.578  1.00  0.00     0.131 A 
ATOM     72  C   UNL A   1      38.442  32.422  37.526  1.00  0.00     0.055 A 
ATOM     73  C   UNL A   1      39.728  34.253  36.649  1.00  0.00     0.041 A 
ATOM     74  F   UNL A   1      40.909  33.986  34.641  1.00  0.00    -0.206 F 
ATOM     75  C   UNL A   1      38.874  33.747  37.624  1.00  0.00     0.022 A 
BRANCH  72  76
ATOM     76  S   UNL A   1      37.224  31.774  38.705  1.00  0.00     0.124 S 
ATOM     77  O   UNL A   1      36.106  32.690  38.510  1.00  0.00    -0.237 OA
ATOM     78  O   UNL A   1      37.030  30.411  38.219  1.00  0.00    -0.237 OA
ATOM     79  O   UNL A   1      37.906  31.883  39.993  1.00  0.00    -0.744 OA
ENDBRANCH  72  76
ENDBRANCH  45  69
BRANCH  57  80
ATOM     80  C   UNL A   1      45.023  27.806  34.157  1.00  0.00     0.023 A 
ATOM     81  C   UNL A   1      45.065  26.726  35.056  1.00  0.00     0.031 A 
ATOM     82  C   UNL A   1      46.183  28.586  34.000  1.00  0.00     0.131 A 
ATOM     83  C   UNL A   1      46.229  26.487  35.803  1.00  0.00     0.055 A 
ATOM     84  C   UNL A   1      47.355  28.310  34.706  1.00  0.00     0.041 A 
ATOM     85  F   UNL A   1      46.195  29.629  33.155  1.00  0.00    -0.206 F 
ATOM     86  C   UNL A   1      47.378  27.262  35.622  1.00  0.00     0.022 A 
BRANCH  83  87
ATOM     87  S   UNL A   1      46.199  25.193  37.074  1.00  0.00     0.124 S 
ATOM     88  O   UNL A   1      46.585  25.934  38.271  1.00  0.00    -0.237 OA
ATOM     89  O   UNL A   1      44.813  24.739  37.025  1.00  0.00    -0.237 OA
ATOM     90  O   UNL A   1      47.185  24.223  36.599  1.00  0.00    -0.744 OA
ENDBRANCH  83  87
ENDBRANCH  57  80
ENDBRANCH  31  32
ENDBRANCH  23  26
ENDBRANCH  21  22
ENDBRANCH  20  21
ENDBRANCH   1  20
TORSDOF 17
ENDMDL
MODEL 3
REMARK VINA RESULT:     -11.0      1.769      2.409
REMARK SMILES CC(C)(C[S@](=O)c1cccc(Cl)c1)C(=O)NCCCCNC(=O)c1ccc(-c2c3nc(c(-c4cc(S(=O)(=O)[O-])ccc4F)c4ccc([nH]4)c(-c4cc(S(=O)(=O)[O-])ccc4F)c4nc(c(-c5cc(S(=O)(=O)[O-])ccc5F)c5ccc2[nH]5)C=C4)C=C3)cc1
REMARK SMILES IDX 18 1 17 2 16 3 14 4 15 5 2 7 1 8 3 9 4 10 5 11 6 12 7 13
REMARK SMILES IDX 8 14 13 15 9 16 11 17 10 18 12 19 19 20 20 21 21 22 22 23
REMARK SMILES IDX 23 25 24 26 25 27 86 28 26 29 85 30 27 31 28 32 29 33 79 34
REMARK SMILES IDX 30 35 84 36 78 37 80 38 31 39 83 40 77 41 76 42 32 44 64 45
REMARK SMILES IDX 44 46 63 47 45 48 48 49 62 50 81 51 46 52 47 53 61 55 82 56
REMARK SMILES IDX 49 57 33 58 34 59 42 60 35 61 41 62 43 63 40 64 36 65 37 66
REMARK SMILES IDX 38 67 39 68 65 69 66 70 74 71 67 72 73 73 75 74 72 75 68 76
REMARK SMILES IDX 69 77 70 78 71 79 50 80 51 81 59 82 52 83 58 84 60 85 57 86
REMARK SMILES IDX 53 87 54 88 55 89 56 90
REMARK H PARENT 16 6 21 24 80 43 48 54
REMARK Flexibility Score: inf
ROOT
ATOM      1  C   UNL A   1      37.194  21.644  24.613  1.00  0.00     0.023 C 
ENDROOT
BRANCH   1   2
ATOM      2  C   UNL A   1      36.603  22.532  25.703  1.00  0.00     0.116 C 
BRANCH   2   3
ATOM      3  N   UNL A   1      35.519  21.906  26.432  1.00  0.00    -0.356 N 
ATOM      4  C   UNL A   1      34.169  21.909  26.267  1.00  0.00     0.226 C 
ATOM      5  O   UNL A   1      33.526  21.150  27.001  1.00  0.00    -0.274 OA
ATOM      6  H   UNL A   1      35.821  21.371  27.203  1.00  0.00     0.163 HD
BRANCH   4   7
ATOM      7  C   UNL A   1      33.457  22.760  25.196  1.00  0.00     0.055 C 
ATOM      8  C   UNL A   1      33.712  22.125  23.806  1.00  0.00     0.022 C 
ATOM      9  C   UNL A   1      34.139  24.146  25.107  1.00  0.00     0.022 C 
BRANCH   7  10
ATOM     10  C   UNL A   1      31.940  22.938  25.432  1.00  0.00     0.126 C 
BRANCH  10  11
ATOM     11  S   UNL A   1      31.359  24.059  26.748  1.00  0.00     0.054 S 
ATOM     12  O   UNL A   1      30.050  23.585  27.293  1.00  0.00    -0.254 OA
BRANCH  11  13
ATOM     13  C   UNL A   1      31.022  25.550  25.803  1.00  0.00     0.040 A 
ATOM     14  C   UNL A   1      30.162  25.525  24.700  1.00  0.00     0.018 A 
ATOM     15  C   UNL A   1      31.600  26.759  26.199  1.00  0.00     0.038 A 
ATOM     16  C   UNL A   1      29.944  26.681  23.948  1.00  0.00     0.003 A 
ATOM     17  C   UNL A   1      31.356  27.917  25.460  1.00  0.00     0.042 A 
ATOM     18  C   UNL A   1      30.545  27.879  24.326  1.00  0.00     0.020 A 
ATOM     19  Cl  UNL A   1      32.066  29.405  25.952  1.00  0.00    -0.084 Cl
ENDBRANCH  11  13
ENDBRANCH  10  11
ENDBRANCH   7  10
ENDBRANCH   4   7
ENDBRANCH   2   3
ENDBRANCH   1   2
BRANCH   1  20
ATOM     20  C   UNL A   1      37.836  20.346  25.098  1.00  0.00     0.023 C 
BRANCH  20  21
ATOM     21  C   UNL A   1      39.001  20.506  26.071  1.00  0.00     0.116 C 
BRANCH  21  22
ATOM     22  N   UNL A   1      39.993  19.444  25.968  1.00  0.00    -0.352 N 
ATOM     23  C   UNL A   1      41.361  19.527  26.067  1.00  0.00     0.251 C 
ATOM     24  H   UNL A   1      39.633  18.542  25.806  1.00  0.00     0.163 HD
ATOM     25  O   UNL A   1      42.050  18.533  25.853  1.00  0.00    -0.269 OA
BRANCH  23  26
ATOM     26  C   UNL A   1      41.996  20.824  26.388  1.00  0.00     0.039 A 
ATOM     27  C   UNL A   1      42.248  21.729  25.353  1.00  0.00     0.014 A 
ATOM     28  C   UNL A   1      42.303  21.162  27.708  1.00  0.00     0.014 A 
ATOM     29  C   UNL A   1      42.734  23.004  25.653  1.00  0.00     0.010 A 
ATOM     30  C   UNL A   1      42.719  22.456  28.010  1.00  0.00     0.010 A 
ATOM     31  C   UNL A   1      42.934  23.393  26.987  1.00  0.00    -0.014 A 
BRANCH  31  32
ATOM     32  C   UNL A   1      43.373  24.768  27.342  1.00  0.00     0.031 A 
ATOM     33  C   UNL A   1      42.398  25.721  27.979  1.00  0.00     0.074 A 
ATOM     34  C   UNL A   1      44.615  25.183  27.022  1.00  0.00     0.049 A 
ATOM     35  N   UNL A   1      42.533  26.995  28.241  1.00  0.00    -0.248 NA
ATOM     36  C   UNL A   1      41.084  25.167  28.340  1.00  0.00     0.031 C 
ATOM     37  C   UNL A   1      45.643  24.363  26.377  1.00  0.00     0.029 A 
ATOM     38  N   UNL A   1      45.222  26.405  27.181  1.00  0.00    -0.354 N 
ATOM     39  C   UNL A   1      41.316  27.402  28.779  1.00  0.00     0.074 A 
ATOM     40  C   UNL A   1      40.439  26.249  28.750  1.00  0.00     0.031 C 
ATOM     41  C   UNL A   1      46.755  25.099  26.213  1.00  0.00     0.029 A 
ATOM     42  C   UNL A   1      46.508  26.454  26.693  1.00  0.00     0.049 A 
ATOM     43  H   UNL A   1      44.777  27.175  27.606  1.00  0.00     0.167 HD
ATOM     44  C   UNL A   1      40.969  28.616  29.273  1.00  0.00     0.034 A 
ATOM     45  C   UNL A   1      47.379  27.480  26.624  1.00  0.00     0.034 A 
ATOM     46  C   UNL A   1      41.859  29.751  29.310  1.00  0.00     0.049 A 
ATOM     47  C   UNL A   1      46.962  28.829  27.157  1.00  0.00     0.074 A 
ATOM     48  C   UNL A   1      41.622  31.018  29.815  1.00  0.00     0.029 A 
ATOM     49  N   UNL A   1      43.159  29.757  28.822  1.00  0.00    -0.354 N 
ATOM     50  N   UNL A   1      45.816  29.191  27.685  1.00  0.00    -0.248 NA
ATOM     51  C   UNL A   1      47.960  29.906  27.092  1.00  0.00     0.031 C 
ATOM     52  C   UNL A   1      42.757  31.803  29.586  1.00  0.00     0.029 A 
ATOM     53  C   UNL A   1      43.729  31.007  29.000  1.00  0.00     0.049 A 
ATOM     54  H   UNL A   1      43.611  28.984  28.409  1.00  0.00     0.167 HD
ATOM     55  C   UNL A   1      45.972  30.525  28.052  1.00  0.00     0.074 A 
ATOM     56  C   UNL A   1      47.323  30.901  27.691  1.00  0.00     0.031 C 
ATOM     57  C   UNL A   1      45.082  31.364  28.640  1.00  0.00     0.034 A 
BRANCH  44  58
ATOM     58  C   UNL A   1      39.561  28.776  29.791  1.00  0.00     0.023 A 
ATOM     59  C   UNL A   1      38.527  29.262  28.970  1.00  0.00     0.031 A 
ATOM     60  C   UNL A   1      39.250  28.469  31.127  1.00  0.00     0.131 A 
ATOM     61  C   UNL A   1      37.255  29.498  29.511  1.00  0.00     0.055 A 
ATOM     62  C   UNL A   1      37.960  28.629  31.638  1.00  0.00     0.041 A 
ATOM     63  F   UNL A   1      40.199  28.021  31.964  1.00  0.00    -0.206 F 
ATOM     64  C   UNL A   1      36.957  29.161  30.833  1.00  0.00     0.022 A 
BRANCH  61  65
ATOM     65  S   UNL A   1      36.037  30.383  28.500  1.00  0.00     0.124 S 
ATOM     66  O   UNL A   1      36.876  30.923  27.433  1.00  0.00    -0.237 OA
ATOM     67  O   UNL A   1      35.115  29.322  28.113  1.00  0.00    -0.237 OA
ATOM     68  O   UNL A   1      35.490  31.381  29.418  1.00  0.00    -0.744 OA
ENDBRANCH  61  65
ENDBRANCH  44  58
BRANCH  45  69
ATOM     69  C   UNL A   1      48.732  27.292  26.023  1.00  0.00     0.023 A 
ATOM     70  C   UNL A   1      48.954  27.539  24.659  1.00  0.00     0.031 A 
ATOM     71  C   UNL A   1      49.806  26.807  26.788  1.00  0.00     0.131 A 
ATOM     72  C   UNL A   1      50.201  27.245  24.088  1.00  0.00     0.055 A 
ATOM     73  C   UNL A   1      51.063  26.567  26.226  1.00  0.00     0.041 A 
ATOM     74  F   UNL A   1      49.651  26.558  28.098  1.00  0.00    -0.206 F 
ATOM     75  C   UNL A   1      51.261  26.772  24.865  1.00  0.00     0.022 A 
BRANCH  72  76
ATOM     76  S   UNL A   1      50.388  27.394  22.289  1.00  0.00     0.124 S 
ATOM     77  O   UNL A   1      50.246  28.833  22.094  1.00  0.00    -0.237 OA
ATOM     78  O   UNL A   1      51.725  26.847  22.078  1.00  0.00    -0.237 OA
ATOM     79  O   UNL A   1      49.294  26.581  21.765  1.00  0.00    -0.744 OA
ENDBRANCH  72  76
ENDBRANCH  45  69
BRANCH  57  80
ATOM     80  C   UNL A   1      45.569  32.746  28.991  1.00  0.00     0.023 A 
ATOM     81  C   UNL A   1      45.473  33.821  28.091  1.00  0.00     0.031 A 
ATOM     82  C   UNL A   1      46.146  32.986  30.252  1.00  0.00     0.131 A 
ATOM     83  C   UNL A   1      45.992  35.076  28.444  1.00  0.00     0.055 A 
ATOM     84  C   UNL A   1      46.611  34.250  30.619  1.00  0.00     0.041 A 
ATOM     85  F   UNL A   1      46.263  31.995  31.149  1.00  0.00    -0.206 F 
ATOM     86  C   UNL A   1      46.546  35.301  29.708  1.00  0.00     0.022 A 
BRANCH  83  87
ATOM     87  S   UNL A   1      46.004  36.397  27.201  1.00  0.00     0.124 S 
ATOM     88  O   UNL A   1      46.665  35.747  26.074  1.00  0.00    -0.237 OA
ATOM     89  O   UNL A   1      44.582  36.678  27.030  1.00  0.00    -0.237 OA
ATOM     90  O   UNL A   1      46.773  37.463  27.841  1.00  0.00    -0.744 OA
ENDBRANCH  83  87
ENDBRANCH  57  80
ENDBRANCH  31  32
ENDBRANCH  23  26
ENDBRANCH  21  22
ENDBRANCH  20  21
ENDBRANCH   1  20
TORSDOF 17
ENDMDL
