MODEL 1
REMARK VINA RESULT:     -11.8      0.000      0.000
REMARK SMILES Cc1cc(C)nc(N2CCCC[C@H]2C(=O)NCCCCNC(=O)c2ccc(-c3c4nc(c(-c5cc(S(=O)(=O)[O-])ccc5F)c5ccc([nH]5)c(-c5cc(S(=O)(=O)[O-])ccc5F)c5nc(c(-c6cc(S(=O)(=O)[O-])ccc6F)c6ccc3[nH]6)C=C5)C=C4)cc2)n1
REMARK SMILES IDX 19 1 18 2 17 3 16 4 14 5 15 6 13 8 8 9 9 10 10 11 12 12
REMARK SMILES IDX 11 13 7 14 1 15 2 16 3 17 87 18 4 19 5 20 6 21 20 22 21 23
REMARK SMILES IDX 22 24 23 26 24 27 25 28 86 29 26 30 85 31 27 32 28 33 29 34
REMARK SMILES IDX 79 35 30 36 84 37 78 38 80 39 31 40 83 41 77 42 76 43 32 45
REMARK SMILES IDX 64 46 44 47 63 48 45 49 48 50 62 51 81 52 46 53 47 54 61 56
REMARK SMILES IDX 82 57 49 58 33 59 34 60 42 61 35 62 41 63 43 64 40 65 36 66
REMARK SMILES IDX 37 67 38 68 39 69 65 70 66 71 74 72 67 73 73 74 75 75 72 76
REMARK SMILES IDX 68 77 69 78 70 79 71 80 50 81 51 82 59 83 52 84 58 85 60 86
REMARK SMILES IDX 57 87 53 88 54 89 55 90 56 91
REMARK H PARENT 16 7 21 25 80 44 48 55
REMARK Flexibility Score: inf
ROOT
ATOM      1  C   UNL A   1      32.137  29.664  25.327  1.00  0.00     0.023 C 
ENDROOT
BRANCH   1   2
ATOM      2  C   UNL A   1      33.236  28.707  24.865  1.00  0.00     0.023 C 
BRANCH   2   3
ATOM      3  C   UNL A   1      33.676  27.665  25.888  1.00  0.00     0.116 C 
BRANCH   3   4
ATOM      4  N   UNL A   1      32.811  26.507  25.943  1.00  0.00    -0.354 N 
ATOM      5  C   UNL A   1      32.990  25.287  25.345  1.00  0.00     0.242 C 
ATOM      6  O   UNL A   1      32.206  24.391  25.676  1.00  0.00    -0.273 OA
ATOM      7  H   UNL A   1      31.990  26.608  26.478  1.00  0.00     0.163 HD
BRANCH   5   8
ATOM      8  C   UNL A   1      34.105  25.072  24.283  1.00  0.00     0.174 C 
ATOM      9  N   UNL A   1      34.469  23.666  24.139  1.00  0.00    -0.329 N 
ATOM     10  C   UNL A   1      33.537  22.729  23.559  1.00  0.00     0.120 C 
ATOM     11  C   UNL A   1      33.142  23.217  22.166  1.00  0.00     0.022 C 
ATOM     12  C   UNL A   1      33.654  25.593  22.901  1.00  0.00     0.035 C 
ATOM     13  C   UNL A   1      32.660  24.667  22.186  1.00  0.00     0.004 C 
BRANCH   9  14
ATOM     14  C   UNL A   1      35.659  23.210  24.625  1.00  0.00     0.226 A 
ATOM     15  C   UNL A   1      37.383  19.984  24.779  1.00  0.00     0.067 C 
ATOM     16  C   UNL A   1      37.110  21.448  24.949  1.00  0.00     0.043 A 
ATOM     17  C   UNL A   1      37.933  22.226  25.729  1.00  0.00     0.047 A 
ATOM     18  N   UNL A   1      35.991  21.936  24.380  1.00  0.00    -0.218 NA
ATOM     19  C   UNL A   1      37.551  23.541  25.890  1.00  0.00     0.043 A 
ATOM     20  C   UNL A   1      38.399  24.469  26.707  1.00  0.00     0.067 C 
ATOM     21  N   UNL A   1      36.408  24.036  25.369  1.00  0.00    -0.218 NA
ENDBRANCH   9  14
ENDBRANCH   5   8
ENDBRANCH   3   4
ENDBRANCH   2   3
ENDBRANCH   1   2
BRANCH   1  22
ATOM     22  C   UNL A   1      32.148  30.062  26.801  1.00  0.00     0.116 C 
BRANCH  22  23
ATOM     23  N   UNL A   1      32.177  31.498  27.031  1.00  0.00    -0.352 N 
ATOM     24  C   UNL A   1      33.212  32.299  27.459  1.00  0.00     0.251 C 
ATOM     25  H   UNL A   1      31.329  31.967  26.856  1.00  0.00     0.163 HD
ATOM     26  O   UNL A   1      33.028  33.510  27.578  1.00  0.00    -0.269 OA
BRANCH  24  27
ATOM     27  C   UNL A   1      34.509  31.697  27.844  1.00  0.00     0.039 A 
ATOM     28  C   UNL A   1      35.613  32.542  28.002  1.00  0.00     0.014 A 
ATOM     29  C   UNL A   1      34.632  30.332  28.113  1.00  0.00     0.014 A 
ATOM     30  C   UNL A   1      36.799  32.040  28.542  1.00  0.00     0.010 A 
ATOM     31  C   UNL A   1      35.793  29.846  28.715  1.00  0.00     0.010 A 
ATOM     32  C   UNL A   1      36.877  30.702  28.963  1.00  0.00    -0.014 A 
BRANCH  32  33
ATOM     33  C   UNL A   1      38.061  30.203  29.713  1.00  0.00     0.031 A 
ATOM     34  C   UNL A   1      38.333  30.680  31.113  1.00  0.00     0.074 A 
ATOM     35  C   UNL A   1      38.926  29.367  29.104  1.00  0.00     0.049 A 
ATOM     36  N   UNL A   1      39.350  30.417  31.893  1.00  0.00    -0.248 NA
ATOM     37  C   UNL A   1      37.344  31.596  31.699  1.00  0.00     0.031 C 
ATOM     38  C   UNL A   1      38.797  28.873  27.729  1.00  0.00     0.029 A 
ATOM     39  N   UNL A   1      40.088  28.789  29.550  1.00  0.00    -0.354 N 
ATOM     40  C   UNL A   1      39.126  31.134  33.064  1.00  0.00     0.074 A 
ATOM     41  C   UNL A   1      37.906  31.889  32.863  1.00  0.00     0.031 C 
ATOM     42  C   UNL A   1      39.825  28.054  27.455  1.00  0.00     0.029 A 
ATOM     43  C   UNL A   1      40.708  27.990  28.615  1.00  0.00     0.049 A 
ATOM     44  H   UNL A   1      40.446  28.932  30.456  1.00  0.00     0.167 HD
ATOM     45  C   UNL A   1      39.857  31.145  34.206  1.00  0.00     0.034 A 
ATOM     46  C   UNL A   1      41.858  27.291  28.683  1.00  0.00     0.034 A 
ATOM     47  C   UNL A   1      41.072  30.391  34.393  1.00  0.00     0.049 A 
ATOM     48  C   UNL A   1      42.645  27.311  29.969  1.00  0.00     0.074 A 
ATOM     49  C   UNL A   1      41.896  30.336  35.505  1.00  0.00     0.029 A 
ATOM     50  N   UNL A   1      41.638  29.550  33.443  1.00  0.00    -0.354 N 
ATOM     51  N   UNL A   1      42.402  27.977  31.075  1.00  0.00    -0.248 NA
ATOM     52  C   UNL A   1      43.847  26.469  30.025  1.00  0.00     0.031 C 
ATOM     53  C   UNL A   1      42.975  29.492  35.215  1.00  0.00     0.029 A 
ATOM     54  C   UNL A   1      42.796  28.974  33.943  1.00  0.00     0.049 A 
ATOM     55  H   UNL A   1      41.269  29.387  32.544  1.00  0.00     0.167 HD
ATOM     56  C   UNL A   1      43.402  27.600  31.968  1.00  0.00     0.074 A 
ATOM     57  C   UNL A   1      44.238  26.641  31.277  1.00  0.00     0.031 C 
ATOM     58  C   UNL A   1      43.609  28.010  33.244  1.00  0.00     0.034 A 
BRANCH  45  59
ATOM     59  C   UNL A   1      39.359  32.018  35.331  1.00  0.00     0.023 A 
ATOM     60  C   UNL A   1      39.751  33.364  35.439  1.00  0.00     0.031 A 
ATOM     61  C   UNL A   1      38.509  31.498  36.322  1.00  0.00     0.131 A 
ATOM     62  C   UNL A   1      39.352  34.123  36.548  1.00  0.00     0.055 A 
ATOM     63  C   UNL A   1      38.053  32.282  37.384  1.00  0.00     0.041 A 
ATOM     64  F   UNL A   1      38.116  30.215  36.283  1.00  0.00    -0.206 F 
ATOM     65  C   UNL A   1      38.486  33.600  37.510  1.00  0.00     0.022 A 
BRANCH  62  66
ATOM     66  S   UNL A   1      40.081  35.767  36.779  1.00  0.00     0.124 S 
ATOM     67  O   UNL A   1      39.653  36.452  35.561  1.00  0.00    -0.237 OA
ATOM     68  O   UNL A   1      39.460  36.220  38.017  1.00  0.00    -0.237 OA
ATOM     69  O   UNL A   1      41.515  35.497  36.862  1.00  0.00    -0.744 OA
ENDBRANCH  62  66
ENDBRANCH  45  59
BRANCH  46  70
ATOM     70  C   UNL A   1      42.347  26.511  27.509  1.00  0.00     0.023 A 
ATOM     71  C   UNL A   1      42.106  25.132  27.408  1.00  0.00     0.031 A 
ATOM     72  C   UNL A   1      43.120  27.120  26.505  1.00  0.00     0.131 A 
ATOM     73  C   UNL A   1      42.685  24.394  26.363  1.00  0.00     0.055 A 
ATOM     74  C   UNL A   1      43.647  26.393  25.437  1.00  0.00     0.041 A 
ATOM     75  F   UNL A   1      43.371  28.438  26.547  1.00  0.00    -0.206 F 
ATOM     76  C   UNL A   1      43.446  25.016  25.373  1.00  0.00     0.022 A 
BRANCH  73  77
ATOM     77  S   UNL A   1      42.522  22.587  26.384  1.00  0.00     0.124 S 
ATOM     78  O   UNL A   1      43.535  22.206  27.360  1.00  0.00    -0.237 OA
ATOM     79  O   UNL A   1      41.134  22.416  26.798  1.00  0.00    -0.237 OA
ATOM     80  O   UNL A   1      42.811  22.205  25.003  1.00  0.00    -0.744 OA
ENDBRANCH  73  77
ENDBRANCH  46  70
BRANCH  58  81
ATOM     81  C   UNL A   1      44.748  27.361  33.990  1.00  0.00     0.023 A 
ATOM     82  C   UNL A   1      44.566  26.199  34.759  1.00  0.00     0.031 A 
ATOM     83  C   UNL A   1      46.030  27.937  33.948  1.00  0.00     0.131 A 
ATOM     84  C   UNL A   1      45.635  25.682  35.505  1.00  0.00     0.055 A 
ATOM     85  C   UNL A   1      47.103  27.389  34.652  1.00  0.00     0.041 A 
ATOM     86  F   UNL A   1      46.258  29.048  33.230  1.00  0.00    -0.206 F 
ATOM     87  C   UNL A   1      46.906  26.264  35.448  1.00  0.00     0.022 A 
BRANCH  84  88
ATOM     88  S   UNL A   1      45.323  24.294  36.629  1.00  0.00     0.124 S 
ATOM     89  O   UNL A   1      44.598  23.363  35.770  1.00  0.00    -0.237 OA
ATOM     90  O   UNL A   1      46.673  23.891  37.007  1.00  0.00    -0.237 OA
ATOM     91  O   UNL A   1      44.531  24.891  37.703  1.00  0.00    -0.744 OA
ENDBRANCH  84  88
ENDBRANCH  58  81
ENDBRANCH  32  33
ENDBRANCH  24  27
ENDBRANCH  22  23
ENDBRANCH   1  22
TORSDOF 15
ENDMDL
MODEL 2
REMARK VINA RESULT:     -11.6      4.742     10.059
REMARK SMILES Cc1cc(C)nc(N2CCCC[C@H]2C(=O)NCCCCNC(=O)c2ccc(-c3c4nc(c(-c5cc(S(=O)(=O)[O-])ccc5F)c5ccc([nH]5)c(-c5cc(S(=O)(=O)[O-])ccc5F)c5nc(c(-c6cc(S(=O)(=O)[O-])ccc6F)c6ccc3[nH]6)C=C5)C=C4)cc2)n1
REMARK SMILES IDX 19 1 18 2 17 3 16 4 14 5 15 6 13 8 8 9 9 10 10 11 12 12
REMARK SMILES IDX 11 13 7 14 1 15 2 16 3 17 87 18 4 19 5 20 6 21 20 22 21 23
REMARK SMILES IDX 22 24 23 26 24 27 25 28 86 29 26 30 85 31 27 32 28 33 29 34
REMARK SMILES IDX 79 35 30 36 84 37 78 38 80 39 31 40 83 41 77 42 76 43 32 45
REMARK SMILES IDX 64 46 44 47 63 48 45 49 48 50 62 51 81 52 46 53 47 54 61 56
REMARK SMILES IDX 82 57 49 58 33 59 34 60 42 61 35 62 41 63 43 64 40 65 36 66
REMARK SMILES IDX 37 67 38 68 39 69 65 70 66 71 74 72 67 73 73 74 75 75 72 76
REMARK SMILES IDX 68 77 69 78 70 79 71 80 50 81 51 82 59 83 52 84 58 85 60 86
REMARK SMILES IDX 57 87 53 88 54 89 55 90 56 91
REMARK H PARENT 16 7 21 25 80 44 48 55
REMARK Flexibility Score: inf
ROOT
ATOM      1  C   UNL A   1      37.035  22.300  24.073  1.00  0.00     0.023 C 
ENDROOT
BRANCH   1   2
ATOM      2  C   UNL A   1      35.605  22.746  23.764  1.00  0.00     0.023 C 
BRANCH   2   3
ATOM      3  C   UNL A   1      34.502  21.948  24.451  1.00  0.00     0.116 C 
BRANCH   3   4
ATOM      4  N   UNL A   1      33.193  22.147  23.868  1.00  0.00    -0.354 N 
ATOM      5  C   UNL A   1      32.252  23.086  24.199  1.00  0.00     0.242 C 
ATOM      6  O   UNL A   1      31.277  23.178  23.446  1.00  0.00    -0.273 OA
ATOM      7  H   UNL A   1      32.947  21.529  23.142  1.00  0.00     0.163 HD
BRANCH   5   8
ATOM      8  C   UNL A   1      32.407  23.957  25.478  1.00  0.00     0.174 C 
ATOM      9  N   UNL A   1      31.702  25.231  25.368  1.00  0.00    -0.329 N 
ATOM     10  C   UNL A   1      30.259  25.265  25.345  1.00  0.00     0.120 C 
ATOM     11  C   UNL A   1      29.725  24.583  26.604  1.00  0.00     0.022 C 
ATOM     12  C   UNL A   1      31.860  23.214  26.717  1.00  0.00     0.035 C 
ATOM     13  C   UNL A   1      30.328  23.193  26.798  1.00  0.00     0.004 C 
BRANCH   9  14
ATOM     14  C   UNL A   1      32.399  26.391  25.204  1.00  0.00     0.226 A 
ATOM     15  C   UNL A   1      33.851  28.222  22.386  1.00  0.00     0.067 C 
ATOM     16  C   UNL A   1      33.448  27.877  23.788  1.00  0.00     0.043 A 
ATOM     17  C   UNL A   1      33.937  28.598  24.852  1.00  0.00     0.047 A 
ATOM     18  N   UNL A   1      32.667  26.793  23.955  1.00  0.00    -0.218 NA
ATOM     19  C   UNL A   1      33.574  28.152  26.105  1.00  0.00     0.043 A 
ATOM     20  C   UNL A   1      34.043  28.889  27.324  1.00  0.00     0.067 C 
ATOM     21  N   UNL A   1      32.832  27.040  26.295  1.00  0.00    -0.218 NA
ENDBRANCH   9  14
ENDBRANCH   5   8
ENDBRANCH   3   4
ENDBRANCH   2   3
ENDBRANCH   1   2
BRANCH   1  22
ATOM     22  C   UNL A   1      37.313  21.830  25.499  1.00  0.00     0.116 C 
BRANCH  22  23
ATOM     23  N   UNL A   1      38.520  21.029  25.638  1.00  0.00    -0.352 N 
ATOM     24  C   UNL A   1      39.712  21.334  26.255  1.00  0.00     0.251 C 
ATOM     25  H   UNL A   1      38.477  20.134  25.229  1.00  0.00     0.163 HD
ATOM     26  O   UNL A   1      40.614  20.499  26.271  1.00  0.00    -0.269 OA
BRANCH  24  27
ATOM     27  C   UNL A   1      39.930  22.684  26.826  1.00  0.00     0.039 A 
ATOM     28  C   UNL A   1      40.838  22.820  27.881  1.00  0.00     0.014 A 
ATOM     29  C   UNL A   1      39.304  23.814  26.294  1.00  0.00     0.014 A 
ATOM     30  C   UNL A   1      41.208  24.094  28.319  1.00  0.00     0.010 A 
ATOM     31  C   UNL A   1      39.723  25.086  26.685  1.00  0.00     0.010 A 
ATOM     32  C   UNL A   1      40.702  25.238  27.680  1.00  0.00    -0.014 A 
BRANCH  32  33
ATOM     33  C   UNL A   1      41.229  26.591  28.003  1.00  0.00     0.031 A 
ATOM     34  C   UNL A   1      42.656  26.948  27.693  1.00  0.00     0.074 A 
ATOM     35  C   UNL A   1      40.432  27.477  28.637  1.00  0.00     0.049 A 
ATOM     36  N   UNL A   1      43.312  28.045  27.968  1.00  0.00    -0.248 NA
ATOM     37  C   UNL A   1      43.456  25.922  27.009  1.00  0.00     0.031 C 
ATOM     38  C   UNL A   1      39.043  27.229  29.037  1.00  0.00     0.029 A 
ATOM     39  N   UNL A   1      40.672  28.759  29.065  1.00  0.00    -0.354 N 
ATOM     40  C   UNL A   1      44.604  27.845  27.492  1.00  0.00     0.074 A 
ATOM     41  C   UNL A   1      44.649  26.496  26.966  1.00  0.00     0.031 C 
ATOM     42  C   UNL A   1      38.552  28.328  29.632  1.00  0.00     0.029 A 
ATOM     43  C   UNL A   1      39.595  29.346  29.692  1.00  0.00     0.049 A 
ATOM     44  H   UNL A   1      41.534  29.216  28.937  1.00  0.00     0.167 HD
ATOM     45  C   UNL A   1      45.647  28.711  27.476  1.00  0.00     0.034 A 
ATOM     46  C   UNL A   1      39.465  30.564  30.255  1.00  0.00     0.034 A 
ATOM     47  C   UNL A   1      45.590  30.052  28.006  1.00  0.00     0.049 A 
ATOM     48  C   UNL A   1      40.637  31.512  30.212  1.00  0.00     0.074 A 
ATOM     49  C   UNL A   1      46.590  31.010  28.049  1.00  0.00     0.029 A 
ATOM     50  N   UNL A   1      44.466  30.630  28.582  1.00  0.00    -0.354 N 
ATOM     51  N   UNL A   1      41.844  31.312  29.733  1.00  0.00    -0.248 NA
ATOM     52  C   UNL A   1      40.423  32.857  30.763  1.00  0.00     0.031 C 
ATOM     53  C   UNL A   1      46.081  32.151  28.681  1.00  0.00     0.029 A 
ATOM     54  C   UNL A   1      44.748  31.928  28.981  1.00  0.00     0.049 A 
ATOM     55  H   UNL A   1      43.595  30.183  28.690  1.00  0.00     0.167 HD
ATOM     56  C   UNL A   1      42.517  32.520  29.893  1.00  0.00     0.074 A 
ATOM     57  C   UNL A   1      41.579  33.444  30.496  1.00  0.00     0.031 C 
ATOM     58  C   UNL A   1      43.796  32.838  29.569  1.00  0.00     0.034 A 
BRANCH  45  59
ATOM     59  C   UNL A   1      46.940  28.218  26.876  1.00  0.00     0.023 A 
ATOM     60  C   UNL A   1      47.140  28.206  25.484  1.00  0.00     0.031 A 
ATOM     61  C   UNL A   1      47.972  27.729  27.694  1.00  0.00     0.131 A 
ATOM     62  C   UNL A   1      48.311  27.651  24.949  1.00  0.00     0.055 A 
ATOM     63  C   UNL A   1      49.169  27.247  27.158  1.00  0.00     0.041 A 
ATOM     64  F   UNL A   1      47.831  27.697  29.029  1.00  0.00    -0.206 F 
ATOM     65  C   UNL A   1      49.339  27.193  25.777  1.00  0.00     0.022 A 
BRANCH  62  66
ATOM     66  S   UNL A   1      48.420  27.423  23.154  1.00  0.00     0.124 S 
ATOM     67  O   UNL A   1      49.727  28.010  22.862  1.00  0.00    -0.237 OA
ATOM     68  O   UNL A   1      48.324  25.976  23.010  1.00  0.00    -0.237 OA
ATOM     69  O   UNL A   1      47.278  28.179  22.643  1.00  0.00    -0.744 OA
ENDBRANCH  62  66
ENDBRANCH  45  59
BRANCH  46  70
ATOM     70  C   UNL A   1      38.188  30.969  30.910  1.00  0.00     0.023 A 
ATOM     71  C   UNL A   1      37.191  31.646  30.190  1.00  0.00     0.031 A 
ATOM     72  C   UNL A   1      37.974  30.746  32.281  1.00  0.00     0.131 A 
ATOM     73  C   UNL A   1      36.054  32.133  30.855  1.00  0.00     0.055 A 
ATOM     74  C   UNL A   1      36.816  31.183  32.927  1.00  0.00     0.041 A 
ATOM     75  F   UNL A   1      38.890  30.094  33.014  1.00  0.00    -0.206 F 
ATOM     76  C   UNL A   1      35.856  31.898  32.216  1.00  0.00     0.022 A 
BRANCH  73  77
ATOM     77  S   UNL A   1      34.892  33.179  29.934  1.00  0.00     0.124 S 
ATOM     78  O   UNL A   1      34.230  32.206  29.075  1.00  0.00    -0.237 OA
ATOM     79  O   UNL A   1      34.082  33.744  31.009  1.00  0.00    -0.237 OA
ATOM     80  O   UNL A   1      35.763  34.129  29.246  1.00  0.00    -0.744 OA
ENDBRANCH  73  77
ENDBRANCH  46  70
BRANCH  58  81
ATOM     81  C   UNL A   1      44.220  34.266  29.800  1.00  0.00     0.023 A 
ATOM     82  C   UNL A   1      43.934  35.285  28.876  1.00  0.00     0.031 A 
ATOM     83  C   UNL A   1      44.949  34.601  30.955  1.00  0.00     0.131 A 
ATOM     84  C   UNL A   1      44.426  36.580  29.091  1.00  0.00     0.055 A 
ATOM     85  C   UNL A   1      45.392  35.903  31.190  1.00  0.00     0.041 A 
ATOM     86  F   UNL A   1      45.250  33.666  31.870  1.00  0.00    -0.206 F 
ATOM     87  C   UNL A   1      45.144  36.899  30.249  1.00  0.00     0.022 A 
BRANCH  84  88
ATOM     88  S   UNL A   1      44.198  37.826  27.794  1.00  0.00     0.124 S 
ATOM     89  O   UNL A   1      43.568  38.919  28.527  1.00  0.00    -0.237 OA
ATOM     90  O   UNL A   1      45.567  38.064  27.348  1.00  0.00    -0.237 OA
ATOM     91  O   UNL A   1      43.338  37.156  26.820  1.00  0.00    -0.744 OA
ENDBRANCH  84  88
ENDBRANCH  58  81
ENDBRANCH  32  33
ENDBRANCH  24  27
ENDBRANCH  22  23
ENDBRANCH   1  22
TORSDOF 15
ENDMDL
MODEL 3
REMARK VINA RESULT:     -11.5      4.355     10.153
REMARK SMILES Cc1cc(C)nc(N2CCCC[C@H]2C(=O)NCCCCNC(=O)c2ccc(-c3c4nc(c(-c5cc(S(=O)(=O)[O-])ccc5F)c5ccc([nH]5)c(-c5cc(S(=O)(=O)[O-])ccc5F)c5nc(c(-c6cc(S(=O)(=O)[O-])ccc6F)c6ccc3[nH]6)C=C5)C=C4)cc2)n1
REMARK SMILES IDX 19 1 18 2 17 3 16 4 14 5 15 6 13 8 8 9 9 10 10 11 12 12
REMARK SMILES IDX 11 13 7 14 1 15 2 16 3 17 87 18 4 19 5 20 6 21 20 22 21 23
REMARK SMILES IDX 22 24 23 26 24 27 25 28 86 29 26 30 85 31 27 32 28 33 29 34
REMARK SMILES IDX 79 35 30 36 84 37 78 38 80 39 31 40 83 41 77 42 76 43 32 45
REMARK SMILES IDX 64 46 44 47 63 48 45 49 48 50 62 51 81 52 46 53 47 54 61 56
REMARK SMILES IDX 82 57 49 58 33 59 34 60 42 61 35 62 41 63 43 64 40 65 36 66
REMARK SMILES IDX 37 67 38 68 39 69 65 70 66 71 74 72 67 73 73 74 75 75 72 76
REMARK SMILES IDX 68 77 69 78 70 79 71 80 50 81 51 82 59 83 52 84 58 85 60 86
REMARK SMILES IDX 57 87 53 88 54 89 55 90 56 91
REMARK H PARENT 16 7 21 25 80 44 48 55
REMARK Flexibility Score: inf
ROOT
ATOM      1  C   UNL A   1      35.776  21.050  24.631  1.00  0.00     0.023 C 
ENDROOT
BRANCH   1   2
ATOM      2  C   UNL A   1      34.486  21.861  24.762  1.00  0.00     0.023 C 
BRANCH   2   3
ATOM      3  C   UNL A   1      34.659  23.309  25.205  1.00  0.00     0.116 C 
BRANCH   3   4
ATOM      4  N   UNL A   1      34.234  24.273  24.214  1.00  0.00    -0.354 N 
ATOM      5  C   UNL A   1      33.589  25.465  24.415  1.00  0.00     0.242 C 
ATOM      6  O   UNL A   1      33.481  26.206  23.433  1.00  0.00    -0.273 OA
ATOM      7  H   UNL A   1      34.431  24.044  23.278  1.00  0.00     0.163 HD
BRANCH   5   8
ATOM      8  C   UNL A   1      33.001  25.833  25.808  1.00  0.00     0.174 C 
ATOM      9  N   UNL A   1      32.190  27.045  25.764  1.00  0.00    -0.329 N 
ATOM     10  C   UNL A   1      30.924  27.049  25.069  1.00  0.00     0.120 C 
ATOM     11  C   UNL A   1      30.032  25.954  25.653  1.00  0.00     0.022 C 
ATOM     12  C   UNL A   1      32.119  24.687  26.350  1.00  0.00     0.035 C 
ATOM     13  C   UNL A   1      30.740  24.600  25.683  1.00  0.00     0.004 C 
BRANCH   9  14
ATOM     14  C   UNL A   1      32.656  28.205  26.307  1.00  0.00     0.226 A 
ATOM     15  C   UNL A   1      31.470  31.658  26.572  1.00  0.00     0.067 C 
ATOM     16  C   UNL A   1      32.342  30.450  26.730  1.00  0.00     0.043 A 
ATOM     17  C   UNL A   1      33.622  30.571  27.219  1.00  0.00     0.047 A 
ATOM     18  N   UNL A   1      31.849  29.274  26.296  1.00  0.00    -0.218 NA
ATOM     19  C   UNL A   1      34.372  29.415  27.247  1.00  0.00     0.043 A 
ATOM     20  C   UNL A   1      35.772  29.448  27.785  1.00  0.00     0.067 C 
ATOM     21  N   UNL A   1      33.913  28.237  26.772  1.00  0.00    -0.218 NA
ENDBRANCH   9  14
ENDBRANCH   5   8
ENDBRANCH   3   4
ENDBRANCH   2   3
ENDBRANCH   1   2
BRANCH   1  22
ATOM     22  C   UNL A   1      37.031  21.652  25.258  1.00  0.00     0.116 C 
BRANCH  22  23
ATOM     23  N   UNL A   1      38.130  20.711  25.415  1.00  0.00    -0.352 N 
ATOM     24  C   UNL A   1      39.332  20.863  26.068  1.00  0.00     0.251 C 
ATOM     25  H   UNL A   1      37.993  19.834  24.988  1.00  0.00     0.163 HD
ATOM     26  O   UNL A   1      40.128  19.926  26.093  1.00  0.00    -0.269 OA
BRANCH  24  27
ATOM     27  C   UNL A   1      39.692  22.169  26.669  1.00  0.00     0.039 A 
ATOM     28  C   UNL A   1      40.715  22.201  27.622  1.00  0.00     0.014 A 
ATOM     29  C   UNL A   1      39.083  23.357  26.258  1.00  0.00     0.014 A 
ATOM     30  C   UNL A   1      41.206  23.429  28.071  1.00  0.00     0.010 A 
ATOM     31  C   UNL A   1      39.618  24.582  26.655  1.00  0.00     0.010 A 
ATOM     32  C   UNL A   1      40.706  24.630  27.542  1.00  0.00    -0.014 A 
BRANCH  32  33
ATOM     33  C   UNL A   1      41.345  25.934  27.863  1.00  0.00     0.031 A 
ATOM     34  C   UNL A   1      42.750  26.225  27.414  1.00  0.00     0.074 A 
ATOM     35  C   UNL A   1      40.677  26.831  28.617  1.00  0.00     0.049 A 
ATOM     36  N   UNL A   1      43.498  27.269  27.663  1.00  0.00    -0.248 NA
ATOM     37  C   UNL A   1      43.409  25.191  26.603  1.00  0.00     0.031 C 
ATOM     38  C   UNL A   1      39.326  26.642  29.156  1.00  0.00     0.029 A 
ATOM     39  N   UNL A   1      41.039  28.075  29.072  1.00  0.00    -0.354 N 
ATOM     40  C   UNL A   1      44.717  27.020  27.040  1.00  0.00     0.074 A 
ATOM     41  C   UNL A   1      44.623  25.698  26.454  1.00  0.00     0.031 C 
ATOM     42  C   UNL A   1      38.969  27.736  29.848  1.00  0.00     0.029 A 
ATOM     43  C   UNL A   1      40.073  28.690  29.837  1.00  0.00     0.049 A 
ATOM     44  H   UNL A   1      41.909  28.489  28.869  1.00  0.00     0.167 HD
ATOM     45  C   UNL A   1      45.803  27.827  26.947  1.00  0.00     0.034 A 
ATOM     46  C   UNL A   1      40.079  29.884  30.462  1.00  0.00     0.034 A 
ATOM     47  C   UNL A   1      45.885  29.141  27.536  1.00  0.00     0.049 A 
ATOM     48  C   UNL A   1      41.295  30.767  30.332  1.00  0.00     0.074 A 
ATOM     49  C   UNL A   1      46.941  30.038  27.511  1.00  0.00     0.029 A 
ATOM     50  N   UNL A   1      44.867  29.752  28.256  1.00  0.00    -0.354 N 
ATOM     51  N   UNL A   1      42.429  30.522  29.716  1.00  0.00    -0.248 NA
ATOM     52  C   UNL A   1      41.224  32.092  30.960  1.00  0.00     0.031 C 
ATOM     53  C   UNL A   1      46.573  31.174  28.243  1.00  0.00     0.029 A 
ATOM     54  C   UNL A   1      45.268  31.011  28.677  1.00  0.00     0.049 A 
ATOM     55  H   UNL A   1      43.987  29.350  28.440  1.00  0.00     0.167 HD
ATOM     56  C   UNL A   1      43.188  31.681  29.852  1.00  0.00     0.074 A 
ATOM     57  C   UNL A   1      42.378  32.626  30.594  1.00  0.00     0.031 C 
ATOM     58  C   UNL A   1      44.442  31.943  29.404  1.00  0.00     0.034 A 
BRANCH  45  59
ATOM     59  C   UNL A   1      46.992  27.292  26.188  1.00  0.00     0.023 A 
ATOM     60  C   UNL A   1      48.018  26.587  26.842  1.00  0.00     0.031 A 
ATOM     61  C   UNL A   1      47.121  27.509  24.806  1.00  0.00     0.131 A 
ATOM     62  C   UNL A   1      49.158  26.186  26.130  1.00  0.00     0.055 A 
ATOM     63  C   UNL A   1      48.223  27.042  24.087  1.00  0.00     0.041 A 
ATOM     64  F   UNL A   1      46.183  28.193  24.130  1.00  0.00    -0.206 F 
ATOM     65  C   UNL A   1      49.258  26.387  24.752  1.00  0.00     0.022 A 
BRANCH  62  66
ATOM     66  S   UNL A   1      50.563  25.509  27.055  1.00  0.00     0.124 S 
ATOM     67  O   UNL A   1      51.525  25.257  25.984  1.00  0.00    -0.237 OA
ATOM     68  O   UNL A   1      50.895  26.595  27.970  1.00  0.00    -0.237 OA
ATOM     69  O   UNL A   1      50.012  24.310  27.684  1.00  0.00    -0.744 OA
ENDBRANCH  62  66
ENDBRANCH  45  59
BRANCH  46  70
ATOM     70  C   UNL A   1      38.906  30.328  31.270  1.00  0.00     0.023 A 
ATOM     71  C   UNL A   1      37.899  31.125  30.702  1.00  0.00     0.031 A 
ATOM     72  C   UNL A   1      38.809  30.018  32.638  1.00  0.00     0.131 A 
ATOM     73  C   UNL A   1      36.872  31.639  31.511  1.00  0.00     0.055 A 
ATOM     74  C   UNL A   1      37.756  30.486  33.427  1.00  0.00     0.041 A 
ATOM     75  F   UNL A   1      39.739  29.252  33.228  1.00  0.00    -0.206 F 
ATOM     76  C   UNL A   1      36.790  31.317  32.867  1.00  0.00     0.022 A 
BRANCH  73  77
ATOM     77  S   UNL A   1      35.711  32.829  30.786  1.00  0.00     0.124 S 
ATOM     78  O   UNL A   1      36.354  34.100  31.094  1.00  0.00    -0.237 OA
ATOM     79  O   UNL A   1      35.712  32.432  29.382  1.00  0.00    -0.237 OA
ATOM     80  O   UNL A   1      34.466  32.569  31.506  1.00  0.00    -0.744 OA
ENDBRANCH  73  77
ENDBRANCH  46  70
BRANCH  58  81
ATOM     81  C   UNL A   1      44.975  33.332  29.648  1.00  0.00     0.023 A 
ATOM     82  C   UNL A   1      44.681  34.402  28.787  1.00  0.00     0.031 A 
ATOM     83  C   UNL A   1      45.815  33.576  30.749  1.00  0.00     0.131 A 
ATOM     84  C   UNL A   1      45.271  35.656  29.005  1.00  0.00     0.055 A 
ATOM     85  C   UNL A   1      46.359  34.837  30.992  1.00  0.00     0.041 A 
ATOM     86  F   UNL A   1      46.128  32.587  31.603  1.00  0.00    -0.206 F 
ATOM     87  C   UNL A   1      46.100  35.883  30.109  1.00  0.00     0.022 A 
BRANCH  84  88
ATOM     88  S   UNL A   1      45.020  36.964  27.775  1.00  0.00     0.124 S 
ATOM     89  O   UNL A   1      44.313  36.254  26.714  1.00  0.00    -0.237 OA
ATOM     90  O   UNL A   1      44.234  37.943  28.519  1.00  0.00    -0.237 OA
ATOM     91  O   UNL A   1      46.378  37.388  27.440  1.00  0.00    -0.744 OA
ENDBRANCH  84  88
ENDBRANCH  58  81
ENDBRANCH  32  33
ENDBRANCH  24  27
ENDBRANCH  22  23
ENDBRANCH   1  22
TORSDOF 15
ENDMDL
