MODEL 1
REMARK VINA RESULT:     -11.6      0.000      0.000
REMARK SMILES CCCc1cc(OC(F)(F)F)cc2c1O[C@@H](C(F)(F)F)C(C(=O)NCCCCNC(=O)c1ccc(-c3c4nc(c(-c5cc(S(=O)(=O)[O-])ccc5F)c5ccc([nH]5)c(-c5cc(S(=O)(=O)[O-])ccc5F)c5nc(c(-c6cc(S(=O)(=O)[O-])ccc6F)c6ccc3[nH]6)C=C5)C=C4)cc1)=C2
REMARK SMILES IDX 27 1 26 2 25 3 24 4 22 5 23 6 21 8 4 9 5 10 14 11 6 12 13 13
REMARK SMILES IDX 15 14 12 15 95 16 16 17 3 18 2 19 1 20 7 21 8 22 9 23 10 24
REMARK SMILES IDX 11 25 17 26 18 27 19 28 20 29 28 30 29 31 30 32 31 34 32 35
REMARK SMILES IDX 33 36 94 37 34 38 93 39 35 40 36 41 37 42 87 43 38 44 92 45
REMARK SMILES IDX 86 46 88 47 39 48 91 49 85 50 84 51 40 53 72 54 52 55 71 56
REMARK SMILES IDX 53 57 56 58 70 59 89 60 54 61 55 62 69 64 90 65 57 66 41 67
REMARK SMILES IDX 42 68 50 69 43 70 49 71 51 72 48 73 44 74 45 75 46 76 47 77
REMARK SMILES IDX 73 78 74 79 82 80 75 81 81 82 83 83 80 84 76 85 77 86 78 87
REMARK SMILES IDX 79 88 58 89 59 90 67 91 60 92 66 93 68 94 65 95 61 96 62 97
REMARK SMILES IDX 63 98 64 99
REMARK H PARENT 24 7 29 33 88 52 56 63
REMARK Flexibility Score: inf
ROOT
ATOM      1  C   UNL A   1      33.444  27.919  26.462  1.00  0.00     0.023 C 
ENDROOT
BRANCH   1   2
ATOM      2  C   UNL A   1      31.959  28.139  26.160  1.00  0.00     0.023 C 
BRANCH   2   3
ATOM      3  C   UNL A   1      31.046  27.018  26.674  1.00  0.00     0.116 C 
BRANCH   3   4
ATOM      4  N   UNL A   1      30.203  26.547  25.589  1.00  0.00    -0.352 N 
ATOM      5  C   UNL A   1      30.435  25.657  24.588  1.00  0.00     0.251 C 
ATOM      6  O   UNL A   1      29.678  25.651  23.620  1.00  0.00    -0.270 OA
ATOM      7  H   UNL A   1      29.301  26.941  25.578  1.00  0.00     0.163 HD
BRANCH   5   8
ATOM      8  C   UNL A   1      31.510  24.630  24.665  1.00  0.00     0.067 C 
ATOM      9  C   UNL A   1      34.660  21.850  24.481  1.00  0.00    -0.002 A 
ATOM     10  C   UNL A   1      34.389  20.506  24.825  1.00  0.00     0.054 A 
ATOM     11  C   UNL A   1      33.646  22.811  24.619  1.00  0.00     0.131 A 
ATOM     12  C   UNL A   1      33.140  20.129  25.314  1.00  0.00     0.130 A 
ATOM     13  C   UNL A   1      32.387  22.427  25.071  1.00  0.00     0.021 A 
ATOM     14  O   UNL A   1      33.945  24.105  24.306  1.00  0.00    -0.475 OA
ATOM     15  C   UNL A   1      32.141  21.094  25.423  1.00  0.00     0.058 A 
ATOM     16  C   UNL A   1      31.306  23.390  25.125  1.00  0.00     0.025 C 
ATOM     17  C   UNL A   1      32.902  25.127  24.310  1.00  0.00     0.314 C 
BRANCH   9  18
ATOM     18  C   UNL A   1      36.044  22.210  23.983  1.00  0.00     0.039 C 
BRANCH  18  19
ATOM     19  C   UNL A   1      37.126  22.272  25.068  1.00  0.00     0.001 C 
ATOM     20  C   UNL A   1      37.331  23.661  25.654  1.00  0.00     0.004 C 
ENDBRANCH  18  19
ENDBRANCH   9  18
BRANCH  12  21
ATOM     21  O   UNL A   1      32.753  18.879  25.701  1.00  0.00    -0.406 OA
BRANCH  21  22
ATOM     22  C   UNL A   1      32.686  17.870  24.710  1.00  0.00     0.573 C 
ATOM     23  F   UNL A   1      32.251  18.372  23.535  1.00  0.00    -0.132 F 
ATOM     24  F   UNL A   1      33.885  17.277  24.531  1.00  0.00    -0.132 F 
ATOM     25  F   UNL A   1      31.809  16.923  25.113  1.00  0.00    -0.132 F 
ENDBRANCH  21  22
ENDBRANCH  12  21
BRANCH  17  26
ATOM     26  C   UNL A   1      33.007  25.904  22.979  1.00  0.00     0.429 C 
ATOM     27  F   UNL A   1      34.187  25.750  22.345  1.00  0.00    -0.167 F 
ATOM     28  F   UNL A   1      32.065  25.474  22.098  1.00  0.00    -0.167 F 
ATOM     29  F   UNL A   1      32.807  27.232  23.154  1.00  0.00    -0.167 F 
ENDBRANCH  17  26
ENDBRANCH   5   8
ENDBRANCH   3   4
ENDBRANCH   2   3
ENDBRANCH   1   2
BRANCH   1  30
ATOM     30  C   UNL A   1      34.345  29.077  26.060  1.00  0.00     0.116 C 
BRANCH  30  31
ATOM     31  N   UNL A   1      33.852  30.364  26.525  1.00  0.00    -0.352 N 
ATOM     32  C   UNL A   1      34.348  31.143  27.542  1.00  0.00     0.251 C 
ATOM     33  H   UNL A   1      33.065  30.721  26.054  1.00  0.00     0.163 HD
ATOM     34  O   UNL A   1      33.744  32.151  27.896  1.00  0.00    -0.269 OA
BRANCH  32  35
ATOM     35  C   UNL A   1      35.583  30.718  28.228  1.00  0.00     0.039 A 
ATOM     36  C   UNL A   1      35.496  29.750  29.230  1.00  0.00     0.014 A 
ATOM     37  C   UNL A   1      36.823  31.231  27.838  1.00  0.00     0.014 A 
ATOM     38  C   UNL A   1      36.667  29.246  29.799  1.00  0.00     0.010 A 
ATOM     39  C   UNL A   1      37.988  30.679  28.357  1.00  0.00     0.010 A 
ATOM     40  C   UNL A   1      37.922  29.680  29.341  1.00  0.00    -0.014 A 
BRANCH  40  41
ATOM     41  C   UNL A   1      39.179  29.107  29.881  1.00  0.00     0.031 A 
ATOM     42  C   UNL A   1      39.799  29.697  31.116  1.00  0.00     0.074 A 
ATOM     43  C   UNL A   1      39.794  28.108  29.217  1.00  0.00     0.049 A 
ATOM     44  N   UNL A   1      40.934  29.400  31.695  1.00  0.00    -0.248 NA
ATOM     45  C   UNL A   1      39.058  30.789  31.765  1.00  0.00     0.031 C 
ATOM     46  C   UNL A   1      39.307  27.487  27.983  1.00  0.00     0.029 A 
ATOM     47  N   UNL A   1      40.966  27.445  29.480  1.00  0.00    -0.354 N 
ATOM     48  C   UNL A   1      41.051  30.278  32.768  1.00  0.00     0.074 A 
ATOM     49  C   UNL A   1      39.902  31.157  32.717  1.00  0.00     0.031 C 
ATOM     50  C   UNL A   1      40.162  26.523  27.608  1.00  0.00     0.029 A 
ATOM     51  C   UNL A   1      41.278  26.482  28.548  1.00  0.00     0.049 A 
ATOM     52  H   UNL A   1      41.530  27.639  30.262  1.00  0.00     0.167 HD
ATOM     53  C   UNL A   1      42.016  30.329  33.719  1.00  0.00     0.034 A 
ATOM     54  C   UNL A   1      42.348  25.669  28.456  1.00  0.00     0.034 A 
ATOM     55  C   UNL A   1      43.146  29.434  33.759  1.00  0.00     0.049 A 
ATOM     56  C   UNL A   1      43.413  25.748  29.520  1.00  0.00     0.074 A 
ATOM     57  C   UNL A   1      44.155  29.359  34.703  1.00  0.00     0.029 A 
ATOM     58  N   UNL A   1      43.420  28.457  32.808  1.00  0.00    -0.354 N 
ATOM     59  N   UNL A   1      43.486  26.551  30.557  1.00  0.00    -0.248 NA
ATOM     60  C   UNL A   1      44.533  24.804  29.409  1.00  0.00     0.031 C 
ATOM     61  C   UNL A   1      45.069  28.383  34.292  1.00  0.00     0.029 A 
ATOM     62  C   UNL A   1      44.593  27.794  33.131  1.00  0.00     0.049 A 
ATOM     63  H   UNL A   1      42.861  28.265  32.021  1.00  0.00     0.167 HD
ATOM     64  C   UNL A   1      44.640  26.182  31.242  1.00  0.00     0.074 A 
ATOM     65  C   UNL A   1      45.227  25.082  30.503  1.00  0.00     0.031 C 
ATOM     66  C   UNL A   1      45.164  26.700  32.382  1.00  0.00     0.034 A 
BRANCH  53  67
ATOM     67  C   UNL A   1      41.894  31.404  34.773  1.00  0.00     0.023 A 
ATOM     68  C   UNL A   1      40.867  31.382  35.734  1.00  0.00     0.031 A 
ATOM     69  C   UNL A   1      42.791  32.486  34.795  1.00  0.00     0.131 A 
ATOM     70  C   UNL A   1      40.714  32.458  36.621  1.00  0.00     0.055 A 
ATOM     71  C   UNL A   1      42.685  33.511  35.737  1.00  0.00     0.041 A 
ATOM     72  F   UNL A   1      43.779  32.575  33.890  1.00  0.00    -0.206 F 
ATOM     73  C   UNL A   1      41.631  33.511  36.647  1.00  0.00     0.022 A 
BRANCH  70  74
ATOM     74  S   UNL A   1      39.214  32.533  37.636  1.00  0.00     0.124 S 
ATOM     75  O   UNL A   1      38.519  31.314  37.226  1.00  0.00    -0.237 OA
ATOM     76  O   UNL A   1      39.749  32.537  38.993  1.00  0.00    -0.237 OA
ATOM     77  O   UNL A   1      38.575  33.778  37.213  1.00  0.00    -0.744 OA
ENDBRANCH  70  74
ENDBRANCH  53  67
BRANCH  54  78
ATOM     78  C   UNL A   1      42.472  24.709  27.322  1.00  0.00     0.023 A 
ATOM     79  C   UNL A   1      41.927  23.418  27.406  1.00  0.00     0.031 A 
ATOM     80  C   UNL A   1      43.166  25.058  26.150  1.00  0.00     0.131 A 
ATOM     81  C   UNL A   1      42.125  22.506  26.356  1.00  0.00     0.055 A 
ATOM     82  C   UNL A   1      43.317  24.164  25.089  1.00  0.00     0.041 A 
ATOM     83  F   UNL A   1      43.699  26.283  26.016  1.00  0.00    -0.206 F 
ATOM     84  C   UNL A   1      42.806  22.875  25.194  1.00  0.00     0.022 A 
BRANCH  81  85
ATOM     85  S   UNL A   1      41.545  20.801  26.569  1.00  0.00     0.124 S 
ATOM     86  O   UNL A   1      41.942  20.521  27.944  1.00  0.00    -0.237 OA
ATOM     87  O   UNL A   1      40.112  20.937  26.330  1.00  0.00    -0.237 OA
ATOM     88  O   UNL A   1      42.279  20.063  25.544  1.00  0.00    -0.744 OA
ENDBRANCH  81  85
ENDBRANCH  54  78
BRANCH  66  89
ATOM     89  C   UNL A   1      46.404  26.038  32.929  1.00  0.00     0.023 A 
ATOM     90  C   UNL A   1      46.335  24.950  33.815  1.00  0.00     0.031 A 
ATOM     91  C   UNL A   1      47.674  26.508  32.551  1.00  0.00     0.131 A 
ATOM     92  C   UNL A   1      47.516  24.397  34.334  1.00  0.00     0.055 A 
ATOM     93  C   UNL A   1      48.846  25.919  33.027  1.00  0.00     0.041 A 
ATOM     94  F   UNL A   1      47.796  27.546  31.708  1.00  0.00    -0.206 F 
ATOM     95  C   UNL A   1      48.771  24.865  33.932  1.00  0.00     0.022 A 
BRANCH  92  96
ATOM     96  S   UNL A   1      47.393  23.106  35.601  1.00  0.00     0.124 S 
ATOM     97  O   UNL A   1      48.198  23.665  36.683  1.00  0.00    -0.237 OA
ATOM     98  O   UNL A   1      45.957  23.042  35.844  1.00  0.00    -0.237 OA
ATOM     99  O   UNL A   1      47.963  21.929  34.948  1.00  0.00    -0.744 OA
ENDBRANCH  92  96
ENDBRANCH  66  89
ENDBRANCH  40  41
ENDBRANCH  32  35
ENDBRANCH  30  31
ENDBRANCH   1  30
TORSDOF 19
ENDMDL
MODEL 2
REMARK VINA RESULT:     -11.6      1.323      1.633
REMARK SMILES CCCc1cc(OC(F)(F)F)cc2c1O[C@@H](C(F)(F)F)C(C(=O)NCCCCNC(=O)c1ccc(-c3c4nc(c(-c5cc(S(=O)(=O)[O-])ccc5F)c5ccc([nH]5)c(-c5cc(S(=O)(=O)[O-])ccc5F)c5nc(c(-c6cc(S(=O)(=O)[O-])ccc6F)c6ccc3[nH]6)C=C5)C=C4)cc1)=C2
REMARK SMILES IDX 27 1 26 2 25 3 24 4 22 5 23 6 21 8 4 9 5 10 14 11 6 12 13 13
REMARK SMILES IDX 15 14 12 15 95 16 16 17 3 18 2 19 1 20 7 21 8 22 9 23 10 24
REMARK SMILES IDX 11 25 17 26 18 27 19 28 20 29 28 30 29 31 30 32 31 34 32 35
REMARK SMILES IDX 33 36 94 37 34 38 93 39 35 40 36 41 37 42 87 43 38 44 92 45
REMARK SMILES IDX 86 46 88 47 39 48 91 49 85 50 84 51 40 53 72 54 52 55 71 56
REMARK SMILES IDX 53 57 56 58 70 59 89 60 54 61 55 62 69 64 90 65 57 66 41 67
REMARK SMILES IDX 42 68 50 69 43 70 49 71 51 72 48 73 44 74 45 75 46 76 47 77
REMARK SMILES IDX 73 78 74 79 82 80 75 81 81 82 83 83 80 84 76 85 77 86 78 87
REMARK SMILES IDX 79 88 58 89 59 90 67 91 60 92 66 93 68 94 65 95 61 96 62 97
REMARK SMILES IDX 63 98 64 99
REMARK H PARENT 24 7 29 33 88 52 56 63
REMARK Flexibility Score: inf
ROOT
ATOM      1  C   UNL A   1      33.463  27.903  26.667  1.00  0.00     0.023 C 
ENDROOT
BRANCH   1   2
ATOM      2  C   UNL A   1      31.968  28.151  26.449  1.00  0.00     0.023 C 
BRANCH   2   3
ATOM      3  C   UNL A   1      31.079  26.956  26.818  1.00  0.00     0.116 C 
BRANCH   3   4
ATOM      4  N   UNL A   1      30.295  26.563  25.660  1.00  0.00    -0.352 N 
ATOM      5  C   UNL A   1      30.562  25.706  24.638  1.00  0.00     0.251 C 
ATOM      6  O   UNL A   1      29.873  25.769  23.623  1.00  0.00    -0.270 OA
ATOM      7  H   UNL A   1      29.411  26.993  25.606  1.00  0.00     0.163 HD
BRANCH   5   8
ATOM      8  C   UNL A   1      31.591  24.635  24.742  1.00  0.00     0.067 C 
ATOM      9  C   UNL A   1      34.638  21.738  24.644  1.00  0.00    -0.002 A 
ATOM     10  C   UNL A   1      34.297  20.397  24.930  1.00  0.00     0.054 A 
ATOM     11  C   UNL A   1      33.655  22.735  24.757  1.00  0.00     0.131 A 
ATOM     12  C   UNL A   1      33.009  20.056  25.339  1.00  0.00     0.130 A 
ATOM     13  C   UNL A   1      32.359  22.388  25.126  1.00  0.00     0.021 A 
ATOM     14  O   UNL A   1      34.020  24.024  24.501  1.00  0.00    -0.475 OA
ATOM     15  C   UNL A   1      32.043  21.056  25.422  1.00  0.00     0.058 A 
ATOM     16  C   UNL A   1      31.315  23.392  25.151  1.00  0.00     0.025 C 
ATOM     17  C   UNL A   1      33.019  25.086  24.479  1.00  0.00     0.314 C 
BRANCH   9  18
ATOM     18  C   UNL A   1      36.060  22.057  24.234  1.00  0.00     0.039 C 
BRANCH  18  19
ATOM     19  C   UNL A   1      37.049  22.213  25.396  1.00  0.00     0.001 C 
ATOM     20  C   UNL A   1      37.542  23.638  25.597  1.00  0.00     0.004 C 
ENDBRANCH  18  19
ENDBRANCH   9  18
BRANCH  12  21
ATOM     21  O   UNL A   1      32.553  18.811  25.664  1.00  0.00    -0.406 OA
BRANCH  21  22
ATOM     22  C   UNL A   1      32.563  17.818  24.656  1.00  0.00     0.573 C 
ATOM     23  F   UNL A   1      31.799  16.762  25.008  1.00  0.00    -0.132 F 
ATOM     24  F   UNL A   1      32.132  18.311  23.476  1.00  0.00    -0.132 F 
ATOM     25  F   UNL A   1      33.831  17.382  24.488  1.00  0.00    -0.132 F 
ENDBRANCH  21  22
ENDBRANCH  12  21
BRANCH  17  26
ATOM     26  C   UNL A   1      33.228  25.897  23.181  1.00  0.00     0.429 C 
ATOM     27  F   UNL A   1      32.928  27.207  23.297  1.00  0.00    -0.167 F 
ATOM     28  F   UNL A   1      34.532  25.858  22.797  1.00  0.00    -0.167 F 
ATOM     29  F   UNL A   1      32.499  25.400  22.154  1.00  0.00    -0.167 F 
ENDBRANCH  17  26
ENDBRANCH   5   8
ENDBRANCH   3   4
ENDBRANCH   2   3
ENDBRANCH   1   2
BRANCH   1  30
ATOM     30  C   UNL A   1      34.363  29.032  26.185  1.00  0.00     0.116 C 
BRANCH  30  31
ATOM     31  N   UNL A   1      33.919  30.340  26.640  1.00  0.00    -0.352 N 
ATOM     32  C   UNL A   1      34.471  31.127  27.621  1.00  0.00     0.251 C 
ATOM     33  H   UNL A   1      33.126  30.707  26.189  1.00  0.00     0.163 HD
ATOM     34  O   UNL A   1      33.906  32.158  27.974  1.00  0.00    -0.269 OA
BRANCH  32  35
ATOM     35  C   UNL A   1      35.719  30.684  28.272  1.00  0.00     0.039 A 
ATOM     36  C   UNL A   1      35.640  29.778  29.331  1.00  0.00     0.014 A 
ATOM     37  C   UNL A   1      36.959  31.119  27.797  1.00  0.00     0.014 A 
ATOM     38  C   UNL A   1      36.814  29.254  29.873  1.00  0.00     0.010 A 
ATOM     39  C   UNL A   1      38.124  30.544  28.291  1.00  0.00     0.010 A 
ATOM     40  C   UNL A   1      38.062  29.604  29.333  1.00  0.00    -0.014 A 
BRANCH  40  41
ATOM     41  C   UNL A   1      39.318  29.005  29.846  1.00  0.00     0.031 A 
ATOM     42  C   UNL A   1      40.018  29.627  31.021  1.00  0.00     0.074 A 
ATOM     43  C   UNL A   1      39.862  27.949  29.207  1.00  0.00     0.049 A 
ATOM     44  N   UNL A   1      41.164  29.310  31.565  1.00  0.00    -0.248 NA
ATOM     45  C   UNL A   1      39.352  30.780  31.647  1.00  0.00     0.031 C 
ATOM     46  C   UNL A   1      39.295  27.291  28.028  1.00  0.00     0.029 A 
ATOM     47  N   UNL A   1      41.017  27.251  29.451  1.00  0.00    -0.354 N 
ATOM     48  C   UNL A   1      41.366  30.233  32.587  1.00  0.00     0.074 A 
ATOM     49  C   UNL A   1      40.252  31.157  32.541  1.00  0.00     0.031 C 
ATOM     50  C   UNL A   1      40.092  26.274  27.665  1.00  0.00     0.029 A 
ATOM     51  C   UNL A   1      41.247  26.232  28.556  1.00  0.00     0.049 A 
ATOM     52  H   UNL A   1      41.624  27.459  30.198  1.00  0.00     0.167 HD
ATOM     53  C   UNL A   1      42.374  30.289  33.491  1.00  0.00     0.034 A 
ATOM     54  C   UNL A   1      42.278  25.370  28.459  1.00  0.00     0.034 A 
ATOM     55  C   UNL A   1      43.468  29.350  33.526  1.00  0.00     0.049 A 
ATOM     56  C   UNL A   1      43.393  25.455  29.471  1.00  0.00     0.074 A 
ATOM     57  C   UNL A   1      44.516  29.278  34.428  1.00  0.00     0.029 A 
ATOM     58  N   UNL A   1      43.659  28.318  32.615  1.00  0.00    -0.354 N 
ATOM     59  N   UNL A   1      43.545  26.304  30.462  1.00  0.00    -0.248 NA
ATOM     60  C   UNL A   1      44.468  24.460  29.359  1.00  0.00     0.031 C 
ATOM     61  C   UNL A   1      45.369  28.245  34.027  1.00  0.00     0.029 A 
ATOM     62  C   UNL A   1      44.818  27.621  32.920  1.00  0.00     0.049 A 
ATOM     63  H   UNL A   1      43.057  28.111  31.863  1.00  0.00     0.167 HD
ATOM     64  C   UNL A   1      44.714  25.919  31.113  1.00  0.00     0.074 A 
ATOM     65  C   UNL A   1      45.222  24.761  30.406  1.00  0.00     0.031 C 
ATOM     66  C   UNL A   1      45.309  26.469  32.202  1.00  0.00     0.034 A 
BRANCH  53  67
ATOM     67  C   UNL A   1      42.344  31.419  34.494  1.00  0.00     0.023 A 
ATOM     68  C   UNL A   1      41.417  31.441  35.552  1.00  0.00     0.031 A 
ATOM     69  C   UNL A   1      43.226  32.506  34.370  1.00  0.00     0.131 A 
ATOM     70  C   UNL A   1      41.340  32.562  36.392  1.00  0.00     0.055 A 
ATOM     71  C   UNL A   1      43.201  33.579  35.262  1.00  0.00     0.041 A 
ATOM     72  F   UNL A   1      44.119  32.553  33.368  1.00  0.00    -0.206 F 
ATOM     73  C   UNL A   1      42.242  33.620  36.271  1.00  0.00     0.022 A 
BRANCH  70  74
ATOM     74  S   UNL A   1      39.946  32.681  37.545  1.00  0.00     0.124 S 
ATOM     75  O   UNL A   1      39.144  31.521  37.159  1.00  0.00    -0.237 OA
ATOM     76  O   UNL A   1      40.603  32.599  38.845  1.00  0.00    -0.237 OA
ATOM     77  O   UNL A   1      39.348  33.977  37.227  1.00  0.00    -0.744 OA
ENDBRANCH  70  74
ENDBRANCH  53  67
BRANCH  54  78
ATOM     78  C   UNL A   1      42.311  24.352  27.370  1.00  0.00     0.023 A 
ATOM     79  C   UNL A   1      41.684  23.107  27.527  1.00  0.00     0.031 A 
ATOM     80  C   UNL A   1      43.000  24.598  26.170  1.00  0.00     0.131 A 
ATOM     81  C   UNL A   1      41.796  22.135  26.519  1.00  0.00     0.055 A 
ATOM     82  C   UNL A   1      43.067  23.647  25.150  1.00  0.00     0.041 A 
ATOM     83  F   UNL A   1      43.611  25.776  25.966  1.00  0.00    -0.206 F 
ATOM     84  C   UNL A   1      42.473  22.402  25.327  1.00  0.00     0.022 A 
BRANCH  81  85
ATOM     85  S   UNL A   1      41.108  20.485  26.825  1.00  0.00     0.124 S 
ATOM     86  O   UNL A   1      42.156  19.622  26.292  1.00  0.00    -0.237 OA
ATOM     87  O   UNL A   1      40.954  20.486  28.276  1.00  0.00    -0.237 OA
ATOM     88  O   UNL A   1      39.859  20.492  26.068  1.00  0.00    -0.744 OA
ENDBRANCH  81  85
ENDBRANCH  54  78
BRANCH  66  89
ATOM     89  C   UNL A   1      46.545  25.782  32.727  1.00  0.00     0.023 A 
ATOM     90  C   UNL A   1      47.817  26.022  32.181  1.00  0.00     0.031 A 
ATOM     91  C   UNL A   1      46.441  24.874  33.796  1.00  0.00     0.131 A 
ATOM     92  C   UNL A   1      48.930  25.323  32.673  1.00  0.00     0.055 A 
ATOM     93  C   UNL A   1      47.559  24.223  34.317  1.00  0.00     0.041 A 
ATOM     94  F   UNL A   1      45.248  24.608  34.353  1.00  0.00    -0.206 F 
ATOM     95  C   UNL A   1      48.811  24.438  33.749  1.00  0.00     0.022 A 
BRANCH  92  96
ATOM     96  S   UNL A   1      50.528  25.528  31.841  1.00  0.00     0.124 S 
ATOM     97  O   UNL A   1      51.389  24.637  32.613  1.00  0.00    -0.237 OA
ATOM     98  O   UNL A   1      50.228  25.101  30.479  1.00  0.00    -0.237 OA
ATOM     99  O   UNL A   1      50.815  26.953  31.994  1.00  0.00    -0.744 OA
ENDBRANCH  92  96
ENDBRANCH  66  89
ENDBRANCH  40  41
ENDBRANCH  32  35
ENDBRANCH  30  31
ENDBRANCH   1  30
TORSDOF 19
ENDMDL
MODEL 3
REMARK VINA RESULT:     -11.5      3.156      8.378
REMARK SMILES CCCc1cc(OC(F)(F)F)cc2c1O[C@@H](C(F)(F)F)C(C(=O)NCCCCNC(=O)c1ccc(-c3c4nc(c(-c5cc(S(=O)(=O)[O-])ccc5F)c5ccc([nH]5)c(-c5cc(S(=O)(=O)[O-])ccc5F)c5nc(c(-c6cc(S(=O)(=O)[O-])ccc6F)c6ccc3[nH]6)C=C5)C=C4)cc1)=C2
REMARK SMILES IDX 27 1 26 2 25 3 24 4 22 5 23 6 21 8 4 9 5 10 14 11 6 12 13 13
REMARK SMILES IDX 15 14 12 15 95 16 16 17 3 18 2 19 1 20 7 21 8 22 9 23 10 24
REMARK SMILES IDX 11 25 17 26 18 27 19 28 20 29 28 30 29 31 30 32 31 34 32 35
REMARK SMILES IDX 33 36 94 37 34 38 93 39 35 40 36 41 37 42 87 43 38 44 92 45
REMARK SMILES IDX 86 46 88 47 39 48 91 49 85 50 84 51 40 53 72 54 52 55 71 56
REMARK SMILES IDX 53 57 56 58 70 59 89 60 54 61 55 62 69 64 90 65 57 66 41 67
REMARK SMILES IDX 42 68 50 69 43 70 49 71 51 72 48 73 44 74 45 75 46 76 47 77
REMARK SMILES IDX 73 78 74 79 82 80 75 81 81 82 83 83 80 84 76 85 77 86 78 87
REMARK SMILES IDX 79 88 58 89 59 90 67 91 60 92 66 93 68 94 65 95 61 96 62 97
REMARK SMILES IDX 63 98 64 99
REMARK H PARENT 24 7 29 33 88 52 56 63
REMARK Flexibility Score: inf
ROOT
ATOM      1  C   UNL A   1      32.185  31.189  26.989  1.00  0.00     0.023 C 
ENDROOT
BRANCH   1   2
ATOM      2  C   UNL A   1      32.546  29.728  27.270  1.00  0.00     0.023 C 
BRANCH   2   3
ATOM      3  C   UNL A   1      31.675  28.715  26.515  1.00  0.00     0.116 C 
BRANCH   3   4
ATOM      4  N   UNL A   1      31.720  29.005  25.092  1.00  0.00    -0.352 N 
ATOM      5  C   UNL A   1      32.290  28.338  24.054  1.00  0.00     0.251 C 
ATOM      6  O   UNL A   1      32.453  28.934  22.991  1.00  0.00    -0.270 OA
ATOM      7  H   UNL A   1      31.253  29.832  24.834  1.00  0.00     0.163 HD
BRANCH   5   8
ATOM      8  C   UNL A   1      32.632  26.891  24.125  1.00  0.00     0.067 C 
ATOM      9  C   UNL A   1      33.193  22.737  24.465  1.00  0.00    -0.002 A 
ATOM     10  C   UNL A   1      34.332  22.269  25.159  1.00  0.00     0.054 A 
ATOM     11  C   UNL A   1      33.031  24.117  24.264  1.00  0.00     0.131 A 
ATOM     12  C   UNL A   1      35.301  23.155  25.626  1.00  0.00     0.130 A 
ATOM     13  C   UNL A   1      33.979  25.003  24.765  1.00  0.00     0.021 A 
ATOM     14  O   UNL A   1      31.936  24.537  23.567  1.00  0.00    -0.475 OA
ATOM     15  C   UNL A   1      35.110  24.522  25.435  1.00  0.00     0.058 A 
ATOM     16  C   UNL A   1      33.775  26.433  24.648  1.00  0.00     0.025 C 
ATOM     17  C   UNL A   1      31.647  25.962  23.432  1.00  0.00     0.314 C 
BRANCH   9  18
ATOM     18  C   UNL A   1      32.186  21.728  23.953  1.00  0.00     0.039 C 
BRANCH  18  19
ATOM     19  C   UNL A   1      32.613  20.261  24.090  1.00  0.00     0.001 C 
ATOM     20  C   UNL A   1      32.283  19.409  22.875  1.00  0.00     0.004 C 
ENDBRANCH  18  19
ENDBRANCH   9  18
BRANCH  12  21
ATOM     21  O   UNL A   1      36.452  22.839  26.288  1.00  0.00    -0.406 OA
BRANCH  21  22
ATOM     22  C   UNL A   1      37.654  22.790  25.542  1.00  0.00     0.573 C 
ATOM     23  F   UNL A   1      38.378  23.915  25.715  1.00  0.00    -0.132 F 
ATOM     24  F   UNL A   1      38.399  21.717  25.880  1.00  0.00    -0.132 F 
ATOM     25  F   UNL A   1      37.345  22.687  24.230  1.00  0.00    -0.132 F 
ENDBRANCH  21  22
ENDBRANCH  12  21
BRANCH  17  26
ATOM     26  C   UNL A   1      30.164  26.174  23.805  1.00  0.00     0.429 C 
ATOM     27  F   UNL A   1      29.596  27.245  23.215  1.00  0.00    -0.167 F 
ATOM     28  F   UNL A   1      29.415  25.108  23.414  1.00  0.00    -0.167 F 
ATOM     29  F   UNL A   1      29.994  26.305  25.142  1.00  0.00    -0.167 F 
ENDBRANCH  17  26
ENDBRANCH   5   8
ENDBRANCH   3   4
ENDBRANCH   2   3
ENDBRANCH   1   2
BRANCH   1  30
ATOM     30  C   UNL A   1      33.323  32.172  27.219  1.00  0.00     0.116 C 
BRANCH  30  31
ATOM     31  N   UNL A   1      32.854  33.511  27.544  1.00  0.00    -0.352 N 
ATOM     32  C   UNL A   1      33.292  34.340  28.548  1.00  0.00     0.251 C 
ATOM     33  H   UNL A   1      32.135  33.867  26.975  1.00  0.00     0.163 HD
ATOM     34  O   UNL A   1      32.710  35.398  28.770  1.00  0.00    -0.269 OA
BRANCH  32  35
ATOM     35  C   UNL A   1      34.434  33.912  29.378  1.00  0.00     0.039 A 
ATOM     36  C   UNL A   1      34.200  33.048  30.449  1.00  0.00     0.014 A 
ATOM     37  C   UNL A   1      35.733  34.317  29.060  1.00  0.00     0.014 A 
ATOM     38  C   UNL A   1      35.283  32.535  31.164  1.00  0.00     0.010 A 
ATOM     39  C   UNL A   1      36.812  33.752  29.729  1.00  0.00     0.010 A 
ATOM     40  C   UNL A   1      36.598  32.854  30.786  1.00  0.00    -0.014 A 
BRANCH  40  41
ATOM     41  C   UNL A   1      37.764  32.264  31.487  1.00  0.00     0.031 A 
ATOM     42  C   UNL A   1      38.531  31.141  30.848  1.00  0.00     0.074 A 
ATOM     43  C   UNL A   1      38.082  32.690  32.726  1.00  0.00     0.049 A 
ATOM     44  N   UNL A   1      39.521  30.434  31.329  1.00  0.00    -0.248 NA
ATOM     45  C   UNL A   1      38.105  30.740  29.498  1.00  0.00     0.031 C 
ATOM     46  C   UNL A   1      37.380  33.743  33.464  1.00  0.00     0.029 A 
ATOM     47  N   UNL A   1      39.070  32.285  33.588  1.00  0.00    -0.354 N 
ATOM     48  C   UNL A   1      39.826  29.495  30.349  1.00  0.00     0.074 A 
ATOM     49  C   UNL A   1      38.873  29.685  29.276  1.00  0.00     0.031 C 
ATOM     50  C   UNL A   1      37.971  33.913  34.657  1.00  0.00     0.029 A 
ATOM     51  C   UNL A   1      39.066  32.957  34.789  1.00  0.00     0.049 A 
ATOM     52  H   UNL A   1      39.720  31.581  33.367  1.00  0.00     0.167 HD
ATOM     53  C   UNL A   1      40.822  28.576  30.338  1.00  0.00     0.034 A 
ATOM     54  C   UNL A   1      39.849  32.809  35.875  1.00  0.00     0.034 A 
ATOM     55  C   UNL A   1      41.770  28.412  31.414  1.00  0.00     0.049 A 
ATOM     56  C   UNL A   1      40.946  31.776  35.844  1.00  0.00     0.074 A 
ATOM     57  C   UNL A   1      42.851  27.551  31.488  1.00  0.00     0.029 A 
ATOM     58  N   UNL A   1      41.748  29.124  32.607  1.00  0.00    -0.354 N 
ATOM     59  N   UNL A   1      41.253  30.927  34.890  1.00  0.00    -0.248 NA
ATOM     60  C   UNL A   1      41.809  31.688  37.029  1.00  0.00     0.031 C 
ATOM     61  C   UNL A   1      43.443  27.699  32.747  1.00  0.00     0.029 A 
ATOM     62  C   UNL A   1      42.780  28.705  33.431  1.00  0.00     0.049 A 
ATOM     63  H   UNL A   1      41.094  29.824  32.834  1.00  0.00     0.167 HD
ATOM     64  C   UNL A   1      42.369  30.231  35.347  1.00  0.00     0.074 A 
ATOM     65  C   UNL A   1      42.682  30.764  36.658  1.00  0.00     0.031 C 
ATOM     66  C   UNL A   1      43.076  29.247  34.736  1.00  0.00     0.034 A 
BRANCH  53  67
ATOM     67  C   UNL A   1      40.914  27.667  29.134  1.00  0.00     0.023 A 
ATOM     68  C   UNL A   1      41.895  27.853  28.144  1.00  0.00     0.031 A 
ATOM     69  C   UNL A   1      39.987  26.626  28.955  1.00  0.00     0.131 A 
ATOM     70  C   UNL A   1      41.875  27.066  26.983  1.00  0.00     0.055 A 
ATOM     71  C   UNL A   1      40.027  25.790  27.837  1.00  0.00     0.041 A 
ATOM     72  F   UNL A   1      39.014  26.412  29.855  1.00  0.00    -0.206 F 
ATOM     73  C   UNL A   1      40.964  26.018  26.834  1.00  0.00     0.022 A 
BRANCH  70  74
ATOM     74  S   UNL A   1      42.961  27.531  25.607  1.00  0.00     0.124 S 
ATOM     75  O   UNL A   1      44.035  28.236  26.303  1.00  0.00    -0.237 OA
ATOM     76  O   UNL A   1      43.314  26.238  25.031  1.00  0.00    -0.237 OA
ATOM     77  O   UNL A   1      42.111  28.376  24.770  1.00  0.00    -0.744 OA
ENDBRANCH  70  74
ENDBRANCH  53  67
BRANCH  54  78
ATOM     78  C   UNL A   1      39.630  33.655  37.083  1.00  0.00     0.023 A 
ATOM     79  C   UNL A   1      38.945  33.154  38.201  1.00  0.00     0.031 A 
ATOM     80  C   UNL A   1      40.073  34.988  37.123  1.00  0.00     0.131 A 
ATOM     81  C   UNL A   1      38.683  33.994  39.295  1.00  0.00     0.055 A 
ATOM     82  C   UNL A   1      39.853  35.805  38.233  1.00  0.00     0.041 A 
ATOM     83  F   UNL A   1      40.740  35.514  36.084  1.00  0.00    -0.206 F 
ATOM     84  C   UNL A   1      39.143  35.312  39.323  1.00  0.00     0.022 A 
BRANCH  81  85
ATOM     85  S   UNL A   1      37.659  33.358  40.651  1.00  0.00     0.124 S 
ATOM     86  O   UNL A   1      37.413  34.567  41.429  1.00  0.00    -0.237 OA
ATOM     87  O   UNL A   1      36.512  32.813  39.932  1.00  0.00    -0.237 OA
ATOM     88  O   UNL A   1      38.520  32.367  41.290  1.00  0.00    -0.744 OA
ENDBRANCH  81  85
ENDBRANCH  54  78
BRANCH  66  89
ATOM     89  C   UNL A   1      44.294  28.728  35.459  1.00  0.00     0.023 A 
ATOM     90  C   UNL A   1      44.209  27.706  36.419  1.00  0.00     0.031 A 
ATOM     91  C   UNL A   1      45.561  29.268  35.174  1.00  0.00     0.131 A 
ATOM     92  C   UNL A   1      45.364  27.290  37.098  1.00  0.00     0.055 A 
ATOM     93  C   UNL A   1      46.714  28.812  35.813  1.00  0.00     0.041 A 
ATOM     94  F   UNL A   1      45.697  30.247  34.265  1.00  0.00    -0.206 F 
ATOM     95  C   UNL A   1      46.618  27.825  36.789  1.00  0.00     0.022 A 
BRANCH  92  96
ATOM     96  S   UNL A   1      45.199  26.090  38.448  1.00  0.00     0.124 S 
ATOM     97  O   UNL A   1      45.022  24.837  37.720  1.00  0.00    -0.237 OA
ATOM     98  O   UNL A   1      46.464  26.241  39.157  1.00  0.00    -0.237 OA
ATOM     99  O   UNL A   1      44.021  26.554  39.178  1.00  0.00    -0.744 OA
ENDBRANCH  92  96
ENDBRANCH  66  89
ENDBRANCH  40  41
ENDBRANCH  32  35
ENDBRANCH  30  31
ENDBRANCH   1  30
TORSDOF 19
ENDMDL
