MODEL 1
REMARK VINA RESULT:     -13.7      0.000      0.000
REMARK SMILES COc1ccccc1[C@@H]1C[N@@H+](Cc2cn3cc(C)ccc3n2)C[C@H]1C(=O)NCCCCNC(=O)c1ccc(-c2c3nc(c(-c4cc(S(=O)(=O)[O-])ccc4F)c4ccc([nH]4)c(-c4cc(S(=O)(=O)[O-])ccc4F)c4nc(c(-c5cc(S(=O)(=O)[O-])ccc5F)c5ccc2[nH]5)C=C4)C=C3)cc1
REMARK SMILES IDX 30 1 29 2 28 3 27 4 25 5 26 6 24 8 9 9 10 10 11 11 23 12
REMARK SMILES IDX 8 14 3 15 4 16 5 17 7 18 6 19 2 20 1 21 12 22 13 23 14 24
REMARK SMILES IDX 22 25 15 26 21 27 16 28 20 29 17 30 19 31 18 32 31 33 32 34
REMARK SMILES IDX 33 35 34 37 35 38 36 39 97 40 37 41 96 42 38 43 39 44 40 45
REMARK SMILES IDX 90 46 41 47 95 48 89 49 91 50 42 51 94 52 88 53 87 54 43 56
REMARK SMILES IDX 75 57 55 58 74 59 56 60 59 61 73 62 92 63 57 64 58 65 72 67
REMARK SMILES IDX 93 68 60 69 44 70 45 71 53 72 46 73 52 74 54 75 51 76 47 77
REMARK SMILES IDX 48 78 49 79 50 80 76 81 77 82 85 83 78 84 84 85 86 86 83 87
REMARK SMILES IDX 79 88 80 89 81 90 82 91 61 92 62 93 70 94 63 95 69 96 71 97
REMARK SMILES IDX 68 98 64 99 65 100 66 101 67 102
REMARK H PARENT 27 7 11 13 32 36 91 55 59 66
REMARK Flexibility Score: inf
ROOT
ATOM      1  C   UNL A   1      33.734  30.601  27.598  1.00  0.00     0.023 C 
ENDROOT
BRANCH   1   2
ATOM      2  C   UNL A   1      33.016  29.940  26.411  1.00  0.00     0.023 C 
BRANCH   2   3
ATOM      3  C   UNL A   1      32.171  28.670  26.667  1.00  0.00     0.116 C 
BRANCH   3   4
ATOM      4  N   UNL A   1      32.824  27.369  26.516  1.00  0.00    -0.356 N 
ATOM      5  C   UNL A   1      32.525  26.103  26.125  1.00  0.00     0.229 C 
ATOM      6  O   UNL A   1      33.503  25.333  26.176  1.00  0.00    -0.275 OA
ATOM      7  H   UNL A   1      33.771  27.431  26.779  1.00  0.00     0.163 HD
BRANCH   5   8
ATOM      8  C   UNL A   1      31.198  25.507  25.598  1.00  0.00     0.146 C 
ATOM      9  C   UNL A   1      30.901  25.829  24.097  1.00  0.00     0.096 C 
ATOM     10  C   UNL A   1      30.214  24.577  23.540  1.00  0.00     0.272 C 
ATOM     11  N   UNL A   1      30.775  23.461  24.312  1.00  0.00    -0.329 N 
ATOM     12  C   UNL A   1      30.936  24.002  25.674  1.00  0.00     0.276 C 
ATOM     13  H   UNL A   1      30.144  22.660  24.298  1.00  0.00     0.348 HD
BRANCH   9  14
ATOM     14  C   UNL A   1      30.468  27.160  23.510  1.00  0.00     0.004 A 
ATOM     15  C   UNL A   1      31.265  28.275  23.245  1.00  0.00     0.122 A 
ATOM     16  C   UNL A   1      30.665  29.504  22.914  1.00  0.00     0.047 A 
ATOM     17  C   UNL A   1      29.277  29.653  22.855  1.00  0.00     0.004 A 
ATOM     18  C   UNL A   1      29.057  27.343  23.418  1.00  0.00     0.008 A 
ATOM     19  C   UNL A   1      28.467  28.565  23.117  1.00  0.00     0.001 A 
BRANCH  15  20
ATOM     20  O   UNL A   1      32.617  28.338  23.437  1.00  0.00    -0.496 OA
ATOM     21  C   UNL A   1      33.316  29.015  22.401  1.00  0.00     0.278 C 
ENDBRANCH  15  20
ENDBRANCH   9  14
BRANCH  11  22
ATOM     22  C   UNL A   1      31.975  22.794  23.738  1.00  0.00     0.321 C 
BRANCH  22  23
ATOM     23  C   UNL A   1      32.170  21.312  23.982  1.00  0.00     0.114 A 
ATOM     24  C   UNL A   1      32.279  20.569  25.150  1.00  0.00     0.122 A 
ATOM     25  N   UNL A   1      32.397  20.475  22.927  1.00  0.00    -0.228 NA
ATOM     26  N   UNL A   1      32.550  19.267  24.759  1.00  0.00    -0.306 N 
ATOM     27  C   UNL A   1      32.460  19.254  23.383  1.00  0.00     0.137 A 
ATOM     28  C   UNL A   1      32.942  18.141  25.483  1.00  0.00     0.096 A 
ATOM     29  C   UNL A   1      32.588  18.019  22.696  1.00  0.00     0.048 A 
ATOM     30  C   UNL A   1      33.197  16.986  24.826  1.00  0.00    -0.034 A 
ATOM     31  C   UNL A   1      32.945  16.922  23.385  1.00  0.00     0.009 A 
ATOM     32  C   UNL A   1      33.803  15.772  25.451  1.00  0.00     0.046 C 
ENDBRANCH  22  23
ENDBRANCH  11  22
ENDBRANCH   5   8
ENDBRANCH   3   4
ENDBRANCH   2   3
ENDBRANCH   1   2
BRANCH   1  33
ATOM     33  C   UNL A   1      35.173  30.156  27.896  1.00  0.00     0.116 C 
BRANCH  33  34
ATOM     34  N   UNL A   1      35.662  30.468  29.247  1.00  0.00    -0.352 N 
ATOM     35  C   UNL A   1      36.688  29.842  29.942  1.00  0.00     0.251 C 
ATOM     36  H   UNL A   1      35.210  31.210  29.712  1.00  0.00     0.163 HD
ATOM     37  O   UNL A   1      36.777  29.914  31.163  1.00  0.00    -0.269 OA
BRANCH  35  38
ATOM     38  C   UNL A   1      37.678  29.098  29.144  1.00  0.00     0.039 A 
ATOM     39  C   UNL A   1      38.299  29.651  28.031  1.00  0.00     0.014 A 
ATOM     40  C   UNL A   1      38.160  27.936  29.726  1.00  0.00     0.014 A 
ATOM     41  C   UNL A   1      39.530  29.125  27.638  1.00  0.00     0.010 A 
ATOM     42  C   UNL A   1      39.455  27.550  29.464  1.00  0.00     0.010 A 
ATOM     43  C   UNL A   1      40.162  28.136  28.419  1.00  0.00    -0.014 A 
BRANCH  43  44
ATOM     44  C   UNL A   1      41.594  27.850  28.235  1.00  0.00     0.031 A 
ATOM     45  C   UNL A   1      41.914  26.641  27.423  1.00  0.00     0.074 A 
ATOM     46  C   UNL A   1      42.629  28.652  28.568  1.00  0.00     0.049 A 
ATOM     47  N   UNL A   1      42.259  25.477  27.864  1.00  0.00    -0.248 NA
ATOM     48  C   UNL A   1      41.705  26.680  25.970  1.00  0.00     0.031 C 
ATOM     49  C   UNL A   1      42.616  30.014  29.109  1.00  0.00     0.029 A 
ATOM     50  N   UNL A   1      43.963  28.408  28.407  1.00  0.00    -0.354 N 
ATOM     51  C   UNL A   1      42.552  24.701  26.748  1.00  0.00     0.074 A 
ATOM     52  C   UNL A   1      41.998  25.421  25.631  1.00  0.00     0.031 C 
ATOM     53  C   UNL A   1      43.850  30.554  29.022  1.00  0.00     0.029 A 
ATOM     54  C   UNL A   1      44.775  29.509  28.628  1.00  0.00     0.049 A 
ATOM     55  H   UNL A   1      44.318  27.524  28.155  1.00  0.00     0.167 HD
ATOM     56  C   UNL A   1      43.415  23.645  26.831  1.00  0.00     0.034 A 
ATOM     57  C   UNL A   1      46.126  29.573  28.571  1.00  0.00     0.034 A 
ATOM     58  C   UNL A   1      43.692  23.320  28.220  1.00  0.00     0.049 A 
ATOM     59  C   UNL A   1      46.628  28.208  28.847  1.00  0.00     0.074 A 
ATOM     60  C   UNL A   1      42.916  22.981  29.313  1.00  0.00     0.029 A 
ATOM     61  N   UNL A   1      44.901  23.718  28.748  1.00  0.00    -0.354 N 
ATOM     62  N   UNL A   1      46.445  27.600  29.989  1.00  0.00    -0.248 NA
ATOM     63  C   UNL A   1      46.943  27.332  27.730  1.00  0.00     0.031 C 
ATOM     64  C   UNL A   1      43.498  23.692  30.407  1.00  0.00     0.029 A 
ATOM     65  C   UNL A   1      44.639  24.349  29.940  1.00  0.00     0.049 A 
ATOM     66  H   UNL A   1      45.789  23.577  28.346  1.00  0.00     0.167 HD
ATOM     67  C   UNL A   1      46.181  26.281  29.655  1.00  0.00     0.074 A 
ATOM     68  C   UNL A   1      46.630  26.152  28.272  1.00  0.00     0.031 C 
ATOM     69  C   UNL A   1      45.376  25.498  30.437  1.00  0.00     0.034 A 
BRANCH  56  70
ATOM     70  C   UNL A   1      44.300  23.119  25.712  1.00  0.00     0.023 A 
ATOM     71  C   UNL A   1      44.268  21.729  25.468  1.00  0.00     0.031 A 
ATOM     72  C   UNL A   1      45.346  23.817  25.070  1.00  0.00     0.131 A 
ATOM     73  C   UNL A   1      45.293  21.085  24.755  1.00  0.00     0.055 A 
ATOM     74  C   UNL A   1      46.328  23.181  24.301  1.00  0.00     0.041 A 
ATOM     75  F   UNL A   1      45.533  25.133  25.208  1.00  0.00    -0.206 F 
ATOM     76  C   UNL A   1      46.330  21.803  24.171  1.00  0.00     0.022 A 
BRANCH  73  77
ATOM     77  S   UNL A   1      45.351  19.275  24.781  1.00  0.00     0.124 S 
ATOM     78  O   UNL A   1      46.657  19.034  25.387  1.00  0.00    -0.237 OA
ATOM     79  O   UNL A   1      44.189  18.951  25.601  1.00  0.00    -0.237 OA
ATOM     80  O   UNL A   1      45.242  18.912  23.371  1.00  0.00    -0.744 OA
ENDBRANCH  73  77
ENDBRANCH  56  70
BRANCH  57  81
ATOM     81  C   UNL A   1      46.942  30.703  28.073  1.00  0.00     0.023 A 
ATOM     82  C   UNL A   1      46.431  31.689  27.211  1.00  0.00     0.031 A 
ATOM     83  C   UNL A   1      48.212  30.949  28.646  1.00  0.00     0.131 A 
ATOM     84  C   UNL A   1      47.175  32.863  26.958  1.00  0.00     0.055 A 
ATOM     85  C   UNL A   1      48.946  32.107  28.389  1.00  0.00     0.041 A 
ATOM     86  F   UNL A   1      48.744  30.103  29.543  1.00  0.00    -0.206 F 
ATOM     87  C   UNL A   1      48.424  33.078  27.550  1.00  0.00     0.022 A 
BRANCH  84  88
ATOM     88  S   UNL A   1      46.465  34.188  25.933  1.00  0.00     0.124 S 
ATOM     89  O   UNL A   1      45.416  33.485  25.204  1.00  0.00    -0.237 OA
ATOM     90  O   UNL A   1      46.025  35.156  26.931  1.00  0.00    -0.237 OA
ATOM     91  O   UNL A   1      47.597  34.627  25.114  1.00  0.00    -0.744 OA
ENDBRANCH  84  88
ENDBRANCH  57  81
BRANCH  69  92
ATOM     92  C   UNL A   1      45.048  25.969  31.843  1.00  0.00     0.023 A 
ATOM     93  C   UNL A   1      43.866  26.649  32.215  1.00  0.00     0.031 A 
ATOM     94  C   UNL A   1      45.935  25.604  32.872  1.00  0.00     0.131 A 
ATOM     95  C   UNL A   1      43.616  26.946  33.570  1.00  0.00     0.055 A 
ATOM     96  C   UNL A   1      45.676  25.882  34.214  1.00  0.00     0.041 A 
ATOM     97  F   UNL A   1      47.065  24.932  32.592  1.00  0.00    -0.206 F 
ATOM     98  C   UNL A   1      44.517  26.560  34.568  1.00  0.00     0.022 A 
BRANCH  95  99
ATOM     99  S   UNL A   1      42.115  27.858  34.061  1.00  0.00     0.124 S 
ATOM    100  O   UNL A   1      41.400  26.912  34.911  1.00  0.00    -0.237 OA
ATOM    101  O   UNL A   1      42.663  29.031  34.735  1.00  0.00    -0.237 OA
ATOM    102  O   UNL A   1      41.458  28.144  32.783  1.00  0.00    -0.744 OA
ENDBRANCH  95  99
ENDBRANCH  69  92
ENDBRANCH  43  44
ENDBRANCH  35  38
ENDBRANCH  33  34
ENDBRANCH   1  33
TORSDOF 18
ENDMDL
MODEL 2
REMARK VINA RESULT:     -13.7      1.807      2.685
REMARK SMILES COc1ccccc1[C@@H]1C[N@@H+](Cc2cn3cc(C)ccc3n2)C[C@H]1C(=O)NCCCCNC(=O)c1ccc(-c2c3nc(c(-c4cc(S(=O)(=O)[O-])ccc4F)c4ccc([nH]4)c(-c4cc(S(=O)(=O)[O-])ccc4F)c4nc(c(-c5cc(S(=O)(=O)[O-])ccc5F)c5ccc2[nH]5)C=C4)C=C3)cc1
REMARK SMILES IDX 30 1 29 2 28 3 27 4 25 5 26 6 24 8 9 9 10 10 11 11 23 12
REMARK SMILES IDX 8 14 3 15 4 16 5 17 7 18 6 19 2 20 1 21 12 22 13 23 14 24
REMARK SMILES IDX 22 25 15 26 21 27 16 28 20 29 17 30 19 31 18 32 31 33 32 34
REMARK SMILES IDX 33 35 34 37 35 38 36 39 97 40 37 41 96 42 38 43 39 44 40 45
REMARK SMILES IDX 90 46 41 47 95 48 89 49 91 50 42 51 94 52 88 53 87 54 43 56
REMARK SMILES IDX 75 57 55 58 74 59 56 60 59 61 73 62 92 63 57 64 58 65 72 67
REMARK SMILES IDX 93 68 60 69 44 70 45 71 53 72 46 73 52 74 54 75 51 76 47 77
REMARK SMILES IDX 48 78 49 79 50 80 76 81 77 82 85 83 78 84 84 85 86 86 83 87
REMARK SMILES IDX 79 88 80 89 81 90 82 91 61 92 62 93 70 94 63 95 69 96 71 97
REMARK SMILES IDX 68 98 64 99 65 100 66 101 67 102
REMARK H PARENT 27 7 11 13 32 36 91 55 59 66
REMARK Flexibility Score: inf
ROOT
ATOM      1  C   UNL A   1      33.486  29.684  27.179  1.00  0.00     0.023 C 
ENDROOT
BRANCH   1   2
ATOM      2  C   UNL A   1      32.281  28.751  27.376  1.00  0.00     0.023 C 
BRANCH   2   3
ATOM      3  C   UNL A   1      32.326  27.336  26.754  1.00  0.00     0.116 C 
BRANCH   3   4
ATOM      4  N   UNL A   1      31.105  26.530  26.793  1.00  0.00    -0.356 N 
ATOM      5  C   UNL A   1      30.509  25.523  26.101  1.00  0.00     0.229 C 
ATOM      6  O   UNL A   1      29.417  25.175  26.590  1.00  0.00    -0.275 OA
ATOM      7  H   UNL A   1      30.542  26.801  27.554  1.00  0.00     0.163 HD
BRANCH   5   8
ATOM      8  C   UNL A   1      30.996  24.739  24.859  1.00  0.00     0.146 C 
ATOM      9  C   UNL A   1      32.416  25.155  24.354  1.00  0.00     0.096 C 
ATOM     10  C   UNL A   1      33.066  23.859  23.855  1.00  0.00     0.272 C 
ATOM     11  N   UNL A   1      32.487  22.799  24.689  1.00  0.00    -0.329 N 
ATOM     12  C   UNL A   1      31.086  23.213  24.889  1.00  0.00     0.276 C 
ATOM     13  H   UNL A   1      32.548  21.895  24.220  1.00  0.00     0.348 HD
BRANCH   9  14
ATOM     14  C   UNL A   1      32.795  26.430  23.624  1.00  0.00     0.004 A 
ATOM     15  C   UNL A   1      32.528  26.763  22.295  1.00  0.00     0.122 A 
ATOM     16  C   UNL A   1      33.148  27.886  21.715  1.00  0.00     0.047 A 
ATOM     17  C   UNL A   1      34.046  28.683  22.430  1.00  0.00     0.004 A 
ATOM     18  C   UNL A   1      33.699  27.278  24.330  1.00  0.00     0.008 A 
ATOM     19  C   UNL A   1      34.329  28.371  23.745  1.00  0.00     0.001 A 
BRANCH  15  20
ATOM     20  O   UNL A   1      31.823  25.988  21.417  1.00  0.00    -0.496 OA
ATOM     21  C   UNL A   1      32.569  25.583  20.277  1.00  0.00     0.278 C 
ENDBRANCH  15  20
ENDBRANCH   9  14
BRANCH  11  22
ATOM     22  C   UNL A   1      33.235  22.444  25.926  1.00  0.00     0.321 C 
BRANCH  22  23
ATOM     23  C   UNL A   1      34.749  22.423  25.879  1.00  0.00     0.114 A 
ATOM     24  C   UNL A   1      35.653  21.453  25.470  1.00  0.00     0.122 A 
ATOM     25  N   UNL A   1      35.458  23.462  26.411  1.00  0.00    -0.228 NA
ATOM     26  N   UNL A   1      36.916  21.954  25.750  1.00  0.00    -0.306 N 
ATOM     27  C   UNL A   1      36.725  23.248  26.187  1.00  0.00     0.137 A 
ATOM     28  C   UNL A   1      38.177  21.358  25.735  1.00  0.00     0.096 A 
ATOM     29  C   UNL A   1      37.859  24.059  26.453  1.00  0.00     0.048 A 
ATOM     30  C   UNL A   1      39.256  22.082  26.114  1.00  0.00    -0.034 A 
ATOM     31  C   UNL A   1      39.082  23.502  26.422  1.00  0.00     0.009 A 
ATOM     32  C   UNL A   1      40.623  21.517  26.325  1.00  0.00     0.046 C 
ENDBRANCH  22  23
ENDBRANCH  11  22
ENDBRANCH   5   8
ENDBRANCH   3   4
ENDBRANCH   2   3
ENDBRANCH   1   2
BRANCH   1  33
ATOM     33  C   UNL A   1      34.844  29.214  27.720  1.00  0.00     0.116 C 
BRANCH  33  34
ATOM     34  N   UNL A   1      35.426  30.056  28.776  1.00  0.00    -0.352 N 
ATOM     35  C   UNL A   1      36.645  29.886  29.417  1.00  0.00     0.251 C 
ATOM     36  H   UNL A   1      34.888  30.830  29.061  1.00  0.00     0.163 HD
ATOM     37  O   UNL A   1      36.876  30.395  30.510  1.00  0.00    -0.269 OA
BRANCH  35  38
ATOM     38  C   UNL A   1      37.661  29.080  28.719  1.00  0.00     0.039 A 
ATOM     39  C   UNL A   1      38.304  29.529  27.572  1.00  0.00     0.014 A 
ATOM     40  C   UNL A   1      38.139  27.985  29.421  1.00  0.00     0.014 A 
ATOM     41  C   UNL A   1      39.548  28.981  27.260  1.00  0.00     0.010 A 
ATOM     42  C   UNL A   1      39.443  27.589  29.228  1.00  0.00     0.010 A 
ATOM     43  C   UNL A   1      40.170  28.079  28.148  1.00  0.00    -0.014 A 
BRANCH  43  44
ATOM     44  C   UNL A   1      41.608  27.792  28.026  1.00  0.00     0.031 A 
ATOM     45  C   UNL A   1      41.963  26.583  27.230  1.00  0.00     0.074 A 
ATOM     46  C   UNL A   1      42.629  28.595  28.402  1.00  0.00     0.049 A 
ATOM     47  N   UNL A   1      42.287  25.419  27.687  1.00  0.00    -0.248 NA
ATOM     48  C   UNL A   1      41.815  26.619  25.770  1.00  0.00     0.031 C 
ATOM     49  C   UNL A   1      42.593  29.957  28.939  1.00  0.00     0.029 A 
ATOM     50  N   UNL A   1      43.968  28.350  28.298  1.00  0.00    -0.354 N 
ATOM     51  C   UNL A   1      42.628  24.641  26.585  1.00  0.00     0.074 A 
ATOM     52  C   UNL A   1      42.122  25.360  25.445  1.00  0.00     0.031 C 
ATOM     53  C   UNL A   1      43.830  30.497  28.905  1.00  0.00     0.029 A 
ATOM     54  C   UNL A   1      44.770  29.451  28.552  1.00  0.00     0.049 A 
ATOM     55  H   UNL A   1      44.333  27.466  28.063  1.00  0.00     0.167 HD
ATOM     56  C   UNL A   1      43.487  23.585  26.707  1.00  0.00     0.034 A 
ATOM     57  C   UNL A   1      46.122  29.515  28.552  1.00  0.00     0.034 A 
ATOM     58  C   UNL A   1      43.703  23.262  28.106  1.00  0.00     0.049 A 
ATOM     59  C   UNL A   1      46.612  28.150  28.851  1.00  0.00     0.074 A 
ATOM     60  C   UNL A   1      42.881  22.924  29.166  1.00  0.00     0.029 A 
ATOM     61  N   UNL A   1      44.889  23.661  28.685  1.00  0.00    -0.354 N 
ATOM     62  N   UNL A   1      46.380  27.544  29.985  1.00  0.00    -0.248 NA
ATOM     63  C   UNL A   1      46.974  27.273  27.750  1.00  0.00     0.031 C 
ATOM     64  C   UNL A   1      43.417  23.638  30.283  1.00  0.00     0.029 A 
ATOM     65  C   UNL A   1      44.577  24.294  29.864  1.00  0.00     0.049 A 
ATOM     66  H   UNL A   1      45.793  23.519  28.322  1.00  0.00     0.167 HD
ATOM     67  C   UNL A   1      46.130  26.224  29.643  1.00  0.00     0.074 A 
ATOM     68  C   UNL A   1      46.638  26.093  28.280  1.00  0.00     0.031 C 
ATOM     69  C   UNL A   1      45.293  25.443  30.391  1.00  0.00     0.034 A 
BRANCH  56  70
ATOM     70  C   UNL A   1      44.418  23.058  25.627  1.00  0.00     0.023 A 
ATOM     71  C   UNL A   1      44.458  21.658  25.442  1.00  0.00     0.031 A 
ATOM     72  C   UNL A   1      45.441  23.779  24.975  1.00  0.00     0.131 A 
ATOM     73  C   UNL A   1      45.528  21.037  24.775  1.00  0.00     0.055 A 
ATOM     74  C   UNL A   1      46.469  23.161  24.252  1.00  0.00     0.041 A 
ATOM     75  F   UNL A   1      45.562  25.107  25.060  1.00  0.00    -0.206 F 
ATOM     76  C   UNL A   1      46.540  21.780  24.181  1.00  0.00     0.022 A 
BRANCH  73  77
ATOM     77  S   UNL A   1      45.673  19.234  24.880  1.00  0.00     0.124 S 
ATOM     78  O   UNL A   1      45.686  18.860  23.470  1.00  0.00    -0.237 OA
ATOM     79  O   UNL A   1      46.932  19.078  25.601  1.00  0.00    -0.237 OA
ATOM     80  O   UNL A   1      44.477  18.841  25.620  1.00  0.00    -0.744 OA
ENDBRANCH  73  77
ENDBRANCH  56  70
BRANCH  57  81
ATOM     81  C   UNL A   1      46.960  30.644  28.088  1.00  0.00     0.023 A 
ATOM     82  C   UNL A   1      46.475  31.649  27.232  1.00  0.00     0.031 A 
ATOM     83  C   UNL A   1      48.221  30.868  28.689  1.00  0.00     0.131 A 
ATOM     84  C   UNL A   1      47.236  32.818  27.012  1.00  0.00     0.055 A 
ATOM     85  C   UNL A   1      48.971  32.022  28.464  1.00  0.00     0.041 A 
ATOM     86  F   UNL A   1      48.727  30.002  29.583  1.00  0.00    -0.206 F 
ATOM     87  C   UNL A   1      48.475  33.011  27.630  1.00  0.00     0.022 A 
BRANCH  84  88
ATOM     88  S   UNL A   1      46.559  34.166  25.994  1.00  0.00     0.124 S 
ATOM     89  O   UNL A   1      47.713  34.557  25.192  1.00  0.00    -0.237 OA
ATOM     90  O   UNL A   1      45.469  33.507  25.283  1.00  0.00    -0.237 OA
ATOM     91  O   UNL A   1      46.132  35.158  26.983  1.00  0.00    -0.744 OA
ENDBRANCH  84  88
ENDBRANCH  57  81
BRANCH  69  92
ATOM     92  C   UNL A   1      44.905  25.916  31.780  1.00  0.00     0.023 A 
ATOM     93  C   UNL A   1      43.744  26.662  32.089  1.00  0.00     0.031 A 
ATOM     94  C   UNL A   1      45.702  25.485  32.857  1.00  0.00     0.131 A 
ATOM     95  C   UNL A   1      43.427  26.957  33.430  1.00  0.00     0.055 A 
ATOM     96  C   UNL A   1      45.376  25.763  34.184  1.00  0.00     0.041 A 
ATOM     97  F   UNL A   1      46.805  24.750  32.637  1.00  0.00    -0.206 F 
ATOM     98  C   UNL A   1      44.239  26.506  34.476  1.00  0.00     0.022 A 
BRANCH  95  99
ATOM     99  S   UNL A   1      41.955  27.952  33.841  1.00  0.00     0.124 S 
ATOM    100  O   UNL A   1      41.177  27.074  34.707  1.00  0.00    -0.237 OA
ATOM    101  O   UNL A   1      42.536  29.128  34.483  1.00  0.00    -0.237 OA
ATOM    102  O   UNL A   1      41.346  28.213  32.534  1.00  0.00    -0.744 OA
ENDBRANCH  95  99
ENDBRANCH  69  92
ENDBRANCH  43  44
ENDBRANCH  35  38
ENDBRANCH  33  34
ENDBRANCH   1  33
TORSDOF 18
ENDMDL
MODEL 3
REMARK VINA RESULT:     -13.2      4.322      9.784
REMARK SMILES COc1ccccc1[C@@H]1C[N@@H+](Cc2cn3cc(C)ccc3n2)C[C@H]1C(=O)NCCCCNC(=O)c1ccc(-c2c3nc(c(-c4cc(S(=O)(=O)[O-])ccc4F)c4ccc([nH]4)c(-c4cc(S(=O)(=O)[O-])ccc4F)c4nc(c(-c5cc(S(=O)(=O)[O-])ccc5F)c5ccc2[nH]5)C=C4)C=C3)cc1
REMARK SMILES IDX 30 1 29 2 28 3 27 4 25 5 26 6 24 8 9 9 10 10 11 11 23 12
REMARK SMILES IDX 8 14 3 15 4 16 5 17 7 18 6 19 2 20 1 21 12 22 13 23 14 24
REMARK SMILES IDX 22 25 15 26 21 27 16 28 20 29 17 30 19 31 18 32 31 33 32 34
REMARK SMILES IDX 33 35 34 37 35 38 36 39 97 40 37 41 96 42 38 43 39 44 40 45
REMARK SMILES IDX 90 46 41 47 95 48 89 49 91 50 42 51 94 52 88 53 87 54 43 56
REMARK SMILES IDX 75 57 55 58 74 59 56 60 59 61 73 62 92 63 57 64 58 65 72 67
REMARK SMILES IDX 93 68 60 69 44 70 45 71 53 72 46 73 52 74 54 75 51 76 47 77
REMARK SMILES IDX 48 78 49 79 50 80 76 81 77 82 85 83 78 84 84 85 86 86 83 87
REMARK SMILES IDX 79 88 80 89 81 90 82 91 61 92 62 93 70 94 63 95 69 96 71 97
REMARK SMILES IDX 68 98 64 99 65 100 66 101 67 102
REMARK H PARENT 27 7 11 13 32 36 91 55 59 66
REMARK Flexibility Score: inf
ROOT
ATOM      1  C   UNL A   1      38.277  23.345  25.956  1.00  0.00     0.023 C 
ENDROOT
BRANCH   1   2
ATOM      2  C   UNL A   1      38.125  21.839  25.691  1.00  0.00     0.023 C 
BRANCH   2   3
ATOM      3  C   UNL A   1      36.952  21.355  24.807  1.00  0.00     0.116 C 
BRANCH   3   4
ATOM      4  N   UNL A   1      36.371  22.304  23.857  1.00  0.00    -0.356 N 
ATOM      5  C   UNL A   1      35.411  23.265  23.813  1.00  0.00     0.229 C 
ATOM      6  O   UNL A   1      35.323  23.816  22.699  1.00  0.00    -0.275 OA
ATOM      7  H   UNL A   1      36.812  22.222  22.980  1.00  0.00     0.163 HD
BRANCH   5   8
ATOM      8  C   UNL A   1      34.471  23.790  24.924  1.00  0.00     0.146 C 
ATOM      9  C   UNL A   1      33.311  24.701  24.406  1.00  0.00     0.096 C 
ATOM     10  C   UNL A   1      32.108  24.375  25.299  1.00  0.00     0.272 C 
ATOM     11  N   UNL A   1      32.286  22.968  25.677  1.00  0.00    -0.329 N 
ATOM     12  C   UNL A   1      33.742  22.816  25.851  1.00  0.00     0.276 C 
ATOM     13  H   UNL A   1      31.781  22.758  26.538  1.00  0.00     0.348 HD
BRANCH   9  14
ATOM     14  C   UNL A   1      33.417  26.129  23.904  1.00  0.00     0.004 A 
ATOM     15  C   UNL A   1      33.557  26.561  22.584  1.00  0.00     0.122 A 
ATOM     16  C   UNL A   1      33.870  27.906  22.315  1.00  0.00     0.047 A 
ATOM     17  C   UNL A   1      34.062  28.837  23.339  1.00  0.00     0.004 A 
ATOM     18  C   UNL A   1      33.597  27.110  24.923  1.00  0.00     0.008 A 
ATOM     19  C   UNL A   1      33.932  28.432  24.654  1.00  0.00     0.001 A 
BRANCH  15  20
ATOM     20  O   UNL A   1      33.581  25.743  21.488  1.00  0.00    -0.496 OA
ATOM     21  C   UNL A   1      32.294  25.334  21.046  1.00  0.00     0.278 C 
ENDBRANCH  15  20
ENDBRANCH   9  14
BRANCH  11  22
ATOM     22  C   UNL A   1      31.634  21.958  24.799  1.00  0.00     0.321 C 
BRANCH  22  23
ATOM     23  C   UNL A   1      32.202  20.555  24.758  1.00  0.00     0.114 A 
ATOM     24  C   UNL A   1      32.565  19.669  25.763  1.00  0.00     0.122 A 
ATOM     25  N   UNL A   1      32.557  20.002  23.560  1.00  0.00    -0.228 NA
ATOM     26  N   UNL A   1      33.121  18.567  25.130  1.00  0.00    -0.306 N 
ATOM     27  C   UNL A   1      32.948  18.776  23.777  1.00  0.00     0.137 A 
ATOM     28  C   UNL A   1      33.824  17.467  25.622  1.00  0.00     0.096 A 
ATOM     29  C   UNL A   1      33.329  17.755  22.869  1.00  0.00     0.048 A 
ATOM     30  C   UNL A   1      34.310  16.549  24.755  1.00  0.00    -0.034 A 
ATOM     31  C   UNL A   1      33.988  16.680  23.333  1.00  0.00     0.009 A 
ATOM     32  C   UNL A   1      35.234  15.437  25.130  1.00  0.00     0.046 C 
ENDBRANCH  22  23
ENDBRANCH  11  22
ENDBRANCH   5   8
ENDBRANCH   3   4
ENDBRANCH   2   3
ENDBRANCH   1   2
BRANCH   1  33
ATOM     33  C   UNL A   1      39.397  23.788  26.909  1.00  0.00     0.116 C 
BRANCH  33  34
ATOM     34  N   UNL A   1      40.575  24.385  26.262  1.00  0.00    -0.352 N 
ATOM     35  C   UNL A   1      40.836  25.733  26.056  1.00  0.00     0.251 C 
ATOM     36  H   UNL A   1      41.259  23.754  25.938  1.00  0.00     0.163 HD
ATOM     37  O   UNL A   1      41.632  26.112  25.203  1.00  0.00    -0.269 OA
BRANCH  35  38
ATOM     38  C   UNL A   1      40.125  26.691  26.920  1.00  0.00     0.039 A 
ATOM     39  C   UNL A   1      39.495  26.302  28.096  1.00  0.00     0.014 A 
ATOM     40  C   UNL A   1      40.360  28.029  26.646  1.00  0.00     0.014 A 
ATOM     41  C   UNL A   1      39.289  27.269  29.080  1.00  0.00     0.010 A 
ATOM     42  C   UNL A   1      40.338  28.933  27.683  1.00  0.00     0.010 A 
ATOM     43  C   UNL A   1      39.805  28.572  28.915  1.00  0.00    -0.014 A 
BRANCH  43  44
ATOM     44  C   UNL A   1      39.926  29.472  30.073  1.00  0.00     0.031 A 
ATOM     45  C   UNL A   1      38.704  30.256  30.414  1.00  0.00     0.074 A 
ATOM     46  C   UNL A   1      40.951  29.528  30.951  1.00  0.00     0.049 A 
ATOM     47  N   UNL A   1      38.467  31.491  30.122  1.00  0.00    -0.248 NA
ATOM     48  C   UNL A   1      37.563  29.569  31.030  1.00  0.00     0.031 C 
ATOM     49  C   UNL A   1      42.147  28.686  31.043  1.00  0.00     0.029 A 
ATOM     50  N   UNL A   1      41.084  30.354  32.031  1.00  0.00    -0.354 N 
ATOM     51  C   UNL A   1      37.258  31.817  30.727  1.00  0.00     0.074 A 
ATOM     52  C   UNL A   1      36.663  30.556  31.084  1.00  0.00     0.031 C 
ATOM     53  C   UNL A   1      42.761  28.888  32.228  1.00  0.00     0.029 A 
ATOM     54  C   UNL A   1      42.132  30.023  32.876  1.00  0.00     0.049 A 
ATOM     55  H   UNL A   1      40.487  31.120  32.195  1.00  0.00     0.167 HD
ATOM     56  C   UNL A   1      36.966  33.107  31.069  1.00  0.00     0.034 A 
ATOM     57  C   UNL A   1      42.527  30.661  34.003  1.00  0.00     0.034 A 
ATOM     58  C   UNL A   1      37.914  34.024  30.459  1.00  0.00     0.049 A 
ATOM     59  C   UNL A   1      42.095  32.071  33.866  1.00  0.00     0.074 A 
ATOM     60  C   UNL A   1      38.316  34.288  29.162  1.00  0.00     0.029 A 
ATOM     61  N   UNL A   1      38.905  34.554  31.257  1.00  0.00    -0.354 N 
ATOM     62  N   UNL A   1      42.555  32.869  32.939  1.00  0.00    -0.248 NA
ATOM     63  C   UNL A   1      40.834  32.483  34.460  1.00  0.00     0.031 C 
ATOM     64  C   UNL A   1      39.732  34.463  29.249  1.00  0.00     0.029 A 
ATOM     65  C   UNL A   1      40.097  34.384  30.595  1.00  0.00     0.049 A 
ATOM     66  H   UNL A   1      38.782  34.976  32.137  1.00  0.00     0.167 HD
ATOM     67  C   UNL A   1      41.459  33.612  32.528  1.00  0.00     0.074 A 
ATOM     68  C   UNL A   1      40.468  33.424  33.585  1.00  0.00     0.031 C 
ATOM     69  C   UNL A   1      41.360  34.081  31.248  1.00  0.00     0.034 A 
BRANCH  56  70
ATOM     70  C   UNL A   1      36.075  33.551  32.218  1.00  0.00     0.023 A 
ATOM     71  C   UNL A   1      35.101  34.532  31.933  1.00  0.00     0.031 A 
ATOM     72  C   UNL A   1      36.285  33.295  33.590  1.00  0.00     0.131 A 
ATOM     73  C   UNL A   1      34.500  35.288  32.954  1.00  0.00     0.055 A 
ATOM     74  C   UNL A   1      35.634  34.003  34.608  1.00  0.00     0.041 A 
ATOM     75  F   UNL A   1      37.183  32.411  34.036  1.00  0.00    -0.206 F 
ATOM     76  C   UNL A   1      34.764  35.033  34.295  1.00  0.00     0.022 A 
BRANCH  73  77
ATOM     77  S   UNL A   1      33.528  36.743  32.486  1.00  0.00     0.124 S 
ATOM     78  O   UNL A   1      34.448  37.827  32.814  1.00  0.00    -0.237 OA
ATOM     79  O   UNL A   1      33.295  36.502  31.066  1.00  0.00    -0.237 OA
ATOM     80  O   UNL A   1      32.346  36.648  33.338  1.00  0.00    -0.744 OA
ENDBRANCH  73  77
ENDBRANCH  56  70
BRANCH  57  81
ATOM     81  C   UNL A   1      43.047  30.039  35.241  1.00  0.00     0.023 A 
ATOM     82  C   UNL A   1      42.595  28.796  35.716  1.00  0.00     0.031 A 
ATOM     83  C   UNL A   1      44.195  30.583  35.863  1.00  0.00     0.131 A 
ATOM     84  C   UNL A   1      43.285  28.145  36.762  1.00  0.00     0.055 A 
ATOM     85  C   UNL A   1      44.871  29.939  36.900  1.00  0.00     0.041 A 
ATOM     86  F   UNL A   1      44.747  31.727  35.423  1.00  0.00    -0.206 F 
ATOM     87  C   UNL A   1      44.423  28.707  37.347  1.00  0.00     0.022 A 
BRANCH  84  88
ATOM     88  S   UNL A   1      42.767  26.485  37.300  1.00  0.00     0.124 S 
ATOM     89  O   UNL A   1      43.520  26.312  38.536  1.00  0.00    -0.237 OA
ATOM     90  O   UNL A   1      41.322  26.636  37.435  1.00  0.00    -0.237 OA
ATOM     91  O   UNL A   1      43.189  25.622  36.195  1.00  0.00    -0.744 OA
ENDBRANCH  84  88
ENDBRANCH  57  81
BRANCH  69  92
ATOM     92  C   UNL A   1      42.601  34.079  30.374  1.00  0.00     0.023 A 
ATOM     93  C   UNL A   1      42.964  33.044  29.482  1.00  0.00     0.031 A 
ATOM     94  C   UNL A   1      43.391  35.243  30.369  1.00  0.00     0.131 A 
ATOM     95  C   UNL A   1      44.084  33.195  28.640  1.00  0.00     0.055 A 
ATOM     96  C   UNL A   1      44.488  35.398  29.521  1.00  0.00     0.041 A 
ATOM     97  F   UNL A   1      43.088  36.277  31.173  1.00  0.00    -0.206 F 
ATOM     98  C   UNL A   1      44.842  34.370  28.656  1.00  0.00     0.022 A 
BRANCH  95  99
ATOM     99  S   UNL A   1      44.588  31.852  27.513  1.00  0.00     0.124 S 
ATOM    100  O   UNL A   1      44.521  32.468  26.192  1.00  0.00    -0.237 OA
ATOM    101  O   UNL A   1      45.926  31.520  27.994  1.00  0.00    -0.237 OA
ATOM    102  O   UNL A   1      43.582  30.814  27.751  1.00  0.00    -0.744 OA
ENDBRANCH  95  99
ENDBRANCH  69  92
ENDBRANCH  43  44
ENDBRANCH  35  38
ENDBRANCH  33  34
ENDBRANCH   1  33
TORSDOF 18
ENDMDL
