MODEL 1
REMARK VINA RESULT:     -13.7      0.000      0.000
REMARK SMILES Cc1ccccc1OC1(C(=O)NCCCCNC(=O)c2ccc(-c3c4nc(c(-c5cc(S(=O)(=O)[O-])ccc5F)c5ccc([nH]5)c(-c5cc(S(=O)(=O)[O-])ccc5F)c5nc(c(-c6cc(S(=O)(=O)[O-])ccc6F)c6ccc3[nH]6)C=C5)C=C4)cc2)CCN(C(=O)[C@H]2CCCCO2)CC1
REMARK SMILES IDX 15 1 14 2 13 3 12 4 10 5 11 6 9 8 83 9 95 10 84 11 94 12
REMARK SMILES IDX 85 13 86 14 87 15 8 16 7 17 1 18 2 19 3 20 4 21 6 22 5 23
REMARK SMILES IDX 88 24 89 25 93 26 90 27 92 28 91 29 16 30 17 31 18 32 19 34
REMARK SMILES IDX 20 35 21 36 82 37 22 38 81 39 23 40 24 41 25 42 75 43 26 44
REMARK SMILES IDX 80 45 74 46 76 47 27 48 79 49 73 50 72 51 28 53 60 54 40 55
REMARK SMILES IDX 59 56 41 57 44 58 58 59 77 60 42 61 43 62 57 64 78 65 45 66
REMARK SMILES IDX 29 67 30 68 38 69 31 70 37 71 39 72 36 73 32 74 33 75 34 76
REMARK SMILES IDX 35 77 61 78 62 79 70 80 63 81 69 82 71 83 68 84 64 85 65 86
REMARK SMILES IDX 66 87 67 88 46 89 47 90 55 91 48 92 54 93 56 94 53 95 49 96
REMARK SMILES IDX 50 97 51 98 52 99
REMARK H PARENT 12 7 17 33 76 52 44 63
REMARK Flexibility Score: inf
ROOT
ATOM      1  C   UNL A   1      33.376  31.691  27.588  1.00  0.00     0.023 C 
ENDROOT
BRANCH   1   2
ATOM      2  C   UNL A   1      32.521  30.771  26.724  1.00  0.00     0.023 C 
BRANCH   2   3
ATOM      3  C   UNL A   1      33.165  29.425  26.368  1.00  0.00     0.116 C 
BRANCH   3   4
ATOM      4  N   UNL A   1      33.672  29.363  25.007  1.00  0.00    -0.353 N 
ATOM      5  C   UNL A   1      33.438  28.530  23.949  1.00  0.00     0.264 C 
ATOM      6  O   UNL A   1      34.014  28.877  22.905  1.00  0.00    -0.270 OA
ATOM      7  H   UNL A   1      34.324  30.071  24.803  1.00  0.00     0.163 HD
BRANCH   5   8
ATOM      8  C   UNL A   1      32.550  27.218  24.013  1.00  0.00     0.190 C 
ATOM      9  C   UNL A   1      32.409  26.682  22.591  1.00  0.00     0.080 C 
ATOM     10  C   UNL A   1      33.085  26.293  25.115  1.00  0.00     0.080 C 
ATOM     11  C   UNL A   1      33.193  25.421  22.287  1.00  0.00     0.124 C 
ATOM     12  C   UNL A   1      33.713  24.968  24.677  1.00  0.00     0.124 C 
ATOM     13  N   UNL A   1      33.256  24.471  23.380  1.00  0.00    -0.340 N 
ATOM     14  C   UNL A   1      33.178  23.117  23.030  1.00  0.00     0.251 C 
ATOM     15  O   UNL A   1      32.813  22.777  21.898  1.00  0.00    -0.272 OA
BRANCH   8  16
ATOM     16  O   UNL A   1      31.275  27.795  24.444  1.00  0.00    -0.477 OA
BRANCH  16  17
ATOM     17  C   UNL A   1      30.171  28.248  23.790  1.00  0.00     0.123 A 
ATOM     18  C   UNL A   1      28.443  26.324  23.927  1.00  0.00     0.048 C 
ATOM     19  C   UNL A   1      28.917  27.679  23.523  1.00  0.00    -0.009 A 
ATOM     20  C   UNL A   1      27.970  28.405  22.755  1.00  0.00     0.007 A 
ATOM     21  C   UNL A   1      28.228  29.684  22.282  1.00  0.00     0.001 A 
ATOM     22  C   UNL A   1      30.405  29.548  23.294  1.00  0.00     0.047 A 
ATOM     23  C   UNL A   1      29.453  30.263  22.557  1.00  0.00     0.004 A 
ENDBRANCH  16  17
ENDBRANCH   8  16
BRANCH  14  24
ATOM     24  C   UNL A   1      33.422  22.058  24.126  1.00  0.00     0.207 C 
ATOM     25  C   UNL A   1      32.533  20.848  23.794  1.00  0.00     0.042 C 
ATOM     26  O   UNL A   1      34.797  21.664  24.114  1.00  0.00    -0.368 OA
ATOM     27  C   UNL A   1      32.868  19.620  24.631  1.00  0.00     0.006 C 
ATOM     28  C   UNL A   1      35.087  20.661  25.076  1.00  0.00     0.161 C 
ATOM     29  C   UNL A   1      34.372  19.381  24.676  1.00  0.00     0.029 C 
ENDBRANCH  14  24
ENDBRANCH   5   8
ENDBRANCH   3   4
ENDBRANCH   2   3
ENDBRANCH   1   2
BRANCH   1  30
ATOM     30  C   UNL A   1      34.543  30.980  28.262  1.00  0.00     0.116 C 
BRANCH  30  31
ATOM     31  N   UNL A   1      35.434  31.837  29.035  1.00  0.00    -0.352 N 
ATOM     32  C   UNL A   1      36.647  31.505  29.626  1.00  0.00     0.251 C 
ATOM     33  H   UNL A   1      35.139  32.769  29.153  1.00  0.00     0.163 HD
ATOM     34  O   UNL A   1      37.245  32.286  30.350  1.00  0.00    -0.269 OA
BRANCH  32  35
ATOM     35  C   UNL A   1      37.285  30.218  29.248  1.00  0.00     0.039 A 
ATOM     36  C   UNL A   1      37.405  29.250  30.252  1.00  0.00     0.014 A 
ATOM     37  C   UNL A   1      37.998  30.095  28.061  1.00  0.00     0.014 A 
ATOM     38  C   UNL A   1      38.436  28.316  30.176  1.00  0.00     0.010 A 
ATOM     39  C   UNL A   1      39.091  29.253  28.038  1.00  0.00     0.010 A 
ATOM     40  C   UNL A   1      39.351  28.415  29.130  1.00  0.00    -0.014 A 
BRANCH  40  41
ATOM     41  C   UNL A   1      40.679  27.809  29.175  1.00  0.00     0.031 A 
ATOM     42  C   UNL A   1      40.887  26.413  28.748  1.00  0.00     0.074 A 
ATOM     43  C   UNL A   1      41.741  28.559  29.540  1.00  0.00     0.049 A 
ATOM     44  N   UNL A   1      41.892  25.683  29.096  1.00  0.00    -0.248 NA
ATOM     45  C   UNL A   1      39.920  25.697  27.929  1.00  0.00     0.031 C 
ATOM     46  C   UNL A   1      43.156  28.239  29.384  1.00  0.00     0.029 A 
ATOM     47  N   UNL A   1      41.732  29.676  30.369  1.00  0.00    -0.354 N 
ATOM     48  C   UNL A   1      41.876  24.546  28.321  1.00  0.00     0.074 A 
ATOM     49  C   UNL A   1      40.579  24.562  27.688  1.00  0.00     0.031 C 
ATOM     50  C   UNL A   1      43.865  28.956  30.269  1.00  0.00     0.029 A 
ATOM     51  C   UNL A   1      42.918  29.654  31.119  1.00  0.00     0.049 A 
ATOM     52  H   UNL A   1      41.023  30.356  30.420  1.00  0.00     0.167 HD
ATOM     53  C   UNL A   1      43.021  23.813  28.196  1.00  0.00     0.034 A 
ATOM     54  C   UNL A   1      42.879  29.579  32.482  1.00  0.00     0.034 A 
ATOM     55  C   UNL A   1      44.062  24.293  29.114  1.00  0.00     0.049 A 
ATOM     56  C   UNL A   1      43.523  28.330  33.037  1.00  0.00     0.074 A 
ATOM     57  C   UNL A   1      45.206  25.056  28.936  1.00  0.00     0.029 A 
ATOM     58  N   UNL A   1      43.850  24.226  30.488  1.00  0.00    -0.354 N 
ATOM     59  N   UNL A   1      43.835  27.286  32.318  1.00  0.00    -0.248 NA
ATOM     60  C   UNL A   1      43.860  28.155  34.445  1.00  0.00     0.031 C 
ATOM     61  C   UNL A   1      45.634  25.511  30.213  1.00  0.00     0.029 A 
ATOM     62  C   UNL A   1      44.775  24.996  31.170  1.00  0.00     0.049 A 
ATOM     63  H   UNL A   1      43.137  23.700  30.918  1.00  0.00     0.167 HD
ATOM     64  C   UNL A   1      44.374  26.313  33.121  1.00  0.00     0.074 A 
ATOM     65  C   UNL A   1      44.397  26.922  34.440  1.00  0.00     0.031 C 
ATOM     66  C   UNL A   1      44.739  25.089  32.626  1.00  0.00     0.034 A 
BRANCH  53  67
ATOM     67  C   UNL A   1      43.308  22.873  27.033  1.00  0.00     0.023 A 
ATOM     68  C   UNL A   1      42.779  21.563  27.060  1.00  0.00     0.031 A 
ATOM     69  C   UNL A   1      44.137  23.148  25.927  1.00  0.00     0.131 A 
ATOM     70  C   UNL A   1      43.160  20.588  26.116  1.00  0.00     0.055 A 
ATOM     71  C   UNL A   1      44.560  22.168  25.017  1.00  0.00     0.041 A 
ATOM     72  F   UNL A   1      44.532  24.388  25.624  1.00  0.00    -0.206 F 
ATOM     73  C   UNL A   1      44.083  20.874  25.116  1.00  0.00     0.022 A 
BRANCH  70  74
ATOM     74  S   UNL A   1      42.433  18.928  26.209  1.00  0.00     0.124 S 
ATOM     75  O   UNL A   1      43.294  18.163  25.314  1.00  0.00    -0.237 OA
ATOM     76  O   UNL A   1      42.541  18.624  27.631  1.00  0.00    -0.237 OA
ATOM     77  O   UNL A   1      41.067  19.129  25.726  1.00  0.00    -0.744 OA
ENDBRANCH  70  74
ENDBRANCH  53  67
BRANCH  54  78
ATOM     78  C   UNL A   1      41.720  30.314  33.067  1.00  0.00     0.023 A 
ATOM     79  C   UNL A   1      41.795  31.723  33.018  1.00  0.00     0.031 A 
ATOM     80  C   UNL A   1      40.459  29.727  33.231  1.00  0.00     0.131 A 
ATOM     81  C   UNL A   1      40.627  32.486  32.914  1.00  0.00     0.055 A 
ATOM     82  C   UNL A   1      39.293  30.508  33.231  1.00  0.00     0.041 A 
ATOM     83  F   UNL A   1      40.322  28.394  33.250  1.00  0.00    -0.206 F 
ATOM     84  C   UNL A   1      39.371  31.887  33.018  1.00  0.00     0.022 A 
BRANCH  81  85
ATOM     85  S   UNL A   1      40.769  34.205  32.330  1.00  0.00     0.124 S 
ATOM     86  O   UNL A   1      41.609  34.045  31.151  1.00  0.00    -0.237 OA
ATOM     87  O   UNL A   1      39.377  34.588  32.085  1.00  0.00    -0.237 OA
ATOM     88  O   UNL A   1      41.378  34.894  33.466  1.00  0.00    -0.744 OA
ENDBRANCH  81  85
ENDBRANCH  54  78
BRANCH  66  89
ATOM     89  C   UNL A   1      45.171  23.889  33.449  1.00  0.00     0.023 A 
ATOM     90  C   UNL A   1      46.474  23.702  33.931  1.00  0.00     0.031 A 
ATOM     91  C   UNL A   1      44.233  22.901  33.842  1.00  0.00     0.131 A 
ATOM     92  C   UNL A   1      46.825  22.558  34.674  1.00  0.00     0.055 A 
ATOM     93  C   UNL A   1      44.563  21.808  34.650  1.00  0.00     0.041 A 
ATOM     94  F   UNL A   1      42.946  22.956  33.465  1.00  0.00    -0.206 F 
ATOM     95  C   UNL A   1      45.872  21.620  35.058  1.00  0.00     0.022 A 
BRANCH  92  96
ATOM     96  S   UNL A   1      48.574  22.293  35.066  1.00  0.00     0.124 S 
ATOM     97  O   UNL A   1      49.183  23.525  34.571  1.00  0.00    -0.237 OA
ATOM     98  O   UNL A   1      48.551  22.138  36.517  1.00  0.00    -0.237 OA
ATOM     99  O   UNL A   1      48.918  21.086  34.317  1.00  0.00    -0.744 OA
ENDBRANCH  92  96
ENDBRANCH  66  89
ENDBRANCH  40  41
ENDBRANCH  32  35
ENDBRANCH  30  31
ENDBRANCH   1  30
TORSDOF 17
ENDMDL
MODEL 2
REMARK VINA RESULT:     -13.2      1.896      2.250
REMARK SMILES Cc1ccccc1OC1(C(=O)NCCCCNC(=O)c2ccc(-c3c4nc(c(-c5cc(S(=O)(=O)[O-])ccc5F)c5ccc([nH]5)c(-c5cc(S(=O)(=O)[O-])ccc5F)c5nc(c(-c6cc(S(=O)(=O)[O-])ccc6F)c6ccc3[nH]6)C=C5)C=C4)cc2)CCN(C(=O)[C@H]2CCCCO2)CC1
REMARK SMILES IDX 15 1 14 2 13 3 12 4 10 5 11 6 9 8 83 9 95 10 84 11 94 12
REMARK SMILES IDX 85 13 86 14 87 15 8 16 7 17 1 18 2 19 3 20 4 21 6 22 5 23
REMARK SMILES IDX 88 24 89 25 93 26 90 27 92 28 91 29 16 30 17 31 18 32 19 34
REMARK SMILES IDX 20 35 21 36 82 37 22 38 81 39 23 40 24 41 25 42 75 43 26 44
REMARK SMILES IDX 80 45 74 46 76 47 27 48 79 49 73 50 72 51 28 53 60 54 40 55
REMARK SMILES IDX 59 56 41 57 44 58 58 59 77 60 42 61 43 62 57 64 78 65 45 66
REMARK SMILES IDX 29 67 30 68 38 69 31 70 37 71 39 72 36 73 32 74 33 75 34 76
REMARK SMILES IDX 35 77 61 78 62 79 70 80 63 81 69 82 71 83 68 84 64 85 65 86
REMARK SMILES IDX 66 87 67 88 46 89 47 90 55 91 48 92 54 93 56 94 53 95 49 96
REMARK SMILES IDX 50 97 51 98 52 99
REMARK H PARENT 12 7 17 33 76 52 44 63
REMARK Flexibility Score: inf
ROOT
ATOM      1  C   UNL A   1      32.843  31.502  27.594  1.00  0.00     0.023 C 
ENDROOT
BRANCH   1   2
ATOM      2  C   UNL A   1      32.518  30.327  26.680  1.00  0.00     0.023 C 
BRANCH   2   3
ATOM      3  C   UNL A   1      33.672  29.343  26.446  1.00  0.00     0.116 C 
BRANCH   3   4
ATOM      4  N   UNL A   1      34.101  29.266  25.059  1.00  0.00    -0.353 N 
ATOM      5  C   UNL A   1      33.765  28.457  24.010  1.00  0.00     0.264 C 
ATOM      6  O   UNL A   1      34.302  28.782  22.939  1.00  0.00    -0.270 OA
ATOM      7  H   UNL A   1      34.777  29.941  24.824  1.00  0.00     0.163 HD
BRANCH   5   8
ATOM      8  C   UNL A   1      32.813  27.193  24.114  1.00  0.00     0.190 C 
ATOM      9  C   UNL A   1      32.586  26.664  22.701  1.00  0.00     0.080 C 
ATOM     10  C   UNL A   1      33.343  26.243  25.197  1.00  0.00     0.080 C 
ATOM     11  C   UNL A   1      33.291  25.363  22.370  1.00  0.00     0.124 C 
ATOM     12  C   UNL A   1      33.883  24.886  24.738  1.00  0.00     0.124 C 
ATOM     13  N   UNL A   1      33.348  24.413  23.462  1.00  0.00    -0.340 N 
ATOM     14  C   UNL A   1      33.185  23.064  23.120  1.00  0.00     0.251 C 
ATOM     15  O   UNL A   1      32.758  22.742  22.005  1.00  0.00    -0.272 OA
BRANCH   8  16
ATOM     16  O   UNL A   1      31.589  27.837  24.595  1.00  0.00    -0.477 OA
BRANCH  16  17
ATOM     17  C   UNL A   1      30.409  28.183  24.012  1.00  0.00     0.123 A 
ATOM     18  C   UNL A   1      29.042  25.991  23.851  1.00  0.00     0.048 C 
ATOM     19  C   UNL A   1      29.266  27.452  23.657  1.00  0.00    -0.009 A 
ATOM     20  C   UNL A   1      28.192  28.109  23.003  1.00  0.00     0.007 A 
ATOM     21  C   UNL A   1      28.216  29.468  22.728  1.00  0.00     0.001 A 
ATOM     22  C   UNL A   1      30.405  29.564  23.718  1.00  0.00     0.047 A 
ATOM     23  C   UNL A   1      29.328  30.204  23.093  1.00  0.00     0.004 A 
ENDBRANCH  16  17
ENDBRANCH   8  16
BRANCH  14  24
ATOM     24  C   UNL A   1      33.417  21.995  24.208  1.00  0.00     0.207 C 
ATOM     25  C   UNL A   1      32.503  20.803  23.877  1.00  0.00     0.042 C 
ATOM     26  O   UNL A   1      34.784  21.575  24.184  1.00  0.00    -0.368 OA
ATOM     27  C   UNL A   1      32.822  19.565  24.706  1.00  0.00     0.006 C 
ATOM     28  C   UNL A   1      35.063  20.562  25.138  1.00  0.00     0.161 C 
ATOM     29  C   UNL A   1      34.321  19.298  24.738  1.00  0.00     0.029 C 
ENDBRANCH  14  24
ENDBRANCH   5   8
ENDBRANCH   3   4
ENDBRANCH   2   3
ENDBRANCH   1   2
BRANCH   1  30
ATOM     30  C   UNL A   1      34.317  31.890  27.585  1.00  0.00     0.116 C 
BRANCH  30  31
ATOM     31  N   UNL A   1      34.836  32.398  28.848  1.00  0.00    -0.352 N 
ATOM     32  C   UNL A   1      35.704  31.772  29.736  1.00  0.00     0.251 C 
ATOM     33  H   UNL A   1      34.534  33.299  29.107  1.00  0.00     0.163 HD
ATOM     34  O   UNL A   1      35.974  32.257  30.823  1.00  0.00    -0.269 OA
BRANCH  32  35
ATOM     35  C   UNL A   1      36.418  30.553  29.278  1.00  0.00     0.039 A 
ATOM     36  C   UNL A   1      36.734  29.598  30.251  1.00  0.00     0.014 A 
ATOM     37  C   UNL A   1      37.012  30.501  28.022  1.00  0.00     0.014 A 
ATOM     38  C   UNL A   1      37.835  28.767  30.057  1.00  0.00     0.010 A 
ATOM     39  C   UNL A   1      38.172  29.768  27.876  1.00  0.00     0.010 A 
ATOM     40  C   UNL A   1      38.623  28.956  28.924  1.00  0.00    -0.014 A 
BRANCH  40  41
ATOM     41  C   UNL A   1      39.999  28.480  28.823  1.00  0.00     0.031 A 
ATOM     42  C   UNL A   1      40.291  27.050  28.605  1.00  0.00     0.074 A 
ATOM     43  C   UNL A   1      41.016  29.369  28.857  1.00  0.00     0.049 A 
ATOM     44  N   UNL A   1      41.416  26.482  28.877  1.00  0.00    -0.248 NA
ATOM     45  C   UNL A   1      39.288  26.119  28.108  1.00  0.00     0.031 C 
ATOM     46  C   UNL A   1      42.412  29.142  28.498  1.00  0.00     0.029 A 
ATOM     47  N   UNL A   1      41.019  30.614  29.476  1.00  0.00    -0.354 N 
ATOM     48  C   UNL A   1      41.400  25.225  28.319  1.00  0.00     0.074 A 
ATOM     49  C   UNL A   1      40.022  25.017  27.942  1.00  0.00     0.031 C 
ATOM     50  C   UNL A   1      43.173  30.066  29.106  1.00  0.00     0.029 A 
ATOM     51  C   UNL A   1      42.308  30.828  29.987  1.00  0.00     0.049 A 
ATOM     52  H   UNL A   1      40.256  31.232  29.542  1.00  0.00     0.167 HD
ATOM     53  C   UNL A   1      42.583  24.577  28.109  1.00  0.00     0.034 A 
ATOM     54  C   UNL A   1      42.505  31.002  31.327  1.00  0.00     0.034 A 
ATOM     55  C   UNL A   1      43.702  25.302  28.727  1.00  0.00     0.049 A 
ATOM     56  C   UNL A   1      43.370  29.933  31.954  1.00  0.00     0.074 A 
ATOM     57  C   UNL A   1      44.706  26.111  28.217  1.00  0.00     0.029 A 
ATOM     58  N   UNL A   1      43.731  25.472  30.108  1.00  0.00    -0.354 N 
ATOM     59  N   UNL A   1      43.675  28.805  31.374  1.00  0.00    -0.248 NA
ATOM     60  C   UNL A   1      43.955  30.050  33.285  1.00  0.00     0.031 C 
ATOM     61  C   UNL A   1      45.286  26.826  29.299  1.00  0.00     0.029 A 
ATOM     62  C   UNL A   1      44.663  26.428  30.470  1.00  0.00     0.049 A 
ATOM     63  H   UNL A   1      43.164  24.978  30.744  1.00  0.00     0.167 HD
ATOM     64  C   UNL A   1      44.447  28.044  32.215  1.00  0.00     0.074 A 
ATOM     65  C   UNL A   1      44.620  28.885  33.387  1.00  0.00     0.031 C 
ATOM     66  C   UNL A   1      44.860  26.784  31.872  1.00  0.00     0.034 A 
BRANCH  53  67
ATOM     67  C   UNL A   1      42.778  23.466  27.086  1.00  0.00     0.023 A 
ATOM     68  C   UNL A   1      42.167  22.211  27.310  1.00  0.00     0.031 A 
ATOM     69  C   UNL A   1      43.590  23.528  25.937  1.00  0.00     0.131 A 
ATOM     70  C   UNL A   1      42.459  21.090  26.506  1.00  0.00     0.055 A 
ATOM     71  C   UNL A   1      43.925  22.403  25.168  1.00  0.00     0.041 A 
ATOM     72  F   UNL A   1      44.055  24.684  25.454  1.00  0.00    -0.206 F 
ATOM     73  C   UNL A   1      43.369  21.170  25.459  1.00  0.00     0.022 A 
BRANCH  70  74
ATOM     74  S   UNL A   1      41.631  19.512  26.848  1.00  0.00     0.124 S 
ATOM     75  O   UNL A   1      40.758  19.364  25.689  1.00  0.00    -0.237 OA
ATOM     76  O   UNL A   1      42.755  18.587  26.937  1.00  0.00    -0.237 OA
ATOM     77  O   UNL A   1      40.938  19.760  28.112  1.00  0.00    -0.744 OA
ENDBRANCH  70  74
ENDBRANCH  53  67
BRANCH  54  78
ATOM     78  C   UNL A   1      41.384  31.735  31.985  1.00  0.00     0.023 A 
ATOM     79  C   UNL A   1      40.423  30.934  32.639  1.00  0.00     0.031 A 
ATOM     80  C   UNL A   1      41.476  33.083  32.351  1.00  0.00     0.131 A 
ATOM     81  C   UNL A   1      39.748  31.423  33.762  1.00  0.00     0.055 A 
ATOM     82  C   UNL A   1      40.718  33.597  33.413  1.00  0.00     0.041 A 
ATOM     83  F   UNL A   1      42.393  33.884  31.788  1.00  0.00    -0.206 F 
ATOM     84  C   UNL A   1      39.891  32.753  34.159  1.00  0.00     0.022 A 
BRANCH  81  85
ATOM     85  S   UNL A   1      38.940  30.225  34.872  1.00  0.00     0.124 S 
ATOM     86  O   UNL A   1      40.088  29.592  35.505  1.00  0.00    -0.237 OA
ATOM     87  O   UNL A   1      38.114  31.076  35.731  1.00  0.00    -0.237 OA
ATOM     88  O   UNL A   1      38.168  29.390  33.954  1.00  0.00    -0.744 OA
ENDBRANCH  81  85
ENDBRANCH  54  78
BRANCH  66  89
ATOM     89  C   UNL A   1      45.557  25.795  32.789  1.00  0.00     0.023 A 
ATOM     90  C   UNL A   1      44.891  24.783  33.496  1.00  0.00     0.031 A 
ATOM     91  C   UNL A   1      46.968  25.802  32.927  1.00  0.00     0.131 A 
ATOM     92  C   UNL A   1      45.587  23.905  34.350  1.00  0.00     0.055 A 
ATOM     93  C   UNL A   1      47.667  24.876  33.709  1.00  0.00     0.041 A 
ATOM     94  F   UNL A   1      47.737  26.705  32.300  1.00  0.00    -0.206 F 
ATOM     95  C   UNL A   1      46.974  23.929  34.444  1.00  0.00     0.022 A 
BRANCH  92  96
ATOM     96  S   UNL A   1      44.622  22.776  35.388  1.00  0.00     0.124 S 
ATOM     97  O   UNL A   1      43.298  23.392  35.352  1.00  0.00    -0.237 OA
ATOM     98  O   UNL A   1      44.750  21.509  34.677  1.00  0.00    -0.237 OA
ATOM     99  O   UNL A   1      45.298  22.834  36.683  1.00  0.00    -0.744 OA
ENDBRANCH  92  96
ENDBRANCH  66  89
ENDBRANCH  40  41
ENDBRANCH  32  35
ENDBRANCH  30  31
ENDBRANCH   1  30
TORSDOF 17
ENDMDL
MODEL 3
REMARK VINA RESULT:     -12.7      4.045     10.810
REMARK SMILES Cc1ccccc1OC1(C(=O)NCCCCNC(=O)c2ccc(-c3c4nc(c(-c5cc(S(=O)(=O)[O-])ccc5F)c5ccc([nH]5)c(-c5cc(S(=O)(=O)[O-])ccc5F)c5nc(c(-c6cc(S(=O)(=O)[O-])ccc6F)c6ccc3[nH]6)C=C5)C=C4)cc2)CCN(C(=O)[C@H]2CCCCO2)CC1
REMARK SMILES IDX 15 1 14 2 13 3 12 4 10 5 11 6 9 8 83 9 95 10 84 11 94 12
REMARK SMILES IDX 85 13 86 14 87 15 8 16 7 17 1 18 2 19 3 20 4 21 6 22 5 23
REMARK SMILES IDX 88 24 89 25 93 26 90 27 92 28 91 29 16 30 17 31 18 32 19 34
REMARK SMILES IDX 20 35 21 36 82 37 22 38 81 39 23 40 24 41 25 42 75 43 26 44
REMARK SMILES IDX 80 45 74 46 76 47 27 48 79 49 73 50 72 51 28 53 60 54 40 55
REMARK SMILES IDX 59 56 41 57 44 58 58 59 77 60 42 61 43 62 57 64 78 65 45 66
REMARK SMILES IDX 29 67 30 68 38 69 31 70 37 71 39 72 36 73 32 74 33 75 34 76
REMARK SMILES IDX 35 77 61 78 62 79 70 80 63 81 69 82 71 83 68 84 64 85 65 86
REMARK SMILES IDX 66 87 67 88 46 89 47 90 55 91 48 92 54 93 56 94 53 95 49 96
REMARK SMILES IDX 50 97 51 98 52 99
REMARK H PARENT 12 7 17 33 76 52 44 63
REMARK Flexibility Score: inf
ROOT
ATOM      1  C   UNL A   1      39.970  21.525  27.268  1.00  0.00     0.023 C 
ENDROOT
BRANCH   1   2
ATOM      2  C   UNL A   1      39.506  21.577  25.818  1.00  0.00     0.023 C 
BRANCH   2   3
ATOM      3  C   UNL A   1      38.028  21.939  25.617  1.00  0.00     0.116 C 
BRANCH   3   4
ATOM      4  N   UNL A   1      37.686  22.247  24.238  1.00  0.00    -0.353 N 
ATOM      5  C   UNL A   1      36.565  22.740  23.630  1.00  0.00     0.264 C 
ATOM      6  O   UNL A   1      36.709  22.949  22.415  1.00  0.00    -0.270 OA
ATOM      7  H   UNL A   1      38.417  22.061  23.606  1.00  0.00     0.163 HD
BRANCH   5   8
ATOM      8  C   UNL A   1      35.183  23.000  24.362  1.00  0.00     0.190 C 
ATOM      9  C   UNL A   1      35.397  24.125  25.370  1.00  0.00     0.080 C 
ATOM     10  C   UNL A   1      34.068  23.129  23.316  1.00  0.00     0.080 C 
ATOM     11  C   UNL A   1      34.774  25.459  25.003  1.00  0.00     0.124 C 
ATOM     12  C   UNL A   1      33.408  24.501  23.158  1.00  0.00     0.124 C 
ATOM     13  N   UNL A   1      33.490  25.362  24.337  1.00  0.00    -0.340 N 
ATOM     14  C   UNL A   1      32.537  26.327  24.685  1.00  0.00     0.251 C 
ATOM     15  O   UNL A   1      32.696  27.042  25.682  1.00  0.00    -0.272 OA
BRANCH   8  16
ATOM     16  O   UNL A   1      35.031  21.730  25.075  1.00  0.00    -0.477 OA
BRANCH  16  17
ATOM     17  C   UNL A   1      34.253  20.629  24.893  1.00  0.00     0.123 A 
ATOM     18  C   UNL A   1      31.814  21.439  25.210  1.00  0.00     0.048 C 
ATOM     19  C   UNL A   1      32.867  20.419  24.935  1.00  0.00    -0.009 A 
ATOM     20  C   UNL A   1      32.352  19.110  24.745  1.00  0.00     0.007 A 
ATOM     21  C   UNL A   1      33.176  18.025  24.483  1.00  0.00     0.001 A 
ATOM     22  C   UNL A   1      35.065  19.505  24.627  1.00  0.00     0.047 A 
ATOM     23  C   UNL A   1      34.542  18.224  24.418  1.00  0.00     0.004 A 
ENDBRANCH  16  17
ENDBRANCH   8  16
BRANCH  14  24
ATOM     24  C   UNL A   1      31.222  26.387  23.880  1.00  0.00     0.207 C 
ATOM     25  C   UNL A   1      30.079  26.042  24.849  1.00  0.00     0.042 C 
ATOM     26  O   UNL A   1      31.035  27.708  23.364  1.00  0.00    -0.368 OA
ATOM     27  C   UNL A   1      28.701  26.327  24.265  1.00  0.00     0.006 C 
ATOM     28  C   UNL A   1      29.821  27.846  22.641  1.00  0.00     0.161 C 
ATOM     29  C   UNL A   1      28.658  27.700  23.607  1.00  0.00     0.029 C 
ENDBRANCH  14  24
ENDBRANCH   5   8
ENDBRANCH   3   4
ENDBRANCH   2   3
ENDBRANCH   1   2
BRANCH   1  30
ATOM     30  C   UNL A   1      40.589  22.830  27.755  1.00  0.00     0.116 C 
BRANCH  30  31
ATOM     31  N   UNL A   1      41.700  23.331  26.955  1.00  0.00    -0.352 N 
ATOM     32  C   UNL A   1      41.849  24.588  26.382  1.00  0.00     0.251 C 
ATOM     33  H   UNL A   1      42.438  22.698  26.801  1.00  0.00     0.163 HD
ATOM     34  O   UNL A   1      42.777  24.848  25.632  1.00  0.00    -0.269 OA
BRANCH  32  35
ATOM     35  C   UNL A   1      40.926  25.670  26.811  1.00  0.00     0.039 A 
ATOM     36  C   UNL A   1      40.938  26.851  26.061  1.00  0.00     0.014 A 
ATOM     37  C   UNL A   1      40.314  25.634  28.059  1.00  0.00     0.014 A 
ATOM     38  C   UNL A   1      40.583  28.051  26.674  1.00  0.00     0.010 A 
ATOM     39  C   UNL A   1      40.077  26.830  28.706  1.00  0.00     0.010 A 
ATOM     40  C   UNL A   1      40.283  28.042  28.035  1.00  0.00    -0.014 A 
BRANCH  40  41
ATOM     41  C   UNL A   1      40.330  29.240  28.867  1.00  0.00     0.031 A 
ATOM     42  C   UNL A   1      39.233  30.226  28.837  1.00  0.00     0.074 A 
ATOM     43  C   UNL A   1      41.355  29.411  29.730  1.00  0.00     0.049 A 
ATOM     44  N   UNL A   1      39.341  31.453  29.215  1.00  0.00    -0.248 NA
ATOM     45  C   UNL A   1      37.916  29.907  28.304  1.00  0.00     0.031 C 
ATOM     46  C   UNL A   1      41.448  30.369  30.828  1.00  0.00     0.029 A 
ATOM     47  N   UNL A   1      42.642  28.897  29.615  1.00  0.00    -0.354 N 
ATOM     48  C   UNL A   1      38.076  31.989  29.277  1.00  0.00     0.074 A 
ATOM     49  C   UNL A   1      37.243  31.020  28.606  1.00  0.00     0.031 C 
ATOM     50  C   UNL A   1      42.742  30.569  31.123  1.00  0.00     0.029 A 
ATOM     51  C   UNL A   1      43.527  29.855  30.133  1.00  0.00     0.049 A 
ATOM     52  H   UNL A   1      42.887  28.022  29.238  1.00  0.00     0.167 HD
ATOM     53  C   UNL A   1      37.867  33.116  30.019  1.00  0.00     0.034 A 
ATOM     54  C   UNL A   1      44.491  30.412  29.342  1.00  0.00     0.034 A 
ATOM     55  C   UNL A   1      39.138  33.687  30.485  1.00  0.00     0.049 A 
ATOM     56  C   UNL A   1      44.340  31.906  29.167  1.00  0.00     0.074 A 
ATOM     57  C   UNL A   1      39.787  33.685  31.710  1.00  0.00     0.029 A 
ATOM     58  N   UNL A   1      40.066  34.147  29.554  1.00  0.00    -0.354 N 
ATOM     59  N   UNL A   1      43.266  32.575  29.484  1.00  0.00    -0.248 NA
ATOM     60  C   UNL A   1      45.386  32.761  28.617  1.00  0.00     0.031 C 
ATOM     61  C   UNL A   1      41.137  34.074  31.493  1.00  0.00     0.029 A 
ATOM     62  C   UNL A   1      41.301  34.348  30.145  1.00  0.00     0.049 A 
ATOM     63  H   UNL A   1      39.871  34.308  28.603  1.00  0.00     0.167 HD
ATOM     64  C   UNL A   1      43.437  33.901  29.176  1.00  0.00     0.074 A 
ATOM     65  C   UNL A   1      44.796  33.968  28.666  1.00  0.00     0.031 C 
ATOM     66  C   UNL A   1      42.436  34.819  29.358  1.00  0.00     0.034 A 
BRANCH  53  67
ATOM     67  C   UNL A   1      36.515  33.525  30.588  1.00  0.00     0.023 A 
ATOM     68  C   UNL A   1      35.597  34.205  29.756  1.00  0.00     0.031 A 
ATOM     69  C   UNL A   1      36.091  33.361  31.921  1.00  0.00     0.131 A 
ATOM     70  C   UNL A   1      34.413  34.775  30.268  1.00  0.00     0.055 A 
ATOM     71  C   UNL A   1      34.943  33.972  32.445  1.00  0.00     0.041 A 
ATOM     72  F   UNL A   1      36.724  32.553  32.776  1.00  0.00    -0.206 F 
ATOM     73  C   UNL A   1      34.101  34.697  31.621  1.00  0.00     0.022 A 
BRANCH  70  74
ATOM     74  S   UNL A   1      33.277  35.627  29.139  1.00  0.00     0.124 S 
ATOM     75  O   UNL A   1      32.491  36.448  30.054  1.00  0.00    -0.237 OA
ATOM     76  O   UNL A   1      34.195  36.337  28.256  1.00  0.00    -0.237 OA
ATOM     77  O   UNL A   1      32.541  34.532  28.508  1.00  0.00    -0.744 OA
ENDBRANCH  70  74
ENDBRANCH  53  67
BRANCH  54  78
ATOM     78  C   UNL A   1      45.040  29.453  28.340  1.00  0.00     0.023 A 
ATOM     79  C   UNL A   1      45.962  28.506  28.835  1.00  0.00     0.031 A 
ATOM     80  C   UNL A   1      44.393  29.172  27.130  1.00  0.00     0.131 A 
ATOM     81  C   UNL A   1      46.054  27.239  28.247  1.00  0.00     0.055 A 
ATOM     82  C   UNL A   1      44.569  27.938  26.487  1.00  0.00     0.041 A 
ATOM     83  F   UNL A   1      43.482  30.019  26.629  1.00  0.00    -0.206 F 
ATOM     84  C   UNL A   1      45.359  26.945  27.073  1.00  0.00     0.022 A 
BRANCH  81  85
ATOM     85  S   UNL A   1      46.833  25.899  29.202  1.00  0.00     0.124 S 
ATOM     86  O   UNL A   1      48.056  25.672  28.444  1.00  0.00    -0.237 OA
ATOM     87  O   UNL A   1      46.996  26.490  30.531  1.00  0.00    -0.237 OA
ATOM     88  O   UNL A   1      45.837  24.831  29.150  1.00  0.00    -0.744 OA
ENDBRANCH  81  85
ENDBRANCH  54  78
BRANCH  66  89
ATOM     89  C   UNL A   1      42.455  36.262  28.887  1.00  0.00     0.023 A 
ATOM     90  C   UNL A   1      43.106  37.298  29.573  1.00  0.00     0.031 A 
ATOM     91  C   UNL A   1      41.858  36.632  27.656  1.00  0.00     0.131 A 
ATOM     92  C   UNL A   1      43.074  38.624  29.099  1.00  0.00     0.055 A 
ATOM     93  C   UNL A   1      41.899  37.934  27.144  1.00  0.00     0.041 A 
ATOM     94  F   UNL A   1      41.211  35.744  26.886  1.00  0.00    -0.206 F 
ATOM     95  C   UNL A   1      42.495  38.946  27.877  1.00  0.00     0.022 A 
BRANCH  92  96
ATOM     96  S   UNL A   1      43.750  39.929  30.160  1.00  0.00     0.124 S 
ATOM     97  O   UNL A   1      42.881  41.058  29.836  1.00  0.00    -0.237 OA
ATOM     98  O   UNL A   1      43.584  39.366  31.496  1.00  0.00    -0.237 OA
ATOM     99  O   UNL A   1      45.133  40.060  29.707  1.00  0.00    -0.744 OA
ENDBRANCH  92  96
ENDBRANCH  66  89
ENDBRANCH  40  41
ENDBRANCH  32  35
ENDBRANCH  30  31
ENDBRANCH   1  30
TORSDOF 17
ENDMDL
