MODEL 1
REMARK VINA RESULT:     -12.5      0.000      0.000
REMARK SMILES C=CCn1nc(C(=O)NCCCCNC(=O)c2ccc(-c3c4nc(c(-c5cc(S(=O)(=O)[O-])ccc5F)c5ccc([nH]5)c(-c5cc(S(=O)(=O)[O-])ccc5F)c5nc(c(-c6cc(S(=O)(=O)[O-])ccc6F)c6ccc3[nH]6)C=C5)C=C4)cc2)c2c1CC[C@@H]([NH+]1CCC(C(C)(C)O)CC1)C2
REMARK SMILES IDX 11 1 10 2 9 3 7 4 8 5 6 7 4 8 5 9 81 10 80 11 82 12 95 13
REMARK SMILES IDX 83 14 84 15 3 16 2 17 1 18 85 19 86 20 94 21 87 23 93 24
REMARK SMILES IDX 88 25 89 26 90 27 91 28 92 29 12 31 13 32 14 33 15 34 16 36
REMARK SMILES IDX 17 37 18 38 79 39 19 40 78 41 20 42 21 43 22 44 72 45 23 46
REMARK SMILES IDX 77 47 71 48 73 49 24 50 76 51 70 52 69 53 25 55 57 56 37 57
REMARK SMILES IDX 56 58 38 59 41 60 55 61 74 62 39 63 40 64 54 66 75 67 42 68
REMARK SMILES IDX 26 69 27 70 35 71 28 72 34 73 36 74 33 75 29 76 30 77 31 78
REMARK SMILES IDX 32 79 58 80 59 81 67 82 60 83 66 84 68 85 65 86 61 87 62 88
REMARK SMILES IDX 63 89 64 90 43 91 44 92 52 93 45 94 51 95 53 96 50 97 46 98
REMARK SMILES IDX 47 99 48 100 49 101
REMARK H PARENT 9 6 85 22 92 30 14 35 73 54 41 65
REMARK Flexibility Score: inf
ROOT
ATOM      1  C   UNL A   1      37.830  21.418  25.025  1.00  0.00     0.023 C 
ENDROOT
BRANCH   1   2
ATOM      2  C   UNL A   1      36.415  21.462  25.632  1.00  0.00     0.116 C 
BRANCH   2   3
ATOM      3  N   UNL A   1      35.578  20.369  25.159  1.00  0.00    -0.351 N 
ATOM      4  C   UNL A   1      34.256  20.213  24.794  1.00  0.00     0.272 C 
ATOM      5  O   UNL A   1      34.003  19.085  24.348  1.00  0.00    -0.267 OA
ATOM      6  H   UNL A   1      36.084  19.529  25.078  1.00  0.00     0.163 HD
BRANCH   4   7
ATOM      7  C   UNL A   1      33.189  21.249  24.898  1.00  0.00     0.153 A 
ATOM      8  N   UNL A   1      31.753  22.473  25.959  1.00  0.00    -0.265 N 
ATOM      9  N   UNL A   1      32.557  21.398  26.091  1.00  0.00    -0.167 NA
ATOM     10  C   UNL A   1      31.667  22.891  24.666  1.00  0.00     0.043 A 
ATOM     11  C   UNL A   1      32.700  22.252  24.011  1.00  0.00     0.012 A 
ATOM     12  C   UNL A   1      30.798  23.960  24.112  1.00  0.00     0.062 C 
ATOM     13  C   UNL A   1      33.161  22.726  22.693  1.00  0.00     0.105 C 
ATOM     14  C   UNL A   1      31.275  24.384  22.711  1.00  0.00     0.072 C 
ATOM     15  C   UNL A   1      32.776  24.190  22.377  1.00  0.00     0.189 C 
BRANCH   8  16
ATOM     16  C   UNL A   1      31.223  23.123  27.157  1.00  0.00     0.171 C 
BRANCH  16  17
ATOM     17  C   UNL A   1      29.715  23.245  27.113  1.00  0.00    -0.011 C 
ATOM     18  C   UNL A   1      28.834  22.279  27.412  1.00  0.00     0.006 C 
ENDBRANCH  16  17
ENDBRANCH   8  16
BRANCH  15  19
ATOM     19  N   UNL A   1      33.851  25.106  22.821  1.00  0.00    -0.332 N 
ATOM     20  C   UNL A   1      34.265  25.146  24.210  1.00  0.00     0.262 C 
ATOM     21  C   UNL A   1      33.822  26.450  22.268  1.00  0.00     0.262 C 
ATOM     22  H   UNL A   1      34.595  24.571  22.373  1.00  0.00     0.348 HD
ATOM     23  C   UNL A   1      33.375  25.994  25.104  1.00  0.00     0.068 C 
ATOM     24  C   UNL A   1      32.808  27.348  22.952  1.00  0.00     0.068 C 
ATOM     25  C   UNL A   1      32.820  27.305  24.501  1.00  0.00     0.031 C 
BRANCH  25  26
ATOM     26  C   UNL A   1      31.411  27.685  25.083  1.00  0.00     0.062 C 
ATOM     27  C   UNL A   1      30.288  27.638  24.042  1.00  0.00     0.042 C 
ATOM     28  C   UNL A   1      31.052  26.786  26.271  1.00  0.00     0.042 C 
BRANCH  26  29
ATOM     29  O   UNL A   1      31.444  29.031  25.565  1.00  0.00    -0.390 OA
ATOM     30  H   UNL A   1      31.015  29.075  26.434  1.00  0.00     0.211 HD
ENDBRANCH  26  29
ENDBRANCH  25  26
ENDBRANCH  15  19
ENDBRANCH   4   7
ENDBRANCH   2   3
ENDBRANCH   1   2
BRANCH   1  31
ATOM     31  C   UNL A   1      38.980  21.141  25.994  1.00  0.00     0.023 C 
BRANCH  31  32
ATOM     32  C   UNL A   1      39.694  22.407  26.462  1.00  0.00     0.116 C 
BRANCH  32  33
ATOM     33  N   UNL A   1      41.079  22.489  25.995  1.00  0.00    -0.352 N 
ATOM     34  C   UNL A   1      41.894  23.604  26.012  1.00  0.00     0.251 C 
ATOM     35  H   UNL A   1      41.472  21.661  25.633  1.00  0.00     0.163 HD
ATOM     36  O   UNL A   1      42.874  23.690  25.281  1.00  0.00    -0.269 OA
BRANCH  34  37
ATOM     37  C   UNL A   1      41.542  24.689  26.940  1.00  0.00     0.039 A 
ATOM     38  C   UNL A   1      42.263  24.873  28.121  1.00  0.00     0.014 A 
ATOM     39  C   UNL A   1      40.571  25.604  26.530  1.00  0.00     0.014 A 
ATOM     40  C   UNL A   1      42.078  26.051  28.841  1.00  0.00     0.010 A 
ATOM     41  C   UNL A   1      40.441  26.800  27.211  1.00  0.00     0.010 A 
ATOM     42  C   UNL A   1      41.198  27.039  28.364  1.00  0.00    -0.014 A 
BRANCH  42  43
ATOM     43  C   UNL A   1      41.235  28.387  28.955  1.00  0.00     0.031 A 
ATOM     44  C   UNL A   1      42.331  29.279  28.460  1.00  0.00     0.074 A 
ATOM     45  C   UNL A   1      40.229  28.928  29.677  1.00  0.00     0.049 A 
ATOM     46  N   UNL A   1      43.248  29.886  29.140  1.00  0.00    -0.248 NA
ATOM     47  C   UNL A   1      42.470  29.454  27.003  1.00  0.00     0.031 C 
ATOM     48  C   UNL A   1      38.932  28.315  29.982  1.00  0.00     0.029 A 
ATOM     49  N   UNL A   1      40.094  30.196  30.174  1.00  0.00    -0.354 N 
ATOM     50  C   UNL A   1      43.948  30.685  28.235  1.00  0.00     0.074 A 
ATOM     51  C   UNL A   1      43.535  30.255  26.927  1.00  0.00     0.031 C 
ATOM     52  C   UNL A   1      38.066  29.270  30.380  1.00  0.00     0.029 A 
ATOM     53  C   UNL A   1      38.788  30.521  30.527  1.00  0.00     0.049 A 
ATOM     54  H   UNL A   1      40.849  30.818  30.273  1.00  0.00     0.167 HD
ATOM     55  C   UNL A   1      44.652  31.780  28.642  1.00  0.00     0.034 A 
ATOM     56  C   UNL A   1      38.298  31.729  30.901  1.00  0.00     0.034 A 
ATOM     57  C   UNL A   1      44.890  31.744  30.064  1.00  0.00     0.049 A 
ATOM     58  C   UNL A   1      39.428  32.540  31.397  1.00  0.00     0.074 A 
ATOM     59  C   UNL A   1      45.575  30.915  30.928  1.00  0.00     0.029 A 
ATOM     60  N   UNL A   1      44.079  32.527  30.847  1.00  0.00    -0.354 N 
ATOM     61  N   UNL A   1      40.120  32.233  32.458  1.00  0.00    -0.248 NA
ATOM     62  C   UNL A   1      40.048  33.523  30.521  1.00  0.00     0.031 C 
ATOM     63  C   UNL A   1      44.832  30.945  32.146  1.00  0.00     0.029 A 
ATOM     64  C   UNL A   1      43.760  31.825  31.981  1.00  0.00     0.049 A 
ATOM     65  H   UNL A   1      43.777  33.439  30.632  1.00  0.00     0.167 HD
ATOM     66  C   UNL A   1      41.412  32.626  32.166  1.00  0.00     0.074 A 
ATOM     67  C   UNL A   1      41.274  33.558  31.053  1.00  0.00     0.031 C 
ATOM     68  C   UNL A   1      42.481  31.935  32.660  1.00  0.00     0.034 A 
BRANCH  55  69
ATOM     69  C   UNL A   1      44.811  33.074  27.855  1.00  0.00     0.023 A 
ATOM     70  C   UNL A   1      43.989  34.164  28.220  1.00  0.00     0.031 A 
ATOM     71  C   UNL A   1      45.472  33.204  26.613  1.00  0.00     0.131 A 
ATOM     72  C   UNL A   1      43.766  35.239  27.340  1.00  0.00     0.055 A 
ATOM     73  C   UNL A   1      45.301  34.310  25.771  1.00  0.00     0.041 A 
ATOM     74  F   UNL A   1      46.243  32.241  26.099  1.00  0.00    -0.206 F 
ATOM     75  C   UNL A   1      44.418  35.319  26.115  1.00  0.00     0.022 A 
BRANCH  72  76
ATOM     76  S   UNL A   1      42.460  36.433  27.740  1.00  0.00     0.124 S 
ATOM     77  O   UNL A   1      43.018  37.098  28.912  1.00  0.00    -0.237 OA
ATOM     78  O   UNL A   1      42.392  37.225  26.517  1.00  0.00    -0.237 OA
ATOM     79  O   UNL A   1      41.298  35.586  27.999  1.00  0.00    -0.744 OA
ENDBRANCH  72  76
ENDBRANCH  55  69
BRANCH  56  80
ATOM     80  C   UNL A   1      36.942  32.268  30.633  1.00  0.00     0.023 A 
ATOM     81  C   UNL A   1      36.143  32.868  31.625  1.00  0.00     0.031 A 
ATOM     82  C   UNL A   1      36.499  32.385  29.295  1.00  0.00     0.131 A 
ATOM     83  C   UNL A   1      34.958  33.549  31.262  1.00  0.00     0.055 A 
ATOM     84  C   UNL A   1      35.325  33.050  28.944  1.00  0.00     0.041 A 
ATOM     85  F   UNL A   1      37.243  31.920  28.278  1.00  0.00    -0.206 F 
ATOM     86  C   UNL A   1      34.551  33.643  29.928  1.00  0.00     0.022 A 
BRANCH  83  87
ATOM     87  S   UNL A   1      33.970  34.404  32.531  1.00  0.00     0.124 S 
ATOM     88  O   UNL A   1      32.946  35.069  31.735  1.00  0.00    -0.237 OA
ATOM     89  O   UNL A   1      33.524  33.298  33.371  1.00  0.00    -0.237 OA
ATOM     90  O   UNL A   1      34.935  35.303  33.166  1.00  0.00    -0.744 OA
ENDBRANCH  83  87
ENDBRANCH  56  80
BRANCH  68  91
ATOM     91  C   UNL A   1      42.258  31.054  33.871  1.00  0.00     0.023 A 
ATOM     92  C   UNL A   1      42.040  29.659  33.831  1.00  0.00     0.031 A 
ATOM     93  C   UNL A   1      42.358  31.664  35.134  1.00  0.00     0.131 A 
ATOM     94  C   UNL A   1      41.915  28.932  35.031  1.00  0.00     0.055 A 
ATOM     95  C   UNL A   1      42.256  30.938  36.319  1.00  0.00     0.041 A 
ATOM     96  F   UNL A   1      42.589  32.984  35.237  1.00  0.00    -0.206 F 
ATOM     97  C   UNL A   1      42.026  29.568  36.272  1.00  0.00     0.022 A 
BRANCH  94  98
ATOM     98  S   UNL A   1      41.582  27.142  35.000  1.00  0.00     0.124 S 
ATOM     99  O   UNL A   1      40.455  27.017  34.083  1.00  0.00    -0.237 OA
ATOM    100  O   UNL A   1      42.852  26.593  34.530  1.00  0.00    -0.237 OA
ATOM    101  O   UNL A   1      41.269  26.831  36.396  1.00  0.00    -0.744 OA
ENDBRANCH  94  98
ENDBRANCH  68  91
ENDBRANCH  42  43
ENDBRANCH  34  37
ENDBRANCH  32  33
ENDBRANCH  31  32
ENDBRANCH   1  31
TORSDOF 19
ENDMDL
MODEL 2
REMARK VINA RESULT:     -12.4      3.247      9.419
REMARK SMILES C=CCn1nc(C(=O)NCCCCNC(=O)c2ccc(-c3c4nc(c(-c5cc(S(=O)(=O)[O-])ccc5F)c5ccc([nH]5)c(-c5cc(S(=O)(=O)[O-])ccc5F)c5nc(c(-c6cc(S(=O)(=O)[O-])ccc6F)c6ccc3[nH]6)C=C5)C=C4)cc2)c2c1CC[C@@H]([NH+]1CCC(C(C)(C)O)CC1)C2
REMARK SMILES IDX 11 1 10 2 9 3 7 4 8 5 6 7 4 8 5 9 81 10 80 11 82 12 95 13
REMARK SMILES IDX 83 14 84 15 3 16 2 17 1 18 85 19 86 20 94 21 87 23 93 24
REMARK SMILES IDX 88 25 89 26 90 27 91 28 92 29 12 31 13 32 14 33 15 34 16 36
REMARK SMILES IDX 17 37 18 38 79 39 19 40 78 41 20 42 21 43 22 44 72 45 23 46
REMARK SMILES IDX 77 47 71 48 73 49 24 50 76 51 70 52 69 53 25 55 57 56 37 57
REMARK SMILES IDX 56 58 38 59 41 60 55 61 74 62 39 63 40 64 54 66 75 67 42 68
REMARK SMILES IDX 26 69 27 70 35 71 28 72 34 73 36 74 33 75 29 76 30 77 31 78
REMARK SMILES IDX 32 79 58 80 59 81 67 82 60 83 66 84 68 85 65 86 61 87 62 88
REMARK SMILES IDX 63 89 64 90 43 91 44 92 52 93 45 94 51 95 53 96 50 97 46 98
REMARK SMILES IDX 47 99 48 100 49 101
REMARK H PARENT 9 6 85 22 92 30 14 35 73 54 41 65
REMARK Flexibility Score: inf
ROOT
ATOM      1  C   UNL A   1      33.757  30.277  26.999  1.00  0.00     0.023 C 
ENDROOT
BRANCH   1   2
ATOM      2  C   UNL A   1      32.986  30.066  25.682  1.00  0.00     0.116 C 
BRANCH   2   3
ATOM      3  N   UNL A   1      33.595  29.043  24.845  1.00  0.00    -0.351 N 
ATOM      4  C   UNL A   1      33.232  27.797  24.372  1.00  0.00     0.272 C 
ATOM      5  O   UNL A   1      34.059  27.315  23.584  1.00  0.00    -0.267 OA
ATOM      6  H   UNL A   1      34.492  29.305  24.539  1.00  0.00     0.163 HD
BRANCH   4   7
ATOM      7  C   UNL A   1      31.991  27.051  24.727  1.00  0.00     0.153 A 
ATOM      8  N   UNL A   1      29.878  26.605  24.600  1.00  0.00    -0.265 N 
ATOM      9  N   UNL A   1      30.806  27.524  24.263  1.00  0.00    -0.167 NA
ATOM     10  C   UNL A   1      30.371  25.669  25.457  1.00  0.00     0.043 A 
ATOM     11  C   UNL A   1      31.742  25.823  25.408  1.00  0.00     0.012 A 
ATOM     12  C   UNL A   1      29.630  24.577  26.137  1.00  0.00     0.062 C 
ATOM     13  C   UNL A   1      32.636  24.762  25.908  1.00  0.00     0.105 C 
ATOM     14  C   UNL A   1      30.600  23.522  26.697  1.00  0.00     0.072 C 
ATOM     15  C   UNL A   1      31.973  23.367  25.996  1.00  0.00     0.189 C 
BRANCH   8  16
ATOM     16  C   UNL A   1      28.575  26.623  23.933  1.00  0.00     0.171 C 
BRANCH  16  17
ATOM     17  C   UNL A   1      28.350  27.910  23.169  1.00  0.00    -0.011 C 
ATOM     18  C   UNL A   1      27.243  28.666  23.200  1.00  0.00     0.006 C 
ENDBRANCH  16  17
ENDBRANCH   8  16
BRANCH  15  19
ATOM     19  N   UNL A   1      32.182  22.624  24.732  1.00  0.00    -0.332 N 
ATOM     20  C   UNL A   1      32.470  21.203  24.747  1.00  0.00     0.262 C 
ATOM     21  C   UNL A   1      32.985  23.288  23.720  1.00  0.00     0.262 C 
ATOM     22  H   UNL A   1      31.199  22.659  24.463  1.00  0.00     0.348 HD
ATOM     23  C   UNL A   1      33.926  20.862  25.016  1.00  0.00     0.068 C 
ATOM     24  C   UNL A   1      34.476  23.193  23.993  1.00  0.00     0.068 C 
ATOM     25  C   UNL A   1      34.992  21.785  24.383  1.00  0.00     0.031 C 
BRANCH  25  26
ATOM     26  C   UNL A   1      36.293  21.888  25.256  1.00  0.00     0.062 C 
ATOM     27  C   UNL A   1      37.475  21.094  24.691  1.00  0.00     0.042 C 
ATOM     28  C   UNL A   1      36.703  23.353  25.453  1.00  0.00     0.042 C 
BRANCH  26  29
ATOM     29  O   UNL A   1      36.038  21.342  26.554  1.00  0.00    -0.390 OA
ATOM     30  H   UNL A   1      35.107  21.078  26.617  1.00  0.00     0.211 HD
ENDBRANCH  26  29
ENDBRANCH  25  26
ENDBRANCH  15  19
ENDBRANCH   4   7
ENDBRANCH   2   3
ENDBRANCH   1   2
BRANCH   1  31
ATOM     31  C   UNL A   1      33.630  31.654  27.652  1.00  0.00     0.023 C 
BRANCH  31  32
ATOM     32  C   UNL A   1      34.959  32.203  28.165  1.00  0.00     0.116 C 
BRANCH  32  33
ATOM     33  N   UNL A   1      34.946  32.482  29.602  1.00  0.00    -0.352 N 
ATOM     34  C   UNL A   1      35.696  31.850  30.575  1.00  0.00     0.251 C 
ATOM     35  H   UNL A   1      34.340  33.196  29.907  1.00  0.00     0.163 HD
ATOM     36  O   UNL A   1      35.363  31.873  31.754  1.00  0.00    -0.269 OA
BRANCH  34  37
ATOM     37  C   UNL A   1      36.913  31.145  30.144  1.00  0.00     0.039 A 
ATOM     38  C   UNL A   1      38.128  31.823  30.049  1.00  0.00     0.014 A 
ATOM     39  C   UNL A   1      36.836  29.761  29.978  1.00  0.00     0.014 A 
ATOM     40  C   UNL A   1      39.298  31.082  29.895  1.00  0.00     0.010 A 
ATOM     41  C   UNL A   1      38.004  29.027  29.893  1.00  0.00     0.010 A 
ATOM     42  C   UNL A   1      39.243  29.677  29.860  1.00  0.00    -0.014 A 
BRANCH  42  43
ATOM     43  C   UNL A   1      40.487  28.901  30.002  1.00  0.00     0.031 A 
ATOM     44  C   UNL A   1      40.943  28.665  31.408  1.00  0.00     0.074 A 
ATOM     45  C   UNL A   1      41.060  28.196  29.002  1.00  0.00     0.049 A 
ATOM     46  N   UNL A   1      42.078  28.967  31.950  1.00  0.00    -0.248 NA
ATOM     47  C   UNL A   1      39.976  28.088  32.358  1.00  0.00     0.031 C 
ATOM     48  C   UNL A   1      40.563  28.041  27.631  1.00  0.00     0.029 A 
ATOM     49  N   UNL A   1      42.136  27.350  29.035  1.00  0.00    -0.354 N 
ATOM     50  C   UNL A   1      42.055  28.433  33.240  1.00  0.00     0.074 A 
ATOM     51  C   UNL A   1      40.690  28.054  33.485  1.00  0.00     0.031 C 
ATOM     52  C   UNL A   1      41.170  26.988  27.049  1.00  0.00     0.029 A 
ATOM     53  C   UNL A   1      42.217  26.506  27.932  1.00  0.00     0.049 A 
ATOM     54  H   UNL A   1      42.790  27.340  29.770  1.00  0.00     0.167 HD
ATOM     55  C   UNL A   1      43.203  28.151  33.919  1.00  0.00     0.034 A 
ATOM     56  C   UNL A   1      43.061  25.463  27.736  1.00  0.00     0.034 A 
ATOM     57  C   UNL A   1      44.334  28.823  33.326  1.00  0.00     0.049 A 
ATOM     58  C   UNL A   1      44.236  25.664  28.608  1.00  0.00     0.074 A 
ATOM     59  C   UNL A   1      44.708  30.136  33.128  1.00  0.00     0.029 A 
ATOM     60  N   UNL A   1      45.151  28.067  32.522  1.00  0.00    -0.354 N 
ATOM     61  N   UNL A   1      45.065  26.661  28.476  1.00  0.00    -0.248 NA
ATOM     62  C   UNL A   1      44.318  24.959  29.878  1.00  0.00     0.031 C 
ATOM     63  C   UNL A   1      45.439  30.138  31.902  1.00  0.00     0.029 A 
ATOM     64  C   UNL A   1      45.515  28.822  31.438  1.00  0.00     0.049 A 
ATOM     65  H   UNL A   1      45.429  27.139  32.696  1.00  0.00     0.167 HD
ATOM     66  C   UNL A   1      45.444  26.981  29.766  1.00  0.00     0.074 A 
ATOM     67  C   UNL A   1      45.098  25.806  30.557  1.00  0.00     0.031 C 
ATOM     68  C   UNL A   1      45.727  28.272  30.110  1.00  0.00     0.034 A 
BRANCH  55  69
ATOM     69  C   UNL A   1      43.402  26.989  34.882  1.00  0.00     0.023 A 
ATOM     70  C   UNL A   1      44.108  25.862  34.405  1.00  0.00     0.031 A 
ATOM     71  C   UNL A   1      42.697  26.795  36.091  1.00  0.00     0.131 A 
ATOM     72  C   UNL A   1      44.007  24.611  35.043  1.00  0.00     0.055 A 
ATOM     73  C   UNL A   1      42.657  25.565  36.761  1.00  0.00     0.041 A 
ATOM     74  F   UNL A   1      41.938  27.744  36.647  1.00  0.00    -0.206 F 
ATOM     75  C   UNL A   1      43.284  24.456  36.220  1.00  0.00     0.022 A 
BRANCH  72  76
ATOM     76  S   UNL A   1      44.675  23.150  34.202  1.00  0.00     0.124 S 
ATOM     77  O   UNL A   1      44.268  22.079  35.104  1.00  0.00    -0.237 OA
ATOM     78  O   UNL A   1      43.993  23.207  32.913  1.00  0.00    -0.237 OA
ATOM     79  O   UNL A   1      46.112  23.413  34.158  1.00  0.00    -0.744 OA
ENDBRANCH  72  76
ENDBRANCH  55  69
BRANCH  56  80
ATOM     80  C   UNL A   1      42.779  24.208  26.996  1.00  0.00     0.023 A 
ATOM     81  C   UNL A   1      43.702  23.608  26.120  1.00  0.00     0.031 A 
ATOM     82  C   UNL A   1      41.629  23.456  27.331  1.00  0.00     0.131 A 
ATOM     83  C   UNL A   1      43.457  22.309  25.616  1.00  0.00     0.055 A 
ATOM     84  C   UNL A   1      41.388  22.180  26.823  1.00  0.00     0.041 A 
ATOM     85  F   UNL A   1      40.740  23.915  28.227  1.00  0.00    -0.206 F 
ATOM     86  C   UNL A   1      42.307  21.596  25.967  1.00  0.00     0.022 A 
BRANCH  83  87
ATOM     87  S   UNL A   1      44.692  21.493  24.554  1.00  0.00     0.124 S 
ATOM     88  O   UNL A   1      44.187  20.127  24.480  1.00  0.00    -0.237 OA
ATOM     89  O   UNL A   1      44.615  22.282  23.330  1.00  0.00    -0.237 OA
ATOM     90  O   UNL A   1      45.941  21.646  25.303  1.00  0.00    -0.744 OA
ENDBRANCH  83  87
ENDBRANCH  56  80
BRANCH  68  91
ATOM     91  C   UNL A   1      46.073  29.243  29.002  1.00  0.00     0.023 A 
ATOM     92  C   UNL A   1      45.146  30.065  28.325  1.00  0.00     0.031 A 
ATOM     93  C   UNL A   1      47.434  29.392  28.683  1.00  0.00     0.131 A 
ATOM     94  C   UNL A   1      45.597  30.983  27.355  1.00  0.00     0.055 A 
ATOM     95  C   UNL A   1      47.879  30.317  27.740  1.00  0.00     0.041 A 
ATOM     96  F   UNL A   1      48.366  28.656  29.311  1.00  0.00    -0.206 F 
ATOM     97  C   UNL A   1      46.959  31.112  27.066  1.00  0.00     0.022 A 
BRANCH  94  98
ATOM     98  S   UNL A   1      44.412  32.015  26.434  1.00  0.00     0.124 S 
ATOM     99  O   UNL A   1      43.993  33.013  27.411  1.00  0.00    -0.237 OA
ATOM    100  O   UNL A   1      45.221  32.509  25.322  1.00  0.00    -0.237 OA
ATOM    101  O   UNL A   1      43.367  31.067  26.046  1.00  0.00    -0.744 OA
ENDBRANCH  94  98
ENDBRANCH  68  91
ENDBRANCH  42  43
ENDBRANCH  34  37
ENDBRANCH  32  33
ENDBRANCH  31  32
ENDBRANCH   1  31
TORSDOF 19
ENDMDL
MODEL 3
REMARK VINA RESULT:     -12.2      2.097      6.687
REMARK SMILES C=CCn1nc(C(=O)NCCCCNC(=O)c2ccc(-c3c4nc(c(-c5cc(S(=O)(=O)[O-])ccc5F)c5ccc([nH]5)c(-c5cc(S(=O)(=O)[O-])ccc5F)c5nc(c(-c6cc(S(=O)(=O)[O-])ccc6F)c6ccc3[nH]6)C=C5)C=C4)cc2)c2c1CC[C@@H]([NH+]1CCC(C(C)(C)O)CC1)C2
REMARK SMILES IDX 11 1 10 2 9 3 7 4 8 5 6 7 4 8 5 9 81 10 80 11 82 12 95 13
REMARK SMILES IDX 83 14 84 15 3 16 2 17 1 18 85 19 86 20 94 21 87 23 93 24
REMARK SMILES IDX 88 25 89 26 90 27 91 28 92 29 12 31 13 32 14 33 15 34 16 36
REMARK SMILES IDX 17 37 18 38 79 39 19 40 78 41 20 42 21 43 22 44 72 45 23 46
REMARK SMILES IDX 77 47 71 48 73 49 24 50 76 51 70 52 69 53 25 55 57 56 37 57
REMARK SMILES IDX 56 58 38 59 41 60 55 61 74 62 39 63 40 64 54 66 75 67 42 68
REMARK SMILES IDX 26 69 27 70 35 71 28 72 34 73 36 74 33 75 29 76 30 77 31 78
REMARK SMILES IDX 32 79 58 80 59 81 67 82 60 83 66 84 68 85 65 86 61 87 62 88
REMARK SMILES IDX 63 89 64 90 43 91 44 92 52 93 45 94 51 95 53 96 50 97 46 98
REMARK SMILES IDX 47 99 48 100 49 101
REMARK H PARENT 9 6 85 22 92 30 14 35 73 54 41 65
REMARK Flexibility Score: inf
ROOT
ATOM      1  C   UNL A   1      37.762  21.916  25.048  1.00  0.00     0.023 C 
ENDROOT
BRANCH   1   2
ATOM      2  C   UNL A   1      36.251  22.013  25.330  1.00  0.00     0.116 C 
BRANCH   2   3
ATOM      3  N   UNL A   1      35.561  20.758  25.071  1.00  0.00    -0.351 N 
ATOM      4  C   UNL A   1      34.281  20.380  24.715  1.00  0.00     0.272 C 
ATOM      5  O   UNL A   1      34.173  19.164  24.503  1.00  0.00    -0.267 OA
ATOM      6  H   UNL A   1      36.157  19.982  25.175  1.00  0.00     0.163 HD
BRANCH   4   7
ATOM      7  C   UNL A   1      33.104  21.286  24.580  1.00  0.00     0.153 A 
ATOM      8  N   UNL A   1      31.247  22.183  25.234  1.00  0.00    -0.265 N 
ATOM      9  N   UNL A   1      32.105  21.175  25.493  1.00  0.00    -0.167 NA
ATOM     10  C   UNL A   1      31.527  22.803  24.055  1.00  0.00     0.043 A 
ATOM     11  C   UNL A   1      32.795  22.377  23.716  1.00  0.00     0.012 A 
ATOM     12  C   UNL A   1      30.744  23.870  23.380  1.00  0.00     0.062 C 
ATOM     13  C   UNL A   1      33.588  23.105  22.708  1.00  0.00     0.105 C 
ATOM     14  C   UNL A   1      31.586  24.563  22.293  1.00  0.00     0.072 C 
ATOM     15  C   UNL A   1      33.126  24.561  22.471  1.00  0.00     0.189 C 
BRANCH   8  16
ATOM     16  C   UNL A   1      30.271  22.573  26.252  1.00  0.00     0.171 C 
BRANCH  16  17
ATOM     17  C   UNL A   1      30.514  23.978  26.758  1.00  0.00    -0.011 C 
ATOM     18  C   UNL A   1      29.777  25.061  26.472  1.00  0.00     0.006 C 
ENDBRANCH  16  17
ENDBRANCH   8  16
BRANCH  15  19
ATOM     19  N   UNL A   1      33.860  25.481  23.370  1.00  0.00    -0.332 N 
ATOM     20  C   UNL A   1      33.340  25.806  24.683  1.00  0.00     0.262 C 
ATOM     21  C   UNL A   1      34.436  26.663  22.751  1.00  0.00     0.262 C 
ATOM     22  H   UNL A   1      34.601  24.809  23.574  1.00  0.00     0.348 HD
ATOM     23  C   UNL A   1      32.276  26.892  24.683  1.00  0.00     0.068 C 
ATOM     24  C   UNL A   1      33.414  27.758  22.506  1.00  0.00     0.068 C 
ATOM     25  C   UNL A   1      32.472  28.066  23.697  1.00  0.00     0.031 C 
BRANCH  25  26
ATOM     26  C   UNL A   1      31.108  28.660  23.192  1.00  0.00     0.062 C 
ATOM     27  C   UNL A   1      30.058  27.593  22.868  1.00  0.00     0.042 C 
ATOM     28  C   UNL A   1      30.536  29.654  24.210  1.00  0.00     0.042 C 
BRANCH  26  29
ATOM     29  O   UNL A   1      31.325  29.379  21.974  1.00  0.00    -0.390 OA
ATOM     30  H   UNL A   1      31.002  28.853  21.226  1.00  0.00     0.211 HD
ENDBRANCH  26  29
ENDBRANCH  25  26
ENDBRANCH  15  19
ENDBRANCH   4   7
ENDBRANCH   2   3
ENDBRANCH   1   2
BRANCH   1  31
ATOM     31  C   UNL A   1      38.694  22.087  26.248  1.00  0.00     0.023 C 
BRANCH  31  32
ATOM     32  C   UNL A   1      39.152  23.530  26.455  1.00  0.00     0.116 C 
BRANCH  32  33
ATOM     33  N   UNL A   1      40.555  23.741  26.091  1.00  0.00    -0.352 N 
ATOM     34  C   UNL A   1      41.242  24.940  26.105  1.00  0.00     0.251 C 
ATOM     35  H   UNL A   1      41.061  22.946  25.806  1.00  0.00     0.163 HD
ATOM     36  O   UNL A   1      42.264  25.098  25.447  1.00  0.00    -0.269 OA
BRANCH  34  37
ATOM     37  C   UNL A   1      40.702  26.022  26.942  1.00  0.00     0.039 A 
ATOM     38  C   UNL A   1      40.253  25.760  28.237  1.00  0.00     0.014 A 
ATOM     39  C   UNL A   1      40.792  27.326  26.452  1.00  0.00     0.014 A 
ATOM     40  C   UNL A   1      39.996  26.835  29.086  1.00  0.00     0.010 A 
ATOM     41  C   UNL A   1      40.601  28.386  27.318  1.00  0.00     0.010 A 
ATOM     42  C   UNL A   1      40.211  28.152  28.642  1.00  0.00    -0.014 A 
BRANCH  42  43
ATOM     43  C   UNL A   1      40.232  29.251  29.622  1.00  0.00     0.031 A 
ATOM     44  C   UNL A   1      38.944  29.999  29.779  1.00  0.00     0.074 A 
ATOM     45  C   UNL A   1      41.210  29.436  30.535  1.00  0.00     0.049 A 
ATOM     46  N   UNL A   1      38.726  31.267  29.642  1.00  0.00    -0.248 NA
ATOM     47  C   UNL A   1      37.723  29.220  30.046  1.00  0.00     0.031 C 
ATOM     48  C   UNL A   1      42.393  28.595  30.746  1.00  0.00     0.029 A 
ATOM     49  N   UNL A   1      41.287  30.337  31.563  1.00  0.00    -0.354 N 
ATOM     50  C   UNL A   1      37.396  31.481  30.011  1.00  0.00     0.074 A 
ATOM     51  C   UNL A   1      36.794  30.177  30.088  1.00  0.00     0.031 C 
ATOM     52  C   UNL A   1      42.924  28.861  31.957  1.00  0.00     0.029 A 
ATOM     53  C   UNL A   1      42.233  30.004  32.527  1.00  0.00     0.049 A 
ATOM     54  H   UNL A   1      40.726  31.143  31.615  1.00  0.00     0.167 HD
ATOM     55  C   UNL A   1      36.956  32.701  30.429  1.00  0.00     0.034 A 
ATOM     56  C   UNL A   1      42.448  30.595  33.729  1.00  0.00     0.034 A 
ATOM     57  C   UNL A   1      37.886  33.741  30.060  1.00  0.00     0.049 A 
ATOM     58  C   UNL A   1      41.904  31.966  33.660  1.00  0.00     0.074 A 
ATOM     59  C   UNL A   1      38.368  34.259  28.876  1.00  0.00     0.029 A 
ATOM     60  N   UNL A   1      38.723  34.200  31.047  1.00  0.00    -0.354 N 
ATOM     61  N   UNL A   1      42.374  32.885  32.864  1.00  0.00    -0.248 NA
ATOM     62  C   UNL A   1      40.590  32.248  34.218  1.00  0.00     0.031 C 
ATOM     63  C   UNL A   1      39.711  34.652  29.156  1.00  0.00     0.029 A 
ATOM     64  C   UNL A   1      39.967  34.399  30.506  1.00  0.00     0.049 A 
ATOM     65  H   UNL A   1      38.473  34.361  31.986  1.00  0.00     0.167 HD
ATOM     66  C   UNL A   1      41.269  33.619  32.477  1.00  0.00     0.074 A 
ATOM     67  C   UNL A   1      40.245  33.298  33.465  1.00  0.00     0.031 C 
ATOM     68  C   UNL A   1      41.204  34.182  31.235  1.00  0.00     0.034 A 
BRANCH  55  69
ATOM     69  C   UNL A   1      35.892  32.945  31.490  1.00  0.00     0.023 A 
ATOM     70  C   UNL A   1      34.799  33.768  31.138  1.00  0.00     0.031 A 
ATOM     71  C   UNL A   1      36.035  32.687  32.871  1.00  0.00     0.131 A 
ATOM     72  C   UNL A   1      33.992  34.372  32.121  1.00  0.00     0.055 A 
ATOM     73  C   UNL A   1      35.186  33.235  33.841  1.00  0.00     0.041 A 
ATOM     74  F   UNL A   1      37.047  31.971  33.374  1.00  0.00    -0.206 F 
ATOM     75  C   UNL A   1      34.180  34.111  33.473  1.00  0.00     0.022 A 
BRANCH  72  76
ATOM     76  S   UNL A   1      32.819  35.658  31.611  1.00  0.00     0.124 S 
ATOM     77  O   UNL A   1      32.592  35.313  30.213  1.00  0.00    -0.237 OA
ATOM     78  O   UNL A   1      31.705  35.428  32.525  1.00  0.00    -0.237 OA
ATOM     79  O   UNL A   1      33.560  36.898  31.834  1.00  0.00    -0.744 OA
ENDBRANCH  72  76
ENDBRANCH  55  69
BRANCH  56  80
ATOM     80  C   UNL A   1      42.897  29.940  34.982  1.00  0.00     0.023 A 
ATOM     81  C   UNL A   1      42.322  28.755  35.479  1.00  0.00     0.031 A 
ATOM     82  C   UNL A   1      44.086  30.386  35.604  1.00  0.00     0.131 A 
ATOM     83  C   UNL A   1      42.934  28.070  36.554  1.00  0.00     0.055 A 
ATOM     84  C   UNL A   1      44.680  29.711  36.671  1.00  0.00     0.041 A 
ATOM     85  F   UNL A   1      44.750  31.457  35.138  1.00  0.00    -0.206 F 
ATOM     86  C   UNL A   1      44.108  28.543  37.146  1.00  0.00     0.022 A 
BRANCH  83  87
ATOM     87  S   UNL A   1      42.244  26.489  37.142  1.00  0.00     0.124 S 
ATOM     88  O   UNL A   1      43.082  26.192  38.297  1.00  0.00    -0.237 OA
ATOM     89  O   UNL A   1      40.856  26.843  37.418  1.00  0.00    -0.237 OA
ATOM     90  O   UNL A   1      42.430  25.591  36.001  1.00  0.00    -0.744 OA
ENDBRANCH  83  87
ENDBRANCH  56  80
BRANCH  68  91
ATOM     91  C   UNL A   1      42.501  34.391  30.483  1.00  0.00     0.023 A 
ATOM     92  C   UNL A   1      42.896  33.676  29.331  1.00  0.00     0.031 A 
ATOM     93  C   UNL A   1      43.334  35.436  30.921  1.00  0.00     0.131 A 
ATOM     94  C   UNL A   1      44.098  34.008  28.674  1.00  0.00     0.055 A 
ATOM     95  C   UNL A   1      44.510  35.777  30.255  1.00  0.00     0.041 A 
ATOM     96  F   UNL A   1      42.999  36.170  31.996  1.00  0.00    -0.206 F 
ATOM     97  C   UNL A   1      44.900  35.058  29.132  1.00  0.00     0.022 A 
BRANCH  94  98
ATOM     98  S   UNL A   1      44.650  33.063  27.218  1.00  0.00     0.124 S 
ATOM     99  O   UNL A   1      43.799  33.559  26.143  1.00  0.00    -0.237 OA
ATOM    100  O   UNL A   1      46.065  33.417  27.130  1.00  0.00    -0.237 OA
ATOM    101  O   UNL A   1      44.398  31.673  27.602  1.00  0.00    -0.744 OA
ENDBRANCH  94  98
ENDBRANCH  68  91
ENDBRANCH  42  43
ENDBRANCH  34  37
ENDBRANCH  32  33
ENDBRANCH  31  32
ENDBRANCH   1  31
TORSDOF 19
ENDMDL
