MODEL 1
REMARK VINA RESULT:     -11.1      0.000      0.000
REMARK SMILES CCN(CC(=O)NC)C(=O)c1ccncc1/C=C/C(=O)NCCCCNC(=O)c1ccc(-c2c3nc(c(-c4cc(S(=O)(=O)[O-])ccc4F)c4ccc([nH]4)c(-c4cc(S(=O)(=O)[O-])ccc4F)c4nc(c(-c5cc(S(=O)(=O)[O-])ccc5F)c5ccc2[nH]5)C=C4)C=C3)cc1
REMARK SMILES IDX 22 1 21 2 19 3 20 4 18 6 17 7 16 8 11 9 12 10 13 11 15 12
REMARK SMILES IDX 14 13 9 14 10 15 3 16 2 17 1 18 4 19 5 20 6 21 7 22 8 23
REMARK SMILES IDX 23 25 24 26 25 27 26 28 27 29 28 31 29 32 30 33 91 34 31 35
REMARK SMILES IDX 90 36 32 37 33 38 34 39 84 40 35 41 89 42 83 43 85 44 36 45
REMARK SMILES IDX 88 46 82 47 81 48 37 50 69 51 49 52 68 53 50 54 53 55 67 56
REMARK SMILES IDX 86 57 51 58 52 59 66 61 87 62 54 63 38 64 39 65 47 66 40 67
REMARK SMILES IDX 46 68 48 69 45 70 41 71 42 72 43 73 44 74 70 75 71 76 79 77
REMARK SMILES IDX 72 78 78 79 80 80 77 81 73 82 74 83 75 84 76 85 55 86 56 87
REMARK SMILES IDX 64 88 57 89 63 90 65 91 62 92 58 93 59 94 60 95 61 96
REMARK H PARENT 21 5 7 24 26 30 85 49 53 60
REMARK Flexibility Score: inf
ROOT
ATOM      1  C   UNL A   1      32.765  30.220  26.129  1.00  0.00     0.116 C 
ENDROOT
BRANCH   1   2
ATOM      2  N   UNL A   1      33.258  29.760  24.847  1.00  0.00    -0.353 N 
ATOM      3  C   UNL A   1      33.248  28.515  24.306  1.00  0.00     0.244 C 
ATOM      4  O   UNL A   1      33.683  28.332  23.172  1.00  0.00    -0.270 OA
ATOM      5  H   UNL A   1      33.661  30.457  24.280  1.00  0.00     0.163 HD
BRANCH   3   6
ATOM      6  C   UNL A   1      32.628  27.377  25.025  1.00  0.00     0.072 C 
ATOM      7  C   UNL A   1      32.151  26.251  24.472  1.00  0.00     0.016 C 
BRANCH   7   8
ATOM      8  C   UNL A   1      31.525  25.211  25.303  1.00  0.00     0.006 A 
ATOM      9  C   UNL A   1      32.149  24.012  25.682  1.00  0.00     0.050 A 
ATOM     10  C   UNL A   1      31.511  23.147  26.575  1.00  0.00     0.034 A 
ATOM     11  C   UNL A   1      30.226  23.450  26.981  1.00  0.00     0.112 A 
ATOM     12  C   UNL A   1      30.226  25.407  25.775  1.00  0.00     0.119 A 
ATOM     13  N   UNL A   1      29.562  24.553  26.590  1.00  0.00    -0.264 NA
BRANCH   9  14
ATOM     14  C   UNL A   1      33.535  23.682  25.264  1.00  0.00     0.255 C 
ATOM     15  O   UNL A   1      34.444  24.348  25.753  1.00  0.00    -0.269 OA
BRANCH  14  16
ATOM     16  N   UNL A   1      33.764  22.643  24.351  1.00  0.00    -0.330 N 
BRANCH  16  17
ATOM     17  C   UNL A   1      33.215  22.782  22.997  1.00  0.00     0.117 C 
ATOM     18  C   UNL A   1      32.173  21.732  22.668  1.00  0.00     0.027 C 
ENDBRANCH  16  17
BRANCH  16  19
ATOM     19  C   UNL A   1      34.376  21.351  24.696  1.00  0.00     0.219 C 
BRANCH  19  20
ATOM     20  C   UNL A   1      34.083  20.745  26.084  1.00  0.00     0.239 C 
ATOM     21  O   UNL A   1      34.432  21.344  27.108  1.00  0.00    -0.273 OA
ATOM     22  N   UNL A   1      33.333  19.623  26.261  1.00  0.00    -0.358 N 
ATOM     23  C   UNL A   1      32.647  18.802  25.297  1.00  0.00     0.142 C 
ATOM     24  H   UNL A   1      33.246  19.326  27.196  1.00  0.00     0.163 HD
ENDBRANCH  19  20
ENDBRANCH  16  19
ENDBRANCH  14  16
ENDBRANCH   9  14
ENDBRANCH   7   8
ENDBRANCH   3   6
ENDBRANCH   1   2
BRANCH   1  25
ATOM     25  C   UNL A   1      31.441  30.959  25.945  1.00  0.00     0.023 C 
BRANCH  25  26
ATOM     26  C   UNL A   1      31.375  32.325  26.629  1.00  0.00     0.023 C 
BRANCH  26  27
ATOM     27  C   UNL A   1      32.675  32.798  27.274  1.00  0.00     0.116 C 
BRANCH  27  28
ATOM     28  N   UNL A   1      32.599  34.135  27.842  1.00  0.00    -0.352 N 
ATOM     29  C   UNL A   1      33.416  34.706  28.794  1.00  0.00     0.251 C 
ATOM     30  H   UNL A   1      31.871  34.706  27.503  1.00  0.00     0.163 HD
ATOM     31  O   UNL A   1      33.160  35.817  29.239  1.00  0.00    -0.269 OA
BRANCH  29  32
ATOM     32  C   UNL A   1      34.571  33.932  29.296  1.00  0.00     0.039 A 
ATOM     33  C   UNL A   1      35.860  34.318  28.919  1.00  0.00     0.014 A 
ATOM     34  C   UNL A   1      34.381  32.877  30.192  1.00  0.00     0.014 A 
ATOM     35  C   UNL A   1      36.963  33.699  29.512  1.00  0.00     0.010 A 
ATOM     36  C   UNL A   1      35.479  32.313  30.833  1.00  0.00     0.010 A 
ATOM     37  C   UNL A   1      36.780  32.725  30.507  1.00  0.00    -0.014 A 
BRANCH  37  38
ATOM     38  C   UNL A   1      37.933  32.133  31.234  1.00  0.00     0.031 A 
ATOM     39  C   UNL A   1      38.721  31.014  30.611  1.00  0.00     0.074 A 
ATOM     40  C   UNL A   1      38.210  32.542  32.488  1.00  0.00     0.049 A 
ATOM     41  N   UNL A   1      39.692  30.300  31.120  1.00  0.00    -0.248 NA
ATOM     42  C   UNL A   1      38.336  30.625  29.248  1.00  0.00     0.031 C 
ATOM     43  C   UNL A   1      37.481  33.580  33.221  1.00  0.00     0.029 A 
ATOM     44  N   UNL A   1      39.170  32.125  33.376  1.00  0.00    -0.354 N 
ATOM     45  C   UNL A   1      40.023  29.364  30.147  1.00  0.00     0.074 A 
ATOM     46  C   UNL A   1      39.103  29.565  29.046  1.00  0.00     0.031 C 
ATOM     47  C   UNL A   1      38.030  33.729  34.437  1.00  0.00     0.029 A 
ATOM     48  C   UNL A   1      39.122  32.774  34.588  1.00  0.00     0.049 A 
ATOM     49  H   UNL A   1      39.830  31.426  33.165  1.00  0.00     0.167 HD
ATOM     50  C   UNL A   1      41.015  28.439  30.161  1.00  0.00     0.034 A 
ATOM     51  C   UNL A   1      39.868  32.610  35.699  1.00  0.00     0.034 A 
ATOM     52  C   UNL A   1      41.931  28.265  31.261  1.00  0.00     0.049 A 
ATOM     53  C   UNL A   1      40.966  31.579  35.694  1.00  0.00     0.074 A 
ATOM     54  C   UNL A   1      43.012  27.406  31.358  1.00  0.00     0.029 A 
ATOM     55  N   UNL A   1      41.868  28.958  32.465  1.00  0.00    -0.354 N 
ATOM     56  N   UNL A   1      41.306  30.739  34.743  1.00  0.00    -0.248 NA
ATOM     57  C   UNL A   1      41.789  31.483  36.906  1.00  0.00     0.031 C 
ATOM     58  C   UNL A   1      43.566  27.538  32.637  1.00  0.00     0.029 A 
ATOM     59  C   UNL A   1      42.875  28.529  33.317  1.00  0.00     0.049 A 
ATOM     60  H   UNL A   1      41.207  29.654  32.681  1.00  0.00     0.167 HD
ATOM     61  C   UNL A   1      42.400  30.034  35.234  1.00  0.00     0.074 A 
ATOM     62  C   UNL A   1      42.669  30.556  36.560  1.00  0.00     0.031 C 
ATOM     63  C   UNL A   1      43.122  29.050  34.641  1.00  0.00     0.034 A 
BRANCH  50  64
ATOM     64  C   UNL A   1      41.133  27.538  28.955  1.00  0.00     0.023 A 
ATOM     65  C   UNL A   1      42.129  27.735  27.982  1.00  0.00     0.031 A 
ATOM     66  C   UNL A   1      40.210  26.497  28.747  1.00  0.00     0.131 A 
ATOM     67  C   UNL A   1      42.123  26.970  26.806  1.00  0.00     0.055 A 
ATOM     68  C   UNL A   1      40.264  25.680  27.616  1.00  0.00     0.041 A 
ATOM     69  F   UNL A   1      39.226  26.269  29.631  1.00  0.00    -0.206 F 
ATOM     70  C   UNL A   1      41.213  25.927  26.626  1.00  0.00     0.022 A 
BRANCH  67  71
ATOM     71  S   UNL A   1      43.216  27.468  25.446  1.00  0.00     0.124 S 
ATOM     72  O   UNL A   1      43.673  26.173  24.947  1.00  0.00    -0.237 OA
ATOM     73  O   UNL A   1      42.314  28.208  24.572  1.00  0.00    -0.237 OA
ATOM     74  O   UNL A   1      44.243  28.269  26.108  1.00  0.00    -0.744 OA
ENDBRANCH  67  71
ENDBRANCH  50  64
BRANCH  51  75
ATOM     75  C   UNL A   1      39.603  33.437  36.909  1.00  0.00     0.023 A 
ATOM     76  C   UNL A   1      38.979  32.886  38.038  1.00  0.00     0.031 A 
ATOM     77  C   UNL A   1      39.949  34.800  36.944  1.00  0.00     0.131 A 
ATOM     78  C   UNL A   1      38.685  33.701  39.142  1.00  0.00     0.055 A 
ATOM     79  C   UNL A   1      39.694  35.596  38.061  1.00  0.00     0.041 A 
ATOM     80  F   UNL A   1      40.558  35.373  35.893  1.00  0.00    -0.206 F 
ATOM     81  C   UNL A   1      39.048  35.049  39.165  1.00  0.00     0.022 A 
BRANCH  78  82
ATOM     82  S   UNL A   1      37.763  32.983  40.530  1.00  0.00     0.124 S 
ATOM     83  O   UNL A   1      36.975  34.123  40.984  1.00  0.00    -0.237 OA
ATOM     84  O   UNL A   1      37.021  31.909  39.877  1.00  0.00    -0.237 OA
ATOM     85  O   UNL A   1      38.814  32.544  41.446  1.00  0.00    -0.744 OA
ENDBRANCH  78  82
ENDBRANCH  51  75
BRANCH  63  86
ATOM     86  C   UNL A   1      44.300  28.508  35.412  1.00  0.00     0.023 A 
ATOM     87  C   UNL A   1      44.153  27.491  36.371  1.00  0.00     0.031 A 
ATOM     88  C   UNL A   1      45.587  29.027  35.187  1.00  0.00     0.131 A 
ATOM     89  C   UNL A   1      45.268  27.061  37.107  1.00  0.00     0.055 A 
ATOM     90  C   UNL A   1      46.702  28.557  35.883  1.00  0.00     0.041 A 
ATOM     91  F   UNL A   1      45.783  30.001  34.283  1.00  0.00    -0.206 F 
ATOM     92  C   UNL A   1      46.543  27.577  36.859  1.00  0.00     0.022 A 
BRANCH  89  93
ATOM     93  S   UNL A   1      45.017  25.873  38.455  1.00  0.00     0.124 S 
ATOM     94  O   UNL A   1      46.379  25.666  38.935  1.00  0.00    -0.237 OA
ATOM     95  O   UNL A   1      44.128  26.603  39.353  1.00  0.00    -0.237 OA
ATOM     96  O   UNL A   1      44.413  24.721  37.788  1.00  0.00    -0.744 OA
ENDBRANCH  89  93
ENDBRANCH  63  86
ENDBRANCH  37  38
ENDBRANCH  29  32
ENDBRANCH  27  28
ENDBRANCH  26  27
ENDBRANCH  25  26
ENDBRANCH   1  25
TORSDOF 20
ENDMDL
MODEL 2
REMARK VINA RESULT:     -10.9      5.990     11.190
REMARK SMILES CCN(CC(=O)NC)C(=O)c1ccncc1/C=C/C(=O)NCCCCNC(=O)c1ccc(-c2c3nc(c(-c4cc(S(=O)(=O)[O-])ccc4F)c4ccc([nH]4)c(-c4cc(S(=O)(=O)[O-])ccc4F)c4nc(c(-c5cc(S(=O)(=O)[O-])ccc5F)c5ccc2[nH]5)C=C4)C=C3)cc1
REMARK SMILES IDX 22 1 21 2 19 3 20 4 18 6 17 7 16 8 11 9 12 10 13 11 15 12
REMARK SMILES IDX 14 13 9 14 10 15 3 16 2 17 1 18 4 19 5 20 6 21 7 22 8 23
REMARK SMILES IDX 23 25 24 26 25 27 26 28 27 29 28 31 29 32 30 33 91 34 31 35
REMARK SMILES IDX 90 36 32 37 33 38 34 39 84 40 35 41 89 42 83 43 85 44 36 45
REMARK SMILES IDX 88 46 82 47 81 48 37 50 69 51 49 52 68 53 50 54 53 55 67 56
REMARK SMILES IDX 86 57 51 58 52 59 66 61 87 62 54 63 38 64 39 65 47 66 40 67
REMARK SMILES IDX 46 68 48 69 45 70 41 71 42 72 43 73 44 74 70 75 71 76 79 77
REMARK SMILES IDX 72 78 78 79 80 80 77 81 73 82 74 83 75 84 76 85 55 86 56 87
REMARK SMILES IDX 64 88 57 89 63 90 65 91 62 92 58 93 59 94 60 95 61 96
REMARK H PARENT 21 5 7 24 26 30 85 49 53 60
REMARK Flexibility Score: inf
ROOT
ATOM      1  C   UNL A   1      36.747  23.135  25.658  1.00  0.00     0.116 C 
ENDROOT
BRANCH   1   2
ATOM      2  N   UNL A   1      35.754  22.516  26.513  1.00  0.00    -0.353 N 
ATOM      3  C   UNL A   1      34.524  22.958  26.880  1.00  0.00     0.244 C 
ATOM      4  O   UNL A   1      33.805  22.259  27.590  1.00  0.00    -0.270 OA
ATOM      5  H   UNL A   1      36.009  21.640  26.882  1.00  0.00     0.163 HD
BRANCH   3   6
ATOM      6  C   UNL A   1      33.988  24.238  26.360  1.00  0.00     0.072 C 
ATOM      7  C   UNL A   1      34.380  24.870  25.242  1.00  0.00     0.016 C 
BRANCH   7   8
ATOM      8  C   UNL A   1      33.785  26.158  24.859  1.00  0.00     0.006 A 
ATOM      9  C   UNL A   1      33.169  26.414  23.623  1.00  0.00     0.050 A 
ATOM     10  C   UNL A   1      32.526  27.637  23.406  1.00  0.00     0.034 A 
ATOM     11  C   UNL A   1      32.609  28.607  24.385  1.00  0.00     0.112 A 
ATOM     12  C   UNL A   1      33.807  27.216  25.768  1.00  0.00     0.119 A 
ATOM     13  N   UNL A   1      33.247  28.431  25.556  1.00  0.00    -0.264 NA
BRANCH   9  14
ATOM     14  C   UNL A   1      33.061  25.375  22.569  1.00  0.00     0.255 C 
ATOM     15  O   UNL A   1      33.654  25.582  21.513  1.00  0.00    -0.269 OA
BRANCH  14  16
ATOM     16  N   UNL A   1      32.312  24.212  22.803  1.00  0.00    -0.330 N 
BRANCH  16  17
ATOM     17  C   UNL A   1      32.963  22.917  22.576  1.00  0.00     0.117 C 
ATOM     18  C   UNL A   1      32.052  21.738  22.852  1.00  0.00     0.027 C 
ENDBRANCH  16  17
BRANCH  16  19
ATOM     19  C   UNL A   1      30.873  24.196  23.101  1.00  0.00     0.219 C 
BRANCH  19  20
ATOM     20  C   UNL A   1      30.410  24.582  24.521  1.00  0.00     0.239 C 
ATOM     21  O   UNL A   1      30.874  23.993  25.505  1.00  0.00    -0.273 OA
ATOM     22  N   UNL A   1      29.595  25.642  24.775  1.00  0.00    -0.358 N 
ATOM     23  C   UNL A   1      29.032  26.617  23.877  1.00  0.00     0.142 C 
ATOM     24  H   UNL A   1      29.353  25.761  25.722  1.00  0.00     0.163 HD
ENDBRANCH  19  20
ENDBRANCH  16  19
ENDBRANCH  14  16
ENDBRANCH   9  14
ENDBRANCH   7   8
ENDBRANCH   3   6
ENDBRANCH   1   2
BRANCH   1  25
ATOM     25  C   UNL A   1      37.022  22.245  24.448  1.00  0.00     0.023 C 
BRANCH  25  26
ATOM     26  C   UNL A   1      37.709  20.920  24.777  1.00  0.00     0.023 C 
BRANCH  26  27
ATOM     27  C   UNL A   1      38.784  20.990  25.859  1.00  0.00     0.116 C 
BRANCH  27  28
ATOM     28  N   UNL A   1      39.660  19.829  25.897  1.00  0.00    -0.352 N 
ATOM     29  C   UNL A   1      41.019  19.792  26.121  1.00  0.00     0.251 C 
ATOM     30  H   UNL A   1      39.226  18.958  25.743  1.00  0.00     0.163 HD
ATOM     31  O   UNL A   1      41.630  18.735  26.026  1.00  0.00    -0.269 OA
BRANCH  29  32
ATOM     32  C   UNL A   1      41.724  21.055  26.429  1.00  0.00     0.039 A 
ATOM     33  C   UNL A   1      42.128  21.879  25.376  1.00  0.00     0.014 A 
ATOM     34  C   UNL A   1      41.918  21.452  27.753  1.00  0.00     0.014 A 
ATOM     35  C   UNL A   1      42.649  23.144  25.655  1.00  0.00     0.010 A 
ATOM     36  C   UNL A   1      42.368  22.739  28.026  1.00  0.00     0.010 A 
ATOM     37  C   UNL A   1      42.729  23.602  26.980  1.00  0.00    -0.014 A 
BRANCH  37  38
ATOM     38  C   UNL A   1      43.171  24.984  27.298  1.00  0.00     0.031 A 
ATOM     39  C   UNL A   1      42.227  25.940  27.974  1.00  0.00     0.074 A 
ATOM     40  C   UNL A   1      44.388  25.403  26.897  1.00  0.00     0.049 A 
ATOM     41  N   UNL A   1      42.384  27.209  28.245  1.00  0.00    -0.248 NA
ATOM     42  C   UNL A   1      40.915  25.398  28.360  1.00  0.00     0.031 C 
ATOM     43  C   UNL A   1      45.371  24.585  26.182  1.00  0.00     0.029 A 
ATOM     44  N   UNL A   1      45.001  26.625  27.019  1.00  0.00    -0.354 N 
ATOM     45  C   UNL A   1      41.187  27.626  28.817  1.00  0.00     0.074 A 
ATOM     46  C   UNL A   1      40.295  26.485  28.792  1.00  0.00     0.031 C 
ATOM     47  C   UNL A   1      46.468  25.323  25.946  1.00  0.00     0.029 A 
ATOM     48  C   UNL A   1      46.254  26.674  26.453  1.00  0.00     0.049 A 
ATOM     49  H   UNL A   1      44.582  27.394  27.468  1.00  0.00     0.167 HD
ATOM     50  C   UNL A   1      40.870  28.839  29.334  1.00  0.00     0.034 A 
ATOM     51  C   UNL A   1      47.127  27.695  26.347  1.00  0.00     0.034 A 
ATOM     52  C   UNL A   1      41.778  29.959  29.363  1.00  0.00     0.049 A 
ATOM     53  C   UNL A   1      46.757  29.034  26.929  1.00  0.00     0.074 A 
ATOM     54  C   UNL A   1      41.588  31.212  29.919  1.00  0.00     0.029 A 
ATOM     55  N   UNL A   1      43.051  29.965  28.802  1.00  0.00    -0.354 N 
ATOM     56  N   UNL A   1      45.642  29.398  27.521  1.00  0.00    -0.248 NA
ATOM     57  C   UNL A   1      47.768  30.095  26.842  1.00  0.00     0.031 C 
ATOM     58  C   UNL A   1      42.718  31.991  29.644  1.00  0.00     0.029 A 
ATOM     59  C   UNL A   1      43.645  31.206  28.977  1.00  0.00     0.049 A 
ATOM     60  H   UNL A   1      43.470  29.199  28.349  1.00  0.00     0.167 HD
ATOM     61  C   UNL A   1      45.830  30.723  27.899  1.00  0.00     0.074 A 
ATOM     62  C   UNL A   1      47.168  31.089  27.481  1.00  0.00     0.031 C 
ATOM     63  C   UNL A   1      44.976  31.560  28.542  1.00  0.00     0.034 A 
BRANCH  50  64
ATOM     64  C   UNL A   1      39.474  29.009  29.884  1.00  0.00     0.023 A 
ATOM     65  C   UNL A   1      38.438  29.559  29.109  1.00  0.00     0.031 A 
ATOM     66  C   UNL A   1      39.183  28.664  31.217  1.00  0.00     0.131 A 
ATOM     67  C   UNL A   1      37.193  29.834  29.694  1.00  0.00     0.055 A 
ATOM     68  C   UNL A   1      37.915  28.859  31.768  1.00  0.00     0.041 A 
ATOM     69  F   UNL A   1      40.135  28.152  32.013  1.00  0.00    -0.206 F 
ATOM     70  C   UNL A   1      36.915  29.465  31.011  1.00  0.00     0.022 A 
BRANCH  67  71
ATOM     71  S   UNL A   1      36.000  30.829  28.756  1.00  0.00     0.124 S 
ATOM     72  O   UNL A   1      35.231  31.455  29.830  1.00  0.00    -0.237 OA
ATOM     73  O   UNL A   1      36.865  31.717  27.988  1.00  0.00    -0.237 OA
ATOM     74  O   UNL A   1      35.268  29.837  27.973  1.00  0.00    -0.744 OA
ENDBRANCH  67  71
ENDBRANCH  50  64
BRANCH  51  75
ATOM     75  C   UNL A   1      48.434  27.496  25.661  1.00  0.00     0.023 A 
ATOM     76  C   UNL A   1      48.550  27.642  24.271  1.00  0.00     0.031 A 
ATOM     77  C   UNL A   1      49.583  27.133  26.386  1.00  0.00     0.131 A 
ATOM     78  C   UNL A   1      49.778  27.389  23.641  1.00  0.00     0.055 A 
ATOM     79  C   UNL A   1      50.814  26.925  25.760  1.00  0.00     0.041 A 
ATOM     80  F   UNL A   1      49.528  26.992  27.720  1.00  0.00    -0.206 F 
ATOM     81  C   UNL A   1      50.913  27.043  24.378  1.00  0.00     0.022 A 
BRANCH  78  82
ATOM     82  S   UNL A   1      49.857  27.461  21.830  1.00  0.00     0.124 S 
ATOM     83  O   UNL A   1      48.681  26.686  21.450  1.00  0.00    -0.237 OA
ATOM     84  O   UNL A   1      49.787  28.898  21.581  1.00  0.00    -0.237 OA
ATOM     85  O   UNL A   1      51.143  26.840  21.520  1.00  0.00    -0.744 OA
ENDBRANCH  78  82
ENDBRANCH  51  75
BRANCH  63  86
ATOM     86  C   UNL A   1      45.488  32.940  28.868  1.00  0.00     0.023 A 
ATOM     87  C   UNL A   1      45.399  33.999  27.948  1.00  0.00     0.031 A 
ATOM     88  C   UNL A   1      46.084  33.194  30.116  1.00  0.00     0.131 A 
ATOM     89  C   UNL A   1      45.945  35.251  28.271  1.00  0.00     0.055 A 
ATOM     90  C   UNL A   1      46.575  34.456  30.453  1.00  0.00     0.041 A 
ATOM     91  F   UNL A   1      46.196  32.217  31.030  1.00  0.00    -0.206 F 
ATOM     92  C   UNL A   1      46.519  35.490  29.523  1.00  0.00     0.022 A 
BRANCH  89  93
ATOM     93  S   UNL A   1      45.969  36.546  27.000  1.00  0.00     0.124 S 
ATOM     94  O   UNL A   1      46.237  35.778  25.789  1.00  0.00    -0.237 OA
ATOM     95  O   UNL A   1      44.630  37.117  27.111  1.00  0.00    -0.237 OA
ATOM     96  O   UNL A   1      47.054  37.427  27.429  1.00  0.00    -0.744 OA
ENDBRANCH  89  93
ENDBRANCH  63  86
ENDBRANCH  37  38
ENDBRANCH  29  32
ENDBRANCH  27  28
ENDBRANCH  26  27
ENDBRANCH  25  26
ENDBRANCH   1  25
TORSDOF 20
ENDMDL
MODEL 3
REMARK VINA RESULT:     -10.9      5.259      9.062
REMARK SMILES CCN(CC(=O)NC)C(=O)c1ccncc1/C=C/C(=O)NCCCCNC(=O)c1ccc(-c2c3nc(c(-c4cc(S(=O)(=O)[O-])ccc4F)c4ccc([nH]4)c(-c4cc(S(=O)(=O)[O-])ccc4F)c4nc(c(-c5cc(S(=O)(=O)[O-])ccc5F)c5ccc2[nH]5)C=C4)C=C3)cc1
REMARK SMILES IDX 22 1 21 2 19 3 20 4 18 6 17 7 16 8 11 9 12 10 13 11 15 12
REMARK SMILES IDX 14 13 9 14 10 15 3 16 2 17 1 18 4 19 5 20 6 21 7 22 8 23
REMARK SMILES IDX 23 25 24 26 25 27 26 28 27 29 28 31 29 32 30 33 91 34 31 35
REMARK SMILES IDX 90 36 32 37 33 38 34 39 84 40 35 41 89 42 83 43 85 44 36 45
REMARK SMILES IDX 88 46 82 47 81 48 37 50 69 51 49 52 68 53 50 54 53 55 67 56
REMARK SMILES IDX 86 57 51 58 52 59 66 61 87 62 54 63 38 64 39 65 47 66 40 67
REMARK SMILES IDX 46 68 48 69 45 70 41 71 42 72 43 73 44 74 70 75 71 76 79 77
REMARK SMILES IDX 72 78 78 79 80 80 77 81 73 82 74 83 75 84 76 85 55 86 56 87
REMARK SMILES IDX 64 88 57 89 63 90 65 91 62 92 58 93 59 94 60 95 61 96
REMARK H PARENT 21 5 7 24 26 30 85 49 53 60
REMARK Flexibility Score: inf
ROOT
ATOM      1  C   UNL A   1      34.161  22.451  25.176  1.00  0.00     0.116 C 
ENDROOT
BRANCH   1   2
ATOM      2  N   UNL A   1      33.977  22.876  23.802  1.00  0.00    -0.353 N 
ATOM      3  C   UNL A   1      33.620  24.088  23.306  1.00  0.00     0.244 C 
ATOM      4  O   UNL A   1      33.556  24.262  22.091  1.00  0.00    -0.270 OA
ATOM      5  H   UNL A   1      34.136  22.179  23.126  1.00  0.00     0.163 HD
BRANCH   3   6
ATOM      6  C   UNL A   1      33.398  25.244  24.206  1.00  0.00     0.072 C 
ATOM      7  C   UNL A   1      33.460  26.542  23.865  1.00  0.00     0.016 C 
BRANCH   7   8
ATOM      8  C   UNL A   1      33.253  27.594  24.870  1.00  0.00     0.006 A 
ATOM      9  C   UNL A   1      32.491  28.755  24.662  1.00  0.00     0.050 A 
ATOM     10  C   UNL A   1      32.256  29.633  25.724  1.00  0.00     0.034 A 
ATOM     11  C   UNL A   1      32.874  29.384  26.934  1.00  0.00     0.112 A 
ATOM     12  C   UNL A   1      33.828  27.452  26.134  1.00  0.00     0.119 A 
ATOM     13  N   UNL A   1      33.667  28.321  27.160  1.00  0.00    -0.264 NA
BRANCH   9  14
ATOM     14  C   UNL A   1      31.811  29.026  23.371  1.00  0.00     0.255 C 
ATOM     15  O   UNL A   1      32.511  29.405  22.435  1.00  0.00    -0.269 OA
BRANCH  14  16
ATOM     16  N   UNL A   1      30.425  28.842  23.255  1.00  0.00    -0.330 N 
BRANCH  16  17
ATOM     17  C   UNL A   1      29.935  27.500  22.920  1.00  0.00     0.117 C 
ATOM     18  C   UNL A   1      29.213  26.828  24.070  1.00  0.00     0.027 C 
ENDBRANCH  16  17
BRANCH  16  19
ATOM     19  C   UNL A   1      29.436  29.930  23.284  1.00  0.00     0.219 C 
BRANCH  19  20
ATOM     20  C   UNL A   1      29.210  30.755  22.000  1.00  0.00     0.239 C 
ATOM     21  O   UNL A   1      28.981  30.182  20.929  1.00  0.00    -0.273 OA
ATOM     22  N   UNL A   1      29.120  32.113  21.997  1.00  0.00    -0.358 N 
ATOM     23  C   UNL A   1      29.169  33.050  23.089  1.00  0.00     0.142 C 
ATOM     24  H   UNL A   1      29.003  32.518  21.106  1.00  0.00     0.163 HD
ENDBRANCH  19  20
ENDBRANCH  16  19
ENDBRANCH  14  16
ENDBRANCH   9  14
ENDBRANCH   7   8
ENDBRANCH   3   6
ENDBRANCH   1   2
BRANCH   1  25
ATOM     25  C   UNL A   1      35.380  21.538  25.281  1.00  0.00     0.023 C 
BRANCH  25  26
ATOM     26  C   UNL A   1      36.627  22.057  24.564  1.00  0.00     0.023 C 
BRANCH  26  27
ATOM     27  C   UNL A   1      37.633  22.789  25.449  1.00  0.00     0.116 C 
BRANCH  27  28
ATOM     28  N   UNL A   1      38.822  22.010  25.758  1.00  0.00    -0.352 N 
ATOM     29  C   UNL A   1      39.995  22.438  26.341  1.00  0.00     0.251 C 
ATOM     30  H   UNL A   1      38.785  21.055  25.521  1.00  0.00     0.163 HD
ATOM     31  O   UNL A   1      40.945  21.674  26.448  1.00  0.00    -0.269 OA
BRANCH  29  32
ATOM     32  C   UNL A   1      40.096  23.845  26.786  1.00  0.00     0.039 A 
ATOM     33  C   UNL A   1      40.090  24.124  28.155  1.00  0.00     0.014 A 
ATOM     34  C   UNL A   1      40.268  24.872  25.855  1.00  0.00     0.014 A 
ATOM     35  C   UNL A   1      40.346  25.425  28.592  1.00  0.00     0.010 A 
ATOM     36  C   UNL A   1      40.593  26.150  26.294  1.00  0.00     0.010 A 
ATOM     37  C   UNL A   1      40.646  26.439  27.666  1.00  0.00    -0.014 A 
BRANCH  37  38
ATOM     38  C   UNL A   1      41.033  27.803  28.108  1.00  0.00     0.031 A 
ATOM     39  C   UNL A   1      42.483  28.199  28.145  1.00  0.00     0.074 A 
ATOM     40  C   UNL A   1      40.086  28.650  28.560  1.00  0.00     0.049 A 
ATOM     41  N   UNL A   1      43.031  29.300  28.591  1.00  0.00    -0.248 NA
ATOM     42  C   UNL A   1      43.444  27.205  27.648  1.00  0.00     0.031 C 
ATOM     43  C   UNL A   1      38.652  28.359  28.628  1.00  0.00     0.029 A 
ATOM     44  N   UNL A   1      40.188  29.923  29.064  1.00  0.00    -0.354 N 
ATOM     45  C   UNL A   1      44.403  29.125  28.445  1.00  0.00     0.074 A 
ATOM     46  C   UNL A   1      44.599  27.786  27.929  1.00  0.00     0.031 C 
ATOM     47  C   UNL A   1      38.009  29.427  29.126  1.00  0.00     0.029 A 
ATOM     48  C   UNL A   1      38.984  30.463  29.451  1.00  0.00     0.049 A 
ATOM     49  H   UNL A   1      41.044  30.403  29.142  1.00  0.00     0.167 HD
ATOM     50  C   UNL A   1      45.402  30.007  28.697  1.00  0.00     0.034 A 
ATOM     51  C   UNL A   1      38.699  31.654  30.013  1.00  0.00     0.034 A 
ATOM     52  C   UNL A   1      45.185  31.342  29.197  1.00  0.00     0.049 A 
ATOM     53  C   UNL A   1      39.822  32.619  30.283  1.00  0.00     0.074 A 
ATOM     54  C   UNL A   1      46.114  32.341  29.427  1.00  0.00     0.029 A 
ATOM     55  N   UNL A   1      43.947  31.865  29.555  1.00  0.00    -0.354 N 
ATOM     56  N   UNL A   1      41.111  32.463  30.087  1.00  0.00    -0.248 NA
ATOM     57  C   UNL A   1      39.452  33.927  30.839  1.00  0.00     0.031 C 
ATOM     58  C   UNL A   1      45.449  33.444  29.976  1.00  0.00     0.029 A 
ATOM     59  C   UNL A   1      44.093  33.161  30.026  1.00  0.00     0.049 A 
ATOM     60  H   UNL A   1      43.090  31.386  29.482  1.00  0.00     0.167 HD
ATOM     61  C   UNL A   1      41.701  33.663  30.469  1.00  0.00     0.074 A 
ATOM     62  C   UNL A   1      40.627  34.536  30.897  1.00  0.00     0.031 C 
ATOM     63  C   UNL A   1      43.012  34.015  30.462  1.00  0.00     0.034 A 
BRANCH  50  64
ATOM     64  C   UNL A   1      46.815  29.533  28.455  1.00  0.00     0.023 A 
ATOM     65  C   UNL A   1      47.586  28.956  29.480  1.00  0.00     0.031 A 
ATOM     66  C   UNL A   1      47.421  29.703  27.197  1.00  0.00     0.131 A 
ATOM     67  C   UNL A   1      48.938  28.658  29.259  1.00  0.00     0.055 A 
ATOM     68  C   UNL A   1      48.743  29.322  26.959  1.00  0.00     0.041 A 
ATOM     69  F   UNL A   1      46.744  30.264  26.182  1.00  0.00    -0.206 F 
ATOM     70  C   UNL A   1      49.517  28.813  27.999  1.00  0.00     0.022 A 
BRANCH  67  71
ATOM     71  S   UNL A   1      49.970  28.220  30.686  1.00  0.00     0.124 S 
ATOM     72  O   UNL A   1      51.275  28.733  30.274  1.00  0.00    -0.237 OA
ATOM     73  O   UNL A   1      49.318  28.935  31.777  1.00  0.00    -0.237 OA
ATOM     74  O   UNL A   1      49.872  26.764  30.747  1.00  0.00    -0.744 OA
ENDBRANCH  67  71
ENDBRANCH  50  64
BRANCH  51  75
ATOM     75  C   UNL A   1      37.293  32.002  30.361  1.00  0.00     0.023 A 
ATOM     76  C   UNL A   1      36.450  32.621  29.427  1.00  0.00     0.031 A 
ATOM     77  C   UNL A   1      36.780  31.741  31.645  1.00  0.00     0.131 A 
ATOM     78  C   UNL A   1      35.149  32.995  29.799  1.00  0.00     0.055 A 
ATOM     79  C   UNL A   1      35.471  32.075  31.996  1.00  0.00     0.041 A 
ATOM     80  F   UNL A   1      37.543  31.141  32.572  1.00  0.00    -0.206 F 
ATOM     81  C   UNL A   1      34.651  32.716  31.073  1.00  0.00     0.022 A 
BRANCH  78  82
ATOM     82  S   UNL A   1      34.133  33.908  28.606  1.00  0.00     0.124 S 
ATOM     83  O   UNL A   1      35.023  35.002  28.233  1.00  0.00    -0.237 OA
ATOM     84  O   UNL A   1      33.890  32.899  27.579  1.00  0.00    -0.237 OA
ATOM     85  O   UNL A   1      32.958  34.295  29.385  1.00  0.00    -0.744 OA
ENDBRANCH  78  82
ENDBRANCH  51  75
BRANCH  63  86
ATOM     86  C   UNL A   1      43.345  35.422  30.890  1.00  0.00     0.023 A 
ATOM     87  C   UNL A   1      43.420  36.479  29.966  1.00  0.00     0.031 A 
ATOM     88  C   UNL A   1      43.599  35.705  32.243  1.00  0.00     0.131 A 
ATOM     89  C   UNL A   1      43.793  37.760  30.401  1.00  0.00     0.055 A 
ATOM     90  C   UNL A   1      43.915  36.993  32.678  1.00  0.00     0.041 A 
ATOM     91  F   UNL A   1      43.542  34.733  33.167  1.00  0.00    -0.206 F 
ATOM     92  C   UNL A   1      44.026  38.027  31.753  1.00  0.00     0.022 A 
BRANCH  89  93
ATOM     93  S   UNL A   1      44.050  39.061  29.162  1.00  0.00     0.124 S 
ATOM     94  O   UNL A   1      42.977  39.997  29.478  1.00  0.00    -0.237 OA
ATOM     95  O   UNL A   1      45.403  39.516  29.463  1.00  0.00    -0.237 OA
ATOM     96  O   UNL A   1      43.902  38.356  27.889  1.00  0.00    -0.744 OA
ENDBRANCH  89  93
ENDBRANCH  63  86
ENDBRANCH  37  38
ENDBRANCH  29  32
ENDBRANCH  27  28
ENDBRANCH  26  27
ENDBRANCH  25  26
ENDBRANCH   1  25
TORSDOF 20
ENDMDL
