MODEL 1
REMARK VINA RESULT:     -12.4      0.000      0.000
REMARK SMILES CCOc1ccc(-n2ncc(C(=O)NCCCCNC(=O)c3ccc(-c4c5nc(c(-c6cc(S(=O)(=O)[O-])ccc6F)c6ccc([nH]6)c(-c6cc(S(=O)(=O)[O-])ccc6F)c6nc(c(-c7cc(S(=O)(=O)[O-])ccc7F)c7ccc4[nH]7)C=C6)C=C5)cc3)c2C)nn1
REMARK SMILES IDX 16 1 15 2 14 3 12 4 13 5 11 7 8 8 9 9 85 10 10 11 86 12 7 13
REMARK SMILES IDX 4 14 5 15 88 16 6 17 87 18 3 19 2 20 1 21 17 22 18 23 19 24
REMARK SMILES IDX 20 25 21 27 22 28 23 29 84 30 24 31 83 32 25 33 26 34 27 35
REMARK SMILES IDX 77 36 28 37 82 38 76 39 78 40 29 41 81 42 75 43 74 44 30 46
REMARK SMILES IDX 62 47 42 48 61 49 43 50 46 51 60 52 79 53 44 54 45 55 59 57
REMARK SMILES IDX 80 58 47 59 31 60 32 61 40 62 33 63 39 64 41 65 38 66 34 67
REMARK SMILES IDX 35 68 36 69 37 70 63 71 64 72 72 73 65 74 71 75 73 76 70 77
REMARK SMILES IDX 66 78 67 79 68 80 69 81 48 82 49 83 57 84 50 85 56 86 58 87
REMARK SMILES IDX 55 88 51 89 52 90 53 91 54 92
REMARK H PARENT 14 6 19 26 78 45 46 56
REMARK Flexibility Score: inf
ROOT
ATOM      1  C   UNL A   1      33.272  28.441  26.050  1.00  0.00     0.023 C 
ENDROOT
BRANCH   1   2
ATOM      2  C   UNL A   1      33.491  28.443  24.536  1.00  0.00     0.116 C 
BRANCH   2   3
ATOM      3  N   UNL A   1      32.238  28.403  23.809  1.00  0.00    -0.352 N 
ATOM      4  C   UNL A   1      31.649  27.506  22.958  1.00  0.00     0.254 C 
ATOM      5  O   UNL A   1      30.580  27.870  22.466  1.00  0.00    -0.269 OA
ATOM      6  H   UNL A   1      31.683  29.202  23.964  1.00  0.00     0.163 HD
BRANCH   4   7
ATOM      7  C   UNL A   1      32.215  26.191  22.657  1.00  0.00     0.081 A 
ATOM      8  N   UNL A   1      32.855  24.057  22.912  1.00  0.00    -0.217 N 
ATOM      9  N   UNL A   1      33.421  24.470  21.750  1.00  0.00    -0.174 NA
ATOM     10  C   UNL A   1      32.109  25.071  23.495  1.00  0.00     0.056 A 
ATOM     11  C   UNL A   1      32.981  25.711  21.581  1.00  0.00     0.149 A 
ATOM     12  C   UNL A   1      31.448  24.966  24.829  1.00  0.00     0.068 C 
BRANCH   8  13
ATOM     13  C   UNL A   1      33.090  22.717  23.337  1.00  0.00     0.176 A 
ATOM     14  C   UNL A   1      33.419  20.180  24.216  1.00  0.00     0.233 A 
ATOM     15  C   UNL A   1      32.372  20.434  23.357  1.00  0.00     0.074 A 
ATOM     16  N   UNL A   1      34.273  21.138  24.632  1.00  0.00    -0.110 NA
ATOM     17  C   UNL A   1      32.204  21.733  22.905  1.00  0.00     0.057 A 
ATOM     18  N   UNL A   1      34.117  22.424  24.170  1.00  0.00    -0.127 NA
BRANCH  14  19
ATOM     19  O   UNL A   1      33.552  18.922  24.747  1.00  0.00    -0.477 OA
BRANCH  19  20
ATOM     20  C   UNL A   1      32.899  17.956  23.920  1.00  0.00     0.228 C 
ATOM     21  C   UNL A   1      33.913  17.059  23.225  1.00  0.00     0.049 C 
ENDBRANCH  19  20
ENDBRANCH  14  19
ENDBRANCH   8  13
ENDBRANCH   4   7
ENDBRANCH   2   3
ENDBRANCH   1   2
BRANCH   1  22
ATOM     22  C   UNL A   1      33.968  29.584  26.810  1.00  0.00     0.023 C 
BRANCH  22  23
ATOM     23  C   UNL A   1      35.299  29.215  27.459  1.00  0.00     0.116 C 
BRANCH  23  24
ATOM     24  N   UNL A   1      35.464  29.783  28.795  1.00  0.00    -0.352 N 
ATOM     25  C   UNL A   1      36.449  29.490  29.727  1.00  0.00     0.251 C 
ATOM     26  H   UNL A   1      34.797  30.454  29.066  1.00  0.00     0.163 HD
ATOM     27  O   UNL A   1      36.254  29.682  30.916  1.00  0.00    -0.269 OA
BRANCH  25  28
ATOM     28  C   UNL A   1      37.736  28.951  29.244  1.00  0.00     0.039 A 
ATOM     29  C   UNL A   1      38.353  29.439  28.091  1.00  0.00     0.014 A 
ATOM     30  C   UNL A   1      38.341  27.952  30.001  1.00  0.00     0.014 A 
ATOM     31  C   UNL A   1      39.628  28.974  27.768  1.00  0.00     0.010 A 
ATOM     32  C   UNL A   1      39.649  27.604  29.768  1.00  0.00     0.010 A 
ATOM     33  C   UNL A   1      40.288  28.075  28.629  1.00  0.00    -0.014 A 
BRANCH  33  34
ATOM     34  C   UNL A   1      41.697  27.737  28.428  1.00  0.00     0.031 A 
ATOM     35  C   UNL A   1      41.910  26.467  27.683  1.00  0.00     0.074 A 
ATOM     36  C   UNL A   1      42.729  28.568  28.695  1.00  0.00     0.049 A 
ATOM     37  N   UNL A   1      42.334  25.348  28.165  1.00  0.00    -0.248 NA
ATOM     38  C   UNL A   1      41.440  26.369  26.292  1.00  0.00     0.031 C 
ATOM     39  C   UNL A   1      42.687  29.959  29.158  1.00  0.00     0.029 A 
ATOM     40  N   UNL A   1      44.065  28.364  28.511  1.00  0.00    -0.354 N 
ATOM     41  C   UNL A   1      42.437  24.478  27.086  1.00  0.00     0.074 A 
ATOM     42  C   UNL A   1      41.676  25.082  26.025  1.00  0.00     0.031 C 
ATOM     43  C   UNL A   1      43.900  30.535  28.993  1.00  0.00     0.029 A 
ATOM     44  C   UNL A   1      44.849  29.516  28.577  1.00  0.00     0.049 A 
ATOM     45  H   UNL A   1      44.446  27.473  28.346  1.00  0.00     0.167 HD
ATOM     46  C   UNL A   1      43.349  23.465  27.093  1.00  0.00     0.034 A 
ATOM     47  C   UNL A   1      46.178  29.634  28.301  1.00  0.00     0.034 A 
ATOM     48  C   UNL A   1      43.857  23.239  28.431  1.00  0.00     0.049 A 
ATOM     49  C   UNL A   1      46.764  28.279  28.455  1.00  0.00     0.074 A 
ATOM     50  C   UNL A   1      43.264  22.953  29.647  1.00  0.00     0.029 A 
ATOM     51  N   UNL A   1      45.110  23.722  28.742  1.00  0.00    -0.354 N 
ATOM     52  N   UNL A   1      46.821  27.658  29.601  1.00  0.00    -0.248 NA
ATOM     53  C   UNL A   1      46.801  27.415  27.284  1.00  0.00     0.031 C 
ATOM     54  C   UNL A   1      43.954  23.775  30.588  1.00  0.00     0.029 A 
ATOM     55  C   UNL A   1      44.997  24.423  29.921  1.00  0.00     0.049 A 
ATOM     56  H   UNL A   1      45.933  23.589  28.219  1.00  0.00     0.167 HD
ATOM     57  C   UNL A   1      46.437  26.357  29.322  1.00  0.00     0.074 A 
ATOM     58  C   UNL A   1      46.530  26.242  27.866  1.00  0.00     0.031 C 
ATOM     59  C   UNL A   1      45.803  25.584  30.257  1.00  0.00     0.034 A 
BRANCH  46  60
ATOM     60  C   UNL A   1      44.057  22.926  25.868  1.00  0.00     0.023 A 
ATOM     61  C   UNL A   1      44.079  21.528  25.698  1.00  0.00     0.031 A 
ATOM     62  C   UNL A   1      44.935  23.658  25.036  1.00  0.00     0.131 A 
ATOM     63  C   UNL A   1      45.000  20.919  24.830  1.00  0.00     0.055 A 
ATOM     64  C   UNL A   1      45.800  23.051  24.122  1.00  0.00     0.041 A 
ATOM     65  F   UNL A   1      45.079  24.984  25.122  1.00  0.00    -0.206 F 
ATOM     66  C   UNL A   1      45.861  21.671  24.038  1.00  0.00     0.022 A 
BRANCH  63  67
ATOM     67  S   UNL A   1      45.177  19.117  24.892  1.00  0.00     0.124 S 
ATOM     68  O   UNL A   1      45.121  18.769  23.476  1.00  0.00    -0.237 OA
ATOM     69  O   UNL A   1      46.474  18.966  25.544  1.00  0.00    -0.237 OA
ATOM     70  O   UNL A   1      44.027  18.692  25.687  1.00  0.00    -0.744 OA
ENDBRANCH  63  67
ENDBRANCH  46  60
BRANCH  47  71
ATOM     71  C   UNL A   1      46.874  30.759  27.606  1.00  0.00     0.023 A 
ATOM     72  C   UNL A   1      46.195  31.797  26.925  1.00  0.00     0.031 A 
ATOM     73  C   UNL A   1      48.256  30.956  27.832  1.00  0.00     0.131 A 
ATOM     74  C   UNL A   1      46.895  32.960  26.512  1.00  0.00     0.055 A 
ATOM     75  C   UNL A   1      48.937  32.105  27.427  1.00  0.00     0.041 A 
ATOM     76  F   UNL A   1      48.977  30.070  28.539  1.00  0.00    -0.206 F 
ATOM     77  C   UNL A   1      48.257  33.119  26.774  1.00  0.00     0.022 A 
BRANCH  74  78
ATOM     78  S   UNL A   1      46.022  34.344  25.698  1.00  0.00     0.124 S 
ATOM     79  O   UNL A   1      47.088  34.977  24.931  1.00  0.00    -0.237 OA
ATOM     80  O   UNL A   1      44.987  33.659  24.932  1.00  0.00    -0.237 OA
ATOM     81  O   UNL A   1      45.522  35.141  26.821  1.00  0.00    -0.744 OA
ENDBRANCH  74  78
ENDBRANCH  47  71
BRANCH  59  82
ATOM     82  C   UNL A   1      45.771  26.063  31.701  1.00  0.00     0.023 A 
ATOM     83  C   UNL A   1      44.665  26.670  32.340  1.00  0.00     0.031 A 
ATOM     84  C   UNL A   1      46.905  25.798  32.492  1.00  0.00     0.131 A 
ATOM     85  C   UNL A   1      44.733  27.010  33.708  1.00  0.00     0.055 A 
ATOM     86  C   UNL A   1      46.959  26.109  33.849  1.00  0.00     0.041 A 
ATOM     87  F   UNL A   1      47.986  25.205  31.957  1.00  0.00    -0.206 F 
ATOM     88  C   UNL A   1      45.877  26.726  34.462  1.00  0.00     0.022 A 
BRANCH  85  89
ATOM     89  S   UNL A   1      43.354  27.871  34.535  1.00  0.00     0.124 S 
ATOM     90  O   UNL A   1      43.728  27.851  35.944  1.00  0.00    -0.237 OA
ATOM     91  O   UNL A   1      43.369  29.183  33.891  1.00  0.00    -0.237 OA
ATOM     92  O   UNL A   1      42.192  27.045  34.201  1.00  0.00    -0.744 OA
ENDBRANCH  85  89
ENDBRANCH  59  82
ENDBRANCH  33  34
ENDBRANCH  25  28
ENDBRANCH  23  24
ENDBRANCH  22  23
ENDBRANCH   1  22
TORSDOF 17
ENDMDL
MODEL 2
REMARK VINA RESULT:     -12.4      1.539      2.073
REMARK SMILES CCOc1ccc(-n2ncc(C(=O)NCCCCNC(=O)c3ccc(-c4c5nc(c(-c6cc(S(=O)(=O)[O-])ccc6F)c6ccc([nH]6)c(-c6cc(S(=O)(=O)[O-])ccc6F)c6nc(c(-c7cc(S(=O)(=O)[O-])ccc7F)c7ccc4[nH]7)C=C6)C=C5)cc3)c2C)nn1
REMARK SMILES IDX 16 1 15 2 14 3 12 4 13 5 11 7 8 8 9 9 85 10 10 11 86 12 7 13
REMARK SMILES IDX 4 14 5 15 88 16 6 17 87 18 3 19 2 20 1 21 17 22 18 23 19 24
REMARK SMILES IDX 20 25 21 27 22 28 23 29 84 30 24 31 83 32 25 33 26 34 27 35
REMARK SMILES IDX 77 36 28 37 82 38 76 39 78 40 29 41 81 42 75 43 74 44 30 46
REMARK SMILES IDX 62 47 42 48 61 49 43 50 46 51 60 52 79 53 44 54 45 55 59 57
REMARK SMILES IDX 80 58 47 59 31 60 32 61 40 62 33 63 39 64 41 65 38 66 34 67
REMARK SMILES IDX 35 68 36 69 37 70 63 71 64 72 72 73 65 74 71 75 73 76 70 77
REMARK SMILES IDX 66 78 67 79 68 80 69 81 48 82 49 83 57 84 50 85 56 86 58 87
REMARK SMILES IDX 55 88 51 89 52 90 53 91 54 92
REMARK H PARENT 14 6 19 26 78 45 46 56
REMARK Flexibility Score: inf
ROOT
ATOM      1  C   UNL A   1      33.240  28.114  26.364  1.00  0.00     0.023 C 
ENDROOT
BRANCH   1   2
ATOM      2  C   UNL A   1      32.738  28.202  24.921  1.00  0.00     0.116 C 
BRANCH   2   3
ATOM      3  N   UNL A   1      31.679  27.249  24.660  1.00  0.00    -0.352 N 
ATOM      4  C   UNL A   1      31.637  25.971  24.169  1.00  0.00     0.254 C 
ATOM      5  O   UNL A   1      30.508  25.501  24.016  1.00  0.00    -0.269 OA
ATOM      6  H   UNL A   1      30.787  27.599  24.887  1.00  0.00     0.163 HD
BRANCH   4   7
ATOM      7  C   UNL A   1      32.833  25.185  23.865  1.00  0.00     0.081 A 
ATOM      8  N   UNL A   1      34.683  23.951  24.160  1.00  0.00    -0.217 N 
ATOM      9  N   UNL A   1      34.672  24.282  22.843  1.00  0.00    -0.174 NA
ATOM     10  C   UNL A   1      33.581  24.476  24.818  1.00  0.00     0.056 A 
ATOM     11  C   UNL A   1      33.540  24.956  22.673  1.00  0.00     0.149 A 
ATOM     12  C   UNL A   1      33.357  24.377  26.290  1.00  0.00     0.068 C 
BRANCH   8  13
ATOM     13  C   UNL A   1      35.760  23.154  24.645  1.00  0.00     0.176 A 
ATOM     14  C   UNL A   1      37.887  21.708  25.481  1.00  0.00     0.233 A 
ATOM     15  C   UNL A   1      37.852  23.048  25.801  1.00  0.00     0.074 A 
ATOM     16  N   UNL A   1      36.913  21.099  24.773  1.00  0.00    -0.110 NA
ATOM     17  C   UNL A   1      36.762  23.789  25.374  1.00  0.00     0.057 A 
ATOM     18  N   UNL A   1      35.823  21.830  24.364  1.00  0.00    -0.127 NA
BRANCH  14  19
ATOM     19  O   UNL A   1      38.998  20.975  25.814  1.00  0.00    -0.477 OA
BRANCH  19  20
ATOM     20  C   UNL A   1      40.046  21.832  26.273  1.00  0.00     0.228 C 
ATOM     21  C   UNL A   1      40.791  21.204  27.443  1.00  0.00     0.049 C 
ENDBRANCH  19  20
ENDBRANCH  14  19
ENDBRANCH   8  13
ENDBRANCH   4   7
ENDBRANCH   2   3
ENDBRANCH   1   2
BRANCH   1  22
ATOM     22  C   UNL A   1      33.968  29.369  26.877  1.00  0.00     0.023 C 
BRANCH  22  23
ATOM     23  C   UNL A   1      35.347  29.117  27.483  1.00  0.00     0.116 C 
BRANCH  23  24
ATOM     24  N   UNL A   1      35.515  29.723  28.802  1.00  0.00    -0.352 N 
ATOM     25  C   UNL A   1      36.516  29.476  29.729  1.00  0.00     0.251 C 
ATOM     26  H   UNL A   1      34.835  30.386  29.064  1.00  0.00     0.163 HD
ATOM     27  O   UNL A   1      36.331  29.694  30.915  1.00  0.00    -0.269 OA
BRANCH  25  28
ATOM     28  C   UNL A   1      37.810  28.953  29.244  1.00  0.00     0.039 A 
ATOM     29  C   UNL A   1      38.429  29.465  28.103  1.00  0.00     0.014 A 
ATOM     30  C   UNL A   1      38.417  27.946  29.987  1.00  0.00     0.014 A 
ATOM     31  C   UNL A   1      39.710  29.015  27.779  1.00  0.00     0.010 A 
ATOM     32  C   UNL A   1      39.729  27.611  29.755  1.00  0.00     0.010 A 
ATOM     33  C   UNL A   1      40.370  28.106  28.628  1.00  0.00    -0.014 A 
BRANCH  33  34
ATOM     34  C   UNL A   1      41.783  27.780  28.429  1.00  0.00     0.031 A 
ATOM     35  C   UNL A   1      42.009  26.511  27.686  1.00  0.00     0.074 A 
ATOM     36  C   UNL A   1      42.807  28.621  28.697  1.00  0.00     0.049 A 
ATOM     37  N   UNL A   1      42.442  25.397  28.170  1.00  0.00    -0.248 NA
ATOM     38  C   UNL A   1      41.542  26.407  26.295  1.00  0.00     0.031 C 
ATOM     39  C   UNL A   1      42.752  30.012  29.158  1.00  0.00     0.029 A 
ATOM     40  N   UNL A   1      44.145  28.429  28.515  1.00  0.00    -0.354 N 
ATOM     41  C   UNL A   1      42.555  24.526  27.092  1.00  0.00     0.074 A 
ATOM     42  C   UNL A   1      41.790  25.122  26.029  1.00  0.00     0.031 C 
ATOM     43  C   UNL A   1      43.959  30.598  28.994  1.00  0.00     0.029 A 
ATOM     44  C   UNL A   1      44.918  29.589  28.580  1.00  0.00     0.049 A 
ATOM     45  H   UNL A   1      44.535  27.541  28.351  1.00  0.00     0.167 HD
ATOM     46  C   UNL A   1      43.476  23.522  27.102  1.00  0.00     0.034 A 
ATOM     47  C   UNL A   1      46.247  29.719  28.306  1.00  0.00     0.034 A 
ATOM     48  C   UNL A   1      43.984  23.302  28.440  1.00  0.00     0.049 A 
ATOM     49  C   UNL A   1      46.845  28.369  28.462  1.00  0.00     0.074 A 
ATOM     50  C   UNL A   1      43.392  23.012  29.656  1.00  0.00     0.029 A 
ATOM     51  N   UNL A   1      45.233  23.797  28.753  1.00  0.00    -0.354 N 
ATOM     52  N   UNL A   1      46.906  27.750  29.609  1.00  0.00    -0.248 NA
ATOM     53  C   UNL A   1      46.891  27.504  27.292  1.00  0.00     0.031 C 
ATOM     54  C   UNL A   1      44.074  23.842  30.597  1.00  0.00     0.029 A 
ATOM     55  C   UNL A   1      45.112  24.498  29.930  1.00  0.00     0.049 A 
ATOM     56  H   UNL A   1      46.057  23.671  28.230  1.00  0.00     0.167 HD
ATOM     57  C   UNL A   1      46.534  26.445  29.331  1.00  0.00     0.074 A 
ATOM     58  C   UNL A   1      46.631  26.329  27.875  1.00  0.00     0.031 C 
ATOM     59  C   UNL A   1      45.906  25.667  30.266  1.00  0.00     0.034 A 
BRANCH  46  60
ATOM     60  C   UNL A   1      44.190  22.988  25.878  1.00  0.00     0.023 A 
ATOM     61  C   UNL A   1      44.187  21.593  25.687  1.00  0.00     0.031 A 
ATOM     62  C   UNL A   1      45.094  23.715  25.070  1.00  0.00     0.131 A 
ATOM     63  C   UNL A   1      45.108  20.979  24.821  1.00  0.00     0.055 A 
ATOM     64  C   UNL A   1      45.960  23.105  24.159  1.00  0.00     0.041 A 
ATOM     65  F   UNL A   1      45.264  25.036  25.179  1.00  0.00    -0.206 F 
ATOM     66  C   UNL A   1      45.996  21.726  24.053  1.00  0.00     0.022 A 
BRANCH  63  67
ATOM     67  S   UNL A   1      45.248  19.173  24.857  1.00  0.00     0.124 S 
ATOM     68  O   UNL A   1      44.058  18.803  25.615  1.00  0.00    -0.237 OA
ATOM     69  O   UNL A   1      45.237  18.843  23.436  1.00  0.00    -0.237 OA
ATOM     70  O   UNL A   1      46.521  18.946  25.540  1.00  0.00    -0.744 OA
ENDBRANCH  63  67
ENDBRANCH  46  60
BRANCH  47  71
ATOM     71  C   UNL A   1      46.933  30.849  27.610  1.00  0.00     0.023 A 
ATOM     72  C   UNL A   1      46.249  31.951  27.046  1.00  0.00     0.031 A 
ATOM     73  C   UNL A   1      48.337  30.973  27.723  1.00  0.00     0.131 A 
ATOM     74  C   UNL A   1      46.964  33.104  26.632  1.00  0.00     0.055 A 
ATOM     75  C   UNL A   1      49.035  32.113  27.318  1.00  0.00     0.041 A 
ATOM     76  F   UNL A   1      49.073  30.020  28.318  1.00  0.00    -0.206 F 
ATOM     77  C   UNL A   1      48.350  33.189  26.780  1.00  0.00     0.022 A 
BRANCH  74  78
ATOM     78  S   UNL A   1      46.092  34.566  25.969  1.00  0.00     0.124 S 
ATOM     79  O   UNL A   1      46.545  35.629  26.858  1.00  0.00    -0.237 OA
ATOM     80  O   UNL A   1      46.568  34.622  24.593  1.00  0.00    -0.237 OA
ATOM     81  O   UNL A   1      44.677  34.213  26.111  1.00  0.00    -0.744 OA
ENDBRANCH  74  78
ENDBRANCH  47  71
BRANCH  59  82
ATOM     82  C   UNL A   1      45.868  26.148  31.709  1.00  0.00     0.023 A 
ATOM     83  C   UNL A   1      44.775  26.796  32.330  1.00  0.00     0.031 A 
ATOM     84  C   UNL A   1      46.978  25.841  32.519  1.00  0.00     0.131 A 
ATOM     85  C   UNL A   1      44.833  27.133  33.700  1.00  0.00     0.055 A 
ATOM     86  C   UNL A   1      47.022  26.151  33.877  1.00  0.00     0.041 A 
ATOM     87  F   UNL A   1      48.046  25.208  32.002  1.00  0.00    -0.206 F 
ATOM     88  C   UNL A   1      45.953  26.807  34.472  1.00  0.00     0.022 A 
BRANCH  85  89
ATOM     89  S   UNL A   1      43.473  28.045  34.503  1.00  0.00     0.124 S 
ATOM     90  O   UNL A   1      44.159  29.038  35.321  1.00  0.00    -0.237 OA
ATOM     91  O   UNL A   1      42.725  28.566  33.362  1.00  0.00    -0.237 OA
ATOM     92  O   UNL A   1      42.774  27.007  35.264  1.00  0.00    -0.744 OA
ENDBRANCH  85  89
ENDBRANCH  59  82
ENDBRANCH  33  34
ENDBRANCH  25  28
ENDBRANCH  23  24
ENDBRANCH  22  23
ENDBRANCH   1  22
TORSDOF 17
ENDMDL
MODEL 3
REMARK VINA RESULT:     -12.0      4.398      6.583
REMARK SMILES CCOc1ccc(-n2ncc(C(=O)NCCCCNC(=O)c3ccc(-c4c5nc(c(-c6cc(S(=O)(=O)[O-])ccc6F)c6ccc([nH]6)c(-c6cc(S(=O)(=O)[O-])ccc6F)c6nc(c(-c7cc(S(=O)(=O)[O-])ccc7F)c7ccc4[nH]7)C=C6)C=C5)cc3)c2C)nn1
REMARK SMILES IDX 16 1 15 2 14 3 12 4 13 5 11 7 8 8 9 9 85 10 10 11 86 12 7 13
REMARK SMILES IDX 4 14 5 15 88 16 6 17 87 18 3 19 2 20 1 21 17 22 18 23 19 24
REMARK SMILES IDX 20 25 21 27 22 28 23 29 84 30 24 31 83 32 25 33 26 34 27 35
REMARK SMILES IDX 77 36 28 37 82 38 76 39 78 40 29 41 81 42 75 43 74 44 30 46
REMARK SMILES IDX 62 47 42 48 61 49 43 50 46 51 60 52 79 53 44 54 45 55 59 57
REMARK SMILES IDX 80 58 47 59 31 60 32 61 40 62 33 63 39 64 41 65 38 66 34 67
REMARK SMILES IDX 35 68 36 69 37 70 63 71 64 72 72 73 65 74 71 75 73 76 70 77
REMARK SMILES IDX 66 78 67 79 68 80 69 81 48 82 49 83 57 84 50 85 56 86 58 87
REMARK SMILES IDX 55 88 51 89 52 90 53 91 54 92
REMARK H PARENT 14 6 19 26 78 45 46 56
REMARK Flexibility Score: inf
ROOT
ATOM      1  C   UNL A   1      38.201  30.471  33.774  1.00  0.00     0.023 C 
ENDROOT
BRANCH   1   2
ATOM      2  C   UNL A   1      39.198  31.529  33.297  1.00  0.00     0.116 C 
BRANCH   2   3
ATOM      3  N   UNL A   1      38.897  32.838  33.840  1.00  0.00    -0.352 N 
ATOM      4  C   UNL A   1      38.346  33.985  33.332  1.00  0.00     0.254 C 
ATOM      5  O   UNL A   1      38.322  34.945  34.104  1.00  0.00    -0.269 OA
ATOM      6  H   UNL A   1      39.142  32.922  34.790  1.00  0.00     0.163 HD
BRANCH   4   7
ATOM      7  C   UNL A   1      37.794  34.083  31.981  1.00  0.00     0.081 A 
ATOM      8  N   UNL A   1      36.342  33.958  30.276  1.00  0.00    -0.217 N 
ATOM      9  N   UNL A   1      37.548  34.213  29.708  1.00  0.00    -0.174 NA
ATOM     10  C   UNL A   1      36.445  33.876  31.657  1.00  0.00     0.056 A 
ATOM     11  C   UNL A   1      38.383  34.348  30.733  1.00  0.00     0.149 A 
ATOM     12  C   UNL A   1      35.318  33.504  32.562  1.00  0.00     0.068 C 
BRANCH   8  13
ATOM     13  C   UNL A   1      35.209  33.826  29.421  1.00  0.00     0.176 A 
ATOM     14  C   UNL A   1      32.981  33.570  27.911  1.00  0.00     0.233 A 
ATOM     15  C   UNL A   1      33.140  34.733  28.633  1.00  0.00     0.074 A 
ATOM     16  N   UNL A   1      33.881  32.566  27.932  1.00  0.00    -0.110 NA
ATOM     17  C   UNL A   1      34.282  34.865  29.406  1.00  0.00     0.057 A 
ATOM     18  N   UNL A   1      35.024  32.705  28.685  1.00  0.00    -0.127 NA
BRANCH  14  19
ATOM     19  O   UNL A   1      31.816  33.378  27.211  1.00  0.00    -0.477 OA
BRANCH  19  20
ATOM     20  C   UNL A   1      31.662  32.001  26.862  1.00  0.00     0.228 C 
ATOM     21  C   UNL A   1      30.702  31.839  25.691  1.00  0.00     0.049 C 
ENDBRANCH  19  20
ENDBRANCH  14  19
ENDBRANCH   8  13
ENDBRANCH   4   7
ENDBRANCH   2   3
ENDBRANCH   1   2
BRANCH   1  22
ATOM     22  C   UNL A   1      37.434  29.748  32.653  1.00  0.00     0.023 C 
BRANCH  22  23
ATOM     23  C   UNL A   1      37.385  30.486  31.318  1.00  0.00     0.116 C 
BRANCH  23  24
ATOM     24  N   UNL A   1      36.345  29.987  30.422  1.00  0.00    -0.352 N 
ATOM     25  C   UNL A   1      36.497  29.492  29.135  1.00  0.00     0.251 C 
ATOM     26  H   UNL A   1      35.426  30.004  30.774  1.00  0.00     0.163 HD
ATOM     27  O   UNL A   1      35.565  29.512  28.349  1.00  0.00    -0.269 OA
BRANCH  25  28
ATOM     28  C   UNL A   1      37.810  28.936  28.747  1.00  0.00     0.039 A 
ATOM     29  C   UNL A   1      38.535  29.445  27.669  1.00  0.00     0.014 A 
ATOM     30  C   UNL A   1      38.323  27.897  29.518  1.00  0.00     0.014 A 
ATOM     31  C   UNL A   1      39.823  28.959  27.442  1.00  0.00     0.010 A 
ATOM     32  C   UNL A   1      39.638  27.524  29.387  1.00  0.00     0.010 A 
ATOM     33  C   UNL A   1      40.384  28.016  28.324  1.00  0.00    -0.014 A 
BRANCH  33  34
ATOM     34  C   UNL A   1      41.797  27.648  28.234  1.00  0.00     0.031 A 
ATOM     35  C   UNL A   1      42.045  26.390  27.480  1.00  0.00     0.074 A 
ATOM     36  C   UNL A   1      42.822  28.448  28.606  1.00  0.00     0.049 A 
ATOM     37  N   UNL A   1      42.401  25.251  27.969  1.00  0.00    -0.248 NA
ATOM     38  C   UNL A   1      41.691  26.332  26.053  1.00  0.00     0.031 C 
ATOM     39  C   UNL A   1      42.772  29.830  29.096  1.00  0.00     0.029 A 
ATOM     40  N   UNL A   1      44.163  28.216  28.530  1.00  0.00    -0.354 N 
ATOM     41  C   UNL A   1      42.576  24.401  26.883  1.00  0.00     0.074 A 
ATOM     42  C   UNL A   1      41.920  25.046  25.776  1.00  0.00     0.031 C 
ATOM     43  C   UNL A   1      44.006  30.379  29.046  1.00  0.00     0.029 A 
ATOM     44  C   UNL A   1      44.964  29.347  28.687  1.00  0.00     0.049 A 
ATOM     45  H   UNL A   1      44.537  27.320  28.376  1.00  0.00     0.167 HD
ATOM     46  C   UNL A   1      43.461  23.367  26.943  1.00  0.00     0.034 A 
ATOM     47  C   UNL A   1      46.314  29.439  28.527  1.00  0.00     0.034 A 
ATOM     48  C   UNL A   1      43.849  23.100  28.313  1.00  0.00     0.049 A 
ATOM     49  C   UNL A   1      46.855  28.067  28.698  1.00  0.00     0.074 A 
ATOM     50  C   UNL A   1      43.150  22.803  29.469  1.00  0.00     0.029 A 
ATOM     51  N   UNL A   1      45.082  23.546  28.739  1.00  0.00    -0.354 N 
ATOM     52  N   UNL A   1      46.802  27.421  29.830  1.00  0.00    -0.248 NA
ATOM     53  C   UNL A   1      46.971  27.228  27.514  1.00  0.00     0.031 C 
ATOM     54  C   UNL A   1      43.777  23.588  30.483  1.00  0.00     0.029 A 
ATOM     55  C   UNL A   1      44.886  24.224  29.920  1.00  0.00     0.049 A 
ATOM     56  H   UNL A   1      45.943  23.405  28.284  1.00  0.00     0.167 HD
ATOM     57  C   UNL A   1      46.413  26.135  29.489  1.00  0.00     0.074 A 
ATOM     58  C   UNL A   1      46.627  26.050  28.044  1.00  0.00     0.031 C 
ATOM     59  C   UNL A   1      45.686  25.359  30.350  1.00  0.00     0.034 A 
BRANCH  46  60
ATOM     60  C   UNL A   1      44.257  22.838  25.769  1.00  0.00     0.023 A 
ATOM     61  C   UNL A   1      44.309  21.440  25.602  1.00  0.00     0.031 A 
ATOM     62  C   UNL A   1      45.181  23.580  24.999  1.00  0.00     0.131 A 
ATOM     63  C   UNL A   1      45.295  20.843  24.799  1.00  0.00     0.055 A 
ATOM     64  C   UNL A   1      46.113  22.985  24.146  1.00  0.00     0.041 A 
ATOM     65  F   UNL A   1      45.302  24.909  25.094  1.00  0.00    -0.206 F 
ATOM     66  C   UNL A   1      46.198  21.606  24.067  1.00  0.00     0.022 A 
BRANCH  63  67
ATOM     67  S   UNL A   1      45.490  19.044  24.874  1.00  0.00     0.124 S 
ATOM     68  O   UNL A   1      45.634  18.706  23.462  1.00  0.00    -0.237 OA
ATOM     69  O   UNL A   1      46.688  18.906  25.696  1.00  0.00    -0.237 OA
ATOM     70  O   UNL A   1      44.249  18.595  25.502  1.00  0.00    -0.744 OA
ENDBRANCH  63  67
ENDBRANCH  46  60
BRANCH  47  71
ATOM     71  C   UNL A   1      47.091  30.562  27.919  1.00  0.00     0.023 A 
ATOM     72  C   UNL A   1      46.500  31.604  27.167  1.00  0.00     0.031 A 
ATOM     73  C   UNL A   1      48.439  30.751  28.302  1.00  0.00     0.131 A 
ATOM     74  C   UNL A   1      47.248  32.765  26.839  1.00  0.00     0.055 A 
ATOM     75  C   UNL A   1      49.168  31.898  27.981  1.00  0.00     0.041 A 
ATOM     76  F   UNL A   1      49.069  29.861  29.085  1.00  0.00    -0.206 F 
ATOM     77  C   UNL A   1      48.572  32.916  27.256  1.00  0.00     0.022 A 
BRANCH  74  78
ATOM     78  S   UNL A   1      46.481  34.154  25.933  1.00  0.00     0.124 S 
ATOM     79  O   UNL A   1      47.598  34.669  25.150  1.00  0.00    -0.237 OA
ATOM     80  O   UNL A   1      45.413  33.496  25.190  1.00  0.00    -0.237 OA
ATOM     81  O   UNL A   1      46.021  35.045  27.000  1.00  0.00    -0.744 OA
ENDBRANCH  74  78
ENDBRANCH  47  71
BRANCH  59  82
ATOM     82  C   UNL A   1      45.544  25.807  31.797  1.00  0.00     0.023 A 
ATOM     83  C   UNL A   1      46.490  25.579  32.824  1.00  0.00     0.031 A 
ATOM     84  C   UNL A   1      44.422  26.593  32.119  1.00  0.00     0.131 A 
ATOM     85  C   UNL A   1      46.277  26.106  34.115  1.00  0.00     0.055 A 
ATOM     86  C   UNL A   1      44.228  27.136  33.388  1.00  0.00     0.041 A 
ATOM     87  F   UNL A   1      43.491  26.869  31.189  1.00  0.00    -0.206 F 
ATOM     88  C   UNL A   1      45.151  26.887  34.396  1.00  0.00     0.022 A 
BRANCH  85  89
ATOM     89  S   UNL A   1      47.437  25.754  35.479  1.00  0.00     0.124 S 
ATOM     90  O   UNL A   1      48.266  24.674  34.956  1.00  0.00    -0.237 OA
ATOM     91  O   UNL A   1      48.106  27.039  35.664  1.00  0.00    -0.237 OA
ATOM     92  O   UNL A   1      46.554  25.364  36.580  1.00  0.00    -0.744 OA
ENDBRANCH  85  89
ENDBRANCH  59  82
ENDBRANCH  33  34
ENDBRANCH  25  28
ENDBRANCH  23  24
ENDBRANCH  22  23
ENDBRANCH   1  22
TORSDOF 17
ENDMDL
