MODEL 1
REMARK VINA RESULT:     -13.0      0.000      0.000
REMARK SMILES COc1ccc2c(c1C)OC(=O)[C@@H](CC(=O)N[C@@H](CC1=c3ccccc3=NC1)C(=O)NCCCCNC(=O)c1ccc(-c3c4nc(c(-c5cc(S(=O)(=O)[O-])ccc5F)c5ccc([nH]5)c(-c5cc(S(=O)(=O)[O-])ccc5F)c5nc(c(-c6cc(S(=O)(=O)[O-])ccc6F)c6ccc3[nH]6)C=C5)C=C4)cc1)[C@H]2C
REMARK SMILES IDX 33 1 32 2 31 3 29 4 30 5 18 7 17 8 15 9 16 10 14 12 13 13
REMARK SMILES IDX 3 14 4 15 8 16 5 17 7 18 9 19 6 20 10 21 102 22 11 23 103 24
REMARK SMILES IDX 12 25 2 26 1 27 19 28 20 29 21 30 28 31 22 32 26 33 27 34
REMARK SMILES IDX 23 35 25 36 24 37 34 38 35 39 36 40 37 41 38 43 39 44 40 45
REMARK SMILES IDX 101 46 41 47 100 48 42 49 43 50 44 51 94 52 45 53 99 54
REMARK SMILES IDX 93 55 95 56 46 57 98 58 92 59 91 60 47 62 79 63 59 64 78 65
REMARK SMILES IDX 60 66 63 67 77 68 96 69 61 70 62 71 76 73 97 74 64 75 48 76
REMARK SMILES IDX 49 77 57 78 50 79 56 80 58 81 55 82 51 83 52 84 53 85 54 86
REMARK SMILES IDX 80 87 81 88 89 89 82 90 88 91 90 92 87 93 83 94 84 95 85 96
REMARK SMILES IDX 86 97 65 98 66 99 74 100 67 101 73 102 75 103 72 104 68 105
REMARK SMILES IDX 69 106 70 107 71 108
REMARK H PARENT 31 6 17 11 36 42 95 61 63 72
REMARK Flexibility Score: inf
ROOT
ATOM      1  C   UNL A   1      37.171  21.885  25.233  1.00  0.00     0.023 C 
ENDROOT
BRANCH   1   2
ATOM      2  C   UNL A   1      35.729  21.474  25.473  1.00  0.00     0.116 C 
BRANCH   2   3
ATOM      3  N   UNL A   1      35.178  21.870  26.747  1.00  0.00    -0.354 N 
ATOM      4  C   UNL A   1      33.943  22.378  27.028  1.00  0.00     0.242 C 
ATOM      5  O   UNL A   1      33.536  22.275  28.190  1.00  0.00    -0.273 OA
ATOM      6  H   UNL A   1      35.776  21.760  27.521  1.00  0.00     0.163 HD
BRANCH   4   7
ATOM      7  C   UNL A   1      33.007  22.980  25.950  1.00  0.00     0.175 C 
BRANCH   7   8
ATOM      8  N   UNL A   1      33.713  23.689  24.878  1.00  0.00    -0.344 N 
ATOM      9  C   UNL A   1      34.034  24.997  24.708  1.00  0.00     0.221 C 
ATOM     10  O   UNL A   1      34.606  25.316  23.667  1.00  0.00    -0.275 OA
ATOM     11  H   UNL A   1      34.010  23.108  24.142  1.00  0.00     0.164 HD
BRANCH   9  12
ATOM     12  C   UNL A   1      33.731  26.014  25.781  1.00  0.00     0.116 C 
BRANCH  12  13
ATOM     13  C   UNL A   1      32.884  27.188  25.283  1.00  0.00     0.116 C 
ATOM     14  C   UNL A   1      29.392  30.117  23.251  1.00  0.00     0.125 A 
ATOM     15  C   UNL A   1      29.247  28.875  22.620  1.00  0.00     0.047 A 
ATOM     16  C   UNL A   1      30.267  30.267  24.338  1.00  0.00     0.034 A 
ATOM     17  C   UNL A   1      29.939  27.760  23.088  1.00  0.00     0.012 A 
ATOM     18  C   UNL A   1      30.943  29.127  24.796  1.00  0.00     0.140 A 
ATOM     19  C   UNL A   1      30.507  31.600  24.989  1.00  0.00     0.052 C 
ATOM     20  C   UNL A   1      30.790  27.879  24.187  1.00  0.00    -0.001 A 
ATOM     21  O   UNL A   1      31.765  29.255  25.941  1.00  0.00    -0.426 OA
ATOM     22  C   UNL A   1      31.544  26.693  24.718  1.00  0.00     0.035 C 
ATOM     23  C   UNL A   1      32.633  28.240  26.345  1.00  0.00     0.315 C 
ATOM     24  C   UNL A   1      30.688  25.916  25.722  1.00  0.00     0.014 C 
ATOM     25  O   UNL A   1      33.203  28.285  27.427  1.00  0.00    -0.251 OA
BRANCH  14  26
ATOM     26  O   UNL A   1      28.731  31.231  22.795  1.00  0.00    -0.496 OA
ATOM     27  C   UNL A   1      28.181  31.058  21.490  1.00  0.00     0.278 C 
ENDBRANCH  14  26
ENDBRANCH  12  13
ENDBRANCH   9  12
ENDBRANCH   7   8
BRANCH   7  28
ATOM     28  C   UNL A   1      31.900  22.006  25.444  1.00  0.00     0.068 C 
BRANCH  28  29
ATOM     29  C   UNL A   1      32.241  21.009  24.374  1.00  0.00    -0.037 C 
ATOM     30  C   UNL A   1      32.667  19.749  24.483  1.00  0.00     0.001 A 
ATOM     31  C   UNL A   1      32.041  21.364  22.927  1.00  0.00     0.174 C 
ATOM     32  C   UNL A   1      33.021  18.882  25.559  1.00  0.00     0.010 A 
ATOM     33  C   UNL A   1      32.484  19.235  23.112  1.00  0.00     0.065 A 
ATOM     34  N   UNL A   1      32.149  20.085  22.192  1.00  0.00    -0.280 NA
ATOM     35  C   UNL A   1      33.077  17.559  25.334  1.00  0.00     0.001 A 
ATOM     36  C   UNL A   1      32.579  17.769  22.938  1.00  0.00     0.028 A 
ATOM     37  C   UNL A   1      32.823  17.004  24.017  1.00  0.00     0.002 A 
ENDBRANCH  28  29
ENDBRANCH   7  28
ENDBRANCH   4   7
ENDBRANCH   2   3
ENDBRANCH   1   2
BRANCH   1  38
ATOM     38  C   UNL A   1      38.160  20.732  25.135  1.00  0.00     0.023 C 
BRANCH  38  39
ATOM     39  C   UNL A   1      39.339  20.794  26.101  1.00  0.00     0.116 C 
BRANCH  39  40
ATOM     40  N   UNL A   1      40.203  19.614  26.047  1.00  0.00    -0.352 N 
ATOM     41  C   UNL A   1      41.577  19.549  26.080  1.00  0.00     0.251 C 
ATOM     42  H   UNL A   1      39.737  18.749  25.977  1.00  0.00     0.163 HD
ATOM     43  O   UNL A   1      42.167  18.504  25.898  1.00  0.00    -0.269 OA
BRANCH  41  44
ATOM     44  C   UNL A   1      42.316  20.808  26.318  1.00  0.00     0.039 A 
ATOM     45  C   UNL A   1      42.652  21.616  25.231  1.00  0.00     0.014 A 
ATOM     46  C   UNL A   1      42.553  21.228  27.630  1.00  0.00     0.014 A 
ATOM     47  C   UNL A   1      43.144  22.900  25.466  1.00  0.00     0.010 A 
ATOM     48  C   UNL A   1      42.972  22.531  27.859  1.00  0.00     0.010 A 
ATOM     49  C   UNL A   1      43.260  23.382  26.780  1.00  0.00    -0.014 A 
BRANCH  49  50
ATOM     50  C   UNL A   1      43.661  24.783  27.056  1.00  0.00     0.031 A 
ATOM     51  C   UNL A   1      45.094  25.194  26.893  1.00  0.00     0.074 A 
ATOM     52  C   UNL A   1      42.754  25.653  27.542  1.00  0.00     0.049 A 
ATOM     53  N   UNL A   1      45.652  26.349  27.142  1.00  0.00    -0.248 NA
ATOM     54  C   UNL A   1      46.031  24.162  26.416  1.00  0.00     0.031 C 
ATOM     55  C   UNL A   1      41.348  25.345  27.810  1.00  0.00     0.029 A 
ATOM     56  N   UNL A   1      42.882  26.969  27.915  1.00  0.00    -0.354 N 
ATOM     57  C   UNL A   1      47.003  26.181  26.867  1.00  0.00     0.074 A 
ATOM     58  C   UNL A   1      47.191  24.799  26.486  1.00  0.00     0.031 C 
ATOM     59  C   UNL A   1      40.742  26.443  28.288  1.00  0.00     0.029 A 
ATOM     60  C   UNL A   1      41.717  27.526  28.388  1.00  0.00     0.049 A 
ATOM     61  H   UNL A   1      43.730  27.466  27.850  1.00  0.00     0.167 HD
ATOM     62  C   UNL A   1      47.991  27.103  26.902  1.00  0.00     0.034 A 
ATOM     63  C   UNL A   1      41.463  28.768  28.849  1.00  0.00     0.034 A 
ATOM     64  C   UNL A   1      47.787  28.483  27.251  1.00  0.00     0.049 A 
ATOM     65  C   UNL A   1      42.571  29.789  28.846  1.00  0.00     0.074 A 
ATOM     66  C   UNL A   1      48.710  29.512  27.237  1.00  0.00     0.029 A 
ATOM     67  N   UNL A   1      46.583  29.025  27.671  1.00  0.00    -0.354 N 
ATOM     68  N   UNL A   1      43.821  29.645  28.474  1.00  0.00    -0.248 NA
ATOM     69  C   UNL A   1      42.239  31.144  29.312  1.00  0.00     0.031 C 
ATOM     70  C   UNL A   1      48.072  30.672  27.682  1.00  0.00     0.029 A 
ATOM     71  C   UNL A   1      46.741  30.375  27.934  1.00  0.00     0.049 A 
ATOM     72  H   UNL A   1      45.740  28.525  27.768  1.00  0.00     0.167 HD
ATOM     73  C   UNL A   1      44.417  30.892  28.635  1.00  0.00     0.074 A 
ATOM     74  C   UNL A   1      43.387  31.784  29.126  1.00  0.00     0.031 C 
ATOM     75  C   UNL A   1      45.701  31.260  28.399  1.00  0.00     0.034 A 
BRANCH  62  76
ATOM     76  C   UNL A   1      49.378  26.666  26.517  1.00  0.00     0.023 A 
ATOM     77  C   UNL A   1      49.942  27.091  25.302  1.00  0.00     0.031 A 
ATOM     78  C   UNL A   1      50.104  25.765  27.317  1.00  0.00     0.131 A 
ATOM     79  C   UNL A   1      51.197  26.602  24.915  1.00  0.00     0.055 A 
ATOM     80  C   UNL A   1      51.365  25.306  26.941  1.00  0.00     0.041 A 
ATOM     81  F   UNL A   1      49.603  25.337  28.488  1.00  0.00    -0.206 F 
ATOM     82  C   UNL A   1      51.914  25.720  25.731  1.00  0.00     0.022 A 
BRANCH  79  83
ATOM     83  S   UNL A   1      51.938  27.078  23.331  1.00  0.00     0.124 S 
ATOM     84  O   UNL A   1      50.806  26.944  22.417  1.00  0.00    -0.237 OA
ATOM     85  O   UNL A   1      52.369  28.447  23.596  1.00  0.00    -0.237 OA
ATOM     86  O   UNL A   1      53.006  26.104  23.136  1.00  0.00    -0.744 OA
ENDBRANCH  79  83
ENDBRANCH  62  76
BRANCH  63  87
ATOM     87  C   UNL A   1      40.077  29.117  29.268  1.00  0.00     0.023 A 
ATOM     88  C   UNL A   1      39.711  29.149  30.626  1.00  0.00     0.031 A 
ATOM     89  C   UNL A   1      39.074  29.322  28.305  1.00  0.00     0.131 A 
ATOM     90  C   UNL A   1      38.367  29.331  30.978  1.00  0.00     0.055 A 
ATOM     91  C   UNL A   1      37.747  29.559  28.663  1.00  0.00     0.041 A 
ATOM     92  F   UNL A   1      39.377  29.287  26.998  1.00  0.00    -0.206 F 
ATOM     93  C   UNL A   1      37.385  29.553  30.007  1.00  0.00     0.022 A 
BRANCH  90  94
ATOM     94  S   UNL A   1      37.833  29.203  32.707  1.00  0.00     0.124 S 
ATOM     95  O   UNL A   1      38.904  29.899  33.415  1.00  0.00    -0.237 OA
ATOM     96  O   UNL A   1      36.547  29.895  32.669  1.00  0.00    -0.237 OA
ATOM     97  O   UNL A   1      37.759  27.765  32.939  1.00  0.00    -0.744 OA
ENDBRANCH  90  94
ENDBRANCH  63  87
BRANCH  75  98
ATOM     98  C   UNL A   1      46.098  32.692  28.647  1.00  0.00     0.023 A 
ATOM     99  C   UNL A   1      46.241  33.578  27.562  1.00  0.00     0.031 A 
ATOM    100  C   UNL A   1      46.496  33.125  29.923  1.00  0.00     0.131 A 
ATOM    101  C   UNL A   1      46.811  34.839  27.767  1.00  0.00     0.055 A 
ATOM    102  C   UNL A   1      47.027  34.398  30.128  1.00  0.00     0.041 A 
ATOM    103  F   UNL A   1      46.386  32.309  30.983  1.00  0.00    -0.206 F 
ATOM    104  C   UNL A   1      47.199  35.257  29.045  1.00  0.00     0.022 A 
BRANCH 101 105
ATOM    105  S   UNL A   1      47.133  35.957  26.376  1.00  0.00     0.124 S 
ATOM    106  O   UNL A   1      48.592  35.942  26.305  1.00  0.00    -0.237 OA
ATOM    107  O   UNL A   1      46.448  35.284  25.277  1.00  0.00    -0.237 OA
ATOM    108  O   UNL A   1      46.548  37.225  26.800  1.00  0.00    -0.744 OA
ENDBRANCH 101 105
ENDBRANCH  75  98
ENDBRANCH  49  50
ENDBRANCH  41  44
ENDBRANCH  39  40
ENDBRANCH  38  39
ENDBRANCH   1  38
TORSDOF 20
ENDMDL
MODEL 2
REMARK VINA RESULT:     -12.7      1.781      2.197
REMARK SMILES COc1ccc2c(c1C)OC(=O)[C@@H](CC(=O)N[C@@H](CC1=c3ccccc3=NC1)C(=O)NCCCCNC(=O)c1ccc(-c3c4nc(c(-c5cc(S(=O)(=O)[O-])ccc5F)c5ccc([nH]5)c(-c5cc(S(=O)(=O)[O-])ccc5F)c5nc(c(-c6cc(S(=O)(=O)[O-])ccc6F)c6ccc3[nH]6)C=C5)C=C4)cc1)[C@H]2C
REMARK SMILES IDX 33 1 32 2 31 3 29 4 30 5 18 7 17 8 15 9 16 10 14 12 13 13
REMARK SMILES IDX 3 14 4 15 8 16 5 17 7 18 9 19 6 20 10 21 102 22 11 23 103 24
REMARK SMILES IDX 12 25 2 26 1 27 19 28 20 29 21 30 28 31 22 32 26 33 27 34
REMARK SMILES IDX 23 35 25 36 24 37 34 38 35 39 36 40 37 41 38 43 39 44 40 45
REMARK SMILES IDX 101 46 41 47 100 48 42 49 43 50 44 51 94 52 45 53 99 54
REMARK SMILES IDX 93 55 95 56 46 57 98 58 92 59 91 60 47 62 79 63 59 64 78 65
REMARK SMILES IDX 60 66 63 67 77 68 96 69 61 70 62 71 76 73 97 74 64 75 48 76
REMARK SMILES IDX 49 77 57 78 50 79 56 80 58 81 55 82 51 83 52 84 53 85 54 86
REMARK SMILES IDX 80 87 81 88 89 89 82 90 88 91 90 92 87 93 83 94 84 95 85 96
REMARK SMILES IDX 86 97 65 98 66 99 74 100 67 101 73 102 75 103 72 104 68 105
REMARK SMILES IDX 69 106 70 107 71 108
REMARK H PARENT 31 6 17 11 36 42 95 61 63 72
REMARK Flexibility Score: inf
ROOT
ATOM      1  C   UNL A   1      36.124  20.314  24.991  1.00  0.00     0.023 C 
ENDROOT
BRANCH   1   2
ATOM      2  C   UNL A   1      35.869  21.755  25.396  1.00  0.00     0.116 C 
BRANCH   2   3
ATOM      3  N   UNL A   1      35.232  21.933  26.679  1.00  0.00    -0.354 N 
ATOM      4  C   UNL A   1      33.948  22.302  26.955  1.00  0.00     0.242 C 
ATOM      5  O   UNL A   1      33.500  22.013  28.070  1.00  0.00    -0.273 OA
ATOM      6  H   UNL A   1      35.803  21.765  27.463  1.00  0.00     0.163 HD
BRANCH   4   7
ATOM      7  C   UNL A   1      33.013  22.971  25.916  1.00  0.00     0.175 C 
BRANCH   7   8
ATOM      8  N   UNL A   1      33.722  23.711  24.868  1.00  0.00    -0.344 N 
ATOM      9  C   UNL A   1      34.016  25.029  24.723  1.00  0.00     0.221 C 
ATOM     10  O   UNL A   1      34.601  25.375  23.697  1.00  0.00    -0.275 OA
ATOM     11  H   UNL A   1      34.047  23.148  24.129  1.00  0.00     0.164 HD
BRANCH   9  12
ATOM     12  C   UNL A   1      33.670  26.023  25.803  1.00  0.00     0.116 C 
BRANCH  12  13
ATOM     13  C   UNL A   1      32.844  27.208  25.297  1.00  0.00     0.116 C 
ATOM     14  C   UNL A   1      29.462  30.185  23.153  1.00  0.00     0.125 A 
ATOM     15  C   UNL A   1      29.373  28.968  22.464  1.00  0.00     0.047 A 
ATOM     16  C   UNL A   1      30.260  30.299  24.300  1.00  0.00     0.034 A 
ATOM     17  C   UNL A   1      30.046  27.842  22.933  1.00  0.00     0.012 A 
ATOM     18  C   UNL A   1      30.918  29.147  24.758  1.00  0.00     0.140 A 
ATOM     19  C   UNL A   1      30.440  31.606  25.019  1.00  0.00     0.052 C 
ATOM     20  C   UNL A   1      30.820  27.923  24.091  1.00  0.00    -0.001 A 
ATOM     21  O   UNL A   1      31.659  29.237  25.959  1.00  0.00    -0.426 OA
ATOM     22  C   UNL A   1      31.551  26.724  24.623  1.00  0.00     0.035 C 
ATOM     23  C   UNL A   1      32.511  28.214  26.380  1.00  0.00     0.315 C 
ATOM     24  C   UNL A   1      30.639  25.899  25.537  1.00  0.00     0.014 C 
ATOM     25  O   UNL A   1      33.007  28.220  27.499  1.00  0.00    -0.251 OA
BRANCH  14  26
ATOM     26  O   UNL A   1      28.820  31.310  22.698  1.00  0.00    -0.496 OA
ATOM     27  C   UNL A   1      28.066  31.080  21.508  1.00  0.00     0.278 C 
ENDBRANCH  14  26
ENDBRANCH  12  13
ENDBRANCH   9  12
ENDBRANCH   7   8
BRANCH   7  28
ATOM     28  C   UNL A   1      31.880  22.044  25.381  1.00  0.00     0.068 C 
BRANCH  28  29
ATOM     29  C   UNL A   1      32.217  21.001  24.354  1.00  0.00    -0.037 C 
ATOM     30  C   UNL A   1      32.610  19.736  24.516  1.00  0.00     0.001 A 
ATOM     31  C   UNL A   1      32.051  21.308  22.892  1.00  0.00     0.174 C 
ATOM     32  C   UNL A   1      32.924  18.901  25.629  1.00  0.00     0.010 A 
ATOM     33  C   UNL A   1      32.439  19.177  23.162  1.00  0.00     0.065 A 
ATOM     34  N   UNL A   1      32.142  20.000  22.205  1.00  0.00    -0.280 NA
ATOM     35  C   UNL A   1      32.952  17.569  25.453  1.00  0.00     0.001 A 
ATOM     36  C   UNL A   1      32.503  17.703  23.043  1.00  0.00     0.028 A 
ATOM     37  C   UNL A   1      32.709  16.973  24.152  1.00  0.00     0.002 A 
ENDBRANCH  28  29
ENDBRANCH   7  28
ENDBRANCH   4   7
ENDBRANCH   2   3
ENDBRANCH   1   2
BRANCH   1  38
ATOM     38  C   UNL A   1      37.589  19.954  24.784  1.00  0.00     0.023 C 
BRANCH  38  39
ATOM     39  C   UNL A   1      38.572  20.633  25.732  1.00  0.00     0.116 C 
BRANCH  39  40
ATOM     40  N   UNL A   1      39.780  19.846  25.984  1.00  0.00    -0.352 N 
ATOM     41  C   UNL A   1      40.987  20.260  26.498  1.00  0.00     0.251 C 
ATOM     42  H   UNL A   1      39.720  18.890  25.755  1.00  0.00     0.163 HD
ATOM     43  O   UNL A   1      41.949  19.520  26.534  1.00  0.00    -0.269 OA
BRANCH  41  44
ATOM     44  C   UNL A   1      41.083  21.654  26.981  1.00  0.00     0.039 A 
ATOM     45  C   UNL A   1      41.616  21.902  28.248  1.00  0.00     0.014 A 
ATOM     46  C   UNL A   1      40.758  22.704  26.118  1.00  0.00     0.014 A 
ATOM     47  C   UNL A   1      41.915  23.214  28.614  1.00  0.00     0.010 A 
ATOM     48  C   UNL A   1      41.125  24.000  26.457  1.00  0.00     0.010 A 
ATOM     49  C   UNL A   1      41.717  24.264  27.702  1.00  0.00    -0.014 A 
BRANCH  49  50
ATOM     50  C   UNL A   1      42.140  25.650  28.017  1.00  0.00     0.031 A 
ATOM     51  C   UNL A   1      43.587  26.030  27.912  1.00  0.00     0.074 A 
ATOM     52  C   UNL A   1      41.236  26.533  28.484  1.00  0.00     0.049 A 
ATOM     53  N   UNL A   1      44.161  27.168  28.201  1.00  0.00    -0.248 NA
ATOM     54  C   UNL A   1      44.516  24.985  27.451  1.00  0.00     0.031 C 
ATOM     55  C   UNL A   1      39.814  26.254  28.696  1.00  0.00     0.029 A 
ATOM     56  N   UNL A   1      41.380  27.840  28.884  1.00  0.00    -0.354 N 
ATOM     57  C   UNL A   1      45.517  26.973  27.972  1.00  0.00     0.074 A 
ATOM     58  C   UNL A   1      45.687  25.593  27.574  1.00  0.00     0.031 C 
ATOM     59  C   UNL A   1      39.216  27.358  29.170  1.00  0.00     0.029 A 
ATOM     60  C   UNL A   1      40.211  28.416  29.324  1.00  0.00     0.049 A 
ATOM     61  H   UNL A   1      42.240  28.318  28.858  1.00  0.00     0.167 HD
ATOM     62  C   UNL A   1      46.524  27.871  28.058  1.00  0.00     0.034 A 
ATOM     63  C   UNL A   1      39.969  29.656  29.797  1.00  0.00     0.034 A 
ATOM     64  C   UNL A   1      46.338  29.249  28.423  1.00  0.00     0.049 A 
ATOM     65  C   UNL A   1      41.100  30.651  29.851  1.00  0.00     0.074 A 
ATOM     66  C   UNL A   1      47.284  30.257  28.460  1.00  0.00     0.029 A 
ATOM     67  N   UNL A   1      45.132  29.813  28.809  1.00  0.00    -0.354 N 
ATOM     68  N   UNL A   1      42.358  30.484  29.521  1.00  0.00    -0.248 NA
ATOM     69  C   UNL A   1      40.781  32.006  30.327  1.00  0.00     0.031 C 
ATOM     70  C   UNL A   1      46.657  31.424  28.901  1.00  0.00     0.029 A 
ATOM     71  C   UNL A   1      45.312  31.154  29.100  1.00  0.00     0.049 A 
ATOM     72  H   UNL A   1      44.275  29.332  28.867  1.00  0.00     0.167 HD
ATOM     73  C   UNL A   1      42.976  31.714  29.726  1.00  0.00     0.074 A 
ATOM     74  C   UNL A   1      41.949  32.622  30.194  1.00  0.00     0.031 C 
ATOM     75  C   UNL A   1      44.276  32.056  29.542  1.00  0.00     0.034 A 
BRANCH  62  76
ATOM     76  C   UNL A   1      47.913  27.408  27.717  1.00  0.00     0.023 A 
ATOM     77  C   UNL A   1      48.418  27.584  26.416  1.00  0.00     0.031 A 
ATOM     78  C   UNL A   1      48.703  26.721  28.657  1.00  0.00     0.131 A 
ATOM     79  C   UNL A   1      49.678  27.066  26.089  1.00  0.00     0.055 A 
ATOM     80  C   UNL A   1      49.968  26.235  28.333  1.00  0.00     0.041 A 
ATOM     81  F   UNL A   1      48.260  26.536  29.912  1.00  0.00    -0.206 F 
ATOM     82  C   UNL A   1      50.458  26.401  27.042  1.00  0.00     0.022 A 
BRANCH  79  83
ATOM     83  S   UNL A   1      50.345  27.218  24.411  1.00  0.00     0.124 S 
ATOM     84  O   UNL A   1      50.583  28.657  24.311  1.00  0.00    -0.237 OA
ATOM     85  O   UNL A   1      51.545  26.391  24.484  1.00  0.00    -0.237 OA
ATOM     86  O   UNL A   1      49.276  26.709  23.560  1.00  0.00    -0.744 OA
ENDBRANCH  79  83
ENDBRANCH  62  76
BRANCH  63  87
ATOM     87  C   UNL A   1      38.576  30.031  30.171  1.00  0.00     0.023 A 
ATOM     88  C   UNL A   1      37.697  30.599  29.231  1.00  0.00     0.031 A 
ATOM     89  C   UNL A   1      38.143  29.918  31.502  1.00  0.00     0.131 A 
ATOM     90  C   UNL A   1      36.449  31.079  29.651  1.00  0.00     0.055 A 
ATOM     91  C   UNL A   1      36.877  30.345  31.903  1.00  0.00     0.041 A 
ATOM     92  F   UNL A   1      38.954  29.393  32.433  1.00  0.00    -0.206 F 
ATOM     93  C   UNL A   1      36.026  30.940  30.977  1.00  0.00     0.022 A 
BRANCH  90  94
ATOM     94  S   UNL A   1      35.364  31.975  28.506  1.00  0.00     0.124 S 
ATOM     95  O   UNL A   1      34.296  32.437  29.388  1.00  0.00    -0.237 OA
ATOM     96  O   UNL A   1      36.261  33.013  28.003  1.00  0.00    -0.237 OA
ATOM     97  O   UNL A   1      34.978  30.961  27.531  1.00  0.00    -0.744 OA
ENDBRANCH  90  94
ENDBRANCH  63  87
BRANCH  75  98
ATOM     98  C   UNL A   1      44.697  33.473  29.829  1.00  0.00     0.023 A 
ATOM     99  C   UNL A   1      44.689  34.430  28.796  1.00  0.00     0.031 A 
ATOM    100  C   UNL A   1      45.259  33.828  31.067  1.00  0.00     0.131 A 
ATOM    101  C   UNL A   1      45.275  35.683  29.006  1.00  0.00     0.055 A 
ATOM    102  C   UNL A   1      45.807  35.093  31.282  1.00  0.00     0.041 A 
ATOM    103  F   UNL A   1      45.295  32.944  32.076  1.00  0.00    -0.206 F 
ATOM    104  C   UNL A   1      45.828  36.022  30.245  1.00  0.00     0.022 A 
BRANCH 101 105
ATOM    105  S   UNL A   1      45.403  36.892  27.660  1.00  0.00     0.124 S 
ATOM    106  O   UNL A   1      46.107  36.129  26.631  1.00  0.00    -0.237 OA
ATOM    107  O   UNL A   1      44.002  37.182  27.374  1.00  0.00    -0.237 OA
ATOM    108  O   UNL A   1      46.167  37.990  28.245  1.00  0.00    -0.744 OA
ENDBRANCH 101 105
ENDBRANCH  75  98
ENDBRANCH  49  50
ENDBRANCH  41  44
ENDBRANCH  39  40
ENDBRANCH  38  39
ENDBRANCH   1  38
TORSDOF 20
ENDMDL
MODEL 3
REMARK VINA RESULT:     -12.7      5.449     11.769
REMARK SMILES COc1ccc2c(c1C)OC(=O)[C@@H](CC(=O)N[C@@H](CC1=c3ccccc3=NC1)C(=O)NCCCCNC(=O)c1ccc(-c3c4nc(c(-c5cc(S(=O)(=O)[O-])ccc5F)c5ccc([nH]5)c(-c5cc(S(=O)(=O)[O-])ccc5F)c5nc(c(-c6cc(S(=O)(=O)[O-])ccc6F)c6ccc3[nH]6)C=C5)C=C4)cc1)[C@H]2C
REMARK SMILES IDX 33 1 32 2 31 3 29 4 30 5 18 7 17 8 15 9 16 10 14 12 13 13
REMARK SMILES IDX 3 14 4 15 8 16 5 17 7 18 9 19 6 20 10 21 102 22 11 23 103 24
REMARK SMILES IDX 12 25 2 26 1 27 19 28 20 29 21 30 28 31 22 32 26 33 27 34
REMARK SMILES IDX 23 35 25 36 24 37 34 38 35 39 36 40 37 41 38 43 39 44 40 45
REMARK SMILES IDX 101 46 41 47 100 48 42 49 43 50 44 51 94 52 45 53 99 54
REMARK SMILES IDX 93 55 95 56 46 57 98 58 92 59 91 60 47 62 79 63 59 64 78 65
REMARK SMILES IDX 60 66 63 67 77 68 96 69 61 70 62 71 76 73 97 74 64 75 48 76
REMARK SMILES IDX 49 77 57 78 50 79 56 80 58 81 55 82 51 83 52 84 53 85 54 86
REMARK SMILES IDX 80 87 81 88 89 89 82 90 88 91 90 92 87 93 83 94 84 95 85 96
REMARK SMILES IDX 86 97 65 98 66 99 74 100 67 101 73 102 75 103 72 104 68 105
REMARK SMILES IDX 69 106 70 107 71 108
REMARK H PARENT 31 6 17 11 36 42 95 61 63 72
REMARK Flexibility Score: inf
ROOT
ATOM      1  C   UNL A   1      32.747  30.338  26.485  1.00  0.00     0.023 C 
ENDROOT
BRANCH   1   2
ATOM      2  C   UNL A   1      32.867  29.177  27.456  1.00  0.00     0.116 C 
BRANCH   2   3
ATOM      3  N   UNL A   1      31.755  28.258  27.459  1.00  0.00    -0.354 N 
ATOM      4  C   UNL A   1      31.448  27.279  26.559  1.00  0.00     0.242 C 
ATOM      5  O   UNL A   1      30.707  26.366  26.941  1.00  0.00    -0.273 OA
ATOM      6  H   UNL A   1      31.129  28.350  28.214  1.00  0.00     0.163 HD
BRANCH   4   7
ATOM      7  C   UNL A   1      32.054  27.213  25.135  1.00  0.00     0.175 C 
BRANCH   7   8
ATOM      8  N   UNL A   1      33.336  26.503  25.067  1.00  0.00    -0.344 N 
ATOM      9  C   UNL A   1      33.701  25.245  25.425  1.00  0.00     0.221 C 
ATOM     10  O   UNL A   1      34.883  24.931  25.286  1.00  0.00    -0.275 OA
ATOM     11  H   UNL A   1      34.071  27.039  24.691  1.00  0.00     0.164 HD
BRANCH   9  12
ATOM     12  C   UNL A   1      32.681  24.259  25.937  1.00  0.00     0.116 C 
BRANCH  12  13
ATOM     13  C   UNL A   1      32.911  22.831  25.436  1.00  0.00     0.116 C 
ATOM     14  C   UNL A   1      34.715  18.290  24.422  1.00  0.00     0.125 A 
ATOM     15  C   UNL A   1      35.831  19.063  24.769  1.00  0.00     0.047 A 
ATOM     16  C   UNL A   1      33.418  18.805  24.567  1.00  0.00     0.034 A 
ATOM     17  C   UNL A   1      35.667  20.339  25.303  1.00  0.00     0.012 A 
ATOM     18  C   UNL A   1      33.280  20.088  25.117  1.00  0.00     0.140 A 
ATOM     19  C   UNL A   1      32.202  18.036  24.132  1.00  0.00     0.052 C 
ATOM     20  C   UNL A   1      34.385  20.859  25.486  1.00  0.00    -0.001 A 
ATOM     21  O   UNL A   1      31.972  20.580  25.340  1.00  0.00    -0.426 OA
ATOM     22  C   UNL A   1      34.178  22.230  26.065  1.00  0.00     0.035 C 
ATOM     23  C   UNL A   1      31.732  21.911  25.683  1.00  0.00     0.315 C 
ATOM     24  C   UNL A   1      34.151  22.170  27.595  1.00  0.00     0.014 C 
ATOM     25  O   UNL A   1      30.624  22.284  26.047  1.00  0.00    -0.251 OA
BRANCH  14  26
ATOM     26  O   UNL A   1      34.856  17.037  23.880  1.00  0.00    -0.496 OA
ATOM     27  C   UNL A   1      34.806  15.998  24.856  1.00  0.00     0.278 C 
ENDBRANCH  14  26
ENDBRANCH  12  13
ENDBRANCH   9  12
ENDBRANCH   7   8
BRANCH   7  28
ATOM     28  C   UNL A   1      31.042  26.802  24.024  1.00  0.00     0.068 C 
BRANCH  28  29
ATOM     29  C   UNL A   1      30.533  27.851  23.079  1.00  0.00    -0.037 C 
ATOM     30  C   UNL A   1      29.294  28.314  22.901  1.00  0.00     0.001 A 
ATOM     31  C   UNL A   1      31.496  28.603  22.203  1.00  0.00     0.174 C 
ATOM     32  C   UNL A   1      28.005  28.007  23.431  1.00  0.00     0.010 A 
ATOM     33  C   UNL A   1      29.524  29.533  22.103  1.00  0.00     0.065 A 
ATOM     34  N   UNL A   1      30.727  29.748  21.668  1.00  0.00    -0.280 NA
ATOM     35  C   UNL A   1      27.015  28.904  23.290  1.00  0.00     0.001 A 
ATOM     36  C   UNL A   1      28.382  30.465  21.976  1.00  0.00     0.028 A 
ATOM     37  C   UNL A   1      27.222  30.154  22.581  1.00  0.00     0.002 A 
ENDBRANCH  28  29
ENDBRANCH   7  28
ENDBRANCH   4   7
ENDBRANCH   2   3
ENDBRANCH   1   2
BRANCH   1  38
ATOM     38  C   UNL A   1      32.268  31.645  27.102  1.00  0.00     0.023 C 
BRANCH  38  39
ATOM     39  C   UNL A   1      33.366  32.628  27.497  1.00  0.00     0.116 C 
BRANCH  39  40
ATOM     40  N   UNL A   1      32.867  33.965  27.815  1.00  0.00    -0.352 N 
ATOM     41  C   UNL A   1      33.260  34.815  28.824  1.00  0.00     0.251 C 
ATOM     42  H   UNL A   1      32.153  34.304  27.227  1.00  0.00     0.163 HD
ATOM     43  O   UNL A   1      32.667  35.850  29.049  1.00  0.00    -0.269 OA
BRANCH  41  44
ATOM     44  C   UNL A   1      34.417  34.407  29.649  1.00  0.00     0.039 A 
ATOM     45  C   UNL A   1      34.193  33.735  30.852  1.00  0.00     0.014 A 
ATOM     46  C   UNL A   1      35.712  34.588  29.154  1.00  0.00     0.014 A 
ATOM     47  C   UNL A   1      35.274  33.154  31.516  1.00  0.00     0.010 A 
ATOM     48  C   UNL A   1      36.773  33.947  29.779  1.00  0.00     0.010 A 
ATOM     49  C   UNL A   1      36.562  33.215  30.958  1.00  0.00    -0.014 A 
BRANCH  49  50
ATOM     50  C   UNL A   1      37.706  32.503  31.577  1.00  0.00     0.031 A 
ATOM     51  C   UNL A   1      38.265  32.983  32.883  1.00  0.00     0.074 A 
ATOM     52  C   UNL A   1      38.295  31.487  30.916  1.00  0.00     0.049 A 
ATOM     53  N   UNL A   1      39.295  32.535  33.550  1.00  0.00    -0.248 NA
ATOM     54  C   UNL A   1      37.598  34.138  33.506  1.00  0.00     0.031 C 
ATOM     55  C   UNL A   1      37.883  30.980  29.605  1.00  0.00     0.029 A 
ATOM     56  N   UNL A   1      39.379  30.709  31.246  1.00  0.00    -0.354 N 
ATOM     57  C   UNL A   1      39.409  33.360  34.662  1.00  0.00     0.074 A 
ATOM     58  C   UNL A   1      38.379  34.368  34.551  1.00  0.00     0.031 C 
ATOM     59  C   UNL A   1      38.691  29.969  29.251  1.00  0.00     0.029 A 
ATOM     60  C   UNL A   1      39.697  29.771  30.292  1.00  0.00     0.049 A 
ATOM     61  H   UNL A   1      39.880  30.815  32.086  1.00  0.00     0.167 HD
ATOM     62  C   UNL A   1      40.276  33.266  35.696  1.00  0.00     0.034 A 
ATOM     63  C   UNL A   1      40.686  28.853  30.261  1.00  0.00     0.034 A 
ATOM     64  C   UNL A   1      41.276  32.239  35.811  1.00  0.00     0.049 A 
ATOM     65  C   UNL A   1      41.619  28.744  31.439  1.00  0.00     0.074 A 
ATOM     66  C   UNL A   1      42.147  32.012  36.860  1.00  0.00     0.029 A 
ATOM     67  N   UNL A   1      41.533  31.271  34.854  1.00  0.00    -0.354 N 
ATOM     68  N   UNL A   1      41.641  29.460  32.539  1.00  0.00    -0.248 NA
ATOM     69  C   UNL A   1      42.651  27.698  31.385  1.00  0.00     0.031 C 
ATOM     70  C   UNL A   1      42.957  30.925  36.522  1.00  0.00     0.029 A 
ATOM     71  C   UNL A   1      42.563  30.450  35.281  1.00  0.00     0.049 A 
ATOM     72  H   UNL A   1      41.056  31.180  33.998  1.00  0.00     0.167 HD
ATOM     73  C   UNL A   1      42.671  28.937  33.316  1.00  0.00     0.074 A 
ATOM     74  C   UNL A   1      43.238  27.835  32.568  1.00  0.00     0.031 C 
ATOM     75  C   UNL A   1      43.104  29.338  34.537  1.00  0.00     0.034 A 
BRANCH  62  76
ATOM     76  C   UNL A   1      40.163  34.275  36.805  1.00  0.00     0.023 A 
ATOM     77  C   UNL A   1      39.561  33.921  38.025  1.00  0.00     0.031 A 
ATOM     78  C   UNL A   1      40.577  35.607  36.622  1.00  0.00     0.131 A 
ATOM     79  C   UNL A   1      39.381  34.896  39.015  1.00  0.00     0.055 A 
ATOM     80  C   UNL A   1      40.422  36.565  37.622  1.00  0.00     0.041 A 
ATOM     81  F   UNL A   1      41.161  35.987  35.473  1.00  0.00    -0.206 F 
ATOM     82  C   UNL A   1      39.815  36.212  38.823  1.00  0.00     0.022 A 
BRANCH  79  83
ATOM     83  S   UNL A   1      38.559  34.498  40.581  1.00  0.00     0.124 S 
ATOM     84  O   UNL A   1      37.493  33.599  40.141  1.00  0.00    -0.237 OA
ATOM     85  O   UNL A   1      39.635  33.867  41.337  1.00  0.00    -0.237 OA
ATOM     86  O   UNL A   1      38.107  35.792  41.079  1.00  0.00    -0.744 OA
ENDBRANCH  79  83
ENDBRANCH  62  76
BRANCH  63  87
ATOM     87  C   UNL A   1      40.773  27.921  29.102  1.00  0.00     0.023 A 
ATOM     88  C   UNL A   1      41.680  28.148  28.051  1.00  0.00     0.031 A 
ATOM     89  C   UNL A   1      39.877  26.846  28.986  1.00  0.00     0.131 A 
ATOM     90  C   UNL A   1      41.632  27.340  26.906  1.00  0.00     0.055 A 
ATOM     91  C   UNL A   1      39.871  26.009  27.869  1.00  0.00     0.041 A 
ATOM     92  F   UNL A   1      38.987  26.601  29.960  1.00  0.00    -0.206 F 
ATOM     93  C   UNL A   1      40.745  26.261  26.816  1.00  0.00     0.022 A 
BRANCH  90  94
ATOM     94  S   UNL A   1      42.663  27.712  25.461  1.00  0.00     0.124 S 
ATOM     95  O   UNL A   1      42.708  26.424  24.773  1.00  0.00    -0.237 OA
ATOM     96  O   UNL A   1      41.878  28.752  24.802  1.00  0.00    -0.237 OA
ATOM     97  O   UNL A   1      43.924  28.157  26.042  1.00  0.00    -0.744 OA
ENDBRANCH  90  94
ENDBRANCH  63  87
BRANCH  75  98
ATOM     98  C   UNL A   1      44.244  28.592  35.179  1.00  0.00     0.023 A 
ATOM     99  C   UNL A   1      43.979  27.609  36.152  1.00  0.00     0.031 A 
ATOM    100  C   UNL A   1      45.578  28.970  34.954  1.00  0.00     0.131 A 
ATOM    101  C   UNL A   1      45.033  27.068  36.897  1.00  0.00     0.055 A 
ATOM    102  C   UNL A   1      46.629  28.398  35.673  1.00  0.00     0.041 A 
ATOM    103  F   UNL A   1      45.875  29.909  34.043  1.00  0.00    -0.206 F 
ATOM    104  C   UNL A   1      46.356  27.453  36.659  1.00  0.00     0.022 A 
BRANCH 101 105
ATOM    105  S   UNL A   1      44.719  25.900  38.248  1.00  0.00     0.124 S 
ATOM    106  O   UNL A   1      45.940  26.018  39.043  1.00  0.00    -0.237 OA
ATOM    107  O   UNL A   1      43.518  26.456  38.863  1.00  0.00    -0.237 OA
ATOM    108  O   UNL A   1      44.545  24.618  37.572  1.00  0.00    -0.744 OA
ENDBRANCH 101 105
ENDBRANCH  75  98
ENDBRANCH  49  50
ENDBRANCH  41  44
ENDBRANCH  39  40
ENDBRANCH  38  39
ENDBRANCH   1  38
TORSDOF 20
ENDMDL
