MODEL 1
REMARK VINA RESULT:     -12.0      0.000      0.000
REMARK SMILES O=C(NCCCCNC(=O)c1cc(S[C@H]2CCO[C@@]3(CCOC3)C2)cs1)c1ccc(-c2c3nc(c(-c4cc(S(=O)(=O)[O-])ccc4F)c4ccc([nH]4)c(-c4cc(S(=O)(=O)[O-])ccc4F)c4nc(c(-c5cc(S(=O)(=O)[O-])ccc5F)c5ccc2[nH]5)C=C4)C=C3)cc1
REMARK SMILES IDX 5 1 4 2 3 3 1 4 2 5 27 7 28 8 89 9 29 10 88 11 30 12 31 13
REMARK SMILES IDX 32 14 82 15 33 16 87 17 81 18 83 19 34 20 86 21 80 22 79 23
REMARK SMILES IDX 35 25 67 26 47 27 66 28 48 29 51 30 65 31 84 32 49 33 50 34
REMARK SMILES IDX 64 36 85 37 52 38 36 39 37 40 45 41 38 42 44 43 46 44 43 45
REMARK SMILES IDX 39 46 40 47 41 48 42 49 68 50 69 51 77 52 70 53 76 54 78 55
REMARK SMILES IDX 75 56 71 57 72 58 73 59 74 60 53 61 54 62 62 63 55 64 61 65
REMARK SMILES IDX 63 66 60 67 56 68 57 69 58 70 59 71 6 72 7 73 8 74 9 75
REMARK SMILES IDX 10 77 11 78 12 79 26 80 13 81 25 82 14 83 15 84 16 85 24 86
REMARK SMILES IDX 17 87 19 88 18 89 20 90 23 91 21 92 22 93
REMARK H PARENT 3 6 83 24 51 35 8 76
REMARK Flexibility Score: inf
ROOT
ATOM      1  C   UNL A   1      31.488  31.522  26.863  1.00  0.00     0.023 C 
ENDROOT
BRANCH   1   2
ATOM      2  C   UNL A   1      32.774  32.264  27.214  1.00  0.00     0.116 C 
BRANCH   2   3
ATOM      3  N   UNL A   1      32.543  33.657  27.561  1.00  0.00    -0.352 N 
ATOM      4  O   UNL A   1      32.707  35.559  28.749  1.00  0.00    -0.269 OA
ATOM      5  C   UNL A   1      33.160  34.444  28.504  1.00  0.00     0.251 C 
ATOM      6  H   UNL A   1      31.835  34.105  27.043  1.00  0.00     0.163 HD
BRANCH   5   7
ATOM      7  C   UNL A   1      34.347  33.949  29.232  1.00  0.00     0.039 A 
ATOM      8  C   UNL A   1      35.636  34.359  28.876  1.00  0.00     0.014 A 
ATOM      9  C   UNL A   1      34.162  33.073  30.306  1.00  0.00     0.014 A 
ATOM     10  C   UNL A   1      36.743  33.798  29.510  1.00  0.00     0.010 A 
ATOM     11  C   UNL A   1      35.271  32.560  30.982  1.00  0.00     0.010 A 
ATOM     12  C   UNL A   1      36.571  32.894  30.568  1.00  0.00    -0.014 A 
BRANCH  12  13
ATOM     13  C   UNL A   1      37.752  32.308  31.253  1.00  0.00     0.031 A 
ATOM     14  C   UNL A   1      38.509  31.170  30.627  1.00  0.00     0.074 A 
ATOM     15  C   UNL A   1      38.127  32.791  32.452  1.00  0.00     0.049 A 
ATOM     16  N   UNL A   1      39.505  30.472  31.109  1.00  0.00    -0.248 NA
ATOM     17  C   UNL A   1      38.076  30.755  29.286  1.00  0.00     0.031 C 
ATOM     18  C   UNL A   1      37.470  33.893  33.158  1.00  0.00     0.029 A 
ATOM     19  N   UNL A   1      39.139  32.410  33.295  1.00  0.00    -0.354 N 
ATOM     20  C   UNL A   1      39.809  29.521  30.141  1.00  0.00     0.074 A 
ATOM     21  C   UNL A   1      38.865  29.715  29.059  1.00  0.00     0.031 C 
ATOM     22  C   UNL A   1      38.097  34.100  34.326  1.00  0.00     0.029 A 
ATOM     23  C   UNL A   1      39.160  33.112  34.477  1.00  0.00     0.049 A 
ATOM     24  H   UNL A   1      39.788  31.702  33.076  1.00  0.00     0.167 HD
ATOM     25  C   UNL A   1      40.789  28.581  30.152  1.00  0.00     0.034 A 
ATOM     26  C   UNL A   1      39.923  32.956  35.576  1.00  0.00     0.034 A 
ATOM     27  C   UNL A   1      41.719  28.404  31.242  1.00  0.00     0.049 A 
ATOM     28  C   UNL A   1      40.972  31.879  35.591  1.00  0.00     0.074 A 
ATOM     29  C   UNL A   1      42.771  27.508  31.344  1.00  0.00     0.029 A 
ATOM     30  N   UNL A   1      41.701  29.128  32.428  1.00  0.00    -0.354 N 
ATOM     31  N   UNL A   1      41.256  30.995  34.664  1.00  0.00    -0.248 NA
ATOM     32  C   UNL A   1      41.803  31.782  36.796  1.00  0.00     0.031 C 
ATOM     33  C   UNL A   1      43.348  27.649  32.612  1.00  0.00     0.029 A 
ATOM     34  C   UNL A   1      42.702  28.680  33.278  1.00  0.00     0.049 A 
ATOM     35  H   UNL A   1      41.069  29.854  32.636  1.00  0.00     0.167 HD
ATOM     36  C   UNL A   1      42.316  30.247  35.166  1.00  0.00     0.074 A 
ATOM     37  C   UNL A   1      42.621  30.787  36.477  1.00  0.00     0.031 C 
ATOM     38  C   UNL A   1      42.984  29.217  34.588  1.00  0.00     0.034 A 
BRANCH  25  39
ATOM     39  C   UNL A   1      40.860  27.646  28.967  1.00  0.00     0.023 A 
ATOM     40  C   UNL A   1      41.821  27.807  27.955  1.00  0.00     0.031 A 
ATOM     41  C   UNL A   1      39.921  26.609  28.823  1.00  0.00     0.131 A 
ATOM     42  C   UNL A   1      41.768  27.006  26.803  1.00  0.00     0.055 A 
ATOM     43  C   UNL A   1      39.924  25.761  27.713  1.00  0.00     0.041 A 
ATOM     44  F   UNL A   1      38.966  26.418  29.747  1.00  0.00    -0.206 F 
ATOM     45  C   UNL A   1      40.840  25.968  26.686  1.00  0.00     0.022 A 
BRANCH  42  46
ATOM     46  S   UNL A   1      42.816  27.450  25.390  1.00  0.00     0.124 S 
ATOM     47  O   UNL A   1      42.807  26.213  24.613  1.00  0.00    -0.237 OA
ATOM     48  O   UNL A   1      42.096  28.575  24.806  1.00  0.00    -0.237 OA
ATOM     49  O   UNL A   1      44.100  27.778  26.006  1.00  0.00    -0.744 OA
ENDBRANCH  42  46
ENDBRANCH  25  39
BRANCH  26  50
ATOM     50  C   UNL A   1      39.680  33.817  36.763  1.00  0.00     0.023 A 
ATOM     51  C   UNL A   1      39.108  33.300  37.934  1.00  0.00     0.031 A 
ATOM     52  C   UNL A   1      40.046  35.175  36.744  1.00  0.00     0.131 A 
ATOM     53  C   UNL A   1      38.903  34.143  39.037  1.00  0.00     0.055 A 
ATOM     54  C   UNL A   1      39.876  35.999  37.856  1.00  0.00     0.041 A 
ATOM     55  F   UNL A   1      40.609  35.710  35.649  1.00  0.00    -0.206 F 
ATOM     56  C   UNL A   1      39.294  35.484  39.011  1.00  0.00     0.022 A 
BRANCH  53  57
ATOM     57  S   UNL A   1      38.091  33.465  40.510  1.00  0.00     0.124 S 
ATOM     58  O   UNL A   1      38.849  32.238  40.729  1.00  0.00    -0.237 OA
ATOM     59  O   UNL A   1      38.296  34.529  41.487  1.00  0.00    -0.237 OA
ATOM     60  O   UNL A   1      36.708  33.276  40.080  1.00  0.00    -0.744 OA
ENDBRANCH  53  57
ENDBRANCH  26  50
BRANCH  38  61
ATOM     61  C   UNL A   1      44.144  28.641  35.356  1.00  0.00     0.023 A 
ATOM     62  C   UNL A   1      43.973  27.611  36.297  1.00  0.00     0.031 A 
ATOM     63  C   UNL A   1      45.443  29.132  35.135  1.00  0.00     0.131 A 
ATOM     64  C   UNL A   1      45.081  27.130  37.011  1.00  0.00     0.055 A 
ATOM     65  C   UNL A   1      46.547  28.619  35.816  1.00  0.00     0.041 A 
ATOM     66  F   UNL A   1      45.658  30.116  34.249  1.00  0.00    -0.206 F 
ATOM     67  C   UNL A   1      46.368  27.617  36.766  1.00  0.00     0.022 A 
BRANCH  64  68
ATOM     68  S   UNL A   1      44.815  25.890  38.308  1.00  0.00     0.124 S 
ATOM     69  O   UNL A   1      46.086  25.922  39.024  1.00  0.00    -0.237 OA
ATOM     70  O   UNL A   1      43.664  26.428  39.026  1.00  0.00    -0.237 OA
ATOM     71  O   UNL A   1      44.556  24.660  37.560  1.00  0.00    -0.744 OA
ENDBRANCH  64  68
ENDBRANCH  38  61
ENDBRANCH  12  13
ENDBRANCH   5   7
ENDBRANCH   2   3
ENDBRANCH   1   2
BRANCH   1  72
ATOM     72  C   UNL A   1      31.594  30.538  25.697  1.00  0.00     0.023 C 
BRANCH  72  73
ATOM     73  C   UNL A   1      32.810  29.615  25.727  1.00  0.00     0.116 C 
BRANCH  73  74
ATOM     74  N   UNL A   1      33.499  29.563  24.451  1.00  0.00    -0.351 N 
ATOM     75  C   UNL A   1      33.487  28.562  23.505  1.00  0.00     0.261 C 
ATOM     76  H   UNL A   1      34.050  30.349  24.231  1.00  0.00     0.163 HD
ATOM     77  O   UNL A   1      34.282  28.646  22.568  1.00  0.00    -0.268 OA
BRANCH  75  78
ATOM     78  C   UNL A   1      32.530  27.483  23.651  1.00  0.00     0.093 A 
ATOM     79  C   UNL A   1      32.656  26.304  24.364  1.00  0.00     0.040 A 
ATOM     80  S   UNL A   1      30.988  27.606  22.922  1.00  0.00    -0.137 S 
ATOM     81  C   UNL A   1      31.509  25.474  24.270  1.00  0.00     0.019 A 
ATOM     82  C   UNL A   1      30.525  26.064  23.508  1.00  0.00     0.080 A 
BRANCH  81  83
ATOM     83  S   UNL A   1      31.282  23.916  25.056  1.00  0.00    -0.122 SA
BRANCH  83  84
ATOM     84  C   UNL A   1      32.872  23.570  25.891  1.00  0.00     0.057 C 
ATOM     85  C   UNL A   1      32.687  22.599  27.059  1.00  0.00     0.043 C 
ATOM     86  C   UNL A   1      33.840  22.935  24.874  1.00  0.00     0.053 C 
ATOM     87  C   UNL A   1      34.045  22.303  27.669  1.00  0.00     0.162 C 
ATOM     88  C   UNL A   1      35.143  22.437  25.541  1.00  0.00     0.095 C 
ATOM     89  O   UNL A   1      34.869  21.659  26.706  1.00  0.00    -0.372 OA
ATOM     90  C   UNL A   1      35.950  21.566  24.588  1.00  0.00     0.066 C 
ATOM     91  C   UNL A   1      36.154  23.560  25.789  1.00  0.00     0.195 C 
ATOM     92  C   UNL A   1      36.732  22.565  23.767  1.00  0.00     0.163 C 
ATOM     93  O   UNL A   1      36.868  23.754  24.558  1.00  0.00    -0.378 OA
ENDBRANCH  83  84
ENDBRANCH  81  83
ENDBRANCH  75  78
ENDBRANCH  73  74
ENDBRANCH  72  73
ENDBRANCH   1  72
TORSDOF 16
ENDMDL
MODEL 2
REMARK VINA RESULT:     -11.9      1.366      1.722
REMARK SMILES O=C(NCCCCNC(=O)c1cc(S[C@H]2CCO[C@@]3(CCOC3)C2)cs1)c1ccc(-c2c3nc(c(-c4cc(S(=O)(=O)[O-])ccc4F)c4ccc([nH]4)c(-c4cc(S(=O)(=O)[O-])ccc4F)c4nc(c(-c5cc(S(=O)(=O)[O-])ccc5F)c5ccc2[nH]5)C=C4)C=C3)cc1
REMARK SMILES IDX 5 1 4 2 3 3 1 4 2 5 27 7 28 8 89 9 29 10 88 11 30 12 31 13
REMARK SMILES IDX 32 14 82 15 33 16 87 17 81 18 83 19 34 20 86 21 80 22 79 23
REMARK SMILES IDX 35 25 67 26 47 27 66 28 48 29 51 30 65 31 84 32 49 33 50 34
REMARK SMILES IDX 64 36 85 37 52 38 36 39 37 40 45 41 38 42 44 43 46 44 43 45
REMARK SMILES IDX 39 46 40 47 41 48 42 49 68 50 69 51 77 52 70 53 76 54 78 55
REMARK SMILES IDX 75 56 71 57 72 58 73 59 74 60 53 61 54 62 62 63 55 64 61 65
REMARK SMILES IDX 63 66 60 67 56 68 57 69 58 70 59 71 6 72 7 73 8 74 9 75
REMARK SMILES IDX 10 77 11 78 12 79 26 80 13 81 25 82 14 83 15 84 16 85 24 86
REMARK SMILES IDX 17 87 19 88 18 89 20 90 23 91 21 92 22 93
REMARK H PARENT 3 6 83 24 51 35 8 76
REMARK Flexibility Score: inf
ROOT
ATOM      1  C   UNL A   1      31.164  31.770  26.191  1.00  0.00     0.023 C 
ENDROOT
BRANCH   1   2
ATOM      2  C   UNL A   1      32.421  32.201  26.941  1.00  0.00     0.116 C 
BRANCH   2   3
ATOM      3  N   UNL A   1      32.364  33.584  27.387  1.00  0.00    -0.352 N 
ATOM      4  O   UNL A   1      32.819  35.379  28.662  1.00  0.00    -0.269 OA
ATOM      5  C   UNL A   1      33.133  34.244  28.314  1.00  0.00     0.251 C 
ATOM      6  H   UNL A   1      31.666  34.132  26.958  1.00  0.00     0.163 HD
BRANCH   5   7
ATOM      7  C   UNL A   1      34.319  33.588  28.906  1.00  0.00     0.039 A 
ATOM      8  C   UNL A   1      34.187  32.467  29.732  1.00  0.00     0.014 A 
ATOM      9  C   UNL A   1      35.588  34.094  28.609  1.00  0.00     0.014 A 
ATOM     10  C   UNL A   1      35.309  31.931  30.360  1.00  0.00     0.010 A 
ATOM     11  C   UNL A   1      36.718  33.516  29.190  1.00  0.00     0.010 A 
ATOM     12  C   UNL A   1      36.585  32.449  30.095  1.00  0.00    -0.014 A 
BRANCH  12  13
ATOM     13  C   UNL A   1      37.783  31.868  30.754  1.00  0.00     0.031 A 
ATOM     14  C   UNL A   1      38.610  30.829  30.051  1.00  0.00     0.074 A 
ATOM     15  C   UNL A   1      38.109  32.265  31.998  1.00  0.00     0.049 A 
ATOM     16  N   UNL A   1      39.634  30.145  30.494  1.00  0.00    -0.248 NA
ATOM     17  C   UNL A   1      38.225  30.510  28.669  1.00  0.00     0.031 C 
ATOM     18  C   UNL A   1      37.381  33.266  32.781  1.00  0.00     0.029 A 
ATOM     19  N   UNL A   1      39.126  31.865  32.828  1.00  0.00    -0.354 N 
ATOM     20  C   UNL A   1      40.006  29.299  29.455  1.00  0.00     0.074 A 
ATOM     21  C   UNL A   1      39.072  29.536  28.372  1.00  0.00     0.031 C 
ATOM     22  C   UNL A   1      37.975  33.404  33.976  1.00  0.00     0.029 A 
ATOM     23  C   UNL A   1      39.088  32.462  34.066  1.00  0.00     0.049 A 
ATOM     24  H   UNL A   1      39.815  31.214  32.564  1.00  0.00     0.167 HD
ATOM     25  C   UNL A   1      41.034  28.413  29.407  1.00  0.00     0.034 A 
ATOM     26  C   UNL A   1      39.837  32.252  35.164  1.00  0.00     0.034 A 
ATOM     27  C   UNL A   1      41.953  28.191  30.499  1.00  0.00     0.049 A 
ATOM     28  C   UNL A   1      40.942  31.233  35.111  1.00  0.00     0.074 A 
ATOM     29  C   UNL A   1      43.049  27.346  30.549  1.00  0.00     0.029 A 
ATOM     30  N   UNL A   1      41.874  28.808  31.742  1.00  0.00    -0.354 N 
ATOM     31  N   UNL A   1      41.290  30.449  34.118  1.00  0.00    -0.248 NA
ATOM     32  C   UNL A   1      41.756  31.076  36.322  1.00  0.00     0.031 C 
ATOM     33  C   UNL A   1      43.595  27.406  31.836  1.00  0.00     0.029 A 
ATOM     34  C   UNL A   1      42.883  28.341  32.573  1.00  0.00     0.049 A 
ATOM     35  H   UNL A   1      41.201  29.479  31.997  1.00  0.00     0.167 HD
ATOM     36  C   UNL A   1      42.380  29.717  34.578  1.00  0.00     0.074 A 
ATOM     37  C   UNL A   1      42.632  30.156  35.937  1.00  0.00     0.031 C 
ATOM     38  C   UNL A   1      43.112  28.776  33.931  1.00  0.00     0.034 A 
BRANCH  25  39
ATOM     39  C   UNL A   1      41.177  27.589  28.150  1.00  0.00     0.023 A 
ATOM     40  C   UNL A   1      40.815  26.231  28.110  1.00  0.00     0.031 A 
ATOM     41  C   UNL A   1      41.729  28.156  26.987  1.00  0.00     0.131 A 
ATOM     42  C   UNL A   1      41.092  25.466  26.966  1.00  0.00     0.055 A 
ATOM     43  C   UNL A   1      41.925  27.408  25.823  1.00  0.00     0.041 A 
ATOM     44  F   UNL A   1      42.111  29.443  26.969  1.00  0.00    -0.206 F 
ATOM     45  C   UNL A   1      41.624  26.050  25.815  1.00  0.00     0.022 A 
BRANCH  42  46
ATOM     46  S   UNL A   1      40.907  23.663  27.067  1.00  0.00     0.124 S 
ATOM     47  O   UNL A   1      41.495  23.376  28.373  1.00  0.00    -0.237 OA
ATOM     48  O   UNL A   1      39.463  23.490  26.966  1.00  0.00    -0.237 OA
ATOM     49  O   UNL A   1      41.678  23.174  25.926  1.00  0.00    -0.744 OA
ENDBRANCH  42  46
ENDBRANCH  25  39
BRANCH  26  50
ATOM     50  C   UNL A   1      39.528  32.994  36.414  1.00  0.00     0.023 A 
ATOM     51  C   UNL A   1      38.664  32.462  37.383  1.00  0.00     0.031 A 
ATOM     52  C   UNL A   1      40.120  34.245  36.666  1.00  0.00     0.131 A 
ATOM     53  C   UNL A   1      38.404  33.188  38.555  1.00  0.00     0.055 A 
ATOM     54  C   UNL A   1      39.888  34.945  37.849  1.00  0.00     0.041 A 
ATOM     55  F   UNL A   1      40.964  34.786  35.773  1.00  0.00    -0.206 F 
ATOM     56  C   UNL A   1      39.018  34.419  38.800  1.00  0.00     0.022 A 
BRANCH  53  57
ATOM     57  S   UNL A   1      37.223  32.510  39.754  1.00  0.00     0.124 S 
ATOM     58  O   UNL A   1      37.095  33.613  40.700  1.00  0.00    -0.237 OA
ATOM     59  O   UNL A   1      36.058  32.245  38.916  1.00  0.00    -0.237 OA
ATOM     60  O   UNL A   1      37.902  31.322  40.266  1.00  0.00    -0.744 OA
ENDBRANCH  53  57
ENDBRANCH  26  50
BRANCH  38  61
ATOM     61  C   UNL A   1      44.288  28.197  34.672  1.00  0.00     0.023 A 
ATOM     62  C   UNL A   1      44.156  27.078  35.513  1.00  0.00     0.031 A 
ATOM     63  C   UNL A   1      45.561  28.776  34.529  1.00  0.00     0.131 A 
ATOM     64  C   UNL A   1      45.276  26.595  36.208  1.00  0.00     0.055 A 
ATOM     65  C   UNL A   1      46.678  28.265  35.188  1.00  0.00     0.041 A 
ATOM     66  F   UNL A   1      45.737  29.847  33.740  1.00  0.00    -0.206 F 
ATOM     67  C   UNL A   1      46.537  27.172  36.039  1.00  0.00     0.022 A 
BRANCH  64  68
ATOM     68  S   UNL A   1      45.054  25.230  37.381  1.00  0.00     0.124 S 
ATOM     69  O   UNL A   1      45.654  24.111  36.662  1.00  0.00    -0.237 OA
ATOM     70  O   UNL A   1      45.785  25.701  38.554  1.00  0.00    -0.237 OA
ATOM     71  O   UNL A   1      43.603  25.153  37.549  1.00  0.00    -0.744 OA
ENDBRANCH  64  68
ENDBRANCH  38  61
ENDBRANCH  12  13
ENDBRANCH   5   7
ENDBRANCH   2   3
ENDBRANCH   1   2
BRANCH   1  72
ATOM     72  C   UNL A   1      31.268  30.438  25.447  1.00  0.00     0.023 C 
BRANCH  72  73
ATOM     73  C   UNL A   1      32.598  29.705  25.595  1.00  0.00     0.116 C 
BRANCH  73  74
ATOM     74  N   UNL A   1      33.337  29.637  24.348  1.00  0.00    -0.351 N 
ATOM     75  C   UNL A   1      33.381  28.614  23.427  1.00  0.00     0.261 C 
ATOM     76  H   UNL A   1      33.880  30.429  24.130  1.00  0.00     0.163 HD
ATOM     77  O   UNL A   1      34.209  28.693  22.519  1.00  0.00    -0.268 OA
BRANCH  75  78
ATOM     78  C   UNL A   1      32.441  27.519  23.562  1.00  0.00     0.093 A 
ATOM     79  C   UNL A   1      32.607  26.311  24.216  1.00  0.00     0.040 A 
ATOM     80  S   UNL A   1      30.869  27.658  22.905  1.00  0.00    -0.137 S 
ATOM     81  C   UNL A   1      31.465  25.473  24.131  1.00  0.00     0.019 A 
ATOM     82  C   UNL A   1      30.444  26.086  23.438  1.00  0.00     0.080 A 
BRANCH  81  83
ATOM     83  S   UNL A   1      31.285  23.879  24.854  1.00  0.00    -0.122 SA
BRANCH  83  84
ATOM     84  C   UNL A   1      32.848  23.589  25.758  1.00  0.00     0.057 C 
ATOM     85  C   UNL A   1      32.621  22.719  26.996  1.00  0.00     0.043 C 
ATOM     86  C   UNL A   1      33.837  22.866  24.824  1.00  0.00     0.053 C 
ATOM     87  C   UNL A   1      33.959  22.463  27.666  1.00  0.00     0.162 C 
ATOM     88  C   UNL A   1      35.116  22.414  25.567  1.00  0.00     0.095 C 
ATOM     89  O   UNL A   1      34.802  21.736  26.783  1.00  0.00    -0.372 OA
ATOM     90  C   UNL A   1      35.940  21.462  24.710  1.00  0.00     0.066 C 
ATOM     91  C   UNL A   1      36.131  23.545  25.750  1.00  0.00     0.195 C 
ATOM     92  C   UNL A   1      36.754  22.384  23.833  1.00  0.00     0.163 C 
ATOM     93  O   UNL A   1      36.881  23.633  24.528  1.00  0.00    -0.378 OA
ENDBRANCH  83  84
ENDBRANCH  81  83
ENDBRANCH  75  78
ENDBRANCH  73  74
ENDBRANCH  72  73
ENDBRANCH   1  72
TORSDOF 16
ENDMDL
MODEL 3
REMARK VINA RESULT:     -11.9      5.724     11.638
REMARK SMILES O=C(NCCCCNC(=O)c1cc(S[C@H]2CCO[C@@]3(CCOC3)C2)cs1)c1ccc(-c2c3nc(c(-c4cc(S(=O)(=O)[O-])ccc4F)c4ccc([nH]4)c(-c4cc(S(=O)(=O)[O-])ccc4F)c4nc(c(-c5cc(S(=O)(=O)[O-])ccc5F)c5ccc2[nH]5)C=C4)C=C3)cc1
REMARK SMILES IDX 5 1 4 2 3 3 1 4 2 5 27 7 28 8 89 9 29 10 88 11 30 12 31 13
REMARK SMILES IDX 32 14 82 15 33 16 87 17 81 18 83 19 34 20 86 21 80 22 79 23
REMARK SMILES IDX 35 25 67 26 47 27 66 28 48 29 51 30 65 31 84 32 49 33 50 34
REMARK SMILES IDX 64 36 85 37 52 38 36 39 37 40 45 41 38 42 44 43 46 44 43 45
REMARK SMILES IDX 39 46 40 47 41 48 42 49 68 50 69 51 77 52 70 53 76 54 78 55
REMARK SMILES IDX 75 56 71 57 72 58 73 59 74 60 53 61 54 62 62 63 55 64 61 65
REMARK SMILES IDX 63 66 60 67 56 68 57 69 58 70 59 71 6 72 7 73 8 74 9 75
REMARK SMILES IDX 10 77 11 78 12 79 26 80 13 81 25 82 14 83 15 84 16 85 24 86
REMARK SMILES IDX 17 87 19 88 18 89 20 90 23 91 21 92 22 93
REMARK H PARENT 3 6 83 24 51 35 8 76
REMARK Flexibility Score: inf
ROOT
ATOM      1  C   UNL A   1      37.663  20.129  24.997  1.00  0.00     0.023 C 
ENDROOT
BRANCH   1   2
ATOM      2  C   UNL A   1      38.907  20.560  25.770  1.00  0.00     0.116 C 
BRANCH   2   3
ATOM      3  N   UNL A   1      39.901  19.504  25.871  1.00  0.00    -0.352 N 
ATOM      4  O   UNL A   1      41.946  18.576  25.982  1.00  0.00    -0.269 OA
ATOM      5  C   UNL A   1      41.255  19.586  26.088  1.00  0.00     0.251 C 
ATOM      6  H   UNL A   1      39.550  18.589  25.768  1.00  0.00     0.163 HD
BRANCH   5   7
ATOM      7  C   UNL A   1      41.882  20.882  26.425  1.00  0.00     0.039 A 
ATOM      8  C   UNL A   1      42.157  21.227  27.752  1.00  0.00     0.014 A 
ATOM      9  C   UNL A   1      42.220  21.757  25.389  1.00  0.00     0.014 A 
ATOM     10  C   UNL A   1      42.652  22.495  28.052  1.00  0.00     0.010 A 
ATOM     11  C   UNL A   1      42.775  23.003  25.687  1.00  0.00     0.010 A 
ATOM     12  C   UNL A   1      42.966  23.394  27.023  1.00  0.00    -0.014 A 
BRANCH  12  13
ATOM     13  C   UNL A   1      43.507  24.740  27.342  1.00  0.00     0.031 A 
ATOM     14  C   UNL A   1      42.601  25.824  27.854  1.00  0.00     0.074 A 
ATOM     15  C   UNL A   1      44.816  24.988  27.149  1.00  0.00     0.049 A 
ATOM     16  N   UNL A   1      42.870  27.080  28.103  1.00  0.00    -0.248 NA
ATOM     17  C   UNL A   1      41.204  25.446  28.105  1.00  0.00     0.031 C 
ATOM     18  C   UNL A   1      45.793  24.014  26.657  1.00  0.00     0.029 A 
ATOM     19  N   UNL A   1      45.547  26.134  27.328  1.00  0.00    -0.354 N 
ATOM     20  C   UNL A   1      41.672  27.651  28.522  1.00  0.00     0.074 A 
ATOM     21  C   UNL A   1      40.670  26.605  28.459  1.00  0.00     0.031 C 
ATOM     22  C   UNL A   1      46.995  24.604  26.574  1.00  0.00     0.029 A 
ATOM     23  C   UNL A   1      46.863  26.008  26.952  1.00  0.00     0.049 A 
ATOM     24  H   UNL A   1      45.166  26.967  27.689  1.00  0.00     0.167 HD
ATOM     25  C   UNL A   1      41.434  28.924  28.929  1.00  0.00     0.034 A 
ATOM     26  C   UNL A   1      47.847  26.925  26.881  1.00  0.00     0.034 A 
ATOM     27  C   UNL A   1      42.447  29.952  28.983  1.00  0.00     0.049 A 
ATOM     28  C   UNL A   1      47.555  28.343  27.289  1.00  0.00     0.074 A 
ATOM     29  C   UNL A   1      42.327  31.264  29.410  1.00  0.00     0.029 A 
ATOM     30  N   UNL A   1      43.769  29.788  28.582  1.00  0.00    -0.354 N 
ATOM     31  N   UNL A   1      46.422  28.865  27.694  1.00  0.00    -0.248 NA
ATOM     32  C   UNL A   1      48.674  29.290  27.234  1.00  0.00     0.031 C 
ATOM     33  C   UNL A   1      43.555  31.907  29.212  1.00  0.00     0.029 A 
ATOM     34  C   UNL A   1      44.463  30.980  28.725  1.00  0.00     0.049 A 
ATOM     35  H   UNL A   1      44.155  28.947  28.247  1.00  0.00     0.167 HD
ATOM     36  C   UNL A   1      46.696  30.202  27.964  1.00  0.00     0.074 A 
ATOM     37  C   UNL A   1      48.103  30.403  27.677  1.00  0.00     0.031 C 
ATOM     38  C   UNL A   1      45.862  31.170  28.420  1.00  0.00     0.034 A 
BRANCH  25  39
ATOM     39  C   UNL A   1      40.012  29.277  29.293  1.00  0.00     0.023 A 
ATOM     40  C   UNL A   1      39.591  29.365  30.631  1.00  0.00     0.031 A 
ATOM     41  C   UNL A   1      39.049  29.479  28.287  1.00  0.00     0.131 A 
ATOM     42  C   UNL A   1      38.232  29.558  30.928  1.00  0.00     0.055 A 
ATOM     43  C   UNL A   1      37.713  29.753  28.589  1.00  0.00     0.041 A 
ATOM     44  F   UNL A   1      39.386  29.389  26.991  1.00  0.00    -0.206 F 
ATOM     45  C   UNL A   1      37.294  29.775  29.916  1.00  0.00     0.022 A 
BRANCH  42  46
ATOM     46  S   UNL A   1      37.683  29.349  32.645  1.00  0.00     0.124 S 
ATOM     47  O   UNL A   1      36.338  29.918  32.598  1.00  0.00    -0.237 OA
ATOM     48  O   UNL A   1      37.759  27.904  32.825  1.00  0.00    -0.237 OA
ATOM     49  O   UNL A   1      38.653  30.128  33.412  1.00  0.00    -0.744 OA
ENDBRANCH  42  46
ENDBRANCH  25  39
BRANCH  26  50
ATOM     50  C   UNL A   1      49.180  26.529  26.358  1.00  0.00     0.023 A 
ATOM     51  C   UNL A   1      49.644  26.990  25.118  1.00  0.00     0.031 A 
ATOM     52  C   UNL A   1      50.023  25.695  27.116  1.00  0.00     0.131 A 
ATOM     53  C   UNL A   1      50.913  26.601  24.663  1.00  0.00     0.055 A 
ATOM     54  C   UNL A   1      51.299  25.342  26.676  1.00  0.00     0.041 A 
ATOM     55  F   UNL A   1      49.626  25.241  28.315  1.00  0.00    -0.206 F 
ATOM     56  C   UNL A   1      51.748  25.791  25.438  1.00  0.00     0.022 A 
BRANCH  53  57
ATOM     57  S   UNL A   1      51.454  27.150  23.021  1.00  0.00     0.124 S 
ATOM     58  O   UNL A   1      52.664  26.359  22.827  1.00  0.00    -0.237 OA
ATOM     59  O   UNL A   1      50.312  26.789  22.188  1.00  0.00    -0.237 OA
ATOM     60  O   UNL A   1      51.667  28.585  23.195  1.00  0.00    -0.744 OA
ENDBRANCH  53  57
ENDBRANCH  26  50
BRANCH  38  61
ATOM     61  C   UNL A   1      46.468  32.524  28.682  1.00  0.00     0.023 A 
ATOM     62  C   UNL A   1      46.532  33.513  27.687  1.00  0.00     0.031 A 
ATOM     63  C   UNL A   1      46.985  32.825  29.955  1.00  0.00     0.131 A 
ATOM     64  C   UNL A   1      47.135  34.749  27.971  1.00  0.00     0.055 A 
ATOM     65  C   UNL A   1      47.544  34.069  30.244  1.00  0.00     0.041 A 
ATOM     66  F   UNL A   1      46.950  31.912  30.938  1.00  0.00    -0.206 F 
ATOM     67  C   UNL A   1      47.628  35.037  29.247  1.00  0.00     0.022 A 
BRANCH  64  68
ATOM     68  S   UNL A   1      47.317  35.961  26.635  1.00  0.00     0.124 S 
ATOM     69  O   UNL A   1      47.594  35.107  25.485  1.00  0.00    -0.237 OA
ATOM     70  O   UNL A   1      46.019  36.629  26.637  1.00  0.00    -0.237 OA
ATOM     71  O   UNL A   1      48.438  36.792  27.075  1.00  0.00    -0.744 OA
ENDBRANCH  64  68
ENDBRANCH  38  61
ENDBRANCH  12  13
ENDBRANCH   5   7
ENDBRANCH   2   3
ENDBRANCH   1   2
BRANCH   1  72
ATOM     72  C   UNL A   1      36.653  21.240  24.705  1.00  0.00     0.023 C 
BRANCH  72  73
ATOM     73  C   UNL A   1      35.449  21.294  25.640  1.00  0.00     0.116 C 
BRANCH  73  74
ATOM     74  N   UNL A   1      34.575  20.145  25.487  1.00  0.00    -0.351 N 
ATOM     75  C   UNL A   1      33.211  20.120  25.297  1.00  0.00     0.261 C 
ATOM     76  H   UNL A   1      35.015  19.265  25.523  1.00  0.00     0.163 HD
ATOM     77  O   UNL A   1      32.641  19.029  25.364  1.00  0.00    -0.268 OA
BRANCH  75  78
ATOM     78  C   UNL A   1      32.528  21.365  25.008  1.00  0.00     0.093 A 
ATOM     79  C   UNL A   1      31.940  22.255  25.890  1.00  0.00     0.040 A 
ATOM     80  S   UNL A   1      32.420  21.925  23.397  1.00  0.00    -0.137 S 
ATOM     81  C   UNL A   1      31.352  23.371  25.241  1.00  0.00     0.019 A 
ATOM     82  C   UNL A   1      31.539  23.314  23.878  1.00  0.00     0.080 A 
BRANCH  81  83
ATOM     83  S   UNL A   1      30.540  24.722  26.023  1.00  0.00    -0.122 SA
BRANCH  83  84
ATOM     84  C   UNL A   1      31.165  26.212  25.166  1.00  0.00     0.057 C 
ATOM     85  C   UNL A   1      30.112  26.792  24.219  1.00  0.00     0.043 C 
ATOM     86  C   UNL A   1      31.521  27.279  26.218  1.00  0.00     0.053 C 
ATOM     87  C   UNL A   1      30.665  28.057  23.588  1.00  0.00     0.162 C 
ATOM     88  C   UNL A   1      31.879  28.639  25.572  1.00  0.00     0.095 C 
ATOM     89  O   UNL A   1      30.910  29.026  24.599  1.00  0.00    -0.372 OA
ATOM     90  C   UNL A   1      31.945  29.743  26.619  1.00  0.00     0.066 C 
ATOM     91  C   UNL A   1      33.316  28.690  25.048  1.00  0.00     0.195 C 
ATOM     92  C   UNL A   1      33.343  29.621  27.180  1.00  0.00     0.163 C 
ATOM     93  O   UNL A   1      34.156  29.010  26.169  1.00  0.00    -0.378 OA
ENDBRANCH  83  84
ENDBRANCH  81  83
ENDBRANCH  75  78
ENDBRANCH  73  74
ENDBRANCH  72  73
ENDBRANCH   1  72
TORSDOF 16
ENDMDL
