MODEL 1
REMARK VINA RESULT:     -11.9      0.000      0.000
REMARK SMILES COc1cc2cc(C(=O)NCCCCNC(=O)c3ccc(-c4c5nc(c(-c6cc(S(=O)(=O)[O-])ccc6F)c6ccc([nH]6)c(-c6cc(S(=O)(=O)[O-])ccc6F)c6nc(c(-c7cc(S(=O)(=O)[O-])ccc7F)c7ccc4[nH]7)C=C6)C=C5)cc3)n(Cc3ccccc3)c2c(OC)c1OC
REMARK SMILES IDX 13 1 12 2 11 3 10 4 8 5 9 6 7 8 3 9 4 10 93 11 5 12 90 13
REMARK SMILES IDX 6 14 89 15 81 16 2 17 1 18 94 19 95 20 91 21 92 22 82 23
REMARK SMILES IDX 83 24 84 25 88 26 85 27 87 28 86 29 14 30 15 31 16 32 17 34
REMARK SMILES IDX 18 35 19 36 80 37 20 38 79 39 21 40 22 41 23 42 73 43 24 44
REMARK SMILES IDX 78 45 72 46 74 47 25 48 77 49 71 50 70 51 26 53 58 54 38 55
REMARK SMILES IDX 57 56 39 57 42 58 56 59 75 60 40 61 41 62 55 64 76 65 43 66
REMARK SMILES IDX 27 67 28 68 36 69 29 70 35 71 37 72 34 73 30 74 31 75 32 76
REMARK SMILES IDX 33 77 59 78 60 79 68 80 61 81 67 82 69 83 66 84 62 85 63 86
REMARK SMILES IDX 64 87 65 88 44 89 45 90 53 91 46 92 52 93 54 94 51 95 47 96
REMARK SMILES IDX 48 97 49 98 50 99
REMARK H PARENT 10 7 15 33 74 52 42 63
REMARK Flexibility Score: inf
ROOT
ATOM      1  C   UNL A   1      33.747  30.099  27.284  1.00  0.00     0.023 C 
ENDROOT
BRANCH   1   2
ATOM      2  C   UNL A   1      32.284  29.765  26.985  1.00  0.00     0.023 C 
BRANCH   2   3
ATOM      3  C   UNL A   1      31.813  29.938  25.539  1.00  0.00     0.116 C 
BRANCH   3   4
ATOM      4  N   UNL A   1      32.903  29.768  24.604  1.00  0.00    -0.351 N 
ATOM      5  C   UNL A   1      33.515  28.692  24.022  1.00  0.00     0.267 C 
ATOM      6  O   UNL A   1      34.314  29.003  23.131  1.00  0.00    -0.268 OA
ATOM      7  H   UNL A   1      33.296  30.625  24.322  1.00  0.00     0.163 HD
BRANCH   5   8
ATOM      8  C   UNL A   1      33.273  27.284  24.331  1.00  0.00     0.108 A 
ATOM      9  C   UNL A   1      32.914  23.042  26.252  1.00  0.00     0.165 A 
ATOM     10  C   UNL A   1      33.418  24.322  26.559  1.00  0.00     0.061 A 
ATOM     11  C   UNL A   1      32.421  22.735  24.972  1.00  0.00     0.205 A 
ATOM     12  C   UNL A   1      33.326  25.346  25.597  1.00  0.00     0.008 A 
ATOM     13  C   UNL A   1      32.423  23.737  23.971  1.00  0.00     0.189 A 
ATOM     14  C   UNL A   1      33.700  26.710  25.538  1.00  0.00     0.042 A 
ATOM     15  C   UNL A   1      32.762  25.055  24.368  1.00  0.00     0.096 A 
ATOM     16  N   UNL A   1      32.488  26.293  23.756  1.00  0.00    -0.329 N 
BRANCH   9  17
ATOM     17  O   UNL A   1      32.791  22.162  27.301  1.00  0.00    -0.493 OA
ATOM     18  C   UNL A   1      34.018  21.500  27.599  1.00  0.00     0.278 C 
ENDBRANCH   9  17
BRANCH  11  19
ATOM     19  O   UNL A   1      31.824  21.558  24.609  1.00  0.00    -0.490 OA
ATOM     20  C   UNL A   1      32.585  20.430  24.232  1.00  0.00     0.278 C 
ENDBRANCH  11  19
BRANCH  13  21
ATOM     21  O   UNL A   1      32.146  23.586  22.641  1.00  0.00    -0.491 OA
ATOM     22  C   UNL A   1      33.170  23.251  21.721  1.00  0.00     0.278 C 
ENDBRANCH  13  21
BRANCH  16  23
ATOM     23  C   UNL A   1      31.411  26.372  22.765  1.00  0.00     0.158 C 
BRANCH  23  24
ATOM     24  C   UNL A   1      30.302  27.386  22.893  1.00  0.00    -0.028 A 
ATOM     25  C   UNL A   1      30.275  28.668  22.336  1.00  0.00     0.005 A 
ATOM     26  C   UNL A   1      29.148  26.929  23.569  1.00  0.00     0.005 A 
ATOM     27  C   UNL A   1      29.088  29.410  22.341  1.00  0.00     0.000 A 
ATOM     28  C   UNL A   1      27.977  27.681  23.598  1.00  0.00     0.000 A 
ATOM     29  C   UNL A   1      27.939  28.911  22.954  1.00  0.00     0.000 A 
ENDBRANCH  23  24
ENDBRANCH  16  23
ENDBRANCH   5   8
ENDBRANCH   3   4
ENDBRANCH   2   3
ENDBRANCH   1   2
BRANCH   1  30
ATOM     30  C   UNL A   1      34.016  31.582  27.517  1.00  0.00     0.116 C 
BRANCH  30  31
ATOM     31  N   UNL A   1      34.182  31.904  28.917  1.00  0.00    -0.352 N 
ATOM     32  C   UNL A   1      35.181  31.738  29.834  1.00  0.00     0.251 C 
ATOM     33  H   UNL A   1      33.390  32.347  29.299  1.00  0.00     0.163 HD
ATOM     34  O   UNL A   1      34.953  32.210  30.951  1.00  0.00    -0.269 OA
BRANCH  32  35
ATOM     35  C   UNL A   1      36.458  31.010  29.603  1.00  0.00     0.039 A 
ATOM     36  C   UNL A   1      36.588  29.640  29.370  1.00  0.00     0.014 A 
ATOM     37  C   UNL A   1      37.627  31.789  29.712  1.00  0.00     0.014 A 
ATOM     38  C   UNL A   1      37.846  29.048  29.348  1.00  0.00     0.010 A 
ATOM     39  C   UNL A   1      38.886  31.207  29.675  1.00  0.00     0.010 A 
ATOM     40  C   UNL A   1      38.988  29.826  29.547  1.00  0.00    -0.014 A 
BRANCH  40  41
ATOM     41  C   UNL A   1      40.286  29.163  29.512  1.00  0.00     0.031 A 
ATOM     42  C   UNL A   1      40.875  28.911  30.859  1.00  0.00     0.074 A 
ATOM     43  C   UNL A   1      40.840  28.714  28.369  1.00  0.00     0.049 A 
ATOM     44  N   UNL A   1      41.957  29.406  31.368  1.00  0.00    -0.248 NA
ATOM     45  C   UNL A   1      40.065  28.144  31.819  1.00  0.00     0.031 C 
ATOM     46  C   UNL A   1      40.229  28.637  27.039  1.00  0.00     0.029 A 
ATOM     47  N   UNL A   1      42.049  28.122  28.173  1.00  0.00    -0.354 N 
ATOM     48  C   UNL A   1      42.073  28.846  32.643  1.00  0.00     0.074 A 
ATOM     49  C   UNL A   1      40.801  28.234  32.926  1.00  0.00     0.031 C 
ATOM     50  C   UNL A   1      40.959  27.807  26.258  1.00  0.00     0.029 A 
ATOM     51  C   UNL A   1      42.159  27.421  26.980  1.00  0.00     0.049 A 
ATOM     52  H   UNL A   1      42.786  28.184  28.824  1.00  0.00     0.167 HD
ATOM     53  C   UNL A   1      43.276  28.743  33.278  1.00  0.00     0.034 A 
ATOM     54  C   UNL A   1      43.122  26.520  26.651  1.00  0.00     0.034 A 
ATOM     55  C   UNL A   1      44.262  29.582  32.653  1.00  0.00     0.049 A 
ATOM     56  C   UNL A   1      44.266  26.716  27.576  1.00  0.00     0.074 A 
ATOM     57  C   UNL A   1      44.431  30.941  32.494  1.00  0.00     0.029 A 
ATOM     58  N   UNL A   1      45.115  28.987  31.755  1.00  0.00    -0.354 N 
ATOM     59  N   UNL A   1      45.039  27.764  27.564  1.00  0.00    -0.248 NA
ATOM     60  C   UNL A   1      44.251  25.962  28.821  1.00  0.00     0.031 C 
ATOM     61  C   UNL A   1      45.015  31.091  31.204  1.00  0.00     0.029 A 
ATOM     62  C   UNL A   1      45.229  29.818  30.672  1.00  0.00     0.049 A 
ATOM     63  H   UNL A   1      45.564  28.119  31.869  1.00  0.00     0.167 HD
ATOM     64  C   UNL A   1      45.230  28.067  28.903  1.00  0.00     0.074 A 
ATOM     65  C   UNL A   1      44.797  26.873  29.630  1.00  0.00     0.031 C 
ATOM     66  C   UNL A   1      45.440  29.353  29.316  1.00  0.00     0.034 A 
BRANCH  53  67
ATOM     67  C   UNL A   1      43.652  27.612  34.214  1.00  0.00     0.023 A 
ATOM     68  C   UNL A   1      43.776  26.272  33.800  1.00  0.00     0.031 A 
ATOM     69  C   UNL A   1      44.145  27.897  35.505  1.00  0.00     0.131 A 
ATOM     70  C   UNL A   1      44.374  25.300  34.615  1.00  0.00     0.055 A 
ATOM     71  C   UNL A   1      44.801  26.942  36.293  1.00  0.00     0.041 A 
ATOM     72  F   UNL A   1      44.067  29.135  36.021  1.00  0.00    -0.206 F 
ATOM     73  C   UNL A   1      44.926  25.635  35.844  1.00  0.00     0.022 A 
BRANCH  70  74
ATOM     74  S   UNL A   1      44.465  23.575  34.058  1.00  0.00     0.124 S 
ATOM     75  O   UNL A   1      43.415  22.947  34.860  1.00  0.00    -0.237 OA
ATOM     76  O   UNL A   1      44.170  23.712  32.632  1.00  0.00    -0.237 OA
ATOM     77  O   UNL A   1      45.829  23.182  34.372  1.00  0.00    -0.744 OA
ENDBRANCH  70  74
ENDBRANCH  53  67
BRANCH  54  78
ATOM     78  C   UNL A   1      42.892  25.213  25.986  1.00  0.00     0.023 A 
ATOM     79  C   UNL A   1      41.875  24.364  26.462  1.00  0.00     0.031 A 
ATOM     80  C   UNL A   1      43.850  24.652  25.123  1.00  0.00     0.131 A 
ATOM     81  C   UNL A   1      41.867  23.004  26.128  1.00  0.00     0.055 A 
ATOM     82  C   UNL A   1      43.827  23.296  24.772  1.00  0.00     0.041 A 
ATOM     83  F   UNL A   1      44.870  25.394  24.664  1.00  0.00    -0.206 F 
ATOM     84  C   UNL A   1      42.840  22.461  25.288  1.00  0.00     0.022 A 
BRANCH  81  85
ATOM     85  S   UNL A   1      40.639  21.892  26.868  1.00  0.00     0.124 S 
ATOM     86  O   UNL A   1      40.913  20.630  26.183  1.00  0.00    -0.237 OA
ATOM     87  O   UNL A   1      41.012  21.937  28.278  1.00  0.00    -0.237 OA
ATOM     88  O   UNL A   1      39.364  22.515  26.527  1.00  0.00    -0.744 OA
ENDBRANCH  81  85
ENDBRANCH  54  78
BRANCH  66  89
ATOM     89  C   UNL A   1      45.675  30.423  28.271  1.00  0.00     0.023 A 
ATOM     90  C   UNL A   1      46.998  30.848  28.073  1.00  0.00     0.031 A 
ATOM     91  C   UNL A   1      44.655  31.167  27.645  1.00  0.00     0.131 A 
ATOM     92  C   UNL A   1      47.269  31.989  27.309  1.00  0.00     0.055 A 
ATOM     93  C   UNL A   1      44.934  32.265  26.824  1.00  0.00     0.041 A 
ATOM     94  F   UNL A   1      43.361  30.913  27.872  1.00  0.00    -0.206 F 
ATOM     95  C   UNL A   1      46.247  32.691  26.665  1.00  0.00     0.022 A 
BRANCH  92  96
ATOM     96  S   UNL A   1      48.942  32.680  27.271  1.00  0.00     0.124 S 
ATOM     97  O   UNL A   1      49.768  31.479  27.181  1.00  0.00    -0.237 OA
ATOM     98  O   UNL A   1      48.908  33.508  26.066  1.00  0.00    -0.237 OA
ATOM     99  O   UNL A   1      49.048  33.421  28.524  1.00  0.00    -0.744 OA
ENDBRANCH  92  96
ENDBRANCH  66  89
ENDBRANCH  40  41
ENDBRANCH  32  35
ENDBRANCH  30  31
ENDBRANCH   1  30
TORSDOF 19
ENDMDL
MODEL 2
REMARK VINA RESULT:     -11.6      1.984      2.667
REMARK SMILES COc1cc2cc(C(=O)NCCCCNC(=O)c3ccc(-c4c5nc(c(-c6cc(S(=O)(=O)[O-])ccc6F)c6ccc([nH]6)c(-c6cc(S(=O)(=O)[O-])ccc6F)c6nc(c(-c7cc(S(=O)(=O)[O-])ccc7F)c7ccc4[nH]7)C=C6)C=C5)cc3)n(Cc3ccccc3)c2c(OC)c1OC
REMARK SMILES IDX 13 1 12 2 11 3 10 4 8 5 9 6 7 8 3 9 4 10 93 11 5 12 90 13
REMARK SMILES IDX 6 14 89 15 81 16 2 17 1 18 94 19 95 20 91 21 92 22 82 23
REMARK SMILES IDX 83 24 84 25 88 26 85 27 87 28 86 29 14 30 15 31 16 32 17 34
REMARK SMILES IDX 18 35 19 36 80 37 20 38 79 39 21 40 22 41 23 42 73 43 24 44
REMARK SMILES IDX 78 45 72 46 74 47 25 48 77 49 71 50 70 51 26 53 58 54 38 55
REMARK SMILES IDX 57 56 39 57 42 58 56 59 75 60 40 61 41 62 55 64 76 65 43 66
REMARK SMILES IDX 27 67 28 68 36 69 29 70 35 71 37 72 34 73 30 74 31 75 32 76
REMARK SMILES IDX 33 77 59 78 60 79 68 80 61 81 67 82 69 83 66 84 62 85 63 86
REMARK SMILES IDX 64 87 65 88 44 89 45 90 53 91 46 92 52 93 54 94 51 95 47 96
REMARK SMILES IDX 48 97 49 98 50 99
REMARK H PARENT 10 7 15 33 74 52 42 63
REMARK Flexibility Score: inf
ROOT
ATOM      1  C   UNL A   1      32.290  30.098  26.870  1.00  0.00     0.023 C 
ENDROOT
BRANCH   1   2
ATOM      2  C   UNL A   1      31.775  28.868  27.620  1.00  0.00     0.023 C 
BRANCH   2   3
ATOM      3  C   UNL A   1      32.121  27.498  27.033  1.00  0.00     0.116 C 
BRANCH   3   4
ATOM      4  N   UNL A   1      30.937  26.811  26.566  1.00  0.00    -0.351 N 
ATOM      5  C   UNL A   1      30.678  25.560  26.079  1.00  0.00     0.267 C 
ATOM      6  O   UNL A   1      29.470  25.320  25.954  1.00  0.00    -0.268 OA
ATOM      7  H   UNL A   1      30.131  27.375  26.608  1.00  0.00     0.163 HD
BRANCH   5   8
ATOM      8  C   UNL A   1      31.666  24.531  25.755  1.00  0.00     0.108 A 
ATOM      9  C   UNL A   1      34.013  20.588  24.890  1.00  0.00     0.165 A 
ATOM     10  C   UNL A   1      32.736  21.008  25.311  1.00  0.00     0.061 A 
ATOM     11  C   UNL A   1      35.070  21.501  24.732  1.00  0.00     0.205 A 
ATOM     12  C   UNL A   1      32.482  22.384  25.473  1.00  0.00     0.008 A 
ATOM     13  C   UNL A   1      34.844  22.874  24.993  1.00  0.00     0.189 A 
ATOM     14  C   UNL A   1      31.368  23.165  25.861  1.00  0.00     0.042 A 
ATOM     15  C   UNL A   1      33.507  23.281  25.233  1.00  0.00     0.096 A 
ATOM     16  N   UNL A   1      32.906  24.549  25.131  1.00  0.00    -0.329 N 
BRANCH   9  17
ATOM     17  O   UNL A   1      34.131  19.275  24.501  1.00  0.00    -0.493 OA
ATOM     18  C   UNL A   1      33.274  18.411  25.244  1.00  0.00     0.278 C 
ENDBRANCH   9  17
BRANCH  11  19
ATOM     19  O   UNL A   1      36.311  21.205  24.235  1.00  0.00    -0.490 OA
ATOM     20  C   UNL A   1      37.280  20.539  25.017  1.00  0.00     0.278 C 
ENDBRANCH  11  19
BRANCH  13  21
ATOM     21  O   UNL A   1      35.774  23.874  25.058  1.00  0.00    -0.491 OA
ATOM     22  C   UNL A   1      36.785  23.860  26.050  1.00  0.00     0.278 C 
ENDBRANCH  13  21
BRANCH  16  23
ATOM     23  C   UNL A   1      33.569  25.588  24.338  1.00  0.00     0.158 C 
BRANCH  23  24
ATOM     24  C   UNL A   1      32.775  26.588  23.535  1.00  0.00    -0.028 A 
ATOM     25  C   UNL A   1      31.629  26.328  22.779  1.00  0.00     0.005 A 
ATOM     26  C   UNL A   1      33.202  27.929  23.659  1.00  0.00     0.005 A 
ATOM     27  C   UNL A   1      30.865  27.389  22.277  1.00  0.00     0.000 A 
ATOM     28  C   UNL A   1      32.457  28.981  23.134  1.00  0.00     0.000 A 
ATOM     29  C   UNL A   1      31.269  28.710  22.469  1.00  0.00     0.000 A 
ENDBRANCH  23  24
ENDBRANCH  16  23
ENDBRANCH   5   8
ENDBRANCH   3   4
ENDBRANCH   2   3
ENDBRANCH   1   2
BRANCH   1  30
ATOM     30  C   UNL A   1      33.792  30.329  27.001  1.00  0.00     0.116 C 
BRANCH  30  31
ATOM     31  N   UNL A   1      34.110  31.423  27.892  1.00  0.00    -0.352 N 
ATOM     32  C   UNL A   1      35.234  31.838  28.548  1.00  0.00     0.251 C 
ATOM     33  H   UNL A   1      33.335  32.004  28.068  1.00  0.00     0.163 HD
ATOM     34  O   UNL A   1      35.111  32.883  29.193  1.00  0.00    -0.269 OA
BRANCH  32  35
ATOM     35  C   UNL A   1      36.536  31.119  28.579  1.00  0.00     0.039 A 
ATOM     36  C   UNL A   1      36.755  29.804  28.162  1.00  0.00     0.014 A 
ATOM     37  C   UNL A   1      37.607  31.830  29.156  1.00  0.00     0.014 A 
ATOM     38  C   UNL A   1      37.976  29.184  28.407  1.00  0.00     0.010 A 
ATOM     39  C   UNL A   1      38.832  31.222  29.387  1.00  0.00     0.010 A 
ATOM     40  C   UNL A   1      38.993  29.881  29.061  1.00  0.00    -0.014 A 
BRANCH  40  41
ATOM     41  C   UNL A   1      40.258  29.192  29.292  1.00  0.00     0.031 A 
ATOM     42  C   UNL A   1      40.481  28.796  30.714  1.00  0.00     0.074 A 
ATOM     43  C   UNL A   1      41.087  28.841  28.291  1.00  0.00     0.049 A 
ATOM     44  N   UNL A   1      41.396  29.212  31.529  1.00  0.00    -0.248 NA
ATOM     45  C   UNL A   1      39.452  27.960  31.353  1.00  0.00     0.031 C 
ATOM     46  C   UNL A   1      40.839  28.909  26.847  1.00  0.00     0.029 A 
ATOM     47  N   UNL A   1      42.306  28.241  28.353  1.00  0.00    -0.354 N 
ATOM     48  C   UNL A   1      41.180  28.529  32.729  1.00  0.00     0.074 A 
ATOM     49  C   UNL A   1      39.878  27.924  32.614  1.00  0.00     0.031 C 
ATOM     50  C   UNL A   1      41.745  28.140  26.200  1.00  0.00     0.029 A 
ATOM     51  C   UNL A   1      42.719  27.656  27.163  1.00  0.00     0.049 A 
ATOM     52  H   UNL A   1      42.851  28.222  29.173  1.00  0.00     0.167 HD
ATOM     53  C   UNL A   1      42.180  28.335  33.636  1.00  0.00     0.034 A 
ATOM     54  C   UNL A   1      43.735  26.767  27.003  1.00  0.00     0.034 A 
ATOM     55  C   UNL A   1      43.293  29.205  33.372  1.00  0.00     0.049 A 
ATOM     56  C   UNL A   1      44.603  26.844  28.205  1.00  0.00     0.074 A 
ATOM     57  C   UNL A   1      43.497  30.569  33.397  1.00  0.00     0.029 A 
ATOM     58  N   UNL A   1      44.349  28.679  32.667  1.00  0.00    -0.354 N 
ATOM     59  N   UNL A   1      45.352  27.869  28.496  1.00  0.00    -0.248 NA
ATOM     60  C   UNL A   1      44.269  25.973  29.323  1.00  0.00     0.031 C 
ATOM     61  C   UNL A   1      44.392  30.828  32.321  1.00  0.00     0.029 A 
ATOM     62  C   UNL A   1      44.737  29.607  31.738  1.00  0.00     0.049 A 
ATOM     63  H   UNL A   1      44.753  27.792  32.805  1.00  0.00     0.167 HD
ATOM     64  C   UNL A   1      45.193  28.036  29.863  1.00  0.00     0.074 A 
ATOM     65  C   UNL A   1      44.589  26.788  30.331  1.00  0.00     0.031 C 
ATOM     66  C   UNL A   1      45.289  29.270  30.441  1.00  0.00     0.034 A 
BRANCH  53  67
ATOM     67  C   UNL A   1      42.304  27.109  34.520  1.00  0.00     0.023 A 
ATOM     68  C   UNL A   1      43.021  25.957  34.150  1.00  0.00     0.031 A 
ATOM     69  C   UNL A   1      41.907  27.171  35.873  1.00  0.00     0.131 A 
ATOM     70  C   UNL A   1      43.339  24.954  35.079  1.00  0.00     0.055 A 
ATOM     71  C   UNL A   1      42.278  26.202  36.815  1.00  0.00     0.041 A 
ATOM     72  F   UNL A   1      41.199  28.211  36.343  1.00  0.00    -0.206 F 
ATOM     73  C   UNL A   1      43.007  25.089  36.421  1.00  0.00     0.022 A 
BRANCH  70  74
ATOM     74  S   UNL A   1      44.224  23.463  34.544  1.00  0.00     0.124 S 
ATOM     75  O   UNL A   1      43.271  22.872  33.603  1.00  0.00    -0.237 OA
ATOM     76  O   UNL A   1      45.427  24.037  33.941  1.00  0.00    -0.237 OA
ATOM     77  O   UNL A   1      44.440  22.728  35.779  1.00  0.00    -0.744 OA
ENDBRANCH  70  74
ENDBRANCH  53  67
BRANCH  54  78
ATOM     78  C   UNL A   1      43.685  25.537  26.174  1.00  0.00     0.023 A 
ATOM     79  C   UNL A   1      42.772  24.517  26.505  1.00  0.00     0.031 A 
ATOM     80  C   UNL A   1      44.723  25.210  25.285  1.00  0.00     0.131 A 
ATOM     81  C   UNL A   1      42.941  23.219  26.006  1.00  0.00     0.055 A 
ATOM     82  C   UNL A   1      44.877  23.916  24.769  1.00  0.00     0.041 A 
ATOM     83  F   UNL A   1      45.652  26.123  24.958  1.00  0.00    -0.206 F 
ATOM     84  C   UNL A   1      43.992  22.909  25.142  1.00  0.00     0.022 A 
BRANCH  81  85
ATOM     85  S   UNL A   1      41.847  21.882  26.558  1.00  0.00     0.124 S 
ATOM     86  O   UNL A   1      40.523  22.478  26.395  1.00  0.00    -0.237 OA
ATOM     87  O   UNL A   1      42.180  20.819  25.615  1.00  0.00    -0.237 OA
ATOM     88  O   UNL A   1      42.256  21.655  27.941  1.00  0.00    -0.744 OA
ENDBRANCH  81  85
ENDBRANCH  54  78
BRANCH  66  89
ATOM     89  C   UNL A   1      45.783  30.430  29.604  1.00  0.00     0.023 A 
ATOM     90  C   UNL A   1      44.895  30.964  28.657  1.00  0.00     0.031 A 
ATOM     91  C   UNL A   1      47.122  30.867  29.554  1.00  0.00     0.131 A 
ATOM     92  C   UNL A   1      45.350  31.866  27.688  1.00  0.00     0.055 A 
ATOM     93  C   UNL A   1      47.558  31.822  28.629  1.00  0.00     0.041 A 
ATOM     94  F   UNL A   1      48.066  30.327  30.334  1.00  0.00    -0.206 F 
ATOM     95  C   UNL A   1      46.673  32.316  27.679  1.00  0.00     0.022 A 
BRANCH  92  96
ATOM     96  S   UNL A   1      44.269  32.348  26.318  1.00  0.00     0.124 S 
ATOM     97  O   UNL A   1      45.222  32.544  25.229  1.00  0.00    -0.237 OA
ATOM     98  O   UNL A   1      43.397  31.183  26.186  1.00  0.00    -0.237 OA
ATOM     99  O   UNL A   1      43.609  33.559  26.797  1.00  0.00    -0.744 OA
ENDBRANCH  92  96
ENDBRANCH  66  89
ENDBRANCH  40  41
ENDBRANCH  32  35
ENDBRANCH  30  31
ENDBRANCH   1  30
TORSDOF 19
ENDMDL
MODEL 3
REMARK VINA RESULT:     -11.4      5.008     12.192
REMARK SMILES COc1cc2cc(C(=O)NCCCCNC(=O)c3ccc(-c4c5nc(c(-c6cc(S(=O)(=O)[O-])ccc6F)c6ccc([nH]6)c(-c6cc(S(=O)(=O)[O-])ccc6F)c6nc(c(-c7cc(S(=O)(=O)[O-])ccc7F)c7ccc4[nH]7)C=C6)C=C5)cc3)n(Cc3ccccc3)c2c(OC)c1OC
REMARK SMILES IDX 13 1 12 2 11 3 10 4 8 5 9 6 7 8 3 9 4 10 93 11 5 12 90 13
REMARK SMILES IDX 6 14 89 15 81 16 2 17 1 18 94 19 95 20 91 21 92 22 82 23
REMARK SMILES IDX 83 24 84 25 88 26 85 27 87 28 86 29 14 30 15 31 16 32 17 34
REMARK SMILES IDX 18 35 19 36 80 37 20 38 79 39 21 40 22 41 23 42 73 43 24 44
REMARK SMILES IDX 78 45 72 46 74 47 25 48 77 49 71 50 70 51 26 53 58 54 38 55
REMARK SMILES IDX 57 56 39 57 42 58 56 59 75 60 40 61 41 62 55 64 76 65 43 66
REMARK SMILES IDX 27 67 28 68 36 69 29 70 35 71 37 72 34 73 30 74 31 75 32 76
REMARK SMILES IDX 33 77 59 78 60 79 68 80 61 81 67 82 69 83 66 84 62 85 63 86
REMARK SMILES IDX 64 87 65 88 44 89 45 90 53 91 46 92 52 93 54 94 51 95 47 96
REMARK SMILES IDX 48 97 49 98 50 99
REMARK H PARENT 10 7 15 33 74 52 42 63
REMARK Flexibility Score: inf
ROOT
ATOM      1  C   UNL A   1      44.870  20.066  23.829  1.00  0.00     0.023 C 
ENDROOT
BRANCH   1   2
ATOM      2  C   UNL A   1      45.061  21.581  23.926  1.00  0.00     0.023 C 
BRANCH   2   3
ATOM      3  C   UNL A   1      46.336  22.081  24.610  1.00  0.00     0.116 C 
BRANCH   3   4
ATOM      4  N   UNL A   1      46.031  22.853  25.793  1.00  0.00    -0.351 N 
ATOM      5  C   UNL A   1      46.496  24.024  26.325  1.00  0.00     0.267 C 
ATOM      6  O   UNL A   1      45.829  24.427  27.287  1.00  0.00    -0.268 OA
ATOM      7  H   UNL A   1      45.326  22.441  26.343  1.00  0.00     0.163 HD
BRANCH   5   8
ATOM      8  C   UNL A   1      47.630  24.810  25.840  1.00  0.00     0.108 A 
ATOM      9  C   UNL A   1      50.545  27.691  23.603  1.00  0.00     0.165 A 
ATOM     10  C   UNL A   1      49.210  27.245  23.532  1.00  0.00     0.061 A 
ATOM     11  C   UNL A   1      51.462  27.124  24.504  1.00  0.00     0.205 A 
ATOM     12  C   UNL A   1      48.756  26.285  24.456  1.00  0.00     0.008 A 
ATOM     13  C   UNL A   1      51.032  26.085  25.366  1.00  0.00     0.189 A 
ATOM     14  C   UNL A   1      47.531  25.619  24.699  1.00  0.00     0.042 A 
ATOM     15  C   UNL A   1      49.645  25.793  25.396  1.00  0.00     0.096 A 
ATOM     16  N   UNL A   1      48.869  25.142  26.372  1.00  0.00    -0.329 N 
BRANCH   9  17
ATOM     17  O   UNL A   1      50.861  28.803  22.858  1.00  0.00    -0.493 OA
ATOM     18  C   UNL A   1      51.710  28.492  21.755  1.00  0.00     0.278 C 
ENDBRANCH   9  17
BRANCH  11  19
ATOM     19  O   UNL A   1      52.744  27.554  24.714  1.00  0.00    -0.490 OA
ATOM     20  C   UNL A   1      53.017  28.745  25.422  1.00  0.00     0.278 C 
ENDBRANCH  11  19
BRANCH  13  21
ATOM     21  O   UNL A   1      51.806  25.305  26.180  1.00  0.00    -0.491 OA
ATOM     22  C   UNL A   1      52.571  25.882  27.223  1.00  0.00     0.278 C 
ENDBRANCH  13  21
BRANCH  16  23
ATOM     23  C   UNL A   1      49.393  25.028  27.736  1.00  0.00     0.158 C 
BRANCH  23  24
ATOM     24  C   UNL A   1      48.966  25.983  28.822  1.00  0.00    -0.028 A 
ATOM     25  C   UNL A   1      47.908  25.807  29.718  1.00  0.00     0.005 A 
ATOM     26  C   UNL A   1      49.798  27.113  28.986  1.00  0.00     0.005 A 
ATOM     27  C   UNL A   1      47.772  26.662  30.818  1.00  0.00     0.000 A 
ATOM     28  C   UNL A   1      49.643  27.979  30.065  1.00  0.00     0.000 A 
ATOM     29  C   UNL A   1      48.646  27.733  31.000  1.00  0.00     0.000 A 
ENDBRANCH  23  24
ENDBRANCH  16  23
ENDBRANCH   5   8
ENDBRANCH   3   4
ENDBRANCH   2   3
ENDBRANCH   1   2
BRANCH   1  30
ATOM     30  C   UNL A   1      44.618  19.379  25.167  1.00  0.00     0.116 C 
BRANCH  30  31
ATOM     31  N   UNL A   1      43.239  18.974  25.333  1.00  0.00    -0.352 N 
ATOM     32  C   UNL A   1      42.107  19.573  25.806  1.00  0.00     0.251 C 
ATOM     33  H   UNL A   1      43.079  18.049  25.034  1.00  0.00     0.163 HD
ATOM     34  O   UNL A   1      41.080  18.892  25.731  1.00  0.00    -0.269 OA
BRANCH  32  35
ATOM     35  C   UNL A   1      42.035  20.922  26.429  1.00  0.00     0.039 A 
ATOM     36  C   UNL A   1      42.192  22.140  25.764  1.00  0.00     0.014 A 
ATOM     37  C   UNL A   1      41.868  20.936  27.828  1.00  0.00     0.014 A 
ATOM     38  C   UNL A   1      42.282  23.327  26.484  1.00  0.00     0.010 A 
ATOM     39  C   UNL A   1      41.940  22.117  28.550  1.00  0.00     0.010 A 
ATOM     40  C   UNL A   1      42.203  23.305  27.878  1.00  0.00    -0.014 A 
BRANCH  40  41
ATOM     41  C   UNL A   1      42.299  24.573  28.591  1.00  0.00     0.031 A 
ATOM     42  C   UNL A   1      41.161  25.503  28.329  1.00  0.00     0.074 A 
ATOM     43  C   UNL A   1      43.265  24.827  29.495  1.00  0.00     0.049 A 
ATOM     44  N   UNL A   1      41.187  26.660  27.751  1.00  0.00    -0.248 NA
ATOM     45  C   UNL A   1      39.803  25.001  28.593  1.00  0.00     0.031 C 
ATOM     46  C   UNL A   1      44.250  23.894  30.050  1.00  0.00     0.029 A 
ATOM     47  N   UNL A   1      43.506  25.965  30.200  1.00  0.00    -0.354 N 
ATOM     48  C   UNL A   1      39.869  27.126  27.766  1.00  0.00     0.074 A 
ATOM     49  C   UNL A   1      39.052  25.996  28.123  1.00  0.00     0.031 C 
ATOM     50  C   UNL A   1      44.789  24.426  31.171  1.00  0.00     0.029 A 
ATOM     51  C   UNL A   1      44.304  25.786  31.323  1.00  0.00     0.049 A 
ATOM     52  H   UNL A   1      43.146  26.843  29.937  1.00  0.00     0.167 HD
ATOM     53  C   UNL A   1      39.575  28.457  27.693  1.00  0.00     0.034 A 
ATOM     54  C   UNL A   1      44.476  26.664  32.346  1.00  0.00     0.034 A 
ATOM     55  C   UNL A   1      40.712  29.213  27.243  1.00  0.00     0.049 A 
ATOM     56  C   UNL A   1      44.031  28.002  31.880  1.00  0.00     0.074 A 
ATOM     57  C   UNL A   1      41.441  29.282  26.074  1.00  0.00     0.029 A 
ATOM     58  N   UNL A   1      41.480  29.824  28.204  1.00  0.00    -0.354 N 
ATOM     59  N   UNL A   1      44.658  28.704  30.980  1.00  0.00    -0.248 NA
ATOM     60  C   UNL A   1      42.629  28.341  32.076  1.00  0.00     0.031 C 
ATOM     61  C   UNL A   1      42.784  29.502  26.490  1.00  0.00     0.029 A 
ATOM     62  C   UNL A   1      42.796  29.620  27.882  1.00  0.00     0.049 A 
ATOM     63  H   UNL A   1      41.145  30.320  28.985  1.00  0.00     0.167 HD
ATOM     64  C   UNL A   1      43.650  29.226  30.185  1.00  0.00     0.074 A 
ATOM     65  C   UNL A   1      42.422  29.044  30.960  1.00  0.00     0.031 C 
ATOM     66  C   UNL A   1      43.856  29.486  28.860  1.00  0.00     0.034 A 
BRANCH  53  67
ATOM     67  C   UNL A   1      38.393  29.107  28.384  1.00  0.00     0.023 A 
ATOM     68  C   UNL A   1      38.281  29.225  29.781  1.00  0.00     0.031 A 
ATOM     69  C   UNL A   1      37.460  29.855  27.633  1.00  0.00     0.131 A 
ATOM     70  C   UNL A   1      37.320  30.054  30.378  1.00  0.00     0.055 A 
ATOM     71  C   UNL A   1      36.542  30.732  28.225  1.00  0.00     0.041 A 
ATOM     72  F   UNL A   1      37.453  29.810  26.291  1.00  0.00    -0.206 F 
ATOM     73  C   UNL A   1      36.474  30.842  29.608  1.00  0.00     0.022 A 
BRANCH  70  74
ATOM     74  S   UNL A   1      37.181  30.135  32.186  1.00  0.00     0.124 S 
ATOM     75  O   UNL A   1      38.451  30.762  32.554  1.00  0.00    -0.237 OA
ATOM     76  O   UNL A   1      35.995  30.975  32.351  1.00  0.00    -0.237 OA
ATOM     77  O   UNL A   1      37.016  28.747  32.582  1.00  0.00    -0.744 OA
ENDBRANCH  70  74
ENDBRANCH  53  67
BRANCH  54  78
ATOM     78  C   UNL A   1      44.479  26.320  33.789  1.00  0.00     0.023 A 
ATOM     79  C   UNL A   1      43.262  26.296  34.497  1.00  0.00     0.031 A 
ATOM     80  C   UNL A   1      45.664  26.339  34.544  1.00  0.00     0.131 A 
ATOM     81  C   UNL A   1      43.249  26.350  35.896  1.00  0.00     0.055 A 
ATOM     82  C   UNL A   1      45.649  26.371  35.946  1.00  0.00     0.041 A 
ATOM     83  F   UNL A   1      46.859  26.403  33.936  1.00  0.00    -0.206 F 
ATOM     84  C   UNL A   1      44.437  26.393  36.628  1.00  0.00     0.022 A 
BRANCH  81  85
ATOM     85  S   UNL A   1      41.675  26.470  36.789  1.00  0.00     0.124 S 
ATOM     86  O   UNL A   1      42.041  26.010  38.126  1.00  0.00    -0.237 OA
ATOM     87  O   UNL A   1      41.377  27.894  36.673  1.00  0.00    -0.237 OA
ATOM     88  O   UNL A   1      40.793  25.574  36.048  1.00  0.00    -0.744 OA
ENDBRANCH  81  85
ENDBRANCH  54  78
BRANCH  66  89
ATOM     89  C   UNL A   1      45.264  29.399  28.312  1.00  0.00     0.023 A 
ATOM     90  C   UNL A   1      45.988  30.598  28.205  1.00  0.00     0.031 A 
ATOM     91  C   UNL A   1      45.819  28.253  27.708  1.00  0.00     0.131 A 
ATOM     92  C   UNL A   1      47.192  30.638  27.492  1.00  0.00     0.055 A 
ATOM     93  C   UNL A   1      47.057  28.281  27.057  1.00  0.00     0.041 A 
ATOM     94  F   UNL A   1      45.148  27.096  27.653  1.00  0.00    -0.206 F 
ATOM     95  C   UNL A   1      47.743  29.483  26.933  1.00  0.00     0.022 A 
BRANCH  92  96
ATOM     96  S   UNL A   1      47.984  32.227  27.137  1.00  0.00     0.124 S 
ATOM     97  O   UNL A   1      47.076  32.810  26.153  1.00  0.00    -0.237 OA
ATOM     98  O   UNL A   1      47.985  32.872  28.449  1.00  0.00    -0.237 OA
ATOM     99  O   UNL A   1      49.303  31.860  26.631  1.00  0.00    -0.744 OA
ENDBRANCH  92  96
ENDBRANCH  66  89
ENDBRANCH  40  41
ENDBRANCH  32  35
ENDBRANCH  30  31
ENDBRANCH   1  30
TORSDOF 19
ENDMDL
