MODEL 1
REMARK VINA RESULT:     -13.1      0.000      0.000
REMARK SMILES O=C(NCCCCNC(=O)[C@@H](Cc1ccc(F)cc1)NC(=O)c1ccn(C2CCCC2)n1)c1ccc(-c2c3nc(c(-c4cc(S(=O)(=O)[O-])ccc4F)c4ccc([nH]4)c(-c4cc(S(=O)(=O)[O-])ccc4F)c4nc(c(-c5cc(S(=O)(=O)[O-])ccc5F)c5ccc2[nH]5)C=C4)C=C3)cc1
REMARK SMILES IDX 5 1 4 2 3 3 1 4 2 5 33 7 34 8 95 9 35 10 94 11 36 12 37 13
REMARK SMILES IDX 38 14 88 15 39 16 93 17 87 18 89 19 40 20 92 21 86 22 85 23
REMARK SMILES IDX 41 25 73 26 53 27 72 28 54 29 57 30 71 31 90 32 55 33 56 34
REMARK SMILES IDX 70 36 91 37 58 38 42 39 43 40 51 41 44 42 50 43 52 44 49 45
REMARK SMILES IDX 45 46 46 47 47 48 48 49 74 50 75 51 83 52 76 53 82 54 84 55
REMARK SMILES IDX 81 56 77 57 78 58 79 59 80 60 59 61 60 62 68 63 61 64 67 65
REMARK SMILES IDX 69 66 66 67 62 68 63 69 64 70 65 71 6 72 7 73 8 74 9 75
REMARK SMILES IDX 10 77 11 78 12 79 13 80 14 81 19 82 15 83 18 84 16 85 17 86
REMARK SMILES IDX 20 87 21 88 22 90 23 91 24 92 32 93 25 94 26 95 27 96 28 97
REMARK SMILES IDX 31 98 29 99 30 100
REMARK H PARENT 3 6 89 24 57 35 8 76 20 89
REMARK Flexibility Score: inf
ROOT
ATOM      1  C   UNL A   1      32.730  28.993  27.103  1.00  0.00     0.023 C 
ENDROOT
BRANCH   1   2
ATOM      2  C   UNL A   1      33.836  30.038  26.902  1.00  0.00     0.116 C 
BRANCH   2   3
ATOM      3  N   UNL A   1      33.968  31.007  27.972  1.00  0.00    -0.352 N 
ATOM      4  O   UNL A   1      34.825  32.517  29.341  1.00  0.00    -0.269 OA
ATOM      5  C   UNL A   1      35.037  31.503  28.671  1.00  0.00     0.251 C 
ATOM      6  H   UNL A   1      33.107  31.390  28.257  1.00  0.00     0.163 HD
BRANCH   5   7
ATOM      7  C   UNL A   1      36.381  30.867  28.717  1.00  0.00     0.039 A 
ATOM      8  C   UNL A   1      36.651  29.541  28.378  1.00  0.00     0.014 A 
ATOM      9  C   UNL A   1      37.433  31.658  29.214  1.00  0.00     0.014 A 
ATOM     10  C   UNL A   1      37.890  28.976  28.638  1.00  0.00     0.010 A 
ATOM     11  C   UNL A   1      38.692  31.109  29.439  1.00  0.00     0.010 A 
ATOM     12  C   UNL A   1      38.899  29.752  29.194  1.00  0.00    -0.014 A 
BRANCH  12  13
ATOM     13  C   UNL A   1      40.187  29.101  29.418  1.00  0.00     0.031 A 
ATOM     14  C   UNL A   1      40.621  28.972  30.844  1.00  0.00     0.074 A 
ATOM     15  C   UNL A   1      40.870  28.520  28.414  1.00  0.00     0.049 A 
ATOM     16  N   UNL A   1      41.761  29.265  31.385  1.00  0.00    -0.248 NA
ATOM     17  C   UNL A   1      39.612  28.497  31.807  1.00  0.00     0.031 C 
ATOM     18  C   UNL A   1      40.425  28.317  27.033  1.00  0.00     0.029 A 
ATOM     19  N   UNL A   1      42.049  27.840  28.469  1.00  0.00    -0.354 N 
ATOM     20  C   UNL A   1      41.676  28.855  32.715  1.00  0.00     0.074 A 
ATOM     21  C   UNL A   1      40.302  28.493  32.946  1.00  0.00     0.031 C 
ATOM     22  C   UNL A   1      41.182  27.349  26.472  1.00  0.00     0.029 A 
ATOM     23  C   UNL A   1      42.220  26.957  27.410  1.00  0.00     0.049 A 
ATOM     24  H   UNL A   1      42.713  27.962  29.185  1.00  0.00     0.167 HD
ATOM     25  C   UNL A   1      42.764  28.681  33.517  1.00  0.00     0.034 A 
ATOM     26  C   UNL A   1      43.060  25.892  27.377  1.00  0.00     0.034 A 
ATOM     27  C   UNL A   1      43.918  29.391  33.044  1.00  0.00     0.049 A 
ATOM     28  C   UNL A   1      44.109  26.126  28.401  1.00  0.00     0.074 A 
ATOM     29  C   UNL A   1      44.202  30.723  32.807  1.00  0.00     0.029 A 
ATOM     30  N   UNL A   1      44.918  28.692  32.415  1.00  0.00    -0.354 N 
ATOM     31  N   UNL A   1      44.976  27.101  28.352  1.00  0.00    -0.248 NA
ATOM     32  C   UNL A   1      43.928  25.524  29.715  1.00  0.00     0.031 C 
ATOM     33  C   UNL A   1      45.019  30.723  31.640  1.00  0.00     0.029 A 
ATOM     34  C   UNL A   1      45.210  29.390  31.268  1.00  0.00     0.049 A 
ATOM     35  H   UNL A   1      45.339  27.857  32.722  1.00  0.00     0.167 HD
ATOM     36  C   UNL A   1      45.145  27.500  29.669  1.00  0.00     0.074 A 
ATOM     37  C   UNL A   1      44.550  26.434  30.469  1.00  0.00     0.031 C 
ATOM     38  C   UNL A   1      45.506  28.777  29.991  1.00  0.00     0.034 A 
BRANCH  25  39
ATOM     39  C   UNL A   1      42.832  27.654  34.618  1.00  0.00     0.023 A 
ATOM     40  C   UNL A   1      43.482  26.428  34.385  1.00  0.00     0.031 A 
ATOM     41  C   UNL A   1      42.062  27.737  35.801  1.00  0.00     0.131 A 
ATOM     42  C   UNL A   1      43.342  25.358  35.290  1.00  0.00     0.055 A 
ATOM     43  C   UNL A   1      41.977  26.696  36.728  1.00  0.00     0.041 A 
ATOM     44  F   UNL A   1      41.283  28.795  36.068  1.00  0.00    -0.206 F 
ATOM     45  C   UNL A   1      42.606  25.492  36.467  1.00  0.00     0.022 A 
BRANCH  42  46
ATOM     46  S   UNL A   1      44.011  23.734  34.841  1.00  0.00     0.124 S 
ATOM     47  O   UNL A   1      42.850  23.081  34.246  1.00  0.00    -0.237 OA
ATOM     48  O   UNL A   1      45.088  24.094  33.923  1.00  0.00    -0.237 OA
ATOM     49  O   UNL A   1      44.447  23.179  36.121  1.00  0.00    -0.744 OA
ENDBRANCH  42  46
ENDBRANCH  25  39
BRANCH  26  50
ATOM     50  C   UNL A   1      42.761  24.558  26.789  1.00  0.00     0.023 A 
ATOM     51  C   UNL A   1      43.677  23.899  25.948  1.00  0.00     0.031 A 
ATOM     52  C   UNL A   1      41.649  23.802  27.229  1.00  0.00     0.131 A 
ATOM     53  C   UNL A   1      43.455  22.555  25.570  1.00  0.00     0.055 A 
ATOM     54  C   UNL A   1      41.421  22.483  26.834  1.00  0.00     0.041 A 
ATOM     55  F   UNL A   1      40.785  24.286  28.135  1.00  0.00    -0.206 F 
ATOM     56  C   UNL A   1      42.332  21.849  26.006  1.00  0.00     0.022 A 
BRANCH  53  57
ATOM     57  S   UNL A   1      44.708  21.656  24.606  1.00  0.00     0.124 S 
ATOM     58  O   UNL A   1      44.229  20.281  24.693  1.00  0.00    -0.237 OA
ATOM     59  O   UNL A   1      44.621  22.291  23.296  1.00  0.00    -0.237 OA
ATOM     60  O   UNL A   1      45.949  21.925  25.333  1.00  0.00    -0.744 OA
ENDBRANCH  53  57
ENDBRANCH  26  50
BRANCH  38  61
ATOM     61  C   UNL A   1      45.995  29.698  28.896  1.00  0.00     0.023 A 
ATOM     62  C   UNL A   1      45.175  30.623  28.211  1.00  0.00     0.031 A 
ATOM     63  C   UNL A   1      47.380  29.753  28.665  1.00  0.00     0.131 A 
ATOM     64  C   UNL A   1      45.754  31.556  27.327  1.00  0.00     0.055 A 
ATOM     65  C   UNL A   1      47.950  30.685  27.799  1.00  0.00     0.041 A 
ATOM     66  F   UNL A   1      48.212  28.926  29.321  1.00  0.00    -0.206 F 
ATOM     67  C   UNL A   1      47.138  31.589  27.125  1.00  0.00     0.022 A 
BRANCH  64  68
ATOM     68  S   UNL A   1      44.713  32.765  26.448  1.00  0.00     0.124 S 
ATOM     69  O   UNL A   1      44.066  33.501  27.528  1.00  0.00    -0.237 OA
ATOM     70  O   UNL A   1      45.685  33.510  25.653  1.00  0.00    -0.237 OA
ATOM     71  O   UNL A   1      43.806  31.928  25.658  1.00  0.00    -0.744 OA
ENDBRANCH  64  68
ENDBRANCH  38  61
ENDBRANCH  12  13
ENDBRANCH   5   7
ENDBRANCH   2   3
ENDBRANCH   1   2
BRANCH   1  72
ATOM     72  C   UNL A   1      31.770  28.850  25.926  1.00  0.00     0.023 C 
BRANCH  72  73
ATOM     73  C   UNL A   1      32.337  29.330  24.595  1.00  0.00     0.116 C 
BRANCH  73  74
ATOM     74  N   UNL A   1      31.310  29.444  23.589  1.00  0.00    -0.354 N 
ATOM     75  C   UNL A   1      30.773  28.512  22.763  1.00  0.00     0.242 C 
ATOM     76  H   UNL A   1      30.936  30.348  23.484  1.00  0.00     0.163 HD
ATOM     77  O   UNL A   1      29.878  28.895  21.999  1.00  0.00    -0.273 OA
BRANCH  75  78
ATOM     78  C   UNL A   1      31.215  27.030  22.746  1.00  0.00     0.176 C 
BRANCH  78  79
ATOM     79  C   UNL A   1      30.305  26.020  23.485  1.00  0.00     0.070 C 
BRANCH  79  80
ATOM     80  C   UNL A   1      30.806  25.158  24.625  1.00  0.00    -0.045 A 
ATOM     81  C   UNL A   1      30.417  23.805  24.678  1.00  0.00     0.007 A 
ATOM     82  C   UNL A   1      31.575  25.661  25.690  1.00  0.00     0.007 A 
ATOM     83  C   UNL A   1      30.852  22.967  25.708  1.00  0.00     0.039 A 
ATOM     84  C   UNL A   1      32.042  24.814  26.699  1.00  0.00     0.039 A 
ATOM     85  C   UNL A   1      31.681  23.474  26.698  1.00  0.00     0.123 A 
ATOM     86  F   UNL A   1      32.132  22.669  27.667  1.00  0.00    -0.207 F 
ENDBRANCH  79  80
ENDBRANCH  78  79
BRANCH  78  87
ATOM     87  N   UNL A   1      31.702  26.579  21.445  1.00  0.00    -0.339 N 
ATOM     88  C   UNL A   1      32.652  25.637  21.123  1.00  0.00     0.272 C 
ATOM     89  H   UNL A   1      31.282  27.020  20.673  1.00  0.00     0.164 HD
ATOM     90  O   UNL A   1      32.947  25.534  19.931  1.00  0.00    -0.267 OA
BRANCH  88  91
ATOM     91  C   UNL A   1      33.290  24.826  22.171  1.00  0.00     0.150 A 
ATOM     92  C   UNL A   1      34.179  25.215  23.212  1.00  0.00     0.056 A 
ATOM     93  N   UNL A   1      33.034  23.508  22.253  1.00  0.00    -0.167 NA
ATOM     94  C   UNL A   1      34.521  24.052  23.863  1.00  0.00     0.110 A 
ATOM     95  N   UNL A   1      33.809  23.063  23.254  1.00  0.00    -0.269 N 
BRANCH  95  96
ATOM     96  C   UNL A   1      33.804  21.660  23.600  1.00  0.00     0.107 C 
ATOM     97  C   UNL A   1      34.105  21.394  25.074  1.00  0.00     0.027 C 
ATOM     98  C   UNL A   1      32.457  20.964  23.390  1.00  0.00     0.027 C 
ATOM     99  C   UNL A   1      33.658  19.954  25.273  1.00  0.00     0.002 C 
ATOM    100  C   UNL A   1      32.503  19.735  24.296  1.00  0.00     0.002 C 
ENDBRANCH  95  96
ENDBRANCH  88  91
ENDBRANCH  78  87
ENDBRANCH  75  78
ENDBRANCH  73  74
ENDBRANCH  72  73
ENDBRANCH   1  72
TORSDOF 19
ENDMDL
MODEL 2
REMARK VINA RESULT:     -13.0      1.546      2.511
REMARK SMILES O=C(NCCCCNC(=O)[C@@H](Cc1ccc(F)cc1)NC(=O)c1ccn(C2CCCC2)n1)c1ccc(-c2c3nc(c(-c4cc(S(=O)(=O)[O-])ccc4F)c4ccc([nH]4)c(-c4cc(S(=O)(=O)[O-])ccc4F)c4nc(c(-c5cc(S(=O)(=O)[O-])ccc5F)c5ccc2[nH]5)C=C4)C=C3)cc1
REMARK SMILES IDX 5 1 4 2 3 3 1 4 2 5 33 7 34 8 95 9 35 10 94 11 36 12 37 13
REMARK SMILES IDX 38 14 88 15 39 16 93 17 87 18 89 19 40 20 92 21 86 22 85 23
REMARK SMILES IDX 41 25 73 26 53 27 72 28 54 29 57 30 71 31 90 32 55 33 56 34
REMARK SMILES IDX 70 36 91 37 58 38 42 39 43 40 51 41 44 42 50 43 52 44 49 45
REMARK SMILES IDX 45 46 46 47 47 48 48 49 74 50 75 51 83 52 76 53 82 54 84 55
REMARK SMILES IDX 81 56 77 57 78 58 79 59 80 60 59 61 60 62 68 63 61 64 67 65
REMARK SMILES IDX 69 66 66 67 62 68 63 69 64 70 65 71 6 72 7 73 8 74 9 75
REMARK SMILES IDX 10 77 11 78 12 79 13 80 14 81 19 82 15 83 18 84 16 85 17 86
REMARK SMILES IDX 20 87 21 88 22 90 23 91 24 92 32 93 25 94 26 95 27 96 28 97
REMARK SMILES IDX 31 98 29 99 30 100
REMARK H PARENT 3 6 89 24 57 35 8 76 20 89
REMARK Flexibility Score: inf
ROOT
ATOM      1  C   UNL A   1      32.318  29.174  27.146  1.00  0.00     0.023 C 
ENDROOT
BRANCH   1   2
ATOM      2  C   UNL A   1      33.779  29.644  27.119  1.00  0.00     0.116 C 
BRANCH   2   3
ATOM      3  N   UNL A   1      33.982  31.040  27.452  1.00  0.00    -0.352 N 
ATOM      4  O   UNL A   1      34.951  33.003  27.768  1.00  0.00    -0.269 OA
ATOM      5  C   UNL A   1      35.080  31.776  27.811  1.00  0.00     0.251 C 
ATOM      6  H   UNL A   1      33.154  31.573  27.411  1.00  0.00     0.163 HD
BRANCH   5   7
ATOM      7  C   UNL A   1      36.361  31.195  28.298  1.00  0.00     0.039 A 
ATOM      8  C   UNL A   1      37.442  31.932  28.780  1.00  0.00     0.014 A 
ATOM      9  C   UNL A   1      36.500  29.799  28.185  1.00  0.00     0.014 A 
ATOM     10  C   UNL A   1      38.665  31.329  29.026  1.00  0.00     0.010 A 
ATOM     11  C   UNL A   1      37.713  29.180  28.470  1.00  0.00     0.010 A 
ATOM     12  C   UNL A   1      38.807  29.959  28.844  1.00  0.00    -0.014 A 
BRANCH  12  13
ATOM     13  C   UNL A   1      40.114  29.384  29.146  1.00  0.00     0.031 A 
ATOM     14  C   UNL A   1      40.458  29.255  30.596  1.00  0.00     0.074 A 
ATOM     15  C   UNL A   1      40.898  28.863  28.183  1.00  0.00     0.049 A 
ATOM     16  N   UNL A   1      41.539  29.606  31.218  1.00  0.00    -0.248 NA
ATOM     17  C   UNL A   1      39.418  28.702  31.481  1.00  0.00     0.031 C 
ATOM     18  C   UNL A   1      40.562  28.659  26.772  1.00  0.00     0.029 A 
ATOM     19  N   UNL A   1      42.111  28.256  28.309  1.00  0.00    -0.354 N 
ATOM     20  C   UNL A   1      41.389  29.168  32.534  1.00  0.00     0.074 A 
ATOM     21  C   UNL A   1      40.028  28.718  32.664  1.00  0.00     0.031 C 
ATOM     22  C   UNL A   1      41.413  27.750  26.250  1.00  0.00     0.029 A 
ATOM     23  C   UNL A   1      42.407  27.404  27.252  1.00  0.00     0.049 A 
ATOM     24  H   UNL A   1      42.716  28.404  29.070  1.00  0.00     0.167 HD
ATOM     25  C   UNL A   1      42.429  29.045  33.406  1.00  0.00     0.034 A 
ATOM     26  C   UNL A   1      43.312  26.393  27.262  1.00  0.00     0.034 A 
ATOM     27  C   UNL A   1      43.566  29.833  33.023  1.00  0.00     0.049 A 
ATOM     28  C   UNL A   1      44.273  26.671  28.359  1.00  0.00     0.074 A 
ATOM     29  C   UNL A   1      43.783  31.184  32.825  1.00  0.00     0.029 A 
ATOM     30  N   UNL A   1      44.648  29.206  32.454  1.00  0.00    -0.354 N 
ATOM     31  N   UNL A   1      45.079  27.697  28.384  1.00  0.00    -0.248 NA
ATOM     32  C   UNL A   1      44.040  26.035  29.648  1.00  0.00     0.031 C 
ATOM     33  C   UNL A   1      44.676  31.254  31.718  1.00  0.00     0.029 A 
ATOM     34  C   UNL A   1      44.974  29.943  31.341  1.00  0.00     0.049 A 
ATOM     35  H   UNL A   1      45.098  28.394  32.778  1.00  0.00     0.167 HD
ATOM     36  C   UNL A   1      45.134  28.082  29.714  1.00  0.00     0.074 A 
ATOM     37  C   UNL A   1      44.553  26.967  30.456  1.00  0.00     0.031 C 
ATOM     38  C   UNL A   1      45.392  29.372  30.078  1.00  0.00     0.034 A 
BRANCH  25  39
ATOM     39  C   UNL A   1      42.486  28.005  34.494  1.00  0.00     0.023 A 
ATOM     40  C   UNL A   1      43.108  26.768  34.241  1.00  0.00     0.031 A 
ATOM     41  C   UNL A   1      41.729  28.089  35.685  1.00  0.00     0.131 A 
ATOM     42  C   UNL A   1      42.954  25.691  35.135  1.00  0.00     0.055 A 
ATOM     43  C   UNL A   1      41.630  27.040  36.601  1.00  0.00     0.041 A 
ATOM     44  F   UNL A   1      40.974  29.160  35.972  1.00  0.00    -0.206 F 
ATOM     45  C   UNL A   1      42.232  25.825  36.321  1.00  0.00     0.022 A 
BRANCH  42  46
ATOM     46  S   UNL A   1      43.586  24.058  34.661  1.00  0.00     0.124 S 
ATOM     47  O   UNL A   1      42.379  23.239  34.713  1.00  0.00    -0.237 OA
ATOM     48  O   UNL A   1      44.130  24.319  33.332  1.00  0.00    -0.237 OA
ATOM     49  O   UNL A   1      44.580  23.765  35.692  1.00  0.00    -0.744 OA
ENDBRANCH  42  46
ENDBRANCH  25  39
BRANCH  26  50
ATOM     50  C   UNL A   1      43.136  25.054  26.635  1.00  0.00     0.023 A 
ATOM     51  C   UNL A   1      44.106  24.507  25.775  1.00  0.00     0.031 A 
ATOM     52  C   UNL A   1      42.101  24.186  27.055  1.00  0.00     0.131 A 
ATOM     53  C   UNL A   1      44.010  23.161  25.358  1.00  0.00     0.055 A 
ATOM     54  C   UNL A   1      41.996  22.863  26.622  1.00  0.00     0.041 A 
ATOM     55  F   UNL A   1      41.199  24.561  27.974  1.00  0.00    -0.206 F 
ATOM     56  C   UNL A   1      42.958  22.341  25.775  1.00  0.00     0.022 A 
BRANCH  53  57
ATOM     57  S   UNL A   1      45.337  22.410  24.368  1.00  0.00     0.124 S 
ATOM     58  O   UNL A   1      44.585  21.624  23.397  1.00  0.00    -0.237 OA
ATOM     59  O   UNL A   1      46.047  23.574  23.849  1.00  0.00    -0.237 OA
ATOM     60  O   UNL A   1      46.087  21.626  25.350  1.00  0.00    -0.744 OA
ENDBRANCH  53  57
ENDBRANCH  26  50
BRANCH  38  61
ATOM     61  C   UNL A   1      45.897  30.341  29.033  1.00  0.00     0.023 A 
ATOM     62  C   UNL A   1      45.060  31.084  28.168  1.00  0.00     0.031 A 
ATOM     63  C   UNL A   1      47.269  30.644  29.037  1.00  0.00     0.131 A 
ATOM     64  C   UNL A   1      45.612  32.085  27.345  1.00  0.00     0.055 A 
ATOM     65  C   UNL A   1      47.810  31.644  28.230  1.00  0.00     0.041 A 
ATOM     66  F   UNL A   1      48.105  29.999  29.869  1.00  0.00    -0.206 F 
ATOM     67  C   UNL A   1      46.983  32.367  27.379  1.00  0.00     0.022 A 
BRANCH  64  68
ATOM     68  S   UNL A   1      44.546  33.061  26.237  1.00  0.00     0.124 S 
ATOM     69  O   UNL A   1      45.497  33.847  25.459  1.00  0.00    -0.237 OA
ATOM     70  O   UNL A   1      43.812  32.031  25.505  1.00  0.00    -0.237 OA
ATOM     71  O   UNL A   1      43.722  33.847  27.158  1.00  0.00    -0.744 OA
ENDBRANCH  64  68
ENDBRANCH  38  61
ENDBRANCH  12  13
ENDBRANCH   5   7
ENDBRANCH   2   3
ENDBRANCH   1   2
BRANCH   1  72
ATOM     72  C   UNL A   1      31.815  28.590  25.830  1.00  0.00     0.023 C 
BRANCH  72  73
ATOM     73  C   UNL A   1      32.903  28.373  24.785  1.00  0.00     0.116 C 
BRANCH  73  74
ATOM     74  N   UNL A   1      32.433  27.565  23.686  1.00  0.00    -0.354 N 
ATOM     75  C   UNL A   1      32.320  26.220  23.562  1.00  0.00     0.242 C 
ATOM     76  H   UNL A   1      32.147  28.076  22.895  1.00  0.00     0.163 HD
ATOM     77  O   UNL A   1      31.860  25.797  22.493  1.00  0.00    -0.273 OA
BRANCH  75  78
ATOM     78  C   UNL A   1      32.721  25.223  24.674  1.00  0.00     0.176 C 
BRANCH  78  79
ATOM     79  C   UNL A   1      34.175  25.307  25.197  1.00  0.00     0.070 C 
BRANCH  79  80
ATOM     80  C   UNL A   1      35.184  24.199  24.976  1.00  0.00    -0.045 A 
ATOM     81  C   UNL A   1      36.265  24.074  25.869  1.00  0.00     0.007 A 
ATOM     82  C   UNL A   1      35.146  23.335  23.867  1.00  0.00     0.007 A 
ATOM     83  C   UNL A   1      37.223  23.069  25.710  1.00  0.00     0.039 A 
ATOM     84  C   UNL A   1      36.082  22.305  23.729  1.00  0.00     0.039 A 
ATOM     85  C   UNL A   1      37.109  22.178  24.653  1.00  0.00     0.123 A 
ATOM     86  F   UNL A   1      38.001  21.189  24.516  1.00  0.00    -0.207 F 
ENDBRANCH  79  80
ENDBRANCH  78  79
BRANCH  78  87
ATOM     87  N   UNL A   1      31.705  25.060  25.710  1.00  0.00    -0.339 N 
ATOM     88  C   UNL A   1      31.433  23.996  26.538  1.00  0.00     0.272 C 
ATOM     89  H   UNL A   1      31.119  25.840  25.838  1.00  0.00     0.164 HD
ATOM     90  O   UNL A   1      30.435  24.091  27.254  1.00  0.00    -0.267 OA
BRANCH  88  91
ATOM     91  C   UNL A   1      32.292  22.801  26.529  1.00  0.00     0.150 A 
ATOM     92  C   UNL A   1      33.288  22.384  27.456  1.00  0.00     0.056 A 
ATOM     93  N   UNL A   1      32.171  21.892  25.545  1.00  0.00    -0.167 NA
ATOM     94  C   UNL A   1      33.828  21.233  26.931  1.00  0.00     0.110 A 
ATOM     95  N   UNL A   1      33.125  20.981  25.792  1.00  0.00    -0.269 N 
BRANCH  95  96
ATOM     96  C   UNL A   1      33.298  19.858  24.898  1.00  0.00     0.107 C 
ATOM     97  C   UNL A   1      32.844  18.527  25.493  1.00  0.00     0.027 C 
ATOM     98  C   UNL A   1      32.489  19.953  23.602  1.00  0.00     0.027 C 
ATOM     99  C   UNL A   1      32.744  17.612  24.282  1.00  0.00     0.002 C 
ATOM    100  C   UNL A   1      32.369  18.514  23.105  1.00  0.00     0.002 C 
ENDBRANCH  95  96
ENDBRANCH  88  91
ENDBRANCH  78  87
ENDBRANCH  75  78
ENDBRANCH  73  74
ENDBRANCH  72  73
ENDBRANCH   1  72
TORSDOF 19
ENDMDL
MODEL 3
REMARK VINA RESULT:     -12.9      1.496      3.320
REMARK SMILES O=C(NCCCCNC(=O)[C@@H](Cc1ccc(F)cc1)NC(=O)c1ccn(C2CCCC2)n1)c1ccc(-c2c3nc(c(-c4cc(S(=O)(=O)[O-])ccc4F)c4ccc([nH]4)c(-c4cc(S(=O)(=O)[O-])ccc4F)c4nc(c(-c5cc(S(=O)(=O)[O-])ccc5F)c5ccc2[nH]5)C=C4)C=C3)cc1
REMARK SMILES IDX 5 1 4 2 3 3 1 4 2 5 33 7 34 8 95 9 35 10 94 11 36 12 37 13
REMARK SMILES IDX 38 14 88 15 39 16 93 17 87 18 89 19 40 20 92 21 86 22 85 23
REMARK SMILES IDX 41 25 73 26 53 27 72 28 54 29 57 30 71 31 90 32 55 33 56 34
REMARK SMILES IDX 70 36 91 37 58 38 42 39 43 40 51 41 44 42 50 43 52 44 49 45
REMARK SMILES IDX 45 46 46 47 47 48 48 49 74 50 75 51 83 52 76 53 82 54 84 55
REMARK SMILES IDX 81 56 77 57 78 58 79 59 80 60 59 61 60 62 68 63 61 64 67 65
REMARK SMILES IDX 69 66 66 67 62 68 63 69 64 70 65 71 6 72 7 73 8 74 9 75
REMARK SMILES IDX 10 77 11 78 12 79 13 80 14 81 19 82 15 83 18 84 16 85 17 86
REMARK SMILES IDX 20 87 21 88 22 90 23 91 24 92 32 93 25 94 26 95 27 96 28 97
REMARK SMILES IDX 31 98 29 99 30 100
REMARK H PARENT 3 6 89 24 57 35 8 76 20 89
REMARK Flexibility Score: inf
ROOT
ATOM      1  C   UNL A   1      33.464  28.769  27.061  1.00  0.00     0.023 C 
ENDROOT
BRANCH   1   2
ATOM      2  C   UNL A   1      33.787  30.245  26.792  1.00  0.00     0.116 C 
BRANCH   2   3
ATOM      3  N   UNL A   1      33.882  31.079  27.973  1.00  0.00    -0.352 N 
ATOM      4  O   UNL A   1      34.695  32.400  29.550  1.00  0.00    -0.269 OA
ATOM      5  C   UNL A   1      34.923  31.466  28.775  1.00  0.00     0.251 C 
ATOM      6  H   UNL A   1      33.014  31.445  28.261  1.00  0.00     0.163 HD
BRANCH   5   7
ATOM      7  C   UNL A   1      36.254  30.800  28.809  1.00  0.00     0.039 A 
ATOM      8  C   UNL A   1      36.458  29.421  28.805  1.00  0.00     0.014 A 
ATOM      9  C   UNL A   1      37.374  31.642  28.929  1.00  0.00     0.014 A 
ATOM     10  C   UNL A   1      37.715  28.885  29.038  1.00  0.00     0.010 A 
ATOM     11  C   UNL A   1      38.646  31.112  29.121  1.00  0.00     0.010 A 
ATOM     12  C   UNL A   1      38.802  29.730  29.224  1.00  0.00    -0.014 A 
BRANCH  12  13
ATOM     13  C   UNL A   1      40.101  29.099  29.438  1.00  0.00     0.031 A 
ATOM     14  C   UNL A   1      40.552  28.986  30.860  1.00  0.00     0.074 A 
ATOM     15  C   UNL A   1      40.782  28.521  28.431  1.00  0.00     0.049 A 
ATOM     16  N   UNL A   1      41.693  29.299  31.387  1.00  0.00    -0.248 NA
ATOM     17  C   UNL A   1      39.560  28.503  31.837  1.00  0.00     0.031 C 
ATOM     18  C   UNL A   1      40.326  28.302  27.056  1.00  0.00     0.029 A 
ATOM     19  N   UNL A   1      41.971  27.859  28.478  1.00  0.00    -0.354 N 
ATOM     20  C   UNL A   1      41.628  28.897  32.721  1.00  0.00     0.074 A 
ATOM     21  C   UNL A   1      40.261  28.516  32.969  1.00  0.00     0.031 C 
ATOM     22  C   UNL A   1      41.090  27.342  26.493  1.00  0.00     0.029 A 
ATOM     23  C   UNL A   1      42.144  26.971  27.423  1.00  0.00     0.049 A 
ATOM     24  H   UNL A   1      42.640  27.996  29.186  1.00  0.00     0.167 HD
ATOM     25  C   UNL A   1      42.726  28.744  33.513  1.00  0.00     0.034 A 
ATOM     26  C   UNL A   1      42.999  25.919  27.388  1.00  0.00     0.034 A 
ATOM     27  C   UNL A   1      43.864  29.468  33.023  1.00  0.00     0.049 A 
ATOM     28  C   UNL A   1      44.055  26.174  28.400  1.00  0.00     0.074 A 
ATOM     29  C   UNL A   1      44.127  30.802  32.774  1.00  0.00     0.029 A 
ATOM     30  N   UNL A   1      44.868  28.778  32.388  1.00  0.00    -0.354 N 
ATOM     31  N   UNL A   1      44.907  27.161  28.336  1.00  0.00    -0.248 NA
ATOM     32  C   UNL A   1      43.896  25.579  29.719  1.00  0.00     0.031 C 
ATOM     33  C   UNL A   1      44.932  30.805  31.599  1.00  0.00     0.029 A 
ATOM     34  C   UNL A   1      45.139  29.474  31.234  1.00  0.00     0.049 A 
ATOM     35  H   UNL A   1      45.304  27.952  32.696  1.00  0.00     0.167 HD
ATOM     36  C   UNL A   1      45.085  27.572  29.648  1.00  0.00     0.074 A 
ATOM     37  C   UNL A   1      44.513  26.502  30.461  1.00  0.00     0.031 C 
ATOM     38  C   UNL A   1      45.430  28.856  29.958  1.00  0.00     0.034 A 
BRANCH  25  39
ATOM     39  C   UNL A   1      42.821  27.726  34.619  1.00  0.00     0.023 A 
ATOM     40  C   UNL A   1      43.433  26.484  34.370  1.00  0.00     0.031 A 
ATOM     41  C   UNL A   1      42.106  27.836  35.835  1.00  0.00     0.131 A 
ATOM     42  C   UNL A   1      43.309  25.425  35.291  1.00  0.00     0.055 A 
ATOM     43  C   UNL A   1      42.039  26.806  36.775  1.00  0.00     0.041 A 
ATOM     44  F   UNL A   1      41.362  28.913  36.125  1.00  0.00    -0.206 F 
ATOM     45  C   UNL A   1      42.630  25.585  36.498  1.00  0.00     0.022 A 
BRANCH  42  46
ATOM     46  S   UNL A   1      43.923  23.783  34.829  1.00  0.00     0.124 S 
ATOM     47  O   UNL A   1      42.707  23.126  34.359  1.00  0.00    -0.237 OA
ATOM     48  O   UNL A   1      44.915  24.106  33.808  1.00  0.00    -0.237 OA
ATOM     49  O   UNL A   1      44.468  23.257  36.080  1.00  0.00    -0.744 OA
ENDBRANCH  42  46
ENDBRANCH  25  39
BRANCH  26  50
ATOM     50  C   UNL A   1      42.713  24.576  26.812  1.00  0.00     0.023 A 
ATOM     51  C   UNL A   1      43.629  23.926  25.964  1.00  0.00     0.031 A 
ATOM     52  C   UNL A   1      41.618  23.807  27.271  1.00  0.00     0.131 A 
ATOM     53  C   UNL A   1      43.423  22.577  25.597  1.00  0.00     0.055 A 
ATOM     54  C   UNL A   1      41.406  22.482  26.887  1.00  0.00     0.041 A 
ATOM     55  F   UNL A   1      40.759  24.283  28.183  1.00  0.00    -0.206 F 
ATOM     56  C   UNL A   1      42.316  21.857  26.051  1.00  0.00     0.022 A 
BRANCH  53  57
ATOM     57  S   UNL A   1      44.678  21.690  24.623  1.00  0.00     0.124 S 
ATOM     58  O   UNL A   1      44.572  22.344  23.324  1.00  0.00    -0.237 OA
ATOM     59  O   UNL A   1      45.902  21.939  25.376  1.00  0.00    -0.237 OA
ATOM     60  O   UNL A   1      44.212  20.304  24.658  1.00  0.00    -0.744 OA
ENDBRANCH  53  57
ENDBRANCH  26  50
BRANCH  38  61
ATOM     61  C   UNL A   1      45.894  29.777  28.852  1.00  0.00     0.023 A 
ATOM     62  C   UNL A   1      45.081  30.759  28.241  1.00  0.00     0.031 A 
ATOM     63  C   UNL A   1      47.262  29.766  28.530  1.00  0.00     0.131 A 
ATOM     64  C   UNL A   1      45.649  31.681  27.340  1.00  0.00     0.055 A 
ATOM     65  C   UNL A   1      47.823  30.689  27.648  1.00  0.00     0.041 A 
ATOM     66  F   UNL A   1      48.091  28.882  29.113  1.00  0.00    -0.206 F 
ATOM     67  C   UNL A   1      47.017  31.648  27.047  1.00  0.00     0.022 A 
BRANCH  64  68
ATOM     68  S   UNL A   1      44.617  32.962  26.557  1.00  0.00     0.124 S 
ATOM     69  O   UNL A   1      45.589  33.958  26.122  1.00  0.00    -0.237 OA
ATOM     70  O   UNL A   1      43.935  32.223  25.497  1.00  0.00    -0.237 OA
ATOM     71  O   UNL A   1      43.739  33.406  27.642  1.00  0.00    -0.744 OA
ENDBRANCH  64  68
ENDBRANCH  38  61
ENDBRANCH  12  13
ENDBRANCH   5   7
ENDBRANCH   2   3
ENDBRANCH   1   2
BRANCH   1  72
ATOM     72  C   UNL A   1      31.996  28.488  27.371  1.00  0.00     0.023 C 
BRANCH  72  73
ATOM     73  C   UNL A   1      31.264  27.714  26.282  1.00  0.00     0.116 C 
BRANCH  73  74
ATOM     74  N   UNL A   1      31.147  26.315  26.610  1.00  0.00    -0.354 N 
ATOM     75  C   UNL A   1      31.904  25.252  26.238  1.00  0.00     0.242 C 
ATOM     76  H   UNL A   1      30.393  26.093  27.202  1.00  0.00     0.163 HD
ATOM     77  O   UNL A   1      31.575  24.149  26.693  1.00  0.00    -0.273 OA
BRANCH  75  78
ATOM     78  C   UNL A   1      33.130  25.363  25.303  1.00  0.00     0.176 C 
BRANCH  78  79
ATOM     79  C   UNL A   1      34.514  25.054  25.924  1.00  0.00     0.070 C 
BRANCH  79  80
ATOM     80  C   UNL A   1      35.266  23.772  25.634  1.00  0.00    -0.045 A 
ATOM     81  C   UNL A   1      34.813  22.571  26.214  1.00  0.00     0.007 A 
ATOM     82  C   UNL A   1      36.453  23.731  24.882  1.00  0.00     0.007 A 
ATOM     83  C   UNL A   1      35.472  21.361  25.978  1.00  0.00     0.039 A 
ATOM     84  C   UNL A   1      37.089  22.514  24.614  1.00  0.00     0.039 A 
ATOM     85  C   UNL A   1      36.591  21.340  25.160  1.00  0.00     0.123 A 
ATOM     86  F   UNL A   1      37.205  20.179  24.899  1.00  0.00    -0.207 F 
ENDBRANCH  79  80
ENDBRANCH  78  79
BRANCH  78  87
ATOM     87  N   UNL A   1      32.911  24.790  23.978  1.00  0.00    -0.339 N 
ATOM     88  C   UNL A   1      32.398  25.353  22.833  1.00  0.00     0.272 C 
ATOM     89  H   UNL A   1      33.175  23.847  23.889  1.00  0.00     0.164 HD
ATOM     90  O   UNL A   1      32.222  24.598  21.875  1.00  0.00    -0.267 OA
BRANCH  88  91
ATOM     91  C   UNL A   1      32.055  26.783  22.789  1.00  0.00     0.150 A 
ATOM     92  C   UNL A   1      32.893  27.927  22.913  1.00  0.00     0.056 A 
ATOM     93  N   UNL A   1      30.783  27.165  22.579  1.00  0.00    -0.167 NA
ATOM     94  C   UNL A   1      32.049  29.013  22.865  1.00  0.00     0.110 A 
ATOM     95  N   UNL A   1      30.802  28.504  22.662  1.00  0.00    -0.269 N 
BRANCH  95  96
ATOM     96  C   UNL A   1      29.575  29.254  22.510  1.00  0.00     0.107 C 
ATOM     97  C   UNL A   1      28.330  28.480  22.939  1.00  0.00     0.027 C 
ATOM     98  C   UNL A   1      29.503  30.524  23.360  1.00  0.00     0.027 C 
ATOM     99  C   UNL A   1      27.268  29.560  23.072  1.00  0.00     0.002 C 
ATOM    100  C   UNL A   1      28.012  30.830  23.489  1.00  0.00     0.002 C 
ENDBRANCH  95  96
ENDBRANCH  88  91
ENDBRANCH  78  87
ENDBRANCH  75  78
ENDBRANCH  73  74
ENDBRANCH  72  73
ENDBRANCH   1  72
TORSDOF 19
ENDMDL
