MODEL 1
REMARK VINA RESULT:     -12.1      0.000      0.000
REMARK SMILES COc1ccc(CNC(=O)[C@H]2CC(C)=C(C)C[C@@H]2C(=O)NCCCCNC(=O)c2ccc(-c3c4nc(c(-c5cc(S(=O)(=O)[O-])ccc5F)c5ccc([nH]5)c(-c5cc(S(=O)(=O)[O-])ccc5F)c5nc(c(-c6cc(S(=O)(=O)[O-])ccc6F)c6ccc3[nH]6)C=C5)C=C4)cc2)cc1OC
REMARK SMILES IDX 23 1 22 2 21 3 19 4 20 5 18 7 11 8 12 9 13 10 17 11 14 12
REMARK SMILES IDX 15 13 16 14 9 15 8 16 10 18 7 19 6 20 3 21 4 22 93 23 5 24
REMARK SMILES IDX 92 25 2 26 1 27 94 28 95 29 24 30 25 31 26 32 27 33 28 35
REMARK SMILES IDX 29 36 30 37 91 38 31 39 90 40 32 41 33 42 34 43 84 44 35 45
REMARK SMILES IDX 89 46 83 47 85 48 36 49 88 50 82 51 81 52 37 54 69 55 49 56
REMARK SMILES IDX 68 57 50 58 53 59 67 60 86 61 51 62 52 63 66 65 87 66 54 67
REMARK SMILES IDX 38 68 39 69 47 70 40 71 46 72 48 73 45 74 41 75 42 76 43 77
REMARK SMILES IDX 44 78 70 79 71 80 79 81 72 82 78 83 80 84 77 85 73 86 74 87
REMARK SMILES IDX 75 88 76 89 55 90 56 91 64 92 57 93 63 94 65 95 62 96 58 97
REMARK SMILES IDX 59 98 60 99 61 100
REMARK H PARENT 21 6 8 17 26 34 85 53 53 64
REMARK Flexibility Score: inf
ROOT
ATOM      1  C   UNL A   1      36.293  23.235  23.620  1.00  0.00     0.023 C 
ENDROOT
BRANCH   1   2
ATOM      2  C   UNL A   1      34.960  23.796  24.098  1.00  0.00     0.116 C 
BRANCH   2   3
ATOM      3  N   UNL A   1      34.449  24.850  23.250  1.00  0.00    -0.356 N 
ATOM      4  C   UNL A   1      33.605  25.882  23.532  1.00  0.00     0.224 C 
ATOM      5  O   UNL A   1      33.310  26.639  22.603  1.00  0.00    -0.275 OA
ATOM      6  H   UNL A   1      34.762  24.816  22.318  1.00  0.00     0.163 HD
BRANCH   4   7
ATOM      7  C   UNL A   1      33.011  26.114  24.931  1.00  0.00     0.095 C 
ATOM      8  C   UNL A   1      31.561  26.617  24.866  1.00  0.00     0.095 C 
ATOM      9  C   UNL A   1      31.299  28.066  25.279  1.00  0.00     0.045 C 
ATOM     10  C   UNL A   1      32.358  28.776  26.092  1.00  0.00    -0.074 C 
ATOM     11  C   UNL A   1      33.995  26.888  25.814  1.00  0.00     0.045 C 
ATOM     12  C   UNL A   1      31.913  30.121  26.607  1.00  0.00     0.039 C 
ATOM     13  C   UNL A   1      33.584  28.255  26.307  1.00  0.00    -0.074 C 
ATOM     14  C   UNL A   1      34.670  28.992  27.050  1.00  0.00     0.039 C 
BRANCH   8  15
ATOM     15  C   UNL A   1      30.564  25.634  25.490  1.00  0.00     0.224 C 
ATOM     16  N   UNL A   1      30.321  24.387  25.015  1.00  0.00    -0.352 N 
ATOM     17  H   UNL A   1      29.790  23.823  25.622  1.00  0.00     0.163 HD
ATOM     18  O   UNL A   1      29.927  25.967  26.496  1.00  0.00    -0.275 OA
BRANCH  16  19
ATOM     19  C   UNL A   1      30.694  23.732  23.781  1.00  0.00     0.151 C 
BRANCH  19  20
ATOM     20  C   UNL A   1      31.645  22.568  23.965  1.00  0.00    -0.025 A 
ATOM     21  C   UNL A   1      33.205  20.260  24.454  1.00  0.00     0.160 A 
ATOM     22  C   UNL A   1      32.783  20.572  23.159  1.00  0.00     0.051 A 
ATOM     23  C   UNL A   1      32.905  21.125  25.511  1.00  0.00     0.161 A 
ATOM     24  C   UNL A   1      32.024  21.721  22.918  1.00  0.00     0.009 A 
ATOM     25  C   UNL A   1      32.108  22.254  25.254  1.00  0.00     0.056 A 
BRANCH  21  26
ATOM     26  O   UNL A   1      33.974  19.140  24.624  1.00  0.00    -0.493 OA
ATOM     27  C   UNL A   1      33.168  17.986  24.877  1.00  0.00     0.278 C 
ENDBRANCH  21  26
BRANCH  23  28
ATOM     28  O   UNL A   1      33.277  21.032  26.825  1.00  0.00    -0.493 OA
ATOM     29  C   UNL A   1      33.904  22.150  27.433  1.00  0.00     0.278 C 
ENDBRANCH  23  28
ENDBRANCH  19  20
ENDBRANCH  16  19
ENDBRANCH   8  15
ENDBRANCH   4   7
ENDBRANCH   2   3
ENDBRANCH   1   2
BRANCH   1  30
ATOM     30  C   UNL A   1      36.574  21.811  24.087  1.00  0.00     0.023 C 
BRANCH  30  31
ATOM     31  C   UNL A   1      37.123  21.691  25.506  1.00  0.00     0.116 C 
BRANCH  31  32
ATOM     32  N   UNL A   1      38.115  20.636  25.662  1.00  0.00    -0.352 N 
ATOM     33  C   UNL A   1      39.399  20.745  26.146  1.00  0.00     0.251 C 
ATOM     34  H   UNL A   1      37.832  19.733  25.388  1.00  0.00     0.163 HD
ATOM     35  O   UNL A   1      40.156  19.780  26.119  1.00  0.00    -0.269 OA
BRANCH  33  36
ATOM     36  C   UNL A   1      39.858  22.056  26.652  1.00  0.00     0.039 A 
ATOM     37  C   UNL A   1      40.856  22.094  27.629  1.00  0.00     0.014 A 
ATOM     38  C   UNL A   1      39.360  23.238  26.100  1.00  0.00     0.014 A 
ATOM     39  C   UNL A   1      41.412  23.322  27.993  1.00  0.00     0.010 A 
ATOM     40  C   UNL A   1      39.968  24.450  26.407  1.00  0.00     0.010 A 
ATOM     41  C   UNL A   1      41.005  24.505  27.353  1.00  0.00    -0.014 A 
BRANCH  41  42
ATOM     42  C   UNL A   1      41.649  25.809  27.655  1.00  0.00     0.031 A 
ATOM     43  C   UNL A   1      40.879  26.871  28.392  1.00  0.00     0.074 A 
ATOM     44  C   UNL A   1      42.894  26.063  27.206  1.00  0.00     0.049 A 
ATOM     45  N   UNL A   1      41.225  28.101  28.673  1.00  0.00    -0.248 NA
ATOM     46  C   UNL A   1      39.527  26.509  28.842  1.00  0.00     0.031 C 
ATOM     47  C   UNL A   1      43.722  25.130  26.437  1.00  0.00     0.029 A 
ATOM     48  N   UNL A   1      43.679  27.184  27.317  1.00  0.00    -0.354 N 
ATOM     49  C   UNL A   1      40.130  28.663  29.321  1.00  0.00     0.074 A 
ATOM     50  C   UNL A   1      39.088  27.659  29.327  1.00  0.00     0.031 C 
ATOM     51  C   UNL A   1      44.903  25.710  26.166  1.00  0.00     0.029 A 
ATOM     52  C   UNL A   1      44.903  27.068  26.699  1.00  0.00     0.049 A 
ATOM     53  H   UNL A   1      43.392  27.996  27.795  1.00  0.00     0.167 HD
ATOM     54  C   UNL A   1      40.015  29.891  29.884  1.00  0.00     0.034 A 
ATOM     55  C   UNL A   1      45.905  27.960  26.565  1.00  0.00     0.034 A 
ATOM     56  C   UNL A   1      41.069  30.877  29.877  1.00  0.00     0.049 A 
ATOM     57  C   UNL A   1      45.749  29.327  27.182  1.00  0.00     0.074 A 
ATOM     58  C   UNL A   1      41.079  32.134  30.456  1.00  0.00     0.029 A 
ATOM     59  N   UNL A   1      42.301  30.719  29.254  1.00  0.00    -0.354 N 
ATOM     60  N   UNL A   1      44.725  29.826  27.838  1.00  0.00    -0.248 NA
ATOM     61  C   UNL A   1      46.888  30.245  27.055  1.00  0.00     0.031 C 
ATOM     62  C   UNL A   1      42.288  32.758  30.130  1.00  0.00     0.029 A 
ATOM     63  C   UNL A   1      43.066  31.865  29.413  1.00  0.00     0.049 A 
ATOM     64  H   UNL A   1      42.588  29.911  28.770  1.00  0.00     0.167 HD
ATOM     65  C   UNL A   1      45.110  31.106  28.224  1.00  0.00     0.074 A 
ATOM     66  C   UNL A   1      46.464  31.295  27.743  1.00  0.00     0.031 C 
ATOM     67  C   UNL A   1      44.412  32.041  28.918  1.00  0.00     0.034 A 
BRANCH  54  68
ATOM     68  C   UNL A   1      38.694  30.234  30.533  1.00  0.00     0.023 A 
ATOM     69  C   UNL A   1      37.742  31.038  29.880  1.00  0.00     0.031 A 
ATOM     70  C   UNL A   1      38.395  29.784  31.830  1.00  0.00     0.131 A 
ATOM     71  C   UNL A   1      36.580  31.436  30.557  1.00  0.00     0.055 A 
ATOM     72  C   UNL A   1      37.196  30.113  32.466  1.00  0.00     0.041 A 
ATOM     73  F   UNL A   1      39.273  29.031  32.512  1.00  0.00    -0.206 F 
ATOM     74  C   UNL A   1      36.286  30.959  31.835  1.00  0.00     0.022 A 
BRANCH  71  75
ATOM     75  S   UNL A   1      35.533  32.710  29.798  1.00  0.00     0.124 S 
ATOM     76  O   UNL A   1      34.934  33.337  30.973  1.00  0.00    -0.237 OA
ATOM     77  O   UNL A   1      36.500  33.517  29.065  1.00  0.00    -0.237 OA
ATOM     78  O   UNL A   1      34.606  31.941  28.970  1.00  0.00    -0.744 OA
ENDBRANCH  71  75
ENDBRANCH  54  68
BRANCH  55  79
ATOM     79  C   UNL A   1      47.140  27.602  25.809  1.00  0.00     0.023 A 
ATOM     80  C   UNL A   1      47.262  27.894  24.441  1.00  0.00     0.031 A 
ATOM     81  C   UNL A   1      48.201  26.924  26.435  1.00  0.00     0.131 A 
ATOM     82  C   UNL A   1      48.396  27.466  23.733  1.00  0.00     0.055 A 
ATOM     83  C   UNL A   1      49.351  26.548  25.738  1.00  0.00     0.041 A 
ATOM     84  F   UNL A   1      48.140  26.627  27.744  1.00  0.00    -0.206 F 
ATOM     85  C   UNL A   1      49.446  26.806  24.375  1.00  0.00     0.022 A 
BRANCH  82  86
ATOM     86  S   UNL A   1      48.441  27.712  21.936  1.00  0.00     0.124 S 
ATOM     87  O   UNL A   1      48.593  26.344  21.453  1.00  0.00    -0.237 OA
ATOM     88  O   UNL A   1      47.149  28.341  21.684  1.00  0.00    -0.237 OA
ATOM     89  O   UNL A   1      49.602  28.577  21.739  1.00  0.00    -0.744 OA
ENDBRANCH  82  86
ENDBRANCH  55  79
BRANCH  67  90
ATOM     90  C   UNL A   1      45.124  33.333  29.236  1.00  0.00     0.023 A 
ATOM     91  C   UNL A   1      45.068  34.442  28.374  1.00  0.00     0.031 A 
ATOM     92  C   UNL A   1      45.877  33.450  30.418  1.00  0.00     0.131 A 
ATOM     93  C   UNL A   1      45.798  35.600  28.679  1.00  0.00     0.055 A 
ATOM     94  C   UNL A   1      46.553  34.626  30.745  1.00  0.00     0.041 A 
ATOM     95  F   UNL A   1      45.967  32.422  31.276  1.00  0.00    -0.206 F 
ATOM     96  C   UNL A   1      46.527  35.706  29.866  1.00  0.00     0.022 A 
BRANCH  93  97
ATOM     97  S   UNL A   1      45.858  36.940  27.456  1.00  0.00     0.124 S 
ATOM     98  O   UNL A   1      46.680  37.935  28.137  1.00  0.00    -0.237 OA
ATOM     99  O   UNL A   1      46.473  36.284  26.306  1.00  0.00    -0.237 OA
ATOM    100  O   UNL A   1      44.455  37.308  27.282  1.00  0.00    -0.744 OA
ENDBRANCH  93  97
ENDBRANCH  67  90
ENDBRANCH  41  42
ENDBRANCH  33  36
ENDBRANCH  31  32
ENDBRANCH  30  31
ENDBRANCH   1  30
TORSDOF 19
ENDMDL
MODEL 2
REMARK VINA RESULT:     -12.1      5.077      9.963
REMARK SMILES COc1ccc(CNC(=O)[C@H]2CC(C)=C(C)C[C@@H]2C(=O)NCCCCNC(=O)c2ccc(-c3c4nc(c(-c5cc(S(=O)(=O)[O-])ccc5F)c5ccc([nH]5)c(-c5cc(S(=O)(=O)[O-])ccc5F)c5nc(c(-c6cc(S(=O)(=O)[O-])ccc6F)c6ccc3[nH]6)C=C5)C=C4)cc2)cc1OC
REMARK SMILES IDX 23 1 22 2 21 3 19 4 20 5 18 7 11 8 12 9 13 10 17 11 14 12
REMARK SMILES IDX 15 13 16 14 9 15 8 16 10 18 7 19 6 20 3 21 4 22 93 23 5 24
REMARK SMILES IDX 92 25 2 26 1 27 94 28 95 29 24 30 25 31 26 32 27 33 28 35
REMARK SMILES IDX 29 36 30 37 91 38 31 39 90 40 32 41 33 42 34 43 84 44 35 45
REMARK SMILES IDX 89 46 83 47 85 48 36 49 88 50 82 51 81 52 37 54 69 55 49 56
REMARK SMILES IDX 68 57 50 58 53 59 67 60 86 61 51 62 52 63 66 65 87 66 54 67
REMARK SMILES IDX 38 68 39 69 47 70 40 71 46 72 48 73 45 74 41 75 42 76 43 77
REMARK SMILES IDX 44 78 70 79 71 80 79 81 72 82 78 83 80 84 77 85 73 86 74 87
REMARK SMILES IDX 75 88 76 89 55 90 56 91 64 92 57 93 63 94 65 95 62 96 58 97
REMARK SMILES IDX 59 98 60 99 61 100
REMARK H PARENT 21 6 8 17 26 34 85 53 53 64
REMARK Flexibility Score: inf
ROOT
ATOM      1  C   UNL A   1      31.135  29.323  24.499  1.00  0.00     0.023 C 
ENDROOT
BRANCH   1   2
ATOM      2  C   UNL A   1      31.319  28.832  23.068  1.00  0.00     0.116 C 
BRANCH   2   3
ATOM      3  N   UNL A   1      32.663  29.025  22.569  1.00  0.00    -0.356 N 
ATOM      4  C   UNL A   1      33.686  28.138  22.416  1.00  0.00     0.224 C 
ATOM      5  O   UNL A   1      34.753  28.578  21.979  1.00  0.00    -0.275 OA
ATOM      6  H   UNL A   1      32.872  29.947  22.295  1.00  0.00     0.163 HD
BRANCH   4   7
ATOM      7  C   UNL A   1      33.559  26.650  22.778  1.00  0.00     0.095 C 
ATOM      8  C   UNL A   1      32.394  25.973  22.042  1.00  0.00     0.095 C 
ATOM      9  C   UNL A   1      31.179  25.560  22.873  1.00  0.00     0.045 C 
ATOM     10  C   UNL A   1      31.346  25.459  24.373  1.00  0.00    -0.074 C 
ATOM     11  C   UNL A   1      33.654  26.453  24.294  1.00  0.00     0.045 C 
ATOM     12  C   UNL A   1      30.150  24.858  25.068  1.00  0.00     0.039 C 
ATOM     13  C   UNL A   1      32.452  25.890  25.015  1.00  0.00    -0.074 C 
ATOM     14  C   UNL A   1      32.592  25.864  26.517  1.00  0.00     0.039 C 
BRANCH   8  15
ATOM     15  C   UNL A   1      32.858  24.869  21.084  1.00  0.00     0.224 C 
ATOM     16  N   UNL A   1      32.902  23.551  21.401  1.00  0.00    -0.352 N 
ATOM     17  H   UNL A   1      33.054  22.958  20.630  1.00  0.00     0.163 HD
ATOM     18  O   UNL A   1      33.220  25.167  19.940  1.00  0.00    -0.275 OA
BRANCH  16  19
ATOM     19  C   UNL A   1      32.768  22.853  22.660  1.00  0.00     0.151 C 
BRANCH  19  20
ATOM     20  C   UNL A   1      34.012  22.893  23.523  1.00  0.00    -0.025 A 
ATOM     21  C   UNL A   1      36.324  22.677  25.136  1.00  0.00     0.160 A 
ATOM     22  C   UNL A   1      36.415  23.148  23.824  1.00  0.00     0.051 A 
ATOM     23  C   UNL A   1      35.074  22.364  25.679  1.00  0.00     0.161 A 
ATOM     24  C   UNL A   1      35.267  23.267  23.033  1.00  0.00     0.009 A 
ATOM     25  C   UNL A   1      33.939  22.454  24.855  1.00  0.00     0.056 A 
BRANCH  21  26
ATOM     26  O   UNL A   1      37.476  22.612  25.873  1.00  0.00    -0.493 OA
ATOM     27  C   UNL A   1      37.997  23.915  26.147  1.00  0.00     0.278 C 
ENDBRANCH  21  26
BRANCH  23  28
ATOM     28  O   UNL A   1      34.772  21.953  26.949  1.00  0.00    -0.493 OA
ATOM     29  C   UNL A   1      33.481  22.236  27.464  1.00  0.00     0.278 C 
ENDBRANCH  23  28
ENDBRANCH  19  20
ENDBRANCH  16  19
ENDBRANCH   8  15
ENDBRANCH   4   7
ENDBRANCH   2   3
ENDBRANCH   1   2
BRANCH   1  30
ATOM     30  C   UNL A   1      32.435  29.706  25.198  1.00  0.00     0.023 C 
BRANCH  30  31
ATOM     31  C   UNL A   1      32.283  30.141  26.653  1.00  0.00     0.116 C 
BRANCH  31  32
ATOM     32  N   UNL A   1      32.124  31.579  26.821  1.00  0.00    -0.352 N 
ATOM     33  C   UNL A   1      32.979  32.459  27.445  1.00  0.00     0.251 C 
ATOM     34  H   UNL A   1      31.305  31.971  26.440  1.00  0.00     0.163 HD
ATOM     35  O   UNL A   1      32.658  33.632  27.599  1.00  0.00    -0.269 OA
BRANCH  33  36
ATOM     36  C   UNL A   1      34.267  31.950  27.964  1.00  0.00     0.039 A 
ATOM     37  C   UNL A   1      35.333  32.838  28.121  1.00  0.00     0.014 A 
ATOM     38  C   UNL A   1      34.386  30.619  28.369  1.00  0.00     0.014 A 
ATOM     39  C   UNL A   1      36.496  32.408  28.763  1.00  0.00     0.010 A 
ATOM     40  C   UNL A   1      35.513  30.215  29.076  1.00  0.00     0.010 A 
ATOM     41  C   UNL A   1      36.578  31.106  29.286  1.00  0.00    -0.014 A 
BRANCH  41  42
ATOM     42  C   UNL A   1      37.767  30.656  30.055  1.00  0.00     0.031 A 
ATOM     43  C   UNL A   1      38.744  29.697  29.431  1.00  0.00     0.074 A 
ATOM     44  C   UNL A   1      37.927  31.049  31.334  1.00  0.00     0.049 A 
ATOM     45  N   UNL A   1      39.789  29.116  29.961  1.00  0.00    -0.248 NA
ATOM     46  C   UNL A   1      38.489  29.319  28.033  1.00  0.00     0.031 C 
ATOM     47  C   UNL A   1      37.019  31.937  32.066  1.00  0.00     0.029 A 
ATOM     48  N   UNL A   1      38.900  30.746  32.253  1.00  0.00    -0.354 N 
ATOM     49  C   UNL A   1      40.309  28.294  28.966  1.00  0.00     0.074 A 
ATOM     50  C   UNL A   1      39.422  28.403  27.828  1.00  0.00     0.031 C 
ATOM     51  C   UNL A   1      37.491  32.121  33.309  1.00  0.00     0.029 A 
ATOM     52  C   UNL A   1      38.707  31.333  33.482  1.00  0.00     0.049 A 
ATOM     53  H   UNL A   1      39.667  30.162  32.051  1.00  0.00     0.167 HD
ATOM     54  C   UNL A   1      41.437  27.542  28.990  1.00  0.00     0.034 A 
ATOM     55  C   UNL A   1      39.419  31.236  34.623  1.00  0.00     0.034 A 
ATOM     56  C   UNL A   1      42.315  27.453  30.132  1.00  0.00     0.049 A 
ATOM     57  C   UNL A   1      40.660  30.379  34.634  1.00  0.00     0.074 A 
ATOM     58  C   UNL A   1      43.508  26.760  30.252  1.00  0.00     0.029 A 
ATOM     59  N   UNL A   1      42.094  28.074  31.355  1.00  0.00    -0.354 N 
ATOM     60  N   UNL A   1      41.167  29.647  33.667  1.00  0.00    -0.248 NA
ATOM     61  C   UNL A   1      41.431  30.345  35.883  1.00  0.00     0.031 C 
ATOM     62  C   UNL A   1      43.973  26.909  31.563  1.00  0.00     0.029 A 
ATOM     63  C   UNL A   1      43.114  27.757  32.242  1.00  0.00     0.049 A 
ATOM     64  H   UNL A   1      41.326  28.653  31.563  1.00  0.00     0.167 HD
ATOM     65  C   UNL A   1      42.333  29.090  34.186  1.00  0.00     0.074 A 
ATOM     66  C   UNL A   1      42.460  29.584  35.542  1.00  0.00     0.031 C 
ATOM     67  C   UNL A   1      43.221  28.251  33.595  1.00  0.00     0.034 A 
BRANCH  54  68
ATOM     68  C   UNL A   1      41.764  26.745  27.750  1.00  0.00     0.023 A 
ATOM     69  C   UNL A   1      41.635  25.344  27.722  1.00  0.00     0.031 A 
ATOM     70  C   UNL A   1      42.243  27.383  26.593  1.00  0.00     0.131 A 
ATOM     71  C   UNL A   1      42.061  24.624  26.595  1.00  0.00     0.055 A 
ATOM     72  C   UNL A   1      42.583  26.667  25.443  1.00  0.00     0.041 A 
ATOM     73  F   UNL A   1      42.407  28.716  26.566  1.00  0.00    -0.206 F 
ATOM     74  C   UNL A   1      42.509  25.276  25.446  1.00  0.00     0.022 A 
BRANCH  71  75
ATOM     75  S   UNL A   1      42.162  22.816  26.715  1.00  0.00     0.124 S 
ATOM     76  O   UNL A   1      43.372  22.641  27.515  1.00  0.00    -0.237 OA
ATOM     77  O   UNL A   1      40.906  22.472  27.370  1.00  0.00    -0.237 OA
ATOM     78  O   UNL A   1      42.278  22.387  25.322  1.00  0.00    -0.744 OA
ENDBRANCH  71  75
ENDBRANCH  54  68
BRANCH  55  79
ATOM     79  C   UNL A   1      38.979  31.955  35.853  1.00  0.00     0.023 A 
ATOM     80  C   UNL A   1      38.252  31.294  36.857  1.00  0.00     0.031 A 
ATOM     81  C   UNL A   1      39.242  33.326  36.024  1.00  0.00     0.131 A 
ATOM     82  C   UNL A   1      37.773  32.015  37.962  1.00  0.00     0.055 A 
ATOM     83  C   UNL A   1      38.809  34.026  37.151  1.00  0.00     0.041 A 
ATOM     84  F   UNL A   1      39.940  34.004  35.097  1.00  0.00    -0.206 F 
ATOM     85  C   UNL A   1      38.057  33.373  38.122  1.00  0.00     0.022 A 
BRANCH  82  86
ATOM     86  S   UNL A   1      36.696  31.167  39.151  1.00  0.00     0.124 S 
ATOM     87  O   UNL A   1      35.544  32.059  39.197  1.00  0.00    -0.237 OA
ATOM     88  O   UNL A   1      36.485  29.878  38.501  1.00  0.00    -0.237 OA
ATOM     89  O   UNL A   1      37.503  31.123  40.369  1.00  0.00    -0.744 OA
ENDBRANCH  82  86
ENDBRANCH  55  79
BRANCH  67  90
ATOM     90  C   UNL A   1      44.433  27.855  34.403  1.00  0.00     0.023 A 
ATOM     91  C   UNL A   1      44.421  26.740  35.260  1.00  0.00     0.031 A 
ATOM     92  C   UNL A   1      45.614  28.613  34.319  1.00  0.00     0.131 A 
ATOM     93  C   UNL A   1      45.549  26.448  36.040  1.00  0.00     0.055 A 
ATOM     94  C   UNL A   1      46.753  28.282  35.053  1.00  0.00     0.041 A 
ATOM     95  F   UNL A   1      45.681  29.689  33.518  1.00  0.00    -0.206 F 
ATOM     96  C   UNL A   1      46.721  27.201  35.930  1.00  0.00     0.022 A 
BRANCH  93  97
ATOM     97  S   UNL A   1      45.436  25.121  37.273  1.00  0.00     0.124 S 
ATOM     98  O   UNL A   1      44.607  25.735  38.304  1.00  0.00    -0.237 OA
ATOM     99  O   UNL A   1      44.814  24.041  36.512  1.00  0.00    -0.237 OA
ATOM    100  O   UNL A   1      46.828  24.888  37.653  1.00  0.00    -0.744 OA
ENDBRANCH  93  97
ENDBRANCH  67  90
ENDBRANCH  41  42
ENDBRANCH  33  36
ENDBRANCH  31  32
ENDBRANCH  30  31
ENDBRANCH   1  30
TORSDOF 19
ENDMDL
MODEL 3
REMARK VINA RESULT:     -12.0      5.054     10.199
REMARK SMILES COc1ccc(CNC(=O)[C@H]2CC(C)=C(C)C[C@@H]2C(=O)NCCCCNC(=O)c2ccc(-c3c4nc(c(-c5cc(S(=O)(=O)[O-])ccc5F)c5ccc([nH]5)c(-c5cc(S(=O)(=O)[O-])ccc5F)c5nc(c(-c6cc(S(=O)(=O)[O-])ccc6F)c6ccc3[nH]6)C=C5)C=C4)cc2)cc1OC
REMARK SMILES IDX 23 1 22 2 21 3 19 4 20 5 18 7 11 8 12 9 13 10 17 11 14 12
REMARK SMILES IDX 15 13 16 14 9 15 8 16 10 18 7 19 6 20 3 21 4 22 93 23 5 24
REMARK SMILES IDX 92 25 2 26 1 27 94 28 95 29 24 30 25 31 26 32 27 33 28 35
REMARK SMILES IDX 29 36 30 37 91 38 31 39 90 40 32 41 33 42 34 43 84 44 35 45
REMARK SMILES IDX 89 46 83 47 85 48 36 49 88 50 82 51 81 52 37 54 69 55 49 56
REMARK SMILES IDX 68 57 50 58 53 59 67 60 86 61 51 62 52 63 66 65 87 66 54 67
REMARK SMILES IDX 38 68 39 69 47 70 40 71 46 72 48 73 45 74 41 75 42 76 43 77
REMARK SMILES IDX 44 78 70 79 71 80 79 81 72 82 78 83 80 84 77 85 73 86 74 87
REMARK SMILES IDX 75 88 76 89 55 90 56 91 64 92 57 93 63 94 65 95 62 96 58 97
REMARK SMILES IDX 59 98 60 99 61 100
REMARK H PARENT 21 6 8 17 26 34 85 53 53 64
REMARK Flexibility Score: inf
ROOT
ATOM      1  C   UNL A   1      31.438  28.102  26.849  1.00  0.00     0.023 C 
ENDROOT
BRANCH   1   2
ATOM      2  C   UNL A   1      32.421  27.077  26.298  1.00  0.00     0.116 C 
BRANCH   2   3
ATOM      3  N   UNL A   1      32.109  25.721  26.692  1.00  0.00    -0.356 N 
ATOM      4  C   UNL A   1      32.564  24.532  26.206  1.00  0.00     0.224 C 
ATOM      5  O   UNL A   1      32.112  23.504  26.719  1.00  0.00    -0.275 OA
ATOM      6  H   UNL A   1      31.464  25.645  27.431  1.00  0.00     0.163 HD
BRANCH   4   7
ATOM      7  C   UNL A   1      33.581  24.434  25.058  1.00  0.00     0.095 C 
ATOM      8  C   UNL A   1      33.325  23.214  24.161  1.00  0.00     0.095 C 
ATOM      9  C   UNL A   1      34.337  22.069  24.224  1.00  0.00     0.045 C 
ATOM     10  C   UNL A   1      35.697  22.356  24.819  1.00  0.00    -0.074 C 
ATOM     11  C   UNL A   1      35.005  24.650  25.578  1.00  0.00     0.045 C 
ATOM     12  C   UNL A   1      36.674  21.219  24.650  1.00  0.00     0.039 C 
ATOM     13  C   UNL A   1      35.988  23.509  25.455  1.00  0.00    -0.074 C 
ATOM     14  C   UNL A   1      37.317  23.768  26.119  1.00  0.00     0.039 C 
BRANCH   8  15
ATOM     15  C   UNL A   1      32.956  23.601  22.725  1.00  0.00     0.224 C 
ATOM     16  N   UNL A   1      31.833  24.279  22.380  1.00  0.00    -0.352 N 
ATOM     17  H   UNL A   1      31.827  24.600  21.450  1.00  0.00     0.163 HD
ATOM     18  O   UNL A   1      33.712  23.293  21.796  1.00  0.00    -0.275 OA
BRANCH  16  19
ATOM     19  C   UNL A   1      30.641  24.618  23.125  1.00  0.00     0.151 C 
BRANCH  19  20
ATOM     20  C   UNL A   1      30.356  26.104  23.189  1.00  0.00    -0.025 A 
ATOM     21  C   UNL A   1      29.842  28.880  23.019  1.00  0.00     0.160 A 
ATOM     22  C   UNL A   1      28.843  27.996  23.436  1.00  0.00     0.051 A 
ATOM     23  C   UNL A   1      31.125  28.399  22.739  1.00  0.00     0.161 A 
ATOM     24  C   UNL A   1      29.105  26.626  23.533  1.00  0.00     0.009 A 
ATOM     25  C   UNL A   1      31.355  27.013  22.805  1.00  0.00     0.056 A 
BRANCH  21  26
ATOM     26  O   UNL A   1      29.538  30.214  22.975  1.00  0.00    -0.493 OA
ATOM     27  C   UNL A   1      28.838  30.552  21.776  1.00  0.00     0.278 C 
ENDBRANCH  21  26
BRANCH  23  28
ATOM     28  O   UNL A   1      32.243  29.102  22.383  1.00  0.00    -0.493 OA
ATOM     29  C   UNL A   1      33.508  28.633  22.822  1.00  0.00     0.278 C 
ENDBRANCH  23  28
ENDBRANCH  19  20
ENDBRANCH  16  19
ENDBRANCH   8  15
ENDBRANCH   4   7
ENDBRANCH   2   3
ENDBRANCH   1   2
BRANCH   1  30
ATOM     30  C   UNL A   1      31.519  29.468  26.175  1.00  0.00     0.023 C 
BRANCH  30  31
ATOM     31  C   UNL A   1      32.812  30.239  26.429  1.00  0.00     0.116 C 
BRANCH  31  32
ATOM     32  N   UNL A   1      32.599  31.626  26.818  1.00  0.00    -0.352 N 
ATOM     33  C   UNL A   1      33.407  32.420  27.601  1.00  0.00     0.251 C 
ATOM     34  H   UNL A   1      31.776  32.048  26.481  1.00  0.00     0.163 HD
ATOM     35  O   UNL A   1      33.041  33.543  27.931  1.00  0.00    -0.269 OA
BRANCH  33  36
ATOM     36  C   UNL A   1      34.698  31.873  28.071  1.00  0.00     0.039 A 
ATOM     37  C   UNL A   1      35.818  32.708  28.098  1.00  0.00     0.014 A 
ATOM     38  C   UNL A   1      34.775  30.567  28.558  1.00  0.00     0.014 A 
ATOM     39  C   UNL A   1      36.997  32.254  28.693  1.00  0.00     0.010 A 
ATOM     40  C   UNL A   1      35.924  30.146  29.218  1.00  0.00     0.010 A 
ATOM     41  C   UNL A   1      37.046  30.987  29.298  1.00  0.00    -0.014 A 
BRANCH  41  42
ATOM     42  C   UNL A   1      38.258  30.520  30.019  1.00  0.00     0.031 A 
ATOM     43  C   UNL A   1      39.160  29.497  29.384  1.00  0.00     0.074 A 
ATOM     44  C   UNL A   1      38.507  30.960  31.268  1.00  0.00     0.049 A 
ATOM     45  N   UNL A   1      40.211  28.896  29.880  1.00  0.00    -0.248 NA
ATOM     46  C   UNL A   1      38.811  29.071  28.021  1.00  0.00     0.031 C 
ATOM     47  C   UNL A   1      37.678  31.915  32.009  1.00  0.00     0.029 A 
ATOM     48  N   UNL A   1      39.519  30.656  32.144  1.00  0.00    -0.354 N 
ATOM     49  C   UNL A   1      40.641  28.012  28.896  1.00  0.00     0.074 A 
ATOM     50  C   UNL A   1      39.694  28.109  27.805  1.00  0.00     0.031 C 
ATOM     51  C   UNL A   1      38.227  32.132  33.215  1.00  0.00     0.029 A 
ATOM     52  C   UNL A   1      39.419  31.302  33.355  1.00  0.00     0.049 A 
ATOM     53  H   UNL A   1      40.250  30.033  31.926  1.00  0.00     0.167 HD
ATOM     54  C   UNL A   1      41.738  27.216  28.891  1.00  0.00     0.034 A 
ATOM     55  C   UNL A   1      40.192  31.225  34.457  1.00  0.00     0.034 A 
ATOM     56  C   UNL A   1      42.676  27.139  29.985  1.00  0.00     0.049 A 
ATOM     57  C   UNL A   1      41.397  30.318  34.437  1.00  0.00     0.074 A 
ATOM     58  C   UNL A   1      43.845  26.403  30.068  1.00  0.00     0.029 A 
ATOM     59  N   UNL A   1      42.550  27.819  31.190  1.00  0.00    -0.354 N 
ATOM     60  N   UNL A   1      41.819  29.526  33.477  1.00  0.00    -0.248 NA
ATOM     61  C   UNL A   1      42.237  30.305  35.641  1.00  0.00     0.031 C 
ATOM     62  C   UNL A   1      44.390  26.588  31.343  1.00  0.00     0.029 A 
ATOM     63  C   UNL A   1      43.605  27.499  32.031  1.00  0.00     0.049 A 
ATOM     64  H   UNL A   1      41.818  28.438  31.413  1.00  0.00     0.167 HD
ATOM     65  C   UNL A   1      42.990  28.944  33.954  1.00  0.00     0.074 A 
ATOM     66  C   UNL A   1      43.214  29.488  35.278  1.00  0.00     0.031 C 
ATOM     67  C   UNL A   1      43.810  28.045  33.353  1.00  0.00     0.034 A 
BRANCH  54  68
ATOM     68  C   UNL A   1      41.961  26.354  27.670  1.00  0.00     0.023 A 
ATOM     69  C   UNL A   1      41.615  24.990  27.660  1.00  0.00     0.031 A 
ATOM     70  C   UNL A   1      42.560  26.888  26.517  1.00  0.00     0.131 A 
ATOM     71  C   UNL A   1      41.945  24.192  26.556  1.00  0.00     0.055 A 
ATOM     72  C   UNL A   1      42.808  26.105  25.386  1.00  0.00     0.041 A 
ATOM     73  F   UNL A   1      42.932  28.177  26.473  1.00  0.00    -0.206 F 
ATOM     74  C   UNL A   1      42.515  24.744  25.408  1.00  0.00     0.022 A 
BRANCH  71  75
ATOM     75  S   UNL A   1      41.758  22.393  26.705  1.00  0.00     0.124 S 
ATOM     76  O   UNL A   1      40.346  22.273  27.060  1.00  0.00    -0.237 OA
ATOM     77  O   UNL A   1      42.125  21.926  25.374  1.00  0.00    -0.237 OA
ATOM     78  O   UNL A   1      42.693  22.039  27.771  1.00  0.00    -0.744 OA
ENDBRANCH  71  75
ENDBRANCH  54  68
BRANCH  55  79
ATOM     79  C   UNL A   1      39.851  32.012  35.676  1.00  0.00     0.023 A 
ATOM     80  C   UNL A   1      38.922  31.531  36.613  1.00  0.00     0.031 A 
ATOM     81  C   UNL A   1      40.419  33.278  35.902  1.00  0.00     0.131 A 
ATOM     82  C   UNL A   1      38.553  32.332  37.705  1.00  0.00     0.055 A 
ATOM     83  C   UNL A   1      40.088  34.048  37.019  1.00  0.00     0.041 A 
ATOM     84  F   UNL A   1      41.319  33.783  35.042  1.00  0.00    -0.206 F 
ATOM     85  C   UNL A   1      39.138  33.581  37.921  1.00  0.00     0.022 A 
BRANCH  82  86
ATOM     86  S   UNL A   1      37.227  31.750  38.799  1.00  0.00     0.124 S 
ATOM     87  O   UNL A   1      36.162  32.703  38.509  1.00  0.00    -0.237 OA
ATOM     88  O   UNL A   1      37.016  30.388  38.321  1.00  0.00    -0.237 OA
ATOM     89  O   UNL A   1      37.815  31.855  40.133  1.00  0.00    -0.744 OA
ENDBRANCH  82  86
ENDBRANCH  55  79
BRANCH  67  90
ATOM     90  C   UNL A   1      45.050  27.633  34.109  1.00  0.00     0.023 A 
ATOM     91  C   UNL A   1      45.061  26.517  34.963  1.00  0.00     0.031 A 
ATOM     92  C   UNL A   1      46.235  28.378  33.978  1.00  0.00     0.131 A 
ATOM     93  C   UNL A   1      46.218  26.210  35.695  1.00  0.00     0.055 A 
ATOM     94  C   UNL A   1      47.400  28.033  34.663  1.00  0.00     0.041 A 
ATOM     95  F   UNL A   1      46.280  29.456  33.177  1.00  0.00    -0.206 F 
ATOM     96  C   UNL A   1      47.392  26.950  35.538  1.00  0.00     0.022 A 
BRANCH  93  97
ATOM     97  S   UNL A   1      46.142  24.881  36.928  1.00  0.00     0.124 S 
ATOM     98  O   UNL A   1      47.226  24.005  36.497  1.00  0.00    -0.237 OA
ATOM     99  O   UNL A   1      46.362  25.602  38.178  1.00  0.00    -0.237 OA
ATOM    100  O   UNL A   1      44.798  24.333  36.759  1.00  0.00    -0.744 OA
ENDBRANCH  93  97
ENDBRANCH  67  90
ENDBRANCH  41  42
ENDBRANCH  33  36
ENDBRANCH  31  32
ENDBRANCH  30  31
ENDBRANCH   1  30
TORSDOF 19
ENDMDL
