MODEL 1
REMARK VINA RESULT:     -13.5      0.000      0.000
REMARK SMILES O=C(NCCCCNC(=O)[C@H]1[C@H]2CC[C@H](C2)[C@@H]1C(=O)Nc1sc2c(c1C(=O)NC1CCCCC1)CCCC2)c1ccc(-c2c3nc(c(-c4cc(S(=O)(=O)[O-])ccc4F)c4ccc([nH]4)c(-c4cc(S(=O)(=O)[O-])ccc4F)c4nc(c(-c5cc(S(=O)(=O)[O-])ccc5F)c5ccc2[nH]5)C=C4)C=C3)cc1
REMARK SMILES IDX 6 1 5 2 4 3 3 4 1 5 2 6 39 8 40 9 101 10 41 11 100 12 42 13
REMARK SMILES IDX 43 14 44 15 94 16 45 17 99 18 93 19 95 20 46 21 98 22 92 23
REMARK SMILES IDX 91 24 47 26 79 27 59 28 78 29 60 30 63 31 77 32 96 33 61 34
REMARK SMILES IDX 62 35 76 37 97 38 64 39 48 40 49 41 57 42 50 43 56 44 58 45
REMARK SMILES IDX 55 46 51 47 52 48 53 49 54 50 80 51 81 52 89 53 82 54 88 55
REMARK SMILES IDX 90 56 87 57 83 58 84 59 85 60 86 61 65 62 66 63 74 64 67 65
REMARK SMILES IDX 73 66 75 67 72 68 68 69 69 70 70 71 71 72 7 73 8 74 9 75
REMARK SMILES IDX 10 77 11 78 12 79 17 80 13 81 16 82 15 83 14 84 18 85 19 86
REMARK SMILES IDX 20 87 21 89 22 90 25 91 23 92 24 93 38 94 35 95 37 96 36 97
REMARK SMILES IDX 26 98 27 99 28 100 29 102 30 103 34 104 31 105 33 106 32 107
REMARK H PARENT 3 7 95 25 63 36 8 76 20 88 28 101
REMARK Flexibility Score: inf
ROOT
ATOM      1  C   UNL A   1      31.996  30.701  26.376  1.00  0.00     0.023 C 
ENDROOT
BRANCH   1   2
ATOM      2  C   UNL A   1      31.649  32.011  27.060  1.00  0.00     0.023 C 
BRANCH   2   3
ATOM      3  C   UNL A   1      32.638  33.157  26.881  1.00  0.00     0.116 C 
BRANCH   3   4
ATOM      4  N   UNL A   1      32.485  34.267  27.820  1.00  0.00    -0.352 N 
ATOM      5  O   UNL A   1      33.035  35.564  29.601  1.00  0.00    -0.269 OA
ATOM      6  C   UNL A   1      33.293  34.599  28.888  1.00  0.00     0.251 C 
ATOM      7  H   UNL A   1      31.707  34.853  27.671  1.00  0.00     0.163 HD
BRANCH   6   8
ATOM      8  C   UNL A   1      34.449  33.729  29.185  1.00  0.00     0.039 A 
ATOM      9  C   UNL A   1      34.238  32.512  29.832  1.00  0.00     0.014 A 
ATOM     10  C   UNL A   1      35.742  34.214  28.976  1.00  0.00     0.014 A 
ATOM     11  C   UNL A   1      35.306  31.901  30.476  1.00  0.00     0.010 A 
ATOM     12  C   UNL A   1      36.828  33.530  29.530  1.00  0.00     0.010 A 
ATOM     13  C   UNL A   1      36.612  32.407  30.346  1.00  0.00    -0.014 A 
BRANCH  13  14
ATOM     14  C   UNL A   1      37.719  31.746  31.088  1.00  0.00     0.031 A 
ATOM     15  C   UNL A   1      38.565  30.676  30.445  1.00  0.00     0.074 A 
ATOM     16  C   UNL A   1      38.002  32.170  32.336  1.00  0.00     0.049 A 
ATOM     17  N   UNL A   1      39.582  30.015  30.942  1.00  0.00    -0.248 NA
ATOM     18  C   UNL A   1      38.217  30.285  29.070  1.00  0.00     0.031 C 
ATOM     19  C   UNL A   1      37.256  33.205  33.058  1.00  0.00     0.029 A 
ATOM     20  N   UNL A   1      39.001  31.816  33.204  1.00  0.00    -0.354 N 
ATOM     21  C   UNL A   1      39.973  29.110  29.959  1.00  0.00     0.074 A 
ATOM     22  C   UNL A   1      39.064  29.290  28.846  1.00  0.00     0.031 C 
ATOM     23  C   UNL A   1      37.866  33.452  34.225  1.00  0.00     0.029 A 
ATOM     24  C   UNL A   1      38.990  32.536  34.375  1.00  0.00     0.049 A 
ATOM     25  H   UNL A   1      39.663  31.115  33.008  1.00  0.00     0.167 HD
ATOM     26  C   UNL A   1      40.995  28.216  29.985  1.00  0.00     0.034 A 
ATOM     27  C   UNL A   1      39.781  32.458  35.462  1.00  0.00     0.034 A 
ATOM     28  C   UNL A   1      41.906  28.070  31.099  1.00  0.00     0.049 A 
ATOM     29  C   UNL A   1      40.896  31.451  35.470  1.00  0.00     0.074 A 
ATOM     30  C   UNL A   1      42.994  27.220  31.218  1.00  0.00     0.029 A 
ATOM     31  N   UNL A   1      41.836  28.787  32.287  1.00  0.00    -0.354 N 
ATOM     32  N   UNL A   1      41.248  30.601  34.533  1.00  0.00    -0.248 NA
ATOM     33  C   UNL A   1      41.721  31.396  36.681  1.00  0.00     0.031 C 
ATOM     34  C   UNL A   1      43.537  27.376  32.499  1.00  0.00     0.029 A 
ATOM     35  C   UNL A   1      42.842  28.380  33.153  1.00  0.00     0.049 A 
ATOM     36  H   UNL A   1      41.169  29.483  32.486  1.00  0.00     0.167 HD
ATOM     37  C   UNL A   1      42.354  29.925  35.036  1.00  0.00     0.074 A 
ATOM     38  C   UNL A   1      42.621  30.484  36.347  1.00  0.00     0.031 C 
ATOM     39  C   UNL A   1      43.086  28.934  34.465  1.00  0.00     0.034 A 
BRANCH  26  40
ATOM     40  C   UNL A   1      41.147  27.288  28.799  1.00  0.00     0.023 A 
ATOM     41  C   UNL A   1      42.160  27.459  27.837  1.00  0.00     0.031 A 
ATOM     42  C   UNL A   1      40.247  26.222  28.616  1.00  0.00     0.131 A 
ATOM     43  C   UNL A   1      42.202  26.629  26.705  1.00  0.00     0.055 A 
ATOM     44  C   UNL A   1      40.344  25.348  27.530  1.00  0.00     0.041 A 
ATOM     45  F   UNL A   1      39.246  26.017  29.487  1.00  0.00    -0.206 F 
ATOM     46  C   UNL A   1      41.316  25.559  26.558  1.00  0.00     0.022 A 
BRANCH  43  47
ATOM     47  S   UNL A   1      43.335  27.057  25.354  1.00  0.00     0.124 S 
ATOM     48  O   UNL A   1      43.692  25.737  24.837  1.00  0.00    -0.237 OA
ATOM     49  O   UNL A   1      42.497  27.876  24.487  1.00  0.00    -0.237 OA
ATOM     50  O   UNL A   1      44.420  27.768  26.027  1.00  0.00    -0.744 OA
ENDBRANCH  43  47
ENDBRANCH  26  40
BRANCH  27  51
ATOM     51  C   UNL A   1      39.529  33.343  36.633  1.00  0.00     0.023 A 
ATOM     52  C   UNL A   1      38.883  32.858  37.780  1.00  0.00     0.031 A 
ATOM     53  C   UNL A   1      39.918  34.695  36.614  1.00  0.00     0.131 A 
ATOM     54  C   UNL A   1      38.611  33.729  38.847  1.00  0.00     0.055 A 
ATOM     55  C   UNL A   1      39.697  35.541  37.700  1.00  0.00     0.041 A 
ATOM     56  F   UNL A   1      40.546  35.207  35.543  1.00  0.00    -0.206 F 
ATOM     57  C   UNL A   1      39.028  35.062  38.821  1.00  0.00     0.022 A 
BRANCH  54  58
ATOM     58  S   UNL A   1      37.632  33.109  40.241  1.00  0.00     0.124 S 
ATOM     59  O   UNL A   1      36.382  32.742  39.588  1.00  0.00    -0.237 OA
ATOM     60  O   UNL A   1      38.456  32.004  40.720  1.00  0.00    -0.237 OA
ATOM     61  O   UNL A   1      37.554  34.260  41.139  1.00  0.00    -0.744 OA
ENDBRANCH  54  58
ENDBRANCH  27  51
BRANCH  39  62
ATOM     62  C   UNL A   1      44.274  28.435  35.250  1.00  0.00     0.023 A 
ATOM     63  C   UNL A   1      44.153  27.412  36.207  1.00  0.00     0.031 A 
ATOM     64  C   UNL A   1      45.537  29.025  35.069  1.00  0.00     0.131 A 
ATOM     65  C   UNL A   1      45.258  27.060  36.996  1.00  0.00     0.055 A 
ATOM     66  C   UNL A   1      46.648  28.627  35.814  1.00  0.00     0.041 A 
ATOM     67  F   UNL A   1      45.710  30.010  34.172  1.00  0.00    -0.206 F 
ATOM     68  C   UNL A   1      46.508  27.651  36.796  1.00  0.00     0.022 A 
BRANCH  65  69
ATOM     69  S   UNL A   1      45.011  25.903  38.372  1.00  0.00     0.124 S 
ATOM     70  O   UNL A   1      44.331  26.740  39.355  1.00  0.00    -0.237 OA
ATOM     71  O   UNL A   1      44.201  24.857  37.756  1.00  0.00    -0.237 OA
ATOM     72  O   UNL A   1      46.370  25.503  38.732  1.00  0.00    -0.744 OA
ENDBRANCH  65  69
ENDBRANCH  39  62
ENDBRANCH  13  14
ENDBRANCH   6   8
ENDBRANCH   3   4
ENDBRANCH   2   3
ENDBRANCH   1   2
BRANCH   1  73
ATOM     73  C   UNL A   1      31.956  29.444  27.229  1.00  0.00     0.116 C 
BRANCH  73  74
ATOM     74  N   UNL A   1      32.896  28.408  26.871  1.00  0.00    -0.356 N 
ATOM     75  C   UNL A   1      32.680  27.286  26.117  1.00  0.00     0.224 C 
ATOM     76  H   UNL A   1      33.811  28.523  27.215  1.00  0.00     0.163 HD
ATOM     77  O   UNL A   1      33.657  26.579  25.863  1.00  0.00    -0.275 OA
BRANCH  75  78
ATOM     78  C   UNL A   1      31.259  26.867  25.704  1.00  0.00     0.094 C 
ATOM     79  C   UNL A   1      30.634  27.663  24.515  1.00  0.00     0.002 C 
ATOM     80  C   UNL A   1      31.201  25.404  25.151  1.00  0.00     0.094 C 
ATOM     81  C   UNL A   1      31.480  27.588  23.242  1.00  0.00     0.005 C 
ATOM     82  C   UNL A   1      29.472  26.770  24.149  1.00  0.00     0.009 C 
ATOM     83  C   UNL A   1      30.347  25.553  23.873  1.00  0.00     0.002 C 
ATOM     84  C   UNL A   1      31.249  26.146  22.764  1.00  0.00     0.005 C 
BRANCH  80  85
ATOM     85  C   UNL A   1      30.882  24.244  26.123  1.00  0.00     0.229 C 
ATOM     86  O   UNL A   1      29.845  24.330  26.801  1.00  0.00    -0.274 OA
ATOM     87  N   UNL A   1      31.564  23.076  26.258  1.00  0.00    -0.317 N 
ATOM     88  H   UNL A   1      31.016  22.331  26.596  1.00  0.00     0.170 HD
BRANCH  87  89
ATOM     89  C   UNL A   1      32.871  22.736  26.011  1.00  0.00     0.108 A 
ATOM     90  S   UNL A   1      33.962  22.754  27.315  1.00  0.00    -0.122 S 
ATOM     91  C   UNL A   1      33.404  22.039  24.919  1.00  0.00     0.078 A 
ATOM     92  C   UNL A   1      35.244  22.708  26.208  1.00  0.00     0.011 A 
ATOM     93  C   UNL A   1      34.865  22.075  25.032  1.00  0.00    -0.019 A 
ATOM     94  C   UNL A   1      36.603  23.242  26.537  1.00  0.00     0.047 C 
ATOM     95  C   UNL A   1      35.938  21.637  24.078  1.00  0.00     0.037 C 
ATOM     96  C   UNL A   1      37.453  23.276  25.261  1.00  0.00     0.006 C 
ATOM     97  C   UNL A   1      37.371  21.914  24.567  1.00  0.00     0.005 C 
BRANCH  91  98
ATOM     98  C   UNL A   1      32.451  21.494  23.935  1.00  0.00     0.254 C 
ATOM     99  O   UNL A   1      31.673  22.261  23.353  1.00  0.00    -0.269 OA
ATOM    100  N   UNL A   1      32.374  20.190  23.528  1.00  0.00    -0.349 N 
ATOM    101  H   UNL A   1      31.727  20.052  22.798  1.00  0.00     0.164 HD
BRANCH 100 102
ATOM    102  C   UNL A   1      33.036  18.970  23.934  1.00  0.00     0.082 C 
ATOM    103  C   UNL A   1      32.421  18.397  25.218  1.00  0.00     0.025 C 
ATOM    104  C   UNL A   1      33.027  17.892  22.845  1.00  0.00     0.025 C 
ATOM    105  C   UNL A   1      33.245  17.205  25.703  1.00  0.00     0.002 C 
ATOM    106  C   UNL A   1      33.825  16.663  23.287  1.00  0.00     0.002 C 
ATOM    107  C   UNL A   1      33.357  16.119  24.635  1.00  0.00     0.000 C 
ENDBRANCH 100 102
ENDBRANCH  91  98
ENDBRANCH  87  89
ENDBRANCH  80  85
ENDBRANCH  75  78
ENDBRANCH  73  74
ENDBRANCH   1  73
TORSDOF 18
ENDMDL
MODEL 2
REMARK VINA RESULT:     -13.1      0.849      7.328
REMARK SMILES O=C(NCCCCNC(=O)[C@H]1[C@H]2CC[C@H](C2)[C@@H]1C(=O)Nc1sc2c(c1C(=O)NC1CCCCC1)CCCC2)c1ccc(-c2c3nc(c(-c4cc(S(=O)(=O)[O-])ccc4F)c4ccc([nH]4)c(-c4cc(S(=O)(=O)[O-])ccc4F)c4nc(c(-c5cc(S(=O)(=O)[O-])ccc5F)c5ccc2[nH]5)C=C4)C=C3)cc1
REMARK SMILES IDX 6 1 5 2 4 3 3 4 1 5 2 6 39 8 40 9 101 10 41 11 100 12 42 13
REMARK SMILES IDX 43 14 44 15 94 16 45 17 99 18 93 19 95 20 46 21 98 22 92 23
REMARK SMILES IDX 91 24 47 26 79 27 59 28 78 29 60 30 63 31 77 32 96 33 61 34
REMARK SMILES IDX 62 35 76 37 97 38 64 39 48 40 49 41 57 42 50 43 56 44 58 45
REMARK SMILES IDX 55 46 51 47 52 48 53 49 54 50 80 51 81 52 89 53 82 54 88 55
REMARK SMILES IDX 90 56 87 57 83 58 84 59 85 60 86 61 65 62 66 63 74 64 67 65
REMARK SMILES IDX 73 66 75 67 72 68 68 69 69 70 70 71 71 72 7 73 8 74 9 75
REMARK SMILES IDX 10 77 11 78 12 79 17 80 13 81 16 82 15 83 14 84 18 85 19 86
REMARK SMILES IDX 20 87 21 89 22 90 25 91 23 92 24 93 38 94 35 95 37 96 36 97
REMARK SMILES IDX 26 98 27 99 28 100 29 102 30 103 34 104 31 105 33 106 32 107
REMARK H PARENT 3 7 95 25 63 36 8 76 20 88 28 101
REMARK Flexibility Score: inf
ROOT
ATOM      1  C   UNL A   1      32.359  30.707  26.997  1.00  0.00     0.023 C 
ENDROOT
BRANCH   1   2
ATOM      2  C   UNL A   1      33.667  31.116  27.652  1.00  0.00     0.023 C 
BRANCH   2   3
ATOM      3  C   UNL A   1      34.115  32.556  27.438  1.00  0.00     0.116 C 
BRANCH   3   4
ATOM      4  N   UNL A   1      33.232  33.576  28.002  1.00  0.00    -0.352 N 
ATOM      5  O   UNL A   1      32.529  35.080  29.550  1.00  0.00    -0.269 OA
ATOM      6  C   UNL A   1      33.359  34.247  29.201  1.00  0.00     0.251 C 
ATOM      7  H   UNL A   1      32.447  33.815  27.456  1.00  0.00     0.163 HD
BRANCH   6   8
ATOM      8  C   UNL A   1      34.492  33.896  30.080  1.00  0.00     0.039 A 
ATOM      9  C   UNL A   1      35.757  34.414  29.803  1.00  0.00     0.014 A 
ATOM     10  C   UNL A   1      34.319  32.918  31.062  1.00  0.00     0.014 A 
ATOM     11  C   UNL A   1      36.871  33.785  30.340  1.00  0.00     0.010 A 
ATOM     12  C   UNL A   1      35.443  32.368  31.686  1.00  0.00     0.010 A 
ATOM     13  C   UNL A   1      36.732  32.746  31.278  1.00  0.00    -0.014 A 
BRANCH  13  14
ATOM     14  C   UNL A   1      37.953  32.071  31.794  1.00  0.00     0.031 A 
ATOM     15  C   UNL A   1      38.530  32.420  33.144  1.00  0.00     0.074 A 
ATOM     16  C   UNL A   1      38.504  31.085  31.060  1.00  0.00     0.049 A 
ATOM     17  N   UNL A   1      39.573  31.913  33.754  1.00  0.00    -0.248 NA
ATOM     18  C   UNL A   1      37.858  33.485  33.903  1.00  0.00     0.031 C 
ATOM     19  C   UNL A   1      38.028  30.656  29.742  1.00  0.00     0.029 A 
ATOM     20  N   UNL A   1      39.555  30.245  31.321  1.00  0.00    -0.354 N 
ATOM     21  C   UNL A   1      39.704  32.617  34.948  1.00  0.00     0.074 A 
ATOM     22  C   UNL A   1      38.647  33.606  34.962  1.00  0.00     0.031 C 
ATOM     23  C   UNL A   1      38.735  29.589  29.345  1.00  0.00     0.029 A 
ATOM     24  C   UNL A   1      39.770  29.313  30.334  1.00  0.00     0.049 A 
ATOM     25  H   UNL A   1      40.102  30.303  32.137  1.00  0.00     0.167 HD
ATOM     26  C   UNL A   1      40.620  32.450  35.937  1.00  0.00     0.034 A 
ATOM     27  C   UNL A   1      40.708  28.354  30.220  1.00  0.00     0.034 A 
ATOM     28  C   UNL A   1      41.653  31.439  35.912  1.00  0.00     0.049 A 
ATOM     29  C   UNL A   1      41.717  28.200  31.323  1.00  0.00     0.074 A 
ATOM     30  C   UNL A   1      42.611  31.161  36.874  1.00  0.00     0.029 A 
ATOM     31  N   UNL A   1      41.868  30.541  34.874  1.00  0.00    -0.354 N 
ATOM     32  N   UNL A   1      41.827  28.877  32.442  1.00  0.00    -0.248 NA
ATOM     33  C   UNL A   1      42.725  27.150  31.146  1.00  0.00     0.031 C 
ATOM     34  C   UNL A   1      43.442  30.144  36.387  1.00  0.00     0.029 A 
ATOM     35  C   UNL A   1      42.957  29.729  35.158  1.00  0.00     0.049 A 
ATOM     36  H   UNL A   1      41.325  30.489  34.054  1.00  0.00     0.167 HD
ATOM     37  C   UNL A   1      42.907  28.316  33.115  1.00  0.00     0.074 A 
ATOM     38  C   UNL A   1      43.396  27.233  32.286  1.00  0.00     0.031 C 
ATOM     39  C   UNL A   1      43.444  28.663  34.313  1.00  0.00     0.034 A 
BRANCH  26  40
ATOM     40  C   UNL A   1      40.581  33.418  37.101  1.00  0.00     0.023 A 
ATOM     41  C   UNL A   1      39.839  33.158  38.267  1.00  0.00     0.031 A 
ATOM     42  C   UNL A   1      41.285  34.634  37.031  1.00  0.00     0.131 A 
ATOM     43  C   UNL A   1      39.759  34.129  39.279  1.00  0.00     0.055 A 
ATOM     44  C   UNL A   1      41.268  35.560  38.077  1.00  0.00     0.041 A 
ATOM     45  F   UNL A   1      41.995  34.950  35.937  1.00  0.00    -0.206 F 
ATOM     46  C   UNL A   1      40.489  35.317  39.203  1.00  0.00     0.022 A 
BRANCH  43  47
ATOM     47  S   UNL A   1      38.570  33.883  40.629  1.00  0.00     0.124 S 
ATOM     48  O   UNL A   1      38.284  35.260  41.027  1.00  0.00    -0.237 OA
ATOM     49  O   UNL A   1      37.484  33.171  39.967  1.00  0.00    -0.237 OA
ATOM     50  O   UNL A   1      39.321  33.103  41.611  1.00  0.00    -0.744 OA
ENDBRANCH  43  47
ENDBRANCH  26  40
BRANCH  27  51
ATOM     51  C   UNL A   1      40.745  27.486  29.010  1.00  0.00     0.023 A 
ATOM     52  C   UNL A   1      41.689  27.700  27.995  1.00  0.00     0.031 A 
ATOM     53  C   UNL A   1      39.823  26.436  28.846  1.00  0.00     0.131 A 
ATOM     54  C   UNL A   1      41.666  26.901  26.842  1.00  0.00     0.055 A 
ATOM     55  C   UNL A   1      39.841  25.608  27.724  1.00  0.00     0.041 A 
ATOM     56  F   UNL A   1      38.904  26.185  29.791  1.00  0.00    -0.206 F 
ATOM     57  C   UNL A   1      40.759  25.847  26.707  1.00  0.00     0.022 A 
BRANCH  54  58
ATOM     58  S   UNL A   1      42.792  27.310  25.482  1.00  0.00     0.124 S 
ATOM     59  O   UNL A   1      42.662  26.139  24.625  1.00  0.00    -0.237 OA
ATOM     60  O   UNL A   1      42.212  28.548  24.972  1.00  0.00    -0.237 OA
ATOM     61  O   UNL A   1      44.086  27.459  26.146  1.00  0.00    -0.744 OA
ENDBRANCH  54  58
ENDBRANCH  27  51
BRANCH  39  62
ATOM     62  C   UNL A   1      44.594  27.819  34.807  1.00  0.00     0.023 A 
ATOM     63  C   UNL A   1      44.385  26.659  35.574  1.00  0.00     0.031 A 
ATOM     64  C   UNL A   1      45.918  28.208  34.543  1.00  0.00     0.131 A 
ATOM     65  C   UNL A   1      45.483  25.970  36.111  1.00  0.00     0.055 A 
ATOM     66  C   UNL A   1      47.008  27.482  35.027  1.00  0.00     0.041 A 
ATOM     67  F   UNL A   1      46.176  29.310  33.820  1.00  0.00    -0.206 F 
ATOM     68  C   UNL A   1      46.793  26.366  35.830  1.00  0.00     0.022 A 
BRANCH  65  69
ATOM     69  S   UNL A   1      45.174  24.618  37.281  1.00  0.00     0.124 S 
ATOM     70  O   UNL A   1      46.147  24.897  38.331  1.00  0.00    -0.237 OA
ATOM     71  O   UNL A   1      43.775  24.828  37.636  1.00  0.00    -0.237 OA
ATOM     72  O   UNL A   1      45.440  23.415  36.493  1.00  0.00    -0.744 OA
ENDBRANCH  65  69
ENDBRANCH  39  62
ENDBRANCH  13  14
ENDBRANCH   6   8
ENDBRANCH   3   4
ENDBRANCH   2   3
ENDBRANCH   1   2
BRANCH   1  73
ATOM     73  C   UNL A   1      31.898  29.275  27.209  1.00  0.00     0.116 C 
BRANCH  73  74
ATOM     74  N   UNL A   1      32.838  28.246  26.831  1.00  0.00    -0.356 N 
ATOM     75  C   UNL A   1      32.610  27.114  26.096  1.00  0.00     0.224 C 
ATOM     76  H   UNL A   1      33.763  28.376  27.142  1.00  0.00     0.163 HD
ATOM     77  O   UNL A   1      33.587  26.415  25.817  1.00  0.00    -0.275 OA
BRANCH  75  78
ATOM     78  C   UNL A   1      31.181  26.673  25.736  1.00  0.00     0.094 C 
ATOM     79  C   UNL A   1      30.499  27.461  24.574  1.00  0.00     0.002 C 
ATOM     80  C   UNL A   1      31.125  25.211  25.184  1.00  0.00     0.094 C 
ATOM     81  C   UNL A   1      31.297  27.401  23.270  1.00  0.00     0.005 C 
ATOM     82  C   UNL A   1      29.339  26.551  24.251  1.00  0.00     0.009 C 
ATOM     83  C   UNL A   1      30.221  25.348  23.939  1.00  0.00     0.002 C 
ATOM     84  C   UNL A   1      31.070  25.957  22.798  1.00  0.00     0.005 C 
BRANCH  80  85
ATOM     85  C   UNL A   1      30.861  24.044  26.164  1.00  0.00     0.229 C 
ATOM     86  O   UNL A   1      29.832  24.096  26.856  1.00  0.00    -0.274 OA
ATOM     87  N   UNL A   1      31.587  22.901  26.294  1.00  0.00    -0.317 N 
ATOM     88  H   UNL A   1      31.070  22.139  26.644  1.00  0.00     0.170 HD
BRANCH  87  89
ATOM     89  C   UNL A   1      32.901  22.608  26.031  1.00  0.00     0.108 A 
ATOM     90  S   UNL A   1      34.007  22.663  27.321  1.00  0.00    -0.122 S 
ATOM     91  C   UNL A   1      33.445  21.930  24.932  1.00  0.00     0.078 A 
ATOM     92  C   UNL A   1      35.276  22.663  26.198  1.00  0.00     0.011 A 
ATOM     93  C   UNL A   1      34.904  22.017  25.026  1.00  0.00    -0.019 A 
ATOM     94  C   UNL A   1      36.620  23.243  26.510  1.00  0.00     0.047 C 
ATOM     95  C   UNL A   1      35.980  21.617  24.058  1.00  0.00     0.037 C 
ATOM     96  C   UNL A   1      37.452  23.307  25.224  1.00  0.00     0.006 C 
ATOM     97  C   UNL A   1      37.408  21.944  24.530  1.00  0.00     0.005 C 
BRANCH  91  98
ATOM     98  C   UNL A   1      32.498  21.352  23.959  1.00  0.00     0.254 C 
ATOM     99  O   UNL A   1      31.702  22.095  23.371  1.00  0.00    -0.269 OA
ATOM    100  N   UNL A   1      32.447  20.043  23.568  1.00  0.00    -0.349 N 
ATOM    101  H   UNL A   1      31.800  19.882  22.844  1.00  0.00     0.164 HD
BRANCH 100 102
ATOM    102  C   UNL A   1      33.137  18.842  23.987  1.00  0.00     0.082 C 
ATOM    103  C   UNL A   1      32.499  18.236  25.243  1.00  0.00     0.025 C 
ATOM    104  C   UNL A   1      33.203  17.775  22.888  1.00  0.00     0.025 C 
ATOM    105  C   UNL A   1      33.346  17.068  25.746  1.00  0.00     0.002 C 
ATOM    106  C   UNL A   1      34.027  16.570  23.347  1.00  0.00     0.002 C 
ATOM    107  C   UNL A   1      33.533  15.997  24.674  1.00  0.00     0.000 C 
ENDBRANCH 100 102
ENDBRANCH  91  98
ENDBRANCH  87  89
ENDBRANCH  80  85
ENDBRANCH  75  78
ENDBRANCH  73  74
ENDBRANCH   1  73
TORSDOF 18
ENDMDL
MODEL 3
REMARK VINA RESULT:     -13.0      5.403     11.576
REMARK SMILES O=C(NCCCCNC(=O)[C@H]1[C@H]2CC[C@H](C2)[C@@H]1C(=O)Nc1sc2c(c1C(=O)NC1CCCCC1)CCCC2)c1ccc(-c2c3nc(c(-c4cc(S(=O)(=O)[O-])ccc4F)c4ccc([nH]4)c(-c4cc(S(=O)(=O)[O-])ccc4F)c4nc(c(-c5cc(S(=O)(=O)[O-])ccc5F)c5ccc2[nH]5)C=C4)C=C3)cc1
REMARK SMILES IDX 6 1 5 2 4 3 3 4 1 5 2 6 39 8 40 9 101 10 41 11 100 12 42 13
REMARK SMILES IDX 43 14 44 15 94 16 45 17 99 18 93 19 95 20 46 21 98 22 92 23
REMARK SMILES IDX 91 24 47 26 79 27 59 28 78 29 60 30 63 31 77 32 96 33 61 34
REMARK SMILES IDX 62 35 76 37 97 38 64 39 48 40 49 41 57 42 50 43 56 44 58 45
REMARK SMILES IDX 55 46 51 47 52 48 53 49 54 50 80 51 81 52 89 53 82 54 88 55
REMARK SMILES IDX 90 56 87 57 83 58 84 59 85 60 86 61 65 62 66 63 74 64 67 65
REMARK SMILES IDX 73 66 75 67 72 68 68 69 69 70 70 71 71 72 7 73 8 74 9 75
REMARK SMILES IDX 10 77 11 78 12 79 17 80 13 81 16 82 15 83 14 84 18 85 19 86
REMARK SMILES IDX 20 87 21 89 22 90 25 91 23 92 24 93 38 94 35 95 37 96 36 97
REMARK SMILES IDX 26 98 27 99 28 100 29 102 30 103 34 104 31 105 33 106 32 107
REMARK H PARENT 3 7 95 25 63 36 8 76 20 88 28 101
REMARK Flexibility Score: inf
ROOT
ATOM      1  C   UNL A   1      37.296  20.871  25.014  1.00  0.00     0.023 C 
ENDROOT
BRANCH   1   2
ATOM      2  C   UNL A   1      38.406  21.833  25.400  1.00  0.00     0.023 C 
BRANCH   2   3
ATOM      3  C   UNL A   1      39.355  21.373  26.499  1.00  0.00     0.116 C 
BRANCH   3   4
ATOM      4  N   UNL A   1      40.083  20.136  26.218  1.00  0.00    -0.352 N 
ATOM      5  O   UNL A   1      41.921  18.842  25.896  1.00  0.00    -0.269 OA
ATOM      6  C   UNL A   1      41.448  19.946  26.150  1.00  0.00     0.251 C 
ATOM      7  H   UNL A   1      39.529  19.338  26.058  1.00  0.00     0.163 HD
BRANCH   6   8
ATOM      8  C   UNL A   1      42.326  21.118  26.336  1.00  0.00     0.039 A 
ATOM      9  C   UNL A   1      42.649  21.530  27.628  1.00  0.00     0.014 A 
ATOM     10  C   UNL A   1      42.673  21.896  25.230  1.00  0.00     0.014 A 
ATOM     11  C   UNL A   1      43.104  22.827  27.825  1.00  0.00     0.010 A 
ATOM     12  C   UNL A   1      43.240  23.158  25.430  1.00  0.00     0.010 A 
ATOM     13  C   UNL A   1      43.393  23.663  26.732  1.00  0.00    -0.014 A 
BRANCH  13  14
ATOM     14  C   UNL A   1      43.837  25.060  26.989  1.00  0.00     0.031 A 
ATOM     15  C   UNL A   1      42.926  26.062  27.652  1.00  0.00     0.074 A 
ATOM     16  C   UNL A   1      45.103  25.402  26.678  1.00  0.00     0.049 A 
ATOM     17  N   UNL A   1      43.162  27.311  27.970  1.00  0.00    -0.248 NA
ATOM     18  C   UNL A   1      41.568  25.610  27.991  1.00  0.00     0.031 C 
ATOM     19  C   UNL A   1      46.078  24.513  26.040  1.00  0.00     0.029 A 
ATOM     20  N   UNL A   1      45.799  26.565  26.882  1.00  0.00    -0.354 N 
ATOM     21  C   UNL A   1      41.977  27.803  28.512  1.00  0.00     0.074 A 
ATOM     22  C   UNL A   1      41.016  26.723  28.454  1.00  0.00     0.031 C 
ATOM     23  C   UNL A   1      47.262  25.136  25.971  1.00  0.00     0.029 A 
ATOM     24  C   UNL A   1      47.111  26.495  26.477  1.00  0.00     0.049 A 
ATOM     25  H   UNL A   1      45.399  27.370  27.280  1.00  0.00     0.167 HD
ATOM     26  C   UNL A   1      41.720  29.040  29.012  1.00  0.00     0.034 A 
ATOM     27  C   UNL A   1      48.084  27.425  26.489  1.00  0.00     0.034 A 
ATOM     28  C   UNL A   1      42.704  30.098  29.081  1.00  0.00     0.049 A 
ATOM     29  C   UNL A   1      47.769  28.790  27.035  1.00  0.00     0.074 A 
ATOM     30  C   UNL A   1      42.562  31.377  29.597  1.00  0.00     0.029 A 
ATOM     31  N   UNL A   1      44.012  30.005  28.620  1.00  0.00    -0.354 N 
ATOM     32  N   UNL A   1      46.643  29.238  27.539  1.00  0.00    -0.248 NA
ATOM     33  C   UNL A   1      48.859  29.771  27.014  1.00  0.00     0.031 C 
ATOM     34  C   UNL A   1      43.758  32.073  29.386  1.00  0.00     0.029 A 
ATOM     35  C   UNL A   1      44.676  31.209  28.813  1.00  0.00     0.049 A 
ATOM     36  H   UNL A   1      44.409  29.201  28.215  1.00  0.00     0.167 HD
ATOM     37  C   UNL A   1      46.898  30.551  27.919  1.00  0.00     0.074 A 
ATOM     38  C   UNL A   1      48.289  30.811  27.605  1.00  0.00     0.031 C 
ATOM     39  C   UNL A   1      46.059  31.459  28.480  1.00  0.00     0.034 A 
BRANCH  26  40
ATOM     40  C   UNL A   1      40.308  29.334  29.468  1.00  0.00     0.023 A 
ATOM     41  C   UNL A   1      39.961  29.418  30.829  1.00  0.00     0.031 A 
ATOM     42  C   UNL A   1      39.283  29.514  28.521  1.00  0.00     0.131 A 
ATOM     43  C   UNL A   1      38.619  29.599  31.203  1.00  0.00     0.055 A 
ATOM     44  C   UNL A   1      37.963  29.776  28.899  1.00  0.00     0.041 A 
ATOM     45  F   UNL A   1      39.544  29.426  27.208  1.00  0.00    -0.206 F 
ATOM     46  C   UNL A   1      37.622  29.804  30.247  1.00  0.00     0.022 A 
BRANCH  43  47
ATOM     47  S   UNL A   1      38.171  29.414  32.952  1.00  0.00     0.124 S 
ATOM     48  O   UNL A   1      37.398  30.632  33.190  1.00  0.00    -0.237 OA
ATOM     49  O   UNL A   1      37.416  28.168  32.954  1.00  0.00    -0.237 OA
ATOM     50  O   UNL A   1      39.462  29.364  33.635  1.00  0.00    -0.744 OA
ENDBRANCH  43  47
ENDBRANCH  26  40
BRANCH  27  51
ATOM     51  C   UNL A   1      49.434  27.101  25.948  1.00  0.00     0.023 A 
ATOM     52  C   UNL A   1      49.780  27.422  24.628  1.00  0.00     0.031 A 
ATOM     53  C   UNL A   1      50.393  26.447  26.744  1.00  0.00     0.131 A 
ATOM     54  C   UNL A   1      51.040  27.056  24.129  1.00  0.00     0.055 A 
ATOM     55  C   UNL A   1      51.664  26.137  26.261  1.00  0.00     0.041 A 
ATOM     56  F   UNL A   1      50.113  26.123  28.017  1.00  0.00    -0.206 F 
ATOM     57  C   UNL A   1      51.989  26.430  24.942  1.00  0.00     0.022 A 
BRANCH  54  58
ATOM     58  S   UNL A   1      51.393  27.342  22.374  1.00  0.00     0.124 S 
ATOM     59  O   UNL A   1      51.576  28.787  22.339  1.00  0.00    -0.237 OA
ATOM     60  O   UNL A   1      52.593  26.537  22.173  1.00  0.00    -0.237 OA
ATOM     61  O   UNL A   1      50.193  26.847  21.702  1.00  0.00    -0.744 OA
ENDBRANCH  54  58
ENDBRANCH  27  51
BRANCH  39  62
ATOM     62  C   UNL A   1      46.654  32.801  28.829  1.00  0.00     0.023 A 
ATOM     63  C   UNL A   1      46.566  33.901  27.957  1.00  0.00     0.031 A 
ATOM     64  C   UNL A   1      47.360  32.967  30.034  1.00  0.00     0.131 A 
ATOM     65  C   UNL A   1      47.234  35.094  28.269  1.00  0.00     0.055 A 
ATOM     66  C   UNL A   1      47.969  34.178  30.368  1.00  0.00     0.041 A 
ATOM     67  F   UNL A   1      47.480  31.950  30.902  1.00  0.00    -0.206 F 
ATOM     68  C   UNL A   1      47.923  35.245  29.475  1.00  0.00     0.022 A 
BRANCH  65  69
ATOM     69  S   UNL A   1      47.291  36.410  27.021  1.00  0.00     0.124 S 
ATOM     70  O   UNL A   1      47.554  35.659  25.798  1.00  0.00    -0.237 OA
ATOM     71  O   UNL A   1      45.962  37.002  27.133  1.00  0.00    -0.237 OA
ATOM     72  O   UNL A   1      48.390  37.263  27.472  1.00  0.00    -0.744 OA
ENDBRANCH  65  69
ENDBRANCH  39  62
ENDBRANCH  13  14
ENDBRANCH   6   8
ENDBRANCH   3   4
ENDBRANCH   2   3
ENDBRANCH   1   2
BRANCH   1  73
ATOM     73  C   UNL A   1      35.982  21.480  24.556  1.00  0.00     0.116 C 
BRANCH  73  74
ATOM     74  N   UNL A   1      35.813  22.891  24.818  1.00  0.00    -0.356 N 
ATOM     75  C   UNL A   1      34.801  23.717  24.410  1.00  0.00     0.224 C 
ATOM     76  H   UNL A   1      36.518  23.312  25.362  1.00  0.00     0.163 HD
ATOM     77  O   UNL A   1      34.815  24.876  24.829  1.00  0.00    -0.275 OA
BRANCH  75  78
ATOM     78  C   UNL A   1      33.759  23.250  23.379  1.00  0.00     0.094 C 
ATOM     79  C   UNL A   1      32.909  22.006  23.789  1.00  0.00     0.002 C 
ATOM     80  C   UNL A   1      32.639  24.314  23.133  1.00  0.00     0.094 C 
ATOM     81  C   UNL A   1      32.141  22.218  25.095  1.00  0.00     0.005 C 
ATOM     82  C   UNL A   1      31.791  22.075  22.776  1.00  0.00     0.009 C 
ATOM     83  C   UNL A   1      31.346  23.472  23.194  1.00  0.00     0.002 C 
ATOM     84  C   UNL A   1      31.028  23.193  24.682  1.00  0.00     0.005 C 
BRANCH  80  85
ATOM     85  C   UNL A   1      32.806  25.331  21.981  1.00  0.00     0.229 C 
ATOM     86  O   UNL A   1      33.110  24.888  20.861  1.00  0.00    -0.274 OA
ATOM     87  N   UNL A   1      32.565  26.668  22.025  1.00  0.00    -0.317 N 
ATOM     88  H   UNL A   1      32.335  27.061  21.151  1.00  0.00     0.170 HD
BRANCH  87  89
ATOM     89  C   UNL A   1      32.579  27.575  23.055  1.00  0.00     0.108 A 
ATOM     90  S   UNL A   1      33.965  28.540  23.252  1.00  0.00    -0.122 S 
ATOM     91  C   UNL A   1      31.499  28.093  23.782  1.00  0.00     0.078 A 
ATOM     92  C   UNL A   1      33.426  28.950  24.805  1.00  0.00     0.011 A 
ATOM     93  C   UNL A   1      32.041  28.894  24.883  1.00  0.00    -0.019 A 
ATOM     94  C   UNL A   1      34.365  29.370  25.893  1.00  0.00     0.047 C 
ATOM     95  C   UNL A   1      31.363  29.543  26.055  1.00  0.00     0.037 C 
ATOM     96  C   UNL A   1      33.602  29.432  27.221  1.00  0.00     0.006 C 
ATOM     97  C   UNL A   1      32.324  30.251  27.028  1.00  0.00     0.005 C 
BRANCH  91  98
ATOM     98  C   UNL A   1      30.144  27.711  23.343  1.00  0.00     0.254 C 
ATOM     99  O   UNL A   1      29.763  26.543  23.492  1.00  0.00    -0.269 OA
ATOM    100  N   UNL A   1      29.198  28.555  22.830  1.00  0.00    -0.349 N 
ATOM    101  H   UNL A   1      28.330  28.116  22.682  1.00  0.00     0.164 HD
BRANCH 100 102
ATOM    102  C   UNL A   1      29.195  29.953  22.458  1.00  0.00     0.082 C 
ATOM    103  C   UNL A   1      28.187  30.234  21.336  1.00  0.00     0.025 C 
ATOM    104  C   UNL A   1      28.910  30.888  23.639  1.00  0.00     0.025 C 
ATOM    105  C   UNL A   1      28.326  31.680  20.860  1.00  0.00     0.002 C 
ATOM    106  C   UNL A   1      29.017  32.354  23.213  1.00  0.00     0.002 C 
ATOM    107  C   UNL A   1      28.141  32.674  22.004  1.00  0.00     0.000 C 
ENDBRANCH 100 102
ENDBRANCH  91  98
ENDBRANCH  87  89
ENDBRANCH  80  85
ENDBRANCH  75  78
ENDBRANCH  73  74
ENDBRANCH   1  73
TORSDOF 18
ENDMDL
