MODEL 1
REMARK VINA RESULT:     -13.2      0.000      0.000
REMARK SMILES Cc1cc2n(n1)CC[N@@H+](Cc1ncccc1C(=O)NCCCCNC(=O)c1ccc(-c3c4nc(c(-c5cc(S(=O)(=O)[O-])ccc5F)c5ccc([nH]5)c(-c5cc(S(=O)(=O)[O-])ccc5F)c5nc(c(-c6cc(S(=O)(=O)[O-])ccc6F)c6ccc3[nH]6)C=C5)C=C4)cc1)C2
REMARK SMILES IDX 22 1 21 2 20 3 19 4 17 5 18 6 16 8 11 9 12 10 13 11 15 12
REMARK SMILES IDX 14 13 10 14 9 15 1 16 2 17 3 18 6 19 4 20 5 21 90 22 7 23
REMARK SMILES IDX 8 24 23 26 24 27 25 28 26 30 27 31 28 32 89 33 29 34 88 35
REMARK SMILES IDX 30 36 31 37 32 38 82 39 33 40 87 41 81 42 83 43 34 44 86 45
REMARK SMILES IDX 80 46 79 47 35 49 67 50 47 51 66 52 48 53 51 54 65 55 84 56
REMARK SMILES IDX 49 57 50 58 64 60 85 61 52 62 36 63 37 64 45 65 38 66 44 67
REMARK SMILES IDX 46 68 43 69 39 70 40 71 41 72 42 73 68 74 69 75 77 76 70 77
REMARK SMILES IDX 76 78 78 79 75 80 71 81 72 82 73 83 74 84 53 85 54 86 62 87
REMARK SMILES IDX 55 88 61 89 63 90 60 91 56 92 57 93 58 94 59 95
REMARK H PARENT 19 7 9 25 24 29 83 48 51 59
REMARK Flexibility Score: inf
ROOT
ATOM      1  C   UNL A   1      34.386  30.313  27.259  1.00  0.00     0.023 C 
ENDROOT
BRANCH   1   2
ATOM      2  C   UNL A   1      33.008  29.665  27.046  1.00  0.00     0.023 C 
BRANCH   2   3
ATOM      3  C   UNL A   1      32.938  28.145  27.089  1.00  0.00     0.116 C 
BRANCH   3   4
ATOM      4  N   UNL A   1      33.611  27.441  26.017  1.00  0.00    -0.352 N 
ATOM      5  C   UNL A   1      33.444  26.226  25.400  1.00  0.00     0.253 C 
ATOM      6  O   UNL A   1      33.978  26.122  24.295  1.00  0.00    -0.269 OA
ATOM      7  H   UNL A   1      34.363  27.955  25.641  1.00  0.00     0.163 HD
BRANCH   5   8
ATOM      8  C   UNL A   1      32.707  25.056  25.960  1.00  0.00     0.067 A 
ATOM      9  C   UNL A   1      31.298  25.033  25.999  1.00  0.00     0.107 A 
ATOM     10  N   UNL A   1      30.592  23.992  26.559  1.00  0.00    -0.254 NA
ATOM     11  C   UNL A   1      31.276  22.987  27.133  1.00  0.00     0.111 A 
ATOM     12  C   UNL A   1      33.363  23.986  26.582  1.00  0.00     0.017 A 
ATOM     13  C   UNL A   1      32.650  22.936  27.161  1.00  0.00     0.021 A 
BRANCH   9  14
ATOM     14  C   UNL A   1      30.393  26.139  25.482  1.00  0.00     0.320 C 
BRANCH  14  15
ATOM     15  N   UNL A   1      29.819  25.994  24.140  1.00  0.00    -0.323 N 
ATOM     16  C   UNL A   1      28.223  31.226  21.554  1.00  0.00     0.069 C 
ATOM     17  C   UNL A   1      28.626  29.897  22.074  1.00  0.00     0.060 A 
ATOM     18  C   UNL A   1      27.914  29.049  22.957  1.00  0.00     0.054 A 
ATOM     19  N   UNL A   1      29.808  29.370  21.728  1.00  0.00    -0.178 NA
ATOM     20  C   UNL A   1      28.731  27.957  23.143  1.00  0.00     0.093 A 
ATOM     21  N   UNL A   1      29.840  28.200  22.393  1.00  0.00    -0.258 N 
ATOM     22  C   UNL A   1      28.564  26.693  23.898  1.00  0.00     0.319 C 
ATOM     23  C   UNL A   1      30.988  27.329  22.301  1.00  0.00     0.206 C 
ATOM     24  C   UNL A   1      30.764  25.996  23.025  1.00  0.00     0.286 C 
ATOM     25  H   UNL A   1      29.523  25.019  24.163  1.00  0.00     0.348 HD
ENDBRANCH  14  15
ENDBRANCH   9  14
ENDBRANCH   5   8
ENDBRANCH   3   4
ENDBRANCH   2   3
ENDBRANCH   1   2
BRANCH   1  26
ATOM     26  C   UNL A   1      35.440  29.487  27.990  1.00  0.00     0.116 C 
BRANCH  26  27
ATOM     27  N   UNL A   1      35.645  29.887  29.384  1.00  0.00    -0.352 N 
ATOM     28  C   UNL A   1      36.657  29.500  30.258  1.00  0.00     0.251 C 
ATOM     29  H   UNL A   1      34.978  30.511  29.752  1.00  0.00     0.163 HD
ATOM     30  O   UNL A   1      36.489  29.558  31.464  1.00  0.00    -0.269 OA
BRANCH  28  31
ATOM     31  C   UNL A   1      37.945  29.045  29.689  1.00  0.00     0.039 A 
ATOM     32  C   UNL A   1      38.591  29.679  28.628  1.00  0.00     0.014 A 
ATOM     33  C   UNL A   1      38.516  27.933  30.286  1.00  0.00     0.014 A 
ATOM     34  C   UNL A   1      39.855  29.219  28.244  1.00  0.00     0.010 A 
ATOM     35  C   UNL A   1      39.828  27.628  30.071  1.00  0.00     0.010 A 
ATOM     36  C   UNL A   1      40.469  28.196  28.985  1.00  0.00    -0.014 A 
BRANCH  36  37
ATOM     37  C   UNL A   1      41.837  27.750  28.758  1.00  0.00     0.031 A 
ATOM     38  C   UNL A   1      41.920  26.493  27.975  1.00  0.00     0.074 A 
ATOM     39  C   UNL A   1      42.903  28.564  28.951  1.00  0.00     0.049 A 
ATOM     40  N   UNL A   1      42.178  25.308  28.414  1.00  0.00    -0.248 NA
ATOM     41  C   UNL A   1      41.431  26.513  26.585  1.00  0.00     0.031 C 
ATOM     42  C   UNL A   1      42.900  29.969  29.386  1.00  0.00     0.029 A 
ATOM     43  N   UNL A   1      44.218  28.349  28.680  1.00  0.00    -0.354 N 
ATOM     44  C   UNL A   1      42.192  24.494  27.285  1.00  0.00     0.074 A 
ATOM     45  C   UNL A   1      41.439  25.210  26.296  1.00  0.00     0.031 C 
ATOM     46  C   UNL A   1      44.103  30.532  29.131  1.00  0.00     0.029 A 
ATOM     47  C   UNL A   1      45.015  29.497  28.677  1.00  0.00     0.049 A 
ATOM     48  H   UNL A   1      44.582  27.453  28.500  1.00  0.00     0.167 HD
ATOM     49  C   UNL A   1      43.100  23.482  27.168  1.00  0.00     0.034 A 
ATOM     50  C   UNL A   1      46.325  29.597  28.316  1.00  0.00     0.034 A 
ATOM     51  C   UNL A   1      43.748  23.244  28.447  1.00  0.00     0.049 A 
ATOM     52  C   UNL A   1      46.884  28.224  28.397  1.00  0.00     0.074 A 
ATOM     53  C   UNL A   1      43.305  22.922  29.717  1.00  0.00     0.029 A 
ATOM     54  N   UNL A   1      45.023  23.746  28.619  1.00  0.00    -0.354 N 
ATOM     55  N   UNL A   1      46.982  27.561  29.518  1.00  0.00    -0.248 NA
ATOM     56  C   UNL A   1      46.845  27.400  27.198  1.00  0.00     0.031 C 
ATOM     57  C   UNL A   1      44.117  23.695  30.598  1.00  0.00     0.029 A 
ATOM     58  C   UNL A   1      45.083  24.365  29.842  1.00  0.00     0.049 A 
ATOM     59  H   UNL A   1      45.763  23.673  27.974  1.00  0.00     0.167 HD
ATOM     60  C   UNL A   1      46.569  26.273  29.212  1.00  0.00     0.074 A 
ATOM     61  C   UNL A   1      46.604  26.205  27.751  1.00  0.00     0.031 C 
ATOM     62  C   UNL A   1      45.951  25.490  30.147  1.00  0.00     0.034 A 
BRANCH  49  63
ATOM     63  C   UNL A   1      43.736  23.018  25.865  1.00  0.00     0.023 A 
ATOM     64  C   UNL A   1      43.607  21.648  25.568  1.00  0.00     0.031 A 
ATOM     65  C   UNL A   1      44.669  23.720  25.070  1.00  0.00     0.131 A 
ATOM     66  C   UNL A   1      44.490  21.008  24.683  1.00  0.00     0.055 A 
ATOM     67  C   UNL A   1      45.506  23.089  24.142  1.00  0.00     0.041 A 
ATOM     68  F   UNL A   1      44.883  25.034  25.170  1.00  0.00    -0.206 F 
ATOM     69  C   UNL A   1      45.452  21.717  23.977  1.00  0.00     0.022 A 
BRANCH  66  70
ATOM     70  S   UNL A   1      44.481  19.200  24.644  1.00  0.00     0.124 S 
ATOM     71  O   UNL A   1      45.484  18.888  25.657  1.00  0.00    -0.237 OA
ATOM     72  O   UNL A   1      43.096  18.902  24.992  1.00  0.00    -0.237 OA
ATOM     73  O   UNL A   1      44.861  18.892  23.268  1.00  0.00    -0.744 OA
ENDBRANCH  66  70
ENDBRANCH  49  63
BRANCH  50  74
ATOM     74  C   UNL A   1      46.998  30.729  27.611  1.00  0.00     0.023 A 
ATOM     75  C   UNL A   1      46.310  31.796  26.988  1.00  0.00     0.031 A 
ATOM     76  C   UNL A   1      48.396  30.883  27.756  1.00  0.00     0.131 A 
ATOM     77  C   UNL A   1      47.019  32.946  26.546  1.00  0.00     0.055 A 
ATOM     78  C   UNL A   1      49.088  32.018  27.320  1.00  0.00     0.041 A 
ATOM     79  F   UNL A   1      49.128  29.966  28.408  1.00  0.00    -0.206 F 
ATOM     80  C   UNL A   1      48.399  33.057  26.719  1.00  0.00     0.022 A 
BRANCH  77  81
ATOM     81  S   UNL A   1      46.143  34.357  25.785  1.00  0.00     0.124 S 
ATOM     82  O   UNL A   1      45.127  33.698  24.973  1.00  0.00    -0.237 OA
ATOM     83  O   UNL A   1      45.666  35.094  26.950  1.00  0.00    -0.237 OA
ATOM     84  O   UNL A   1      47.188  35.038  25.019  1.00  0.00    -0.744 OA
ENDBRANCH  77  81
ENDBRANCH  50  74
BRANCH  62  85
ATOM     85  C   UNL A   1      46.020  25.915  31.602  1.00  0.00     0.023 A 
ATOM     86  C   UNL A   1      44.935  26.408  32.365  1.00  0.00     0.031 A 
ATOM     87  C   UNL A   1      47.232  25.676  32.271  1.00  0.00     0.131 A 
ATOM     88  C   UNL A   1      45.097  26.643  33.748  1.00  0.00     0.055 A 
ATOM     89  C   UNL A   1      47.382  25.888  33.640  1.00  0.00     0.041 A 
ATOM     90  F   UNL A   1      48.290  25.185  31.606  1.00  0.00    -0.206 F 
ATOM     91  C   UNL A   1      46.314  26.376  34.383  1.00  0.00     0.022 A 
BRANCH  88  92
ATOM     92  S   UNL A   1      43.729  27.310  34.753  1.00  0.00     0.124 S 
ATOM     93  O   UNL A   1      44.273  28.551  35.290  1.00  0.00    -0.237 OA
ATOM     94  O   UNL A   1      42.655  27.454  33.773  1.00  0.00    -0.237 OA
ATOM     95  O   UNL A   1      43.498  26.263  35.752  1.00  0.00    -0.744 OA
ENDBRANCH  88  92
ENDBRANCH  62  85
ENDBRANCH  36  37
ENDBRANCH  28  31
ENDBRANCH  26  27
ENDBRANCH   1  26
TORSDOF 16
ENDMDL
MODEL 2
REMARK VINA RESULT:     -13.0      1.067      3.082
REMARK SMILES Cc1cc2n(n1)CC[N@@H+](Cc1ncccc1C(=O)NCCCCNC(=O)c1ccc(-c3c4nc(c(-c5cc(S(=O)(=O)[O-])ccc5F)c5ccc([nH]5)c(-c5cc(S(=O)(=O)[O-])ccc5F)c5nc(c(-c6cc(S(=O)(=O)[O-])ccc6F)c6ccc3[nH]6)C=C5)C=C4)cc1)C2
REMARK SMILES IDX 22 1 21 2 20 3 19 4 17 5 18 6 16 8 11 9 12 10 13 11 15 12
REMARK SMILES IDX 14 13 10 14 9 15 1 16 2 17 3 18 6 19 4 20 5 21 90 22 7 23
REMARK SMILES IDX 8 24 23 26 24 27 25 28 26 30 27 31 28 32 89 33 29 34 88 35
REMARK SMILES IDX 30 36 31 37 32 38 82 39 33 40 87 41 81 42 83 43 34 44 86 45
REMARK SMILES IDX 80 46 79 47 35 49 67 50 47 51 66 52 48 53 51 54 65 55 84 56
REMARK SMILES IDX 49 57 50 58 64 60 85 61 52 62 36 63 37 64 45 65 38 66 44 67
REMARK SMILES IDX 46 68 43 69 39 70 40 71 41 72 42 73 68 74 69 75 77 76 70 77
REMARK SMILES IDX 76 78 78 79 75 80 71 81 72 82 73 83 74 84 53 85 54 86 62 87
REMARK SMILES IDX 55 88 61 89 63 90 60 91 56 92 57 93 58 94 59 95
REMARK H PARENT 19 7 9 25 24 29 83 48 51 59
REMARK Flexibility Score: inf
ROOT
ATOM      1  C   UNL A   1      34.027  28.592  27.002  1.00  0.00     0.023 C 
ENDROOT
BRANCH   1   2
ATOM      2  C   UNL A   1      32.721  29.373  27.219  1.00  0.00     0.023 C 
BRANCH   2   3
ATOM      3  C   UNL A   1      32.096  30.038  26.000  1.00  0.00     0.116 C 
BRANCH   3   4
ATOM      4  N   UNL A   1      32.408  29.444  24.716  1.00  0.00    -0.352 N 
ATOM      5  C   UNL A   1      31.699  29.192  23.567  1.00  0.00     0.253 C 
ATOM      6  O   UNL A   1      32.385  29.003  22.561  1.00  0.00    -0.269 OA
ATOM      7  H   UNL A   1      33.347  29.155  24.651  1.00  0.00     0.163 HD
BRANCH   5   8
ATOM      8  C   UNL A   1      30.215  29.112  23.455  1.00  0.00     0.067 A 
ATOM      9  C   UNL A   1      29.564  27.878  23.258  1.00  0.00     0.107 A 
ATOM     10  N   UNL A   1      28.200  27.779  23.097  1.00  0.00    -0.254 NA
ATOM     11  C   UNL A   1      27.472  28.910  23.078  1.00  0.00     0.111 A 
ATOM     12  C   UNL A   1      29.405  30.254  23.416  1.00  0.00     0.017 A 
ATOM     13  C   UNL A   1      28.023  30.158  23.241  1.00  0.00     0.021 A 
BRANCH   9  14
ATOM     14  C   UNL A   1      30.261  26.531  23.157  1.00  0.00     0.320 C 
BRANCH  14  15
ATOM     15  N   UNL A   1      30.062  25.566  24.244  1.00  0.00    -0.323 N 
ATOM     16  C   UNL A   1      35.097  22.652  25.910  1.00  0.00     0.069 C 
ATOM     17  C   UNL A   1      33.820  23.344  25.615  1.00  0.00     0.060 A 
ATOM     18  C   UNL A   1      32.885  23.060  24.590  1.00  0.00     0.054 A 
ATOM     19  N   UNL A   1      33.439  24.395  26.352  1.00  0.00    -0.178 NA
ATOM     20  C   UNL A   1      31.895  24.004  24.734  1.00  0.00     0.093 A 
ATOM     21  N   UNL A   1      32.274  24.771  25.793  1.00  0.00    -0.258 N 
ATOM     22  C   UNL A   1      30.611  24.234  24.028  1.00  0.00     0.319 C 
ATOM     23  C   UNL A   1      31.545  25.911  26.296  1.00  0.00     0.206 C 
ATOM     24  C   UNL A   1      30.188  26.084  25.605  1.00  0.00     0.286 C 
ATOM     25  H   UNL A   1      29.059  25.401  24.172  1.00  0.00     0.348 HD
ENDBRANCH  14  15
ENDBRANCH   9  14
ENDBRANCH   5   8
ENDBRANCH   3   4
ENDBRANCH   2   3
ENDBRANCH   1   2
BRANCH   1  26
ATOM     26  C   UNL A   1      35.334  29.315  27.315  1.00  0.00     0.116 C 
BRANCH  26  27
ATOM     27  N   UNL A   1      35.421  29.814  28.690  1.00  0.00    -0.352 N 
ATOM     28  C   UNL A   1      36.364  29.508  29.665  1.00  0.00     0.251 C 
ATOM     29  H   UNL A   1      34.718  30.449  28.959  1.00  0.00     0.163 HD
ATOM     30  O   UNL A   1      36.100  29.645  30.847  1.00  0.00    -0.269 OA
BRANCH  28  31
ATOM     31  C   UNL A   1      37.700  29.040  29.233  1.00  0.00     0.039 A 
ATOM     32  C   UNL A   1      38.373  29.537  28.117  1.00  0.00     0.014 A 
ATOM     33  C   UNL A   1      38.289  28.064  30.021  1.00  0.00     0.014 A 
ATOM     34  C   UNL A   1      39.674  29.091  27.867  1.00  0.00     0.010 A 
ATOM     35  C   UNL A   1      39.622  27.800  29.917  1.00  0.00     0.010 A 
ATOM     36  C   UNL A   1      40.294  28.227  28.786  1.00  0.00    -0.014 A 
BRANCH  36  37
ATOM     37  C   UNL A   1      41.691  27.825  28.693  1.00  0.00     0.031 A 
ATOM     38  C   UNL A   1      41.896  26.611  27.866  1.00  0.00     0.074 A 
ATOM     39  C   UNL A   1      42.705  28.652  29.043  1.00  0.00     0.049 A 
ATOM     40  N   UNL A   1      42.137  25.411  28.274  1.00  0.00    -0.248 NA
ATOM     41  C   UNL A   1      41.564  26.690  26.431  1.00  0.00     0.031 C 
ATOM     42  C   UNL A   1      42.614  30.033  29.542  1.00  0.00     0.029 A 
ATOM     43  N   UNL A   1      44.048  28.482  28.912  1.00  0.00    -0.354 N 
ATOM     44  C   UNL A   1      42.300  24.656  27.117  1.00  0.00     0.074 A 
ATOM     45  C   UNL A   1      41.642  25.403  26.084  1.00  0.00     0.031 C 
ATOM     46  C   UNL A   1      43.821  30.635  29.450  1.00  0.00     0.029 A 
ATOM     47  C   UNL A   1      44.807  29.645  29.054  1.00  0.00     0.049 A 
ATOM     48  H   UNL A   1      44.455  27.604  28.731  1.00  0.00     0.167 HD
ATOM     49  C   UNL A   1      43.243  23.673  27.054  1.00  0.00     0.034 A 
ATOM     50  C   UNL A   1      46.146  29.794  28.848  1.00  0.00     0.034 A 
ATOM     51  C   UNL A   1      43.751  23.385  28.386  1.00  0.00     0.049 A 
ATOM     52  C   UNL A   1      46.731  28.431  28.926  1.00  0.00     0.074 A 
ATOM     53  C   UNL A   1      43.179  22.989  29.580  1.00  0.00     0.029 A 
ATOM     54  N   UNL A   1      44.984  23.907  28.724  1.00  0.00    -0.354 N 
ATOM     55  N   UNL A   1      46.723  27.715  30.018  1.00  0.00    -0.248 NA
ATOM     56  C   UNL A   1      46.849  27.668  27.692  1.00  0.00     0.031 C 
ATOM     57  C   UNL A   1      43.866  23.735  30.583  1.00  0.00     0.029 A 
ATOM     58  C   UNL A   1      44.890  24.464  29.973  1.00  0.00     0.049 A 
ATOM     59  H   UNL A   1      45.793  23.883  28.163  1.00  0.00     0.167 HD
ATOM     60  C   UNL A   1      46.382  26.435  29.607  1.00  0.00     0.074 A 
ATOM     61  C   UNL A   1      46.582  26.442  28.156  1.00  0.00     0.031 C 
ATOM     62  C   UNL A   1      45.687  25.592  30.427  1.00  0.00     0.034 A 
BRANCH  49  63
ATOM     63  C   UNL A   1      44.033  23.290  25.810  1.00  0.00     0.023 A 
ATOM     64  C   UNL A   1      43.973  21.934  25.433  1.00  0.00     0.031 A 
ATOM     65  C   UNL A   1      45.032  24.049  25.162  1.00  0.00     0.131 A 
ATOM     66  C   UNL A   1      44.966  21.359  24.624  1.00  0.00     0.055 A 
ATOM     67  C   UNL A   1      45.983  23.484  24.306  1.00  0.00     0.041 A 
ATOM     68  F   UNL A   1      45.201  25.361  25.351  1.00  0.00    -0.206 F 
ATOM     69  C   UNL A   1      45.983  22.122  24.067  1.00  0.00     0.022 A 
BRANCH  66  70
ATOM     70  S   UNL A   1      45.007  19.555  24.494  1.00  0.00     0.124 S 
ATOM     71  O   UNL A   1      46.401  19.278  24.820  1.00  0.00    -0.237 OA
ATOM     72  O   UNL A   1      44.018  19.163  25.493  1.00  0.00    -0.237 OA
ATOM     73  O   UNL A   1      44.625  19.309  23.106  1.00  0.00    -0.744 OA
ENDBRANCH  66  70
ENDBRANCH  49  63
BRANCH  50  74
ATOM     74  C   UNL A   1      46.861  30.974  28.277  1.00  0.00     0.023 A 
ATOM     75  C   UNL A   1      46.287  31.877  27.351  1.00  0.00     0.031 A 
ATOM     76  C   UNL A   1      48.095  31.362  28.849  1.00  0.00     0.131 A 
ATOM     77  C   UNL A   1      46.945  33.097  27.038  1.00  0.00     0.055 A 
ATOM     78  C   UNL A   1      48.736  32.565  28.537  1.00  0.00     0.041 A 
ATOM     79  F   UNL A   1      48.679  30.616  29.801  1.00  0.00    -0.206 F 
ATOM     80  C   UNL A   1      48.159  33.441  27.635  1.00  0.00     0.022 A 
BRANCH  77  81
ATOM     81  S   UNL A   1      46.198  34.300  25.883  1.00  0.00     0.124 S 
ATOM     82  O   UNL A   1      45.646  35.304  26.785  1.00  0.00    -0.237 OA
ATOM     83  O   UNL A   1      47.341  34.709  25.075  1.00  0.00    -0.237 OA
ATOM     84  O   UNL A   1      45.196  33.511  25.164  1.00  0.00    -0.744 OA
ENDBRANCH  77  81
ENDBRANCH  50  74
BRANCH  62  85
ATOM     85  C   UNL A   1      45.581  25.945  31.899  1.00  0.00     0.023 A 
ATOM     86  C   UNL A   1      44.435  26.479  32.535  1.00  0.00     0.031 A 
ATOM     87  C   UNL A   1      46.671  25.589  32.712  1.00  0.00     0.131 A 
ATOM     88  C   UNL A   1      44.420  26.639  33.937  1.00  0.00     0.055 A 
ATOM     89  C   UNL A   1      46.643  25.726  34.098  1.00  0.00     0.041 A 
ATOM     90  F   UNL A   1      47.777  25.052  32.170  1.00  0.00    -0.206 F 
ATOM     91  C   UNL A   1      45.517  26.257  34.716  1.00  0.00     0.022 A 
BRANCH  88  92
ATOM     92  S   UNL A   1      42.972  27.357  34.783  1.00  0.00     0.124 S 
ATOM     93  O   UNL A   1      42.301  26.196  35.356  1.00  0.00    -0.237 OA
ATOM     94  O   UNL A   1      43.584  28.277  35.739  1.00  0.00    -0.237 OA
ATOM     95  O   UNL A   1      42.235  28.013  33.701  1.00  0.00    -0.744 OA
ENDBRANCH  88  92
ENDBRANCH  62  85
ENDBRANCH  36  37
ENDBRANCH  28  31
ENDBRANCH  26  27
ENDBRANCH   1  26
TORSDOF 16
ENDMDL
MODEL 3
REMARK VINA RESULT:     -13.0      1.903      3.643
REMARK SMILES Cc1cc2n(n1)CC[N@@H+](Cc1ncccc1C(=O)NCCCCNC(=O)c1ccc(-c3c4nc(c(-c5cc(S(=O)(=O)[O-])ccc5F)c5ccc([nH]5)c(-c5cc(S(=O)(=O)[O-])ccc5F)c5nc(c(-c6cc(S(=O)(=O)[O-])ccc6F)c6ccc3[nH]6)C=C5)C=C4)cc1)C2
REMARK SMILES IDX 22 1 21 2 20 3 19 4 17 5 18 6 16 8 11 9 12 10 13 11 15 12
REMARK SMILES IDX 14 13 10 14 9 15 1 16 2 17 3 18 6 19 4 20 5 21 90 22 7 23
REMARK SMILES IDX 8 24 23 26 24 27 25 28 26 30 27 31 28 32 89 33 29 34 88 35
REMARK SMILES IDX 30 36 31 37 32 38 82 39 33 40 87 41 81 42 83 43 34 44 86 45
REMARK SMILES IDX 80 46 79 47 35 49 67 50 47 51 66 52 48 53 51 54 65 55 84 56
REMARK SMILES IDX 49 57 50 58 64 60 85 61 52 62 36 63 37 64 45 65 38 66 44 67
REMARK SMILES IDX 46 68 43 69 39 70 40 71 41 72 42 73 68 74 69 75 77 76 70 77
REMARK SMILES IDX 76 78 78 79 75 80 71 81 72 82 73 83 74 84 53 85 54 86 62 87
REMARK SMILES IDX 55 88 61 89 63 90 60 91 56 92 57 93 58 94 59 95
REMARK H PARENT 19 7 9 25 24 29 83 48 51 59
REMARK Flexibility Score: inf
ROOT
ATOM      1  C   UNL A   1      33.935  29.055  26.902  1.00  0.00     0.023 C 
ENDROOT
BRANCH   1   2
ATOM      2  C   UNL A   1      33.474  27.652  26.474  1.00  0.00     0.023 C 
BRANCH   2   3
ATOM      3  C   UNL A   1      31.973  27.403  26.404  1.00  0.00     0.116 C 
BRANCH   3   4
ATOM      4  N   UNL A   1      31.512  26.125  26.908  1.00  0.00    -0.352 N 
ATOM      5  C   UNL A   1      31.692  24.816  26.538  1.00  0.00     0.253 C 
ATOM      6  O   UNL A   1      31.436  23.986  27.412  1.00  0.00    -0.269 OA
ATOM      7  H   UNL A   1      30.934  26.218  27.700  1.00  0.00     0.163 HD
BRANCH   5   8
ATOM      8  C   UNL A   1      32.140  24.340  25.198  1.00  0.00     0.067 A 
ATOM      9  C   UNL A   1      33.490  24.020  24.951  1.00  0.00     0.107 A 
ATOM     10  N   UNL A   1      33.942  23.632  23.710  1.00  0.00    -0.254 NA
ATOM     11  C   UNL A   1      33.069  23.604  22.687  1.00  0.00     0.111 A 
ATOM     12  C   UNL A   1      31.281  24.303  24.092  1.00  0.00     0.017 A 
ATOM     13  C   UNL A   1      31.739  23.920  22.830  1.00  0.00     0.021 A 
BRANCH   9  14
ATOM     14  C   UNL A   1      34.607  24.099  25.979  1.00  0.00     0.320 C 
BRANCH  14  15
ATOM     15  N   UNL A   1      35.077  22.851  26.588  1.00  0.00    -0.323 N 
ATOM     16  C   UNL A   1      32.524  17.869  24.291  1.00  0.00     0.069 C 
ATOM     17  C   UNL A   1      33.245  19.019  24.886  1.00  0.00     0.060 A 
ATOM     18  C   UNL A   1      32.813  19.885  25.920  1.00  0.00     0.054 A 
ATOM     19  N   UNL A   1      34.456  19.362  24.428  1.00  0.00    -0.178 NA
ATOM     20  C   UNL A   1      33.834  20.793  26.079  1.00  0.00     0.093 A 
ATOM     21  N   UNL A   1      34.783  20.438  25.169  1.00  0.00    -0.258 N 
ATOM     22  C   UNL A   1      34.044  21.919  27.021  1.00  0.00     0.319 C 
ATOM     23  C   UNL A   1      36.032  21.131  24.957  1.00  0.00     0.206 C 
ATOM     24  C   UNL A   1      36.262  22.241  25.989  1.00  0.00     0.286 C 
ATOM     25  H   UNL A   1      35.442  23.196  27.475  1.00  0.00     0.348 HD
ENDBRANCH  14  15
ENDBRANCH   9  14
ENDBRANCH   5   8
ENDBRANCH   3   4
ENDBRANCH   2   3
ENDBRANCH   1   2
BRANCH   1  26
ATOM     26  C   UNL A   1      35.372  29.198  27.394  1.00  0.00     0.116 C 
BRANCH  26  27
ATOM     27  N   UNL A   1      35.483  29.735  28.752  1.00  0.00    -0.352 N 
ATOM     28  C   UNL A   1      36.446  29.460  29.717  1.00  0.00     0.251 C 
ATOM     29  H   UNL A   1      34.783  30.375  29.017  1.00  0.00     0.163 HD
ATOM     30  O   UNL A   1      36.204  29.629  30.900  1.00  0.00    -0.269 OA
BRANCH  28  31
ATOM     31  C   UNL A   1      37.775  28.983  29.274  1.00  0.00     0.039 A 
ATOM     32  C   UNL A   1      38.445  29.484  28.157  1.00  0.00     0.014 A 
ATOM     33  C   UNL A   1      38.361  27.997  30.050  1.00  0.00     0.014 A 
ATOM     34  C   UNL A   1      39.741  29.028  27.895  1.00  0.00     0.010 A 
ATOM     35  C   UNL A   1      39.691  27.722  29.935  1.00  0.00     0.010 A 
ATOM     36  C   UNL A   1      40.359  28.153  28.803  1.00  0.00    -0.014 A 
BRANCH  36  37
ATOM     37  C   UNL A   1      41.753  27.739  28.699  1.00  0.00     0.031 A 
ATOM     38  C   UNL A   1      41.938  26.507  27.896  1.00  0.00     0.074 A 
ATOM     39  C   UNL A   1      42.777  28.568  29.015  1.00  0.00     0.049 A 
ATOM     40  N   UNL A   1      42.177  25.315  28.326  1.00  0.00    -0.248 NA
ATOM     41  C   UNL A   1      41.585  26.556  26.465  1.00  0.00     0.031 C 
ATOM     42  C   UNL A   1      42.702  29.959  29.485  1.00  0.00     0.029 A 
ATOM     43  N   UNL A   1      44.116  28.386  28.868  1.00  0.00    -0.354 N 
ATOM     44  C   UNL A   1      42.318  24.533  27.184  1.00  0.00     0.074 A 
ATOM     45  C   UNL A   1      41.649  25.262  26.145  1.00  0.00     0.031 C 
ATOM     46  C   UNL A   1      43.911  30.552  29.362  1.00  0.00     0.029 A 
ATOM     47  C   UNL A   1      44.885  29.548  28.973  1.00  0.00     0.049 A 
ATOM     48  H   UNL A   1      44.515  27.502  28.701  1.00  0.00     0.167 HD
ATOM     49  C   UNL A   1      43.255  23.542  27.129  1.00  0.00     0.034 A 
ATOM     50  C   UNL A   1      46.221  29.683  28.743  1.00  0.00     0.034 A 
ATOM     51  C   UNL A   1      43.781  23.281  28.458  1.00  0.00     0.049 A 
ATOM     52  C   UNL A   1      46.799  28.319  28.843  1.00  0.00     0.074 A 
ATOM     53  C   UNL A   1      43.224  22.915  29.670  1.00  0.00     0.029 A 
ATOM     54  N   UNL A   1      45.022  23.802  28.767  1.00  0.00    -0.354 N 
ATOM     55  N   UNL A   1      46.803  27.627  29.951  1.00  0.00    -0.248 NA
ATOM     56  C   UNL A   1      46.894  27.528  27.624  1.00  0.00     0.031 C 
ATOM     57  C   UNL A   1      43.931  23.679  30.646  1.00  0.00     0.029 A 
ATOM     58  C   UNL A   1      44.950  24.388  30.005  1.00  0.00     0.049 A 
ATOM     59  H   UNL A   1      45.823  23.761  28.194  1.00  0.00     0.167 HD
ATOM     60  C   UNL A   1      46.448  26.340  29.573  1.00  0.00     0.074 A 
ATOM     61  C   UNL A   1      46.626  26.314  28.120  1.00  0.00     0.031 C 
ATOM     62  C   UNL A   1      45.760  25.520  30.422  1.00  0.00     0.034 A 
BRANCH  49  63
ATOM     63  C   UNL A   1      44.023  23.127  25.882  1.00  0.00     0.023 A 
ATOM     64  C   UNL A   1      44.002  21.754  25.571  1.00  0.00     0.031 A 
ATOM     65  C   UNL A   1      44.976  23.889  25.170  1.00  0.00     0.131 A 
ATOM     66  C   UNL A   1      44.992  21.175  24.762  1.00  0.00     0.055 A 
ATOM     67  C   UNL A   1      45.923  23.316  24.313  1.00  0.00     0.041 A 
ATOM     68  F   UNL A   1      45.102  25.213  25.291  1.00  0.00    -0.206 F 
ATOM     69  C   UNL A   1      45.966  21.945  24.140  1.00  0.00     0.022 A 
BRANCH  66  70
ATOM     70  S   UNL A   1      45.095  19.370  24.717  1.00  0.00     0.124 S 
ATOM     71  O   UNL A   1      46.492  19.154  25.078  1.00  0.00    -0.237 OA
ATOM     72  O   UNL A   1      44.102  18.990  25.717  1.00  0.00    -0.237 OA
ATOM     73  O   UNL A   1      44.746  19.047  23.336  1.00  0.00    -0.744 OA
ENDBRANCH  66  70
ENDBRANCH  49  63
BRANCH  50  74
ATOM     74  C   UNL A   1      46.935  30.846  28.136  1.00  0.00     0.023 A 
ATOM     75  C   UNL A   1      46.323  31.792  27.281  1.00  0.00     0.031 A 
ATOM     76  C   UNL A   1      48.229  31.169  28.607  1.00  0.00     0.131 A 
ATOM     77  C   UNL A   1      47.003  32.992  26.937  1.00  0.00     0.055 A 
ATOM     78  C   UNL A   1      48.891  32.351  28.265  1.00  0.00     0.041 A 
ATOM     79  F   UNL A   1      48.860  30.378  29.489  1.00  0.00    -0.206 F 
ATOM     80  C   UNL A   1      48.277  33.272  27.433  1.00  0.00     0.022 A 
BRANCH  77  81
ATOM     81  S   UNL A   1      46.212  34.251  25.874  1.00  0.00     0.124 S 
ATOM     82  O   UNL A   1      45.694  35.205  26.847  1.00  0.00    -0.237 OA
ATOM     83  O   UNL A   1      47.323  34.705  25.047  1.00  0.00    -0.237 OA
ATOM     84  O   UNL A   1      45.184  33.497  25.154  1.00  0.00    -0.744 OA
ENDBRANCH  77  81
ENDBRANCH  50  74
BRANCH  62  85
ATOM     85  C   UNL A   1      45.679  25.905  31.887  1.00  0.00     0.023 A 
ATOM     86  C   UNL A   1      44.532  26.419  32.538  1.00  0.00     0.031 A 
ATOM     87  C   UNL A   1      46.799  25.604  32.681  1.00  0.00     0.131 A 
ATOM     88  C   UNL A   1      44.545  26.613  33.936  1.00  0.00     0.055 A 
ATOM     89  C   UNL A   1      46.800  25.776  34.064  1.00  0.00     0.041 A 
ATOM     90  F   UNL A   1      47.908  25.090  32.124  1.00  0.00    -0.206 F 
ATOM     91  C   UNL A   1      45.673  26.285  34.697  1.00  0.00     0.022 A 
BRANCH  88  92
ATOM     92  S   UNL A   1      43.096  27.305  34.801  1.00  0.00     0.124 S 
ATOM     93  O   UNL A   1      43.621  27.664  36.113  1.00  0.00    -0.237 OA
ATOM     94  O   UNL A   1      42.713  28.420  33.939  1.00  0.00    -0.237 OA
ATOM     95  O   UNL A   1      42.142  26.193  34.811  1.00  0.00    -0.744 OA
ENDBRANCH  88  92
ENDBRANCH  62  85
ENDBRANCH  36  37
ENDBRANCH  28  31
ENDBRANCH  26  27
ENDBRANCH   1  26
TORSDOF 16
ENDMDL
