MODEL 1
REMARK VINA RESULT:     -12.1      0.000      0.000
REMARK SMILES O=C(NCCCCNC(=O)[C@H]1SC=C[C@@H]1S(=O)(=O)NCCC1=c2ccccc2=NC1)c1ccc(-c2c3nc(c(-c4cc(S(=O)(=O)[O-])ccc4F)c4ccc([nH]4)c(-c4cc(S(=O)(=O)[O-])ccc4F)c4nc(c(-c5cc(S(=O)(=O)[O-])ccc5F)c5ccc2[nH]5)C=C4)C=C3)cc1
REMARK SMILES IDX 6 1 5 2 4 3 3 4 1 5 2 6 31 8 32 9 93 10 33 11 92 12 34 13
REMARK SMILES IDX 35 14 36 15 86 16 37 17 91 18 85 19 87 20 38 21 90 22 84 23
REMARK SMILES IDX 83 24 39 26 71 27 51 28 70 29 52 30 55 31 69 32 88 33 53 34
REMARK SMILES IDX 54 35 68 37 89 38 56 39 40 40 41 41 49 42 42 43 48 44 50 45
REMARK SMILES IDX 47 46 43 47 44 48 45 49 46 50 72 51 73 52 81 53 74 54 80 55
REMARK SMILES IDX 82 56 79 57 75 58 76 59 77 60 78 61 57 62 58 63 66 64 59 65
REMARK SMILES IDX 65 66 67 67 64 68 60 69 61 70 62 71 63 72 7 73 8 74 9 75
REMARK SMILES IDX 10 77 11 78 12 79 15 80 13 81 14 82 16 83 17 84 18 85 19 86
REMARK SMILES IDX 20 88 21 89 22 90 23 91 30 92 24 93 28 94 29 95 25 96 27 97
REMARK SMILES IDX 26 98
REMARK H PARENT 3 7 87 25 55 36 8 76 19 87
REMARK Flexibility Score: inf
ROOT
ATOM      1  C   UNL A   1      31.722  27.772  26.972  1.00  0.00     0.023 C 
ENDROOT
BRANCH   1   2
ATOM      2  C   UNL A   1      31.682  28.851  25.904  1.00  0.00     0.023 C 
BRANCH   2   3
ATOM      3  C   UNL A   1      32.824  29.848  25.981  1.00  0.00     0.116 C 
BRANCH   3   4
ATOM      4  N   UNL A   1      32.397  31.210  26.277  1.00  0.00    -0.352 N 
ATOM      5  O   UNL A   1      32.429  33.153  27.438  1.00  0.00    -0.269 OA
ATOM      6  C   UNL A   1      32.949  32.071  27.197  1.00  0.00     0.251 C 
ATOM      7  H   UNL A   1      31.629  31.552  25.762  1.00  0.00     0.163 HD
BRANCH   6   8
ATOM      8  C   UNL A   1      34.169  31.632  27.899  1.00  0.00     0.039 A 
ATOM      9  C   UNL A   1      34.305  30.296  28.269  1.00  0.00     0.014 A 
ATOM     10  C   UNL A   1      35.215  32.540  28.088  1.00  0.00     0.014 A 
ATOM     11  C   UNL A   1      35.512  29.868  28.821  1.00  0.00     0.010 A 
ATOM     12  C   UNL A   1      36.452  32.081  28.507  1.00  0.00     0.010 A 
ATOM     13  C   UNL A   1      36.596  30.756  28.936  1.00  0.00    -0.014 A 
BRANCH  13  14
ATOM     14  C   UNL A   1      37.852  30.352  29.615  1.00  0.00     0.031 A 
ATOM     15  C   UNL A   1      38.096  30.815  31.029  1.00  0.00     0.074 A 
ATOM     16  C   UNL A   1      38.758  29.588  28.976  1.00  0.00     0.049 A 
ATOM     17  N   UNL A   1      39.113  30.566  31.811  1.00  0.00    -0.248 NA
ATOM     18  C   UNL A   1      37.085  31.699  31.638  1.00  0.00     0.031 C 
ATOM     19  C   UNL A   1      38.644  29.124  27.592  1.00  0.00     0.029 A 
ATOM     20  N   UNL A   1      39.945  29.053  29.408  1.00  0.00    -0.354 N 
ATOM     21  C   UNL A   1      38.866  31.271  32.983  1.00  0.00     0.074 A 
ATOM     22  C   UNL A   1      37.657  32.029  32.784  1.00  0.00     0.031 C 
ATOM     23  C   UNL A   1      39.684  28.322  27.312  1.00  0.00     0.029 A 
ATOM     24  C   UNL A   1      40.562  28.248  28.478  1.00  0.00     0.049 A 
ATOM     25  H   UNL A   1      40.322  29.228  30.301  1.00  0.00     0.167 HD
ATOM     26  C   UNL A   1      39.560  31.249  34.141  1.00  0.00     0.034 A 
ATOM     27  C   UNL A   1      41.695  27.519  28.564  1.00  0.00     0.034 A 
ATOM     28  C   UNL A   1      40.730  30.440  34.344  1.00  0.00     0.049 A 
ATOM     29  C   UNL A   1      42.446  27.505  29.876  1.00  0.00     0.074 A 
ATOM     30  C   UNL A   1      41.474  30.296  35.501  1.00  0.00     0.029 A 
ATOM     31  N   UNL A   1      41.316  29.631  33.383  1.00  0.00    -0.354 N 
ATOM     32  N   UNL A   1      42.150  28.107  31.005  1.00  0.00    -0.248 NA
ATOM     33  C   UNL A   1      43.671  26.696  29.936  1.00  0.00     0.031 C 
ATOM     34  C   UNL A   1      42.554  29.464  35.218  1.00  0.00     0.029 A 
ATOM     35  C   UNL A   1      42.428  29.004  33.916  1.00  0.00     0.049 A 
ATOM     36  H   UNL A   1      40.990  29.518  32.462  1.00  0.00     0.167 HD
ATOM     37  C   UNL A   1      43.122  27.707  31.919  1.00  0.00     0.074 A 
ATOM     38  C   UNL A   1      44.002  26.800  31.216  1.00  0.00     0.031 C 
ATOM     39  C   UNL A   1      43.271  28.061  33.221  1.00  0.00     0.034 A 
BRANCH  26  40
ATOM     40  C   UNL A   1      39.073  32.078  35.302  1.00  0.00     0.023 A 
ATOM     41  C   UNL A   1      39.548  33.392  35.460  1.00  0.00     0.031 A 
ATOM     42  C   UNL A   1      38.278  31.529  36.324  1.00  0.00     0.131 A 
ATOM     43  C   UNL A   1      39.281  34.090  36.643  1.00  0.00     0.055 A 
ATOM     44  C   UNL A   1      37.966  32.251  37.476  1.00  0.00     0.041 A 
ATOM     45  F   UNL A   1      37.796  30.280  36.218  1.00  0.00    -0.206 F 
ATOM     46  C   UNL A   1      38.485  33.531  37.648  1.00  0.00     0.022 A 
BRANCH  43  47
ATOM     47  S   UNL A   1      40.033  35.708  36.959  1.00  0.00     0.124 S 
ATOM     48  O   UNL A   1      39.653  36.455  35.763  1.00  0.00    -0.237 OA
ATOM     49  O   UNL A   1      39.365  36.116  38.191  1.00  0.00    -0.237 OA
ATOM     50  O   UNL A   1      41.458  35.415  37.078  1.00  0.00    -0.744 OA
ENDBRANCH  43  47
ENDBRANCH  26  40
BRANCH  27  51
ATOM     51  C   UNL A   1      42.120  26.671  27.410  1.00  0.00     0.023 A 
ATOM     52  C   UNL A   1      41.741  25.320  27.316  1.00  0.00     0.031 A 
ATOM     53  C   UNL A   1      42.980  27.183  26.421  1.00  0.00     0.131 A 
ATOM     54  C   UNL A   1      42.264  24.517  26.292  1.00  0.00     0.055 A 
ATOM     55  C   UNL A   1      43.436  26.399  25.359  1.00  0.00     0.041 A 
ATOM     56  F   UNL A   1      43.389  28.459  26.475  1.00  0.00    -0.206 F 
ATOM     57  C   UNL A   1      43.090  25.054  25.300  1.00  0.00     0.022 A 
BRANCH  54  58
ATOM     58  S   UNL A   1      41.995  22.723  26.289  1.00  0.00     0.124 S 
ATOM     59  O   UNL A   1      42.651  22.319  25.049  1.00  0.00    -0.237 OA
ATOM     60  O   UNL A   1      42.668  22.319  27.521  1.00  0.00    -0.237 OA
ATOM     61  O   UNL A   1      40.542  22.594  26.307  1.00  0.00    -0.744 OA
ENDBRANCH  54  58
ENDBRANCH  27  51
BRANCH  39  62
ATOM     62  C   UNL A   1      44.390  27.442  34.028  1.00  0.00     0.023 A 
ATOM     63  C   UNL A   1      44.176  26.207  34.671  1.00  0.00     0.031 A 
ATOM     64  C   UNL A   1      45.579  28.136  34.304  1.00  0.00     0.131 A 
ATOM     65  C   UNL A   1      45.111  25.728  35.594  1.00  0.00     0.055 A 
ATOM     66  C   UNL A   1      46.540  27.623  35.177  1.00  0.00     0.041 A 
ATOM     67  F   UNL A   1      45.821  29.330  33.738  1.00  0.00    -0.206 F 
ATOM     68  C   UNL A   1      46.300  26.422  35.839  1.00  0.00     0.022 A 
BRANCH  65  69
ATOM     69  S   UNL A   1      44.765  24.255  36.597  1.00  0.00     0.124 S 
ATOM     70  O   UNL A   1      44.333  24.847  37.860  1.00  0.00    -0.237 OA
ATOM     71  O   UNL A   1      43.715  23.597  35.824  1.00  0.00    -0.237 OA
ATOM     72  O   UNL A   1      46.042  23.552  36.644  1.00  0.00    -0.744 OA
ENDBRANCH  65  69
ENDBRANCH  39  62
ENDBRANCH  13  14
ENDBRANCH   6   8
ENDBRANCH   3   4
ENDBRANCH   2   3
ENDBRANCH   1   2
BRANCH   1  73
ATOM     73  C   UNL A   1      32.378  26.478  26.509  1.00  0.00     0.116 C 
BRANCH  73  74
ATOM     74  N   UNL A   1      31.544  25.311  26.705  1.00  0.00    -0.355 N 
ATOM     75  C   UNL A   1      31.771  23.981  26.512  1.00  0.00     0.235 C 
ATOM     76  H   UNL A   1      30.642  25.517  27.040  1.00  0.00     0.163 HD
ATOM     77  O   UNL A   1      30.845  23.217  26.805  1.00  0.00    -0.274 OA
BRANCH  75  78
ATOM     78  C   UNL A   1      33.070  23.419  25.949  1.00  0.00     0.163 C 
ATOM     79  S   UNL A   1      33.491  21.836  26.789  1.00  0.00    -0.119 SA
ATOM     80  C   UNL A   1      33.066  23.140  24.454  1.00  0.00     0.170 C 
ATOM     81  C   UNL A   1      33.459  20.925  25.324  1.00  0.00     0.038 C 
ATOM     82  C   UNL A   1      33.245  21.658  24.228  1.00  0.00     0.002 C 
BRANCH  80  83
ATOM     83  S   UNL A   1      34.373  24.039  23.652  1.00  0.00     0.219 S 
ATOM     84  O   UNL A   1      35.073  24.805  24.662  1.00  0.00    -0.212 OA
ATOM     85  O   UNL A   1      35.087  23.164  22.751  1.00  0.00    -0.212 OA
BRANCH  83  86
ATOM     86  N   UNL A   1      33.548  25.113  22.662  1.00  0.00    -0.214 NA
ATOM     87  H   UNL A   1      32.741  24.605  22.300  1.00  0.00     0.141 HD
BRANCH  86  88
ATOM     88  C   UNL A   1      33.033  26.395  23.159  1.00  0.00     0.103 C 
BRANCH  88  89
ATOM     89  C   UNL A   1      32.072  27.095  22.186  1.00  0.00     0.050 C 
BRANCH  89  90
ATOM     90  C   UNL A   1      30.696  27.350  22.725  1.00  0.00    -0.038 C 
ATOM     91  C   UNL A   1      29.915  28.423  22.604  1.00  0.00     0.001 A 
ATOM     92  C   UNL A   1      30.013  26.306  23.559  1.00  0.00     0.174 C 
ATOM     93  C   UNL A   1      30.025  29.709  22.003  1.00  0.00     0.010 A 
ATOM     94  C   UNL A   1      28.663  27.991  23.245  1.00  0.00     0.065 A 
ATOM     95  N   UNL A   1      28.648  26.826  23.817  1.00  0.00    -0.280 NA
ATOM     96  C   UNL A   1      28.934  30.482  21.888  1.00  0.00     0.001 A 
ATOM     97  C   UNL A   1      27.512  28.916  23.126  1.00  0.00     0.028 A 
ATOM     98  C   UNL A   1      27.661  30.063  22.442  1.00  0.00     0.002 A 
ENDBRANCH  89  90
ENDBRANCH  88  89
ENDBRANCH  86  88
ENDBRANCH  83  86
ENDBRANCH  80  83
ENDBRANCH  75  78
ENDBRANCH  73  74
ENDBRANCH   1  73
TORSDOF 19
ENDMDL
MODEL 2
REMARK VINA RESULT:     -11.7      2.066      2.388
REMARK SMILES O=C(NCCCCNC(=O)[C@H]1SC=C[C@@H]1S(=O)(=O)NCCC1=c2ccccc2=NC1)c1ccc(-c2c3nc(c(-c4cc(S(=O)(=O)[O-])ccc4F)c4ccc([nH]4)c(-c4cc(S(=O)(=O)[O-])ccc4F)c4nc(c(-c5cc(S(=O)(=O)[O-])ccc5F)c5ccc2[nH]5)C=C4)C=C3)cc1
REMARK SMILES IDX 6 1 5 2 4 3 3 4 1 5 2 6 31 8 32 9 93 10 33 11 92 12 34 13
REMARK SMILES IDX 35 14 36 15 86 16 37 17 91 18 85 19 87 20 38 21 90 22 84 23
REMARK SMILES IDX 83 24 39 26 71 27 51 28 70 29 52 30 55 31 69 32 88 33 53 34
REMARK SMILES IDX 54 35 68 37 89 38 56 39 40 40 41 41 49 42 42 43 48 44 50 45
REMARK SMILES IDX 47 46 43 47 44 48 45 49 46 50 72 51 73 52 81 53 74 54 80 55
REMARK SMILES IDX 82 56 79 57 75 58 76 59 77 60 78 61 57 62 58 63 66 64 59 65
REMARK SMILES IDX 65 66 67 67 64 68 60 69 61 70 62 71 63 72 7 73 8 74 9 75
REMARK SMILES IDX 10 77 11 78 12 79 15 80 13 81 14 82 16 83 17 84 18 85 19 86
REMARK SMILES IDX 20 88 21 89 22 90 23 91 30 92 24 93 28 94 29 95 25 96 27 97
REMARK SMILES IDX 26 98
REMARK H PARENT 3 7 87 25 55 36 8 76 19 87
REMARK Flexibility Score: inf
ROOT
ATOM      1  C   UNL A   1      31.587  27.786  26.295  1.00  0.00     0.023 C 
ENDROOT
BRANCH   1   2
ATOM      2  C   UNL A   1      32.425  28.888  25.670  1.00  0.00     0.023 C 
BRANCH   2   3
ATOM      3  C   UNL A   1      33.398  29.553  26.627  1.00  0.00     0.116 C 
BRANCH   3   4
ATOM      4  N   UNL A   1      33.121  30.965  26.860  1.00  0.00    -0.352 N 
ATOM      5  O   UNL A   1      33.445  32.971  27.859  1.00  0.00    -0.269 OA
ATOM      6  C   UNL A   1      33.842  31.831  27.649  1.00  0.00     0.251 C 
ATOM      7  H   UNL A   1      32.332  31.340  26.405  1.00  0.00     0.163 HD
BRANCH   6   8
ATOM      8  C   UNL A   1      35.092  31.331  28.250  1.00  0.00     0.039 A 
ATOM      9  C   UNL A   1      35.146  30.027  28.736  1.00  0.00     0.014 A 
ATOM     10  C   UNL A   1      36.234  32.138  28.227  1.00  0.00     0.014 A 
ATOM     11  C   UNL A   1      36.366  29.526  29.190  1.00  0.00     0.010 A 
ATOM     12  C   UNL A   1      37.464  31.591  28.549  1.00  0.00     0.010 A 
ATOM     13  C   UNL A   1      37.534  30.301  29.092  1.00  0.00    -0.014 A 
BRANCH  13  14
ATOM     14  C   UNL A   1      38.820  29.830  29.663  1.00  0.00     0.031 A 
ATOM     15  C   UNL A   1      39.239  30.330  31.022  1.00  0.00     0.074 A 
ATOM     16  C   UNL A   1      39.598  28.973  28.976  1.00  0.00     0.049 A 
ATOM     17  N   UNL A   1      40.309  30.036  31.712  1.00  0.00    -0.248 NA
ATOM     18  C   UNL A   1      38.362  31.314  31.684  1.00  0.00     0.031 C 
ATOM     19  C   UNL A   1      39.311  28.463  27.635  1.00  0.00     0.029 A 
ATOM     20  N   UNL A   1      40.782  28.366  29.315  1.00  0.00    -0.354 N 
ATOM     21  C   UNL A   1      40.234  30.805  32.867  1.00  0.00     0.074 A 
ATOM     22  C   UNL A   1      39.070  31.645  32.751  1.00  0.00     0.031 C 
ATOM     23  C   UNL A   1      40.256  27.572  27.293  1.00  0.00     0.029 A 
ATOM     24  C   UNL A   1      41.241  27.478  28.369  1.00  0.00     0.049 A 
ATOM     25  H   UNL A   1      41.258  28.548  30.157  1.00  0.00     0.167 HD
ATOM     26  C   UNL A   1      41.039  30.777  33.951  1.00  0.00     0.034 A 
ATOM     27  C   UNL A   1      42.321  26.668  28.379  1.00  0.00     0.034 A 
ATOM     28  C   UNL A   1      42.162  29.890  34.077  1.00  0.00     0.049 A 
ATOM     29  C   UNL A   1      43.197  26.651  29.610  1.00  0.00     0.074 A 
ATOM     30  C   UNL A   1      43.006  29.736  35.161  1.00  0.00     0.029 A 
ATOM     31  N   UNL A   1      42.587  28.999  33.104  1.00  0.00    -0.354 N 
ATOM     32  N   UNL A   1      43.063  27.319  30.732  1.00  0.00    -0.248 NA
ATOM     33  C   UNL A   1      44.360  25.752  29.589  1.00  0.00     0.031 C 
ATOM     34  C   UNL A   1      43.989  28.813  34.815  1.00  0.00     0.029 A 
ATOM     35  C   UNL A   1      43.699  28.311  33.555  1.00  0.00     0.049 A 
ATOM     36  H   UNL A   1      42.161  28.874  32.226  1.00  0.00     0.167 HD
ATOM     37  C   UNL A   1      44.091  26.884  31.565  1.00  0.00     0.074 A 
ATOM     38  C   UNL A   1      44.827  25.883  30.823  1.00  0.00     0.031 C 
ATOM     39  C   UNL A   1      44.397  27.278  32.827  1.00  0.00     0.034 A 
BRANCH  26  40
ATOM     40  C   UNL A   1      40.734  31.688  35.112  1.00  0.00     0.023 A 
ATOM     41  C   UNL A   1      39.653  31.388  35.961  1.00  0.00     0.031 A 
ATOM     42  C   UNL A   1      41.395  32.918  35.285  1.00  0.00     0.131 A 
ATOM     43  C   UNL A   1      39.224  32.332  36.899  1.00  0.00     0.055 A 
ATOM     44  C   UNL A   1      40.999  33.831  36.262  1.00  0.00     0.041 A 
ATOM     45  F   UNL A   1      42.436  33.249  34.504  1.00  0.00    -0.206 F 
ATOM     46  C   UNL A   1      39.896  33.548  37.062  1.00  0.00     0.022 A 
BRANCH  43  47
ATOM     47  S   UNL A   1      37.722  32.056  37.876  1.00  0.00     0.124 S 
ATOM     48  O   UNL A   1      36.770  32.951  37.223  1.00  0.00    -0.237 OA
ATOM     49  O   UNL A   1      37.485  30.631  37.671  1.00  0.00    -0.237 OA
ATOM     50  O   UNL A   1      38.108  32.445  39.229  1.00  0.00    -0.744 OA
ENDBRANCH  43  47
ENDBRANCH  26  40
BRANCH  27  51
ATOM     51  C   UNL A   1      42.564  25.744  27.231  1.00  0.00     0.023 A 
ATOM     52  C   UNL A   1      42.066  24.429  27.233  1.00  0.00     0.031 A 
ATOM     53  C   UNL A   1      43.367  26.141  26.147  1.00  0.00     0.131 A 
ATOM     54  C   UNL A   1      42.422  23.545  26.204  1.00  0.00     0.055 A 
ATOM     55  C   UNL A   1      43.655  25.281  25.085  1.00  0.00     0.041 A 
ATOM     56  F   UNL A   1      43.885  27.378  26.105  1.00  0.00    -0.206 F 
ATOM     57  C   UNL A   1      43.194  23.970  25.118  1.00  0.00     0.022 A 
BRANCH  54  58
ATOM     58  S   UNL A   1      42.005  21.783  26.307  1.00  0.00     0.124 S 
ATOM     59  O   UNL A   1      42.313  21.477  27.700  1.00  0.00    -0.237 OA
ATOM     60  O   UNL A   1      40.586  21.792  25.962  1.00  0.00    -0.237 OA
ATOM     61  O   UNL A   1      42.879  21.164  25.315  1.00  0.00    -0.744 OA
ENDBRANCH  54  58
ENDBRANCH  27  51
BRANCH  39  62
ATOM     62  C   UNL A   1      45.543  26.609  33.549  1.00  0.00     0.023 A 
ATOM     63  C   UNL A   1      46.853  27.094  33.366  1.00  0.00     0.031 A 
ATOM     64  C   UNL A   1      45.374  25.410  34.262  1.00  0.00     0.131 A 
ATOM     65  C   UNL A   1      47.945  26.361  33.844  1.00  0.00     0.055 A 
ATOM     66  C   UNL A   1      46.462  24.716  34.794  1.00  0.00     0.041 A 
ATOM     67  F   UNL A   1      44.149  24.890  34.444  1.00  0.00    -0.206 F 
ATOM     68  C   UNL A   1      47.755  25.181  34.571  1.00  0.00     0.022 A 
BRANCH  65  69
ATOM     69  S   UNL A   1      49.645  26.844  33.438  1.00  0.00     0.124 S 
ATOM     70  O   UNL A   1      49.465  27.531  32.162  1.00  0.00    -0.237 OA
ATOM     71  O   UNL A   1      49.999  27.703  34.565  1.00  0.00    -0.237 OA
ATOM     72  O   UNL A   1      50.365  25.577  33.366  1.00  0.00    -0.744 OA
ENDBRANCH  65  69
ENDBRANCH  39  62
ENDBRANCH  13  14
ENDBRANCH   6   8
ENDBRANCH   3   4
ENDBRANCH   2   3
ENDBRANCH   1   2
BRANCH   1  73
ATOM     73  C   UNL A   1      32.398  26.570  26.723  1.00  0.00     0.116 C 
BRANCH  73  74
ATOM     74  N   UNL A   1      31.594  25.382  26.909  1.00  0.00    -0.355 N 
ATOM     75  C   UNL A   1      31.871  24.056  26.760  1.00  0.00     0.235 C 
ATOM     76  H   UNL A   1      30.672  25.566  27.199  1.00  0.00     0.163 HD
ATOM     77  O   UNL A   1      30.958  23.269  27.029  1.00  0.00    -0.274 OA
BRANCH  75  78
ATOM     78  C   UNL A   1      33.212  23.523  26.269  1.00  0.00     0.163 C 
ATOM     79  S   UNL A   1      33.774  22.138  27.342  1.00  0.00    -0.119 SA
ATOM     80  C   UNL A   1      33.224  23.009  24.837  1.00  0.00     0.170 C 
ATOM     81  C   UNL A   1      33.814  21.004  26.042  1.00  0.00     0.038 C 
ATOM     82  C   UNL A   1      33.530  21.531  24.847  1.00  0.00     0.002 C 
BRANCH  80  83
ATOM     83  S   UNL A   1      34.444  23.876  23.878  1.00  0.00     0.219 S 
ATOM     84  O   UNL A   1      35.176  24.749  24.771  1.00  0.00    -0.212 OA
ATOM     85  O   UNL A   1      35.132  22.949  23.009  1.00  0.00    -0.212 OA
BRANCH  83  86
ATOM     86  N   UNL A   1      33.518  24.832  22.857  1.00  0.00    -0.214 NA
ATOM     87  H   UNL A   1      33.406  24.303  21.993  1.00  0.00     0.141 HD
BRANCH  86  88
ATOM     88  C   UNL A   1      32.176  25.299  23.227  1.00  0.00     0.103 C 
BRANCH  88  89
ATOM     89  C   UNL A   1      31.839  26.701  22.697  1.00  0.00     0.050 C 
BRANCH  89  90
ATOM     90  C   UNL A   1      30.444  27.170  22.983  1.00  0.00    -0.038 C 
ATOM     91  C   UNL A   1      29.852  28.326  22.685  1.00  0.00     0.001 A 
ATOM     92  C   UNL A   1      29.494  26.283  23.733  1.00  0.00     0.174 C 
ATOM     93  C   UNL A   1      30.240  29.544  22.056  1.00  0.00     0.010 A 
ATOM     94  C   UNL A   1      28.465  28.107  23.122  1.00  0.00     0.065 A 
ATOM     95  N   UNL A   1      28.192  26.994  23.732  1.00  0.00    -0.280 NA
ATOM     96  C   UNL A   1      29.302  30.445  21.725  1.00  0.00     0.001 A 
ATOM     97  C   UNL A   1      27.491  29.166  22.769  1.00  0.00     0.028 A 
ATOM     98  C   UNL A   1      27.909  30.235  22.072  1.00  0.00     0.002 A 
ENDBRANCH  89  90
ENDBRANCH  88  89
ENDBRANCH  86  88
ENDBRANCH  83  86
ENDBRANCH  80  83
ENDBRANCH  75  78
ENDBRANCH  73  74
ENDBRANCH   1  73
TORSDOF 19
ENDMDL
MODEL 3
REMARK VINA RESULT:     -11.7      1.712      7.589
REMARK SMILES O=C(NCCCCNC(=O)[C@H]1SC=C[C@@H]1S(=O)(=O)NCCC1=c2ccccc2=NC1)c1ccc(-c2c3nc(c(-c4cc(S(=O)(=O)[O-])ccc4F)c4ccc([nH]4)c(-c4cc(S(=O)(=O)[O-])ccc4F)c4nc(c(-c5cc(S(=O)(=O)[O-])ccc5F)c5ccc2[nH]5)C=C4)C=C3)cc1
REMARK SMILES IDX 6 1 5 2 4 3 3 4 1 5 2 6 31 8 32 9 93 10 33 11 92 12 34 13
REMARK SMILES IDX 35 14 36 15 86 16 37 17 91 18 85 19 87 20 38 21 90 22 84 23
REMARK SMILES IDX 83 24 39 26 71 27 51 28 70 29 52 30 55 31 69 32 88 33 53 34
REMARK SMILES IDX 54 35 68 37 89 38 56 39 40 40 41 41 49 42 42 43 48 44 50 45
REMARK SMILES IDX 47 46 43 47 44 48 45 49 46 50 72 51 73 52 81 53 74 54 80 55
REMARK SMILES IDX 82 56 79 57 75 58 76 59 77 60 78 61 57 62 58 63 66 64 59 65
REMARK SMILES IDX 65 66 67 67 64 68 60 69 61 70 62 71 63 72 7 73 8 74 9 75
REMARK SMILES IDX 10 77 11 78 12 79 15 80 13 81 14 82 16 83 17 84 18 85 19 86
REMARK SMILES IDX 20 88 21 89 22 90 23 91 30 92 24 93 28 94 29 95 25 96 27 97
REMARK SMILES IDX 26 98
REMARK H PARENT 3 7 87 25 55 36 8 76 19 87
REMARK Flexibility Score: inf
ROOT
ATOM      1  C   UNL A   1      31.970  27.501  26.944  1.00  0.00     0.023 C 
ENDROOT
BRANCH   1   2
ATOM      2  C   UNL A   1      31.670  28.524  25.862  1.00  0.00     0.023 C 
BRANCH   2   3
ATOM      3  C   UNL A   1      32.734  29.594  25.701  1.00  0.00     0.116 C 
BRANCH   3   4
ATOM      4  N   UNL A   1      32.258  30.944  25.982  1.00  0.00    -0.352 N 
ATOM      5  O   UNL A   1      32.208  32.892  27.133  1.00  0.00    -0.269 OA
ATOM      6  C   UNL A   1      32.766  31.825  26.907  1.00  0.00     0.251 C 
ATOM      7  H   UNL A   1      31.490  31.258  25.452  1.00  0.00     0.163 HD
BRANCH   6   8
ATOM      8  C   UNL A   1      33.986  31.429  27.633  1.00  0.00     0.039 A 
ATOM      9  C   UNL A   1      34.908  32.403  28.009  1.00  0.00     0.014 A 
ATOM     10  C   UNL A   1      34.149  30.097  28.024  1.00  0.00     0.014 A 
ATOM     11  C   UNL A   1      35.996  32.034  28.800  1.00  0.00     0.010 A 
ATOM     12  C   UNL A   1      35.152  29.764  28.919  1.00  0.00     0.010 A 
ATOM     13  C   UNL A   1      36.120  30.714  29.267  1.00  0.00    -0.014 A 
BRANCH  13  14
ATOM     14  C   UNL A   1      37.321  30.275  30.019  1.00  0.00     0.031 A 
ATOM     15  C   UNL A   1      38.346  29.419  29.319  1.00  0.00     0.074 A 
ATOM     16  C   UNL A   1      37.489  30.633  31.306  1.00  0.00     0.049 A 
ATOM     17  N   UNL A   1      39.470  28.940  29.781  1.00  0.00    -0.248 NA
ATOM     18  C   UNL A   1      38.060  29.018  27.928  1.00  0.00     0.031 C 
ATOM     19  C   UNL A   1      36.538  31.420  32.093  1.00  0.00     0.029 A 
ATOM     20  N   UNL A   1      38.524  30.398  32.176  1.00  0.00    -0.354 N 
ATOM     21  C   UNL A   1      40.007  28.179  28.749  1.00  0.00     0.074 A 
ATOM     22  C   UNL A   1      39.051  28.180  27.671  1.00  0.00     0.031 C 
ATOM     23  C   UNL A   1      37.063  31.656  33.306  1.00  0.00     0.029 A 
ATOM     24  C   UNL A   1      38.367  31.003  33.402  1.00  0.00     0.049 A 
ATOM     25  H   UNL A   1      39.307  29.848  31.944  1.00  0.00     0.167 HD
ATOM     26  C   UNL A   1      41.213  27.574  28.687  1.00  0.00     0.034 A 
ATOM     27  C   UNL A   1      39.190  31.043  34.471  1.00  0.00     0.034 A 
ATOM     28  C   UNL A   1      42.180  27.634  29.747  1.00  0.00     0.049 A 
ATOM     29  C   UNL A   1      40.537  30.366  34.369  1.00  0.00     0.074 A 
ATOM     30  C   UNL A   1      43.459  27.108  29.762  1.00  0.00     0.029 A 
ATOM     31  N   UNL A   1      41.989  28.265  30.966  1.00  0.00    -0.354 N 
ATOM     32  N   UNL A   1      41.067  29.726  33.353  1.00  0.00    -0.248 NA
ATOM     33  C   UNL A   1      41.410  30.434  35.549  1.00  0.00     0.031 C 
ATOM     34  C   UNL A   1      44.010  27.350  31.017  1.00  0.00     0.029 A 
ATOM     35  C   UNL A   1      43.120  28.119  31.751  1.00  0.00     0.049 A 
ATOM     36  H   UNL A   1      41.173  28.746  31.233  1.00  0.00     0.167 HD
ATOM     37  C   UNL A   1      42.351  29.363  33.754  1.00  0.00     0.074 A 
ATOM     38  C   UNL A   1      42.522  29.870  35.098  1.00  0.00     0.031 C 
ATOM     39  C   UNL A   1      43.299  28.672  33.071  1.00  0.00     0.034 A 
BRANCH  26  40
ATOM     40  C   UNL A   1      41.594  26.829  27.433  1.00  0.00     0.023 A 
ATOM     41  C   UNL A   1      41.436  25.432  27.385  1.00  0.00     0.031 A 
ATOM     42  C   UNL A   1      42.251  27.463  26.364  1.00  0.00     0.131 A 
ATOM     43  C   UNL A   1      41.987  24.708  26.323  1.00  0.00     0.055 A 
ATOM     44  C   UNL A   1      42.747  26.741  25.278  1.00  0.00     0.041 A 
ATOM     45  F   UNL A   1      42.422  28.796  26.360  1.00  0.00    -0.206 F 
ATOM     46  C   UNL A   1      42.634  25.355  25.264  1.00  0.00     0.022 A 
BRANCH  43  47
ATOM     47  S   UNL A   1      41.967  22.896  26.323  1.00  0.00     0.124 S 
ATOM     48  O   UNL A   1      40.535  22.611  26.297  1.00  0.00    -0.237 OA
ATOM     49  O   UNL A   1      42.690  22.585  25.094  1.00  0.00    -0.237 OA
ATOM     50  O   UNL A   1      42.647  22.538  27.564  1.00  0.00    -0.744 OA
ENDBRANCH  43  47
ENDBRANCH  26  40
BRANCH  27  51
ATOM     51  C   UNL A   1      38.800  31.833  35.677  1.00  0.00     0.023 A 
ATOM     52  C   UNL A   1      38.186  31.222  36.785  1.00  0.00     0.031 A 
ATOM     53  C   UNL A   1      38.968  33.229  35.707  1.00  0.00     0.131 A 
ATOM     54  C   UNL A   1      37.713  32.009  37.844  1.00  0.00     0.055 A 
ATOM     55  C   UNL A   1      38.565  34.001  36.799  1.00  0.00     0.041 A 
ATOM     56  F   UNL A   1      39.529  33.865  34.667  1.00  0.00    -0.206 F 
ATOM     57  C   UNL A   1      37.919  33.392  37.869  1.00  0.00     0.022 A 
BRANCH  54  58
ATOM     58  S   UNL A   1      36.699  31.282  39.161  1.00  0.00     0.124 S 
ATOM     59  O   UNL A   1      35.586  32.223  39.244  1.00  0.00    -0.237 OA
ATOM     60  O   UNL A   1      36.378  29.972  38.601  1.00  0.00    -0.237 OA
ATOM     61  O   UNL A   1      37.595  31.260  40.312  1.00  0.00    -0.744 OA
ENDBRANCH  54  58
ENDBRANCH  27  51
BRANCH  39  62
ATOM     62  C   UNL A   1      44.650  28.448  33.712  1.00  0.00     0.023 A 
ATOM     63  C   UNL A   1      44.834  27.344  34.568  1.00  0.00     0.031 A 
ATOM     64  C   UNL A   1      45.681  29.397  33.622  1.00  0.00     0.131 A 
ATOM     65  C   UNL A   1      45.998  27.243  35.338  1.00  0.00     0.055 A 
ATOM     66  C   UNL A   1      46.868  29.258  34.343  1.00  0.00     0.041 A 
ATOM     67  F   UNL A   1      45.547  30.481  32.840  1.00  0.00    -0.206 F 
ATOM     68  C   UNL A   1      47.023  28.186  35.219  1.00  0.00     0.022 A 
BRANCH  65  69
ATOM     69  S   UNL A   1      46.171  25.957  36.606  1.00  0.00     0.124 S 
ATOM     70  O   UNL A   1      46.860  26.678  37.673  1.00  0.00    -0.237 OA
ATOM     71  O   UNL A   1      44.779  25.611  36.885  1.00  0.00    -0.237 OA
ATOM     72  O   UNL A   1      46.956  24.917  35.950  1.00  0.00    -0.744 OA
ENDBRANCH  65  69
ENDBRANCH  39  62
ENDBRANCH  13  14
ENDBRANCH   6   8
ENDBRANCH   3   4
ENDBRANCH   2   3
ENDBRANCH   1   2
BRANCH   1  73
ATOM     73  C   UNL A   1      32.329  26.125  26.400  1.00  0.00     0.116 C 
BRANCH  73  74
ATOM     74  N   UNL A   1      31.506  25.063  26.939  1.00  0.00    -0.355 N 
ATOM     75  C   UNL A   1      31.524  23.712  26.763  1.00  0.00     0.235 C 
ATOM     76  H   UNL A   1      30.799  25.376  27.548  1.00  0.00     0.163 HD
ATOM     77  O   UNL A   1      30.687  23.063  27.400  1.00  0.00    -0.274 OA
BRANCH  75  78
ATOM     78  C   UNL A   1      32.489  22.994  25.827  1.00  0.00     0.163 C 
ATOM     79  S   UNL A   1      33.759  22.088  26.802  1.00  0.00    -0.119 SA
ATOM     80  C   UNL A   1      31.851  21.987  24.882  1.00  0.00     0.170 C 
ATOM     81  C   UNL A   1      33.323  20.552  26.144  1.00  0.00     0.038 C 
ATOM     82  C   UNL A   1      32.376  20.608  25.205  1.00  0.00     0.002 C 
BRANCH  80  83
ATOM     83  S   UNL A   1      32.224  22.399  23.193  1.00  0.00     0.219 S 
ATOM     84  O   UNL A   1      33.550  22.980  23.159  1.00  0.00    -0.212 OA
ATOM     85  O   UNL A   1      31.871  21.295  22.331  1.00  0.00    -0.212 OA
BRANCH  83  86
ATOM     86  N   UNL A   1      31.116  23.608  22.841  1.00  0.00    -0.214 NA
ATOM     87  H   UNL A   1      30.256  23.357  23.329  1.00  0.00     0.141 HD
BRANCH  86  88
ATOM     88  C   UNL A   1      31.370  25.018  23.160  1.00  0.00     0.103 C 
BRANCH  88  89
ATOM     89  C   UNL A   1      30.101  25.817  23.491  1.00  0.00     0.050 C 
BRANCH  89  90
ATOM     90  C   UNL A   1      30.109  27.244  23.029  1.00  0.00    -0.038 C 
ATOM     91  C   UNL A   1      29.121  28.137  22.992  1.00  0.00     0.001 A 
ATOM     92  C   UNL A   1      31.371  27.849  22.489  1.00  0.00     0.174 C 
ATOM     93  C   UNL A   1      27.731  28.142  23.303  1.00  0.00     0.010 A 
ATOM     94  C   UNL A   1      29.805  29.366  22.562  1.00  0.00     0.065 A 
ATOM     95  N   UNL A   1      31.061  29.279  22.246  1.00  0.00    -0.280 NA
ATOM     96  C   UNL A   1      27.067  29.307  23.348  1.00  0.00     0.001 A 
ATOM     97  C   UNL A   1      28.999  30.608  22.584  1.00  0.00     0.028 A 
ATOM     98  C   UNL A   1      27.722  30.553  23.001  1.00  0.00     0.002 A 
ENDBRANCH  89  90
ENDBRANCH  88  89
ENDBRANCH  86  88
ENDBRANCH  83  86
ENDBRANCH  80  83
ENDBRANCH  75  78
ENDBRANCH  73  74
ENDBRANCH   1  73
TORSDOF 19
ENDMDL
