MODEL 1
REMARK VINA RESULT:     -12.3      0.000      0.000
REMARK SMILES Cc1ccc([C@@H](Cc2cccs2)C(=O)NCCCCNC(=O)c2ccc(-c3c4nc(c(-c5cc(S(=O)(=O)[O-])ccc5F)c5ccc([nH]5)c(-c5cc(S(=O)(=O)[O-])ccc5F)c5nc(c(-c6cc(S(=O)(=O)[O-])ccc6F)c6ccc3[nH]6)C=C5)C=C4)cc2)cc1
REMARK SMILES IDX 18 1 17 2 16 3 15 4 13 5 14 6 6 8 5 9 1 10 2 11 3 12 87 13
REMARK SMILES IDX 4 14 86 15 7 16 8 17 9 18 12 19 10 20 11 21 19 22 20 23
REMARK SMILES IDX 21 24 22 26 23 27 24 28 85 29 25 30 84 31 26 32 27 33 28 34
REMARK SMILES IDX 78 35 29 36 83 37 77 38 79 39 30 40 82 41 76 42 75 43 31 45
REMARK SMILES IDX 63 46 43 47 62 48 44 49 47 50 61 51 80 52 45 53 46 54 60 56
REMARK SMILES IDX 81 57 48 58 32 59 33 60 41 61 34 62 40 63 42 64 39 65 35 66
REMARK SMILES IDX 36 67 37 68 38 69 64 70 65 71 73 72 66 73 72 74 74 75 71 76
REMARK SMILES IDX 67 77 68 78 69 79 70 80 49 81 50 82 58 83 51 84 57 85 59 86
REMARK SMILES IDX 56 87 52 88 53 89 54 90 55 91
REMARK H PARENT 15 7 20 25 79 44 47 55
REMARK Flexibility Score: inf
ROOT
ATOM      1  C   UNL A   1      33.502  29.511  26.233  1.00  0.00     0.023 C 
ENDROOT
BRANCH   1   2
ATOM      2  C   UNL A   1      33.733  28.022  25.985  1.00  0.00     0.023 C 
BRANCH   2   3
ATOM      3  C   UNL A   1      32.862  27.392  24.891  1.00  0.00     0.116 C 
BRANCH   3   4
ATOM      4  N   UNL A   1      33.453  27.347  23.567  1.00  0.00    -0.356 N 
ATOM      5  C   UNL A   1      33.620  26.319  22.689  1.00  0.00     0.227 C 
ATOM      6  O   UNL A   1      33.946  26.648  21.537  1.00  0.00    -0.274 OA
ATOM      7  H   UNL A   1      33.794  28.212  23.246  1.00  0.00     0.163 HD
BRANCH   5   8
ATOM      8  C   UNL A   1      33.479  24.820  23.024  1.00  0.00     0.113 C 
BRANCH   8   9
ATOM      9  C   UNL A   1      34.664  24.244  23.800  1.00  0.00    -0.035 A 
ATOM     10  C   UNL A   1      38.229  22.806  25.811  1.00  0.00     0.044 C 
ATOM     11  C   UNL A   1      36.987  23.261  25.110  1.00  0.00    -0.051 A 
ATOM     12  C   UNL A   1      36.089  24.090  25.777  1.00  0.00     0.004 A 
ATOM     13  C   UNL A   1      36.716  22.908  23.787  1.00  0.00     0.004 A 
ATOM     14  C   UNL A   1      34.943  24.557  25.132  1.00  0.00     0.005 A 
ATOM     15  C   UNL A   1      35.573  23.397  23.140  1.00  0.00     0.005 A 
ENDBRANCH   8   9
BRANCH   8  16
ATOM     16  C   UNL A   1      32.044  24.289  23.275  1.00  0.00     0.065 C 
BRANCH  16  17
ATOM     17  C   UNL A   1      31.918  22.893  23.784  1.00  0.00     0.006 A 
ATOM     18  C   UNL A   1      32.194  21.711  23.121  1.00  0.00     0.015 A 
ATOM     19  S   UNL A   1      31.323  22.582  25.365  1.00  0.00    -0.149 S 
ATOM     20  C   UNL A   1      32.292  20.622  24.027  1.00  0.00     0.012 A 
ATOM     21  C   UNL A   1      31.914  20.979  25.299  1.00  0.00     0.065 A 
ENDBRANCH  16  17
ENDBRANCH   8  16
ENDBRANCH   5   8
ENDBRANCH   3   4
ENDBRANCH   2   3
ENDBRANCH   1   2
BRANCH   1  22
ATOM     22  C   UNL A   1      33.536  29.917  27.705  1.00  0.00     0.116 C 
BRANCH  22  23
ATOM     23  N   UNL A   1      34.261  31.126  28.057  1.00  0.00    -0.352 N 
ATOM     24  C   UNL A   1      35.522  31.253  28.646  1.00  0.00     0.251 C 
ATOM     25  H   UNL A   1      33.800  31.972  27.854  1.00  0.00     0.163 HD
ATOM     26  O   UNL A   1      35.910  32.337  29.024  1.00  0.00    -0.269 OA
BRANCH  24  27
ATOM     27  C   UNL A   1      36.440  30.070  28.716  1.00  0.00     0.039 A 
ATOM     28  C   UNL A   1      36.623  29.429  29.953  1.00  0.00     0.014 A 
ATOM     29  C   UNL A   1      37.241  29.703  27.645  1.00  0.00     0.014 A 
ATOM     30  C   UNL A   1      37.745  28.619  30.156  1.00  0.00     0.010 A 
ATOM     31  C   UNL A   1      38.428  29.056  27.884  1.00  0.00     0.010 A 
ATOM     32  C   UNL A   1      38.701  28.540  29.149  1.00  0.00    -0.014 A 
BRANCH  32  33
ATOM     33  C   UNL A   1      40.059  28.039  29.306  1.00  0.00     0.031 A 
ATOM     34  C   UNL A   1      40.420  26.689  28.832  1.00  0.00     0.074 A 
ATOM     35  C   UNL A   1      41.030  28.903  29.674  1.00  0.00     0.049 A 
ATOM     36  N   UNL A   1      41.487  26.064  29.188  1.00  0.00    -0.248 NA
ATOM     37  C   UNL A   1      39.584  25.922  27.915  1.00  0.00     0.031 C 
ATOM     38  C   UNL A   1      42.474  28.753  29.523  1.00  0.00     0.029 A 
ATOM     39  N   UNL A   1      40.896  30.048  30.448  1.00  0.00    -0.354 N 
ATOM     40  C   UNL A   1      41.635  24.984  28.351  1.00  0.00     0.074 A 
ATOM     41  C   UNL A   1      40.394  24.904  27.615  1.00  0.00     0.031 C 
ATOM     42  C   UNL A   1      43.082  29.565  30.403  1.00  0.00     0.029 A 
ATOM     43  C   UNL A   1      42.044  30.136  31.246  1.00  0.00     0.049 A 
ATOM     44  H   UNL A   1      40.138  30.678  30.438  1.00  0.00     0.167 HD
ATOM     45  C   UNL A   1      42.840  24.352  28.277  1.00  0.00     0.034 A 
ATOM     46  C   UNL A   1      41.984  30.061  32.607  1.00  0.00     0.034 A 
ATOM     47  C   UNL A   1      43.819  24.951  29.183  1.00  0.00     0.049 A 
ATOM     48  C   UNL A   1      42.711  28.837  33.156  1.00  0.00     0.074 A 
ATOM     49  C   UNL A   1      44.884  25.822  29.027  1.00  0.00     0.029 A 
ATOM     50  N   UNL A   1      43.584  24.881  30.543  1.00  0.00    -0.354 N 
ATOM     51  N   UNL A   1      43.305  27.934  32.423  1.00  0.00    -0.248 NA
ATOM     52  C   UNL A   1      42.736  28.488  34.577  1.00  0.00     0.031 C 
ATOM     53  C   UNL A   1      45.261  26.295  30.321  1.00  0.00     0.029 A 
ATOM     54  C   UNL A   1      44.441  25.692  31.257  1.00  0.00     0.049 A 
ATOM     55  H   UNL A   1      42.887  24.319  30.953  1.00  0.00     0.167 HD
ATOM     56  C   UNL A   1      43.716  26.890  33.211  1.00  0.00     0.074 A 
ATOM     57  C   UNL A   1      43.341  27.288  34.556  1.00  0.00     0.031 C 
ATOM     58  C   UNL A   1      44.290  25.758  32.702  1.00  0.00     0.034 A 
BRANCH  45  59
ATOM     59  C   UNL A   1      43.199  23.345  27.215  1.00  0.00     0.023 A 
ATOM     60  C   UNL A   1      42.561  22.090  27.226  1.00  0.00     0.031 A 
ATOM     61  C   UNL A   1      44.144  23.537  26.189  1.00  0.00     0.131 A 
ATOM     62  C   UNL A   1      42.929  21.072  26.330  1.00  0.00     0.055 A 
ATOM     63  C   UNL A   1      44.559  22.505  25.337  1.00  0.00     0.041 A 
ATOM     64  F   UNL A   1      44.668  24.745  25.931  1.00  0.00    -0.206 F 
ATOM     65  C   UNL A   1      43.959  21.258  25.412  1.00  0.00     0.022 A 
BRANCH  62  66
ATOM     66  S   UNL A   1      42.024  19.503  26.375  1.00  0.00     0.124 S 
ATOM     67  O   UNL A   1      40.686  19.906  25.954  1.00  0.00    -0.237 OA
ATOM     68  O   UNL A   1      42.781  18.686  25.433  1.00  0.00    -0.237 OA
ATOM     69  O   UNL A   1      42.133  19.091  27.775  1.00  0.00    -0.744 OA
ENDBRANCH  62  66
ENDBRANCH  45  59
BRANCH  46  70
ATOM     70  C   UNL A   1      40.720  30.632  33.170  1.00  0.00     0.023 A 
ATOM     71  C   UNL A   1      40.604  32.039  33.272  1.00  0.00     0.031 A 
ATOM     72  C   UNL A   1      39.538  29.872  33.194  1.00  0.00     0.131 A 
ATOM     73  C   UNL A   1      39.336  32.641  33.270  1.00  0.00     0.055 A 
ATOM     74  C   UNL A   1      38.278  30.481  33.213  1.00  0.00     0.041 A 
ATOM     75  F   UNL A   1      39.579  28.542  33.029  1.00  0.00    -0.206 F 
ATOM     76  C   UNL A   1      38.173  31.869  33.216  1.00  0.00     0.022 A 
BRANCH  73  77
ATOM     77  S   UNL A   1      39.146  34.446  33.201  1.00  0.00     0.124 S 
ATOM     78  O   UNL A   1      37.985  34.669  34.055  1.00  0.00    -0.237 OA
ATOM     79  O   UNL A   1      40.413  34.949  33.723  1.00  0.00    -0.237 OA
ATOM     80  O   UNL A   1      38.932  34.672  31.772  1.00  0.00    -0.744 OA
ENDBRANCH  73  77
ENDBRANCH  46  70
BRANCH  58  81
ATOM     81  C   UNL A   1      44.737  24.594  33.551  1.00  0.00     0.023 A 
ATOM     82  C   UNL A   1      46.094  24.276  33.711  1.00  0.00     0.031 A 
ATOM     83  C   UNL A   1      43.813  23.711  34.158  1.00  0.00     0.131 A 
ATOM     84  C   UNL A   1      46.483  23.179  34.498  1.00  0.00     0.055 A 
ATOM     85  C   UNL A   1      44.202  22.567  34.859  1.00  0.00     0.041 A 
ATOM     86  F   UNL A   1      42.493  23.945  34.141  1.00  0.00    -0.206 F 
ATOM     87  C   UNL A   1      45.548  22.302  35.045  1.00  0.00     0.022 A 
BRANCH  84  88
ATOM     88  S   UNL A   1      48.241  22.971  34.877  1.00  0.00     0.124 S 
ATOM     89  O   UNL A   1      48.291  23.233  36.312  1.00  0.00    -0.237 OA
ATOM     90  O   UNL A   1      48.465  21.585  34.476  1.00  0.00    -0.237 OA
ATOM     91  O   UNL A   1      48.896  23.972  34.037  1.00  0.00    -0.744 OA
ENDBRANCH  84  88
ENDBRANCH  58  81
ENDBRANCH  32  33
ENDBRANCH  24  27
ENDBRANCH  22  23
ENDBRANCH   1  22
TORSDOF 17
ENDMDL
MODEL 2
REMARK VINA RESULT:     -12.1      1.610      2.452
REMARK SMILES Cc1ccc([C@@H](Cc2cccs2)C(=O)NCCCCNC(=O)c2ccc(-c3c4nc(c(-c5cc(S(=O)(=O)[O-])ccc5F)c5ccc([nH]5)c(-c5cc(S(=O)(=O)[O-])ccc5F)c5nc(c(-c6cc(S(=O)(=O)[O-])ccc6F)c6ccc3[nH]6)C=C5)C=C4)cc2)cc1
REMARK SMILES IDX 18 1 17 2 16 3 15 4 13 5 14 6 6 8 5 9 1 10 2 11 3 12 87 13
REMARK SMILES IDX 4 14 86 15 7 16 8 17 9 18 12 19 10 20 11 21 19 22 20 23
REMARK SMILES IDX 21 24 22 26 23 27 24 28 85 29 25 30 84 31 26 32 27 33 28 34
REMARK SMILES IDX 78 35 29 36 83 37 77 38 79 39 30 40 82 41 76 42 75 43 31 45
REMARK SMILES IDX 63 46 43 47 62 48 44 49 47 50 61 51 80 52 45 53 46 54 60 56
REMARK SMILES IDX 81 57 48 58 32 59 33 60 41 61 34 62 40 63 42 64 39 65 35 66
REMARK SMILES IDX 36 67 37 68 38 69 64 70 65 71 73 72 66 73 72 74 74 75 71 76
REMARK SMILES IDX 67 77 68 78 69 79 70 80 49 81 50 82 58 83 51 84 57 85 59 86
REMARK SMILES IDX 56 87 52 88 53 89 54 90 55 91
REMARK H PARENT 15 7 20 25 79 44 47 55
REMARK Flexibility Score: inf
ROOT
ATOM      1  C   UNL A   1      32.568  30.677  26.761  1.00  0.00     0.023 C 
ENDROOT
BRANCH   1   2
ATOM      2  C   UNL A   1      31.722  29.449  26.431  1.00  0.00     0.023 C 
BRANCH   2   3
ATOM      3  C   UNL A   1      32.090  28.169  27.192  1.00  0.00     0.116 C 
BRANCH   3   4
ATOM      4  N   UNL A   1      31.119  27.094  27.119  1.00  0.00    -0.356 N 
ATOM      5  C   UNL A   1      30.829  26.206  26.127  1.00  0.00     0.227 C 
ATOM      6  O   UNL A   1      30.107  25.253  26.459  1.00  0.00    -0.274 OA
ATOM      7  H   UNL A   1      30.570  26.989  27.929  1.00  0.00     0.163 HD
BRANCH   5   8
ATOM      8  C   UNL A   1      31.287  26.319  24.659  1.00  0.00     0.113 C 
BRANCH   8   9
ATOM      9  C   UNL A   1      32.576  25.555  24.352  1.00  0.00    -0.035 A 
ATOM     10  C   UNL A   1      36.118  23.141  23.685  1.00  0.00     0.044 C 
ATOM     11  C   UNL A   1      34.922  24.008  23.924  1.00  0.00    -0.051 A 
ATOM     12  C   UNL A   1      33.984  24.176  22.909  1.00  0.00     0.004 A 
ATOM     13  C   UNL A   1      34.695  24.628  25.155  1.00  0.00     0.004 A 
ATOM     14  C   UNL A   1      32.841  24.949  23.122  1.00  0.00     0.005 A 
ATOM     15  C   UNL A   1      33.536  25.386  25.366  1.00  0.00     0.005 A 
ENDBRANCH   8   9
BRANCH   8  16
ATOM     16  C   UNL A   1      30.178  26.452  23.585  1.00  0.00     0.065 C 
BRANCH  16  17
ATOM     17  C   UNL A   1      29.855  27.829  23.111  1.00  0.00     0.006 A 
ATOM     18  C   UNL A   1      30.727  28.818  22.696  1.00  0.00     0.015 A 
ATOM     19  S   UNL A   1      28.232  28.390  23.074  1.00  0.00    -0.149 S 
ATOM     20  C   UNL A   1      30.044  29.848  21.996  1.00  0.00     0.012 A 
ATOM     21  C   UNL A   1      28.680  29.694  22.064  1.00  0.00     0.065 A 
ENDBRANCH  16  17
ENDBRANCH   8  16
ENDBRANCH   5   8
ENDBRANCH   3   4
ENDBRANCH   2   3
ENDBRANCH   1   2
BRANCH   1  22
ATOM     22  C   UNL A   1      33.867  30.367  27.500  1.00  0.00     0.116 C 
BRANCH  22  23
ATOM     23  N   UNL A   1      34.487  31.441  28.258  1.00  0.00    -0.352 N 
ATOM     24  C   UNL A   1      35.623  31.398  29.071  1.00  0.00     0.251 C 
ATOM     25  H   UNL A   1      34.044  32.317  28.192  1.00  0.00     0.163 HD
ATOM     26  O   UNL A   1      35.910  32.350  29.764  1.00  0.00    -0.269 OA
BRANCH  24  27
ATOM     27  C   UNL A   1      36.548  30.220  29.007  1.00  0.00     0.039 A 
ATOM     28  C   UNL A   1      36.697  29.416  30.149  1.00  0.00     0.014 A 
ATOM     29  C   UNL A   1      37.386  30.007  27.922  1.00  0.00     0.014 A 
ATOM     30  C   UNL A   1      37.818  28.589  30.276  1.00  0.00     0.010 A 
ATOM     31  C   UNL A   1      38.570  29.337  28.108  1.00  0.00     0.010 A 
ATOM     32  C   UNL A   1      38.806  28.653  29.299  1.00  0.00    -0.014 A 
BRANCH  32  33
ATOM     33  C   UNL A   1      40.162  28.139  29.430  1.00  0.00     0.031 A 
ATOM     34  C   UNL A   1      40.508  26.797  28.924  1.00  0.00     0.074 A 
ATOM     35  C   UNL A   1      41.143  28.989  29.804  1.00  0.00     0.049 A 
ATOM     36  N   UNL A   1      41.575  26.157  29.255  1.00  0.00    -0.248 NA
ATOM     37  C   UNL A   1      39.656  26.055  28.001  1.00  0.00     0.031 C 
ATOM     38  C   UNL A   1      42.585  28.832  29.634  1.00  0.00     0.029 A 
ATOM     39  N   UNL A   1      41.026  30.118  30.604  1.00  0.00    -0.354 N 
ATOM     40  C   UNL A   1      41.706  25.094  28.394  1.00  0.00     0.074 A 
ATOM     41  C   UNL A   1      40.456  25.038  27.671  1.00  0.00     0.031 C 
ATOM     42  C   UNL A   1      43.208  29.622  30.524  1.00  0.00     0.029 A 
ATOM     43  C   UNL A   1      42.184  30.182  31.390  1.00  0.00     0.049 A 
ATOM     44  H   UNL A   1      40.273  30.753  30.616  1.00  0.00     0.167 HD
ATOM     45  C   UNL A   1      42.905  24.456  28.293  1.00  0.00     0.034 A 
ATOM     46  C   UNL A   1      42.139  30.079  32.750  1.00  0.00     0.034 A 
ATOM     47  C   UNL A   1      43.899  25.029  29.200  1.00  0.00     0.049 A 
ATOM     48  C   UNL A   1      42.863  28.839  33.265  1.00  0.00     0.074 A 
ATOM     49  C   UNL A   1      44.968  25.896  29.050  1.00  0.00     0.029 A 
ATOM     50  N   UNL A   1      43.679  24.932  30.561  1.00  0.00    -0.354 N 
ATOM     51  N   UNL A   1      43.442  27.947  32.506  1.00  0.00    -0.248 NA
ATOM     52  C   UNL A   1      42.901  28.461  34.678  1.00  0.00     0.031 C 
ATOM     53  C   UNL A   1      45.363  26.340  30.349  1.00  0.00     0.029 A 
ATOM     54  C   UNL A   1      44.549  25.723  31.282  1.00  0.00     0.049 A 
ATOM     55  H   UNL A   1      42.982  24.367  30.967  1.00  0.00     0.167 HD
ATOM     56  C   UNL A   1      43.855  26.885  33.268  1.00  0.00     0.074 A 
ATOM     57  C   UNL A   1      43.498  27.257  34.626  1.00  0.00     0.031 C 
ATOM     58  C   UNL A   1      44.415  25.760  32.730  1.00  0.00     0.034 A 
BRANCH  45  59
ATOM     59  C   UNL A   1      43.245  23.469  27.207  1.00  0.00     0.023 A 
ATOM     60  C   UNL A   1      42.591  22.222  27.193  1.00  0.00     0.031 A 
ATOM     61  C   UNL A   1      44.187  23.673  26.179  1.00  0.00     0.131 A 
ATOM     62  C   UNL A   1      42.942  21.220  26.272  1.00  0.00     0.055 A 
ATOM     63  C   UNL A   1      44.583  22.655  25.301  1.00  0.00     0.041 A 
ATOM     64  F   UNL A   1      44.724  24.879  25.946  1.00  0.00    -0.206 F 
ATOM     65  C   UNL A   1      43.968  21.414  25.352  1.00  0.00     0.022 A 
BRANCH  62  66
ATOM     66  S   UNL A   1      42.017  19.661  26.287  1.00  0.00     0.124 S 
ATOM     67  O   UNL A   1      42.353  19.116  27.599  1.00  0.00    -0.237 OA
ATOM     68  O   UNL A   1      40.644  20.119  26.109  1.00  0.00    -0.237 OA
ATOM     69  O   UNL A   1      42.575  18.927  25.152  1.00  0.00    -0.744 OA
ENDBRANCH  62  66
ENDBRANCH  45  59
BRANCH  46  70
ATOM     70  C   UNL A   1      40.885  30.647  33.339  1.00  0.00     0.023 A 
ATOM     71  C   UNL A   1      40.771  32.053  33.452  1.00  0.00     0.031 A 
ATOM     72  C   UNL A   1      39.703  29.887  33.379  1.00  0.00     0.131 A 
ATOM     73  C   UNL A   1      39.504  32.655  33.476  1.00  0.00     0.055 A 
ATOM     74  C   UNL A   1      38.444  30.496  33.425  1.00  0.00     0.041 A 
ATOM     75  F   UNL A   1      39.741  28.558  33.205  1.00  0.00    -0.206 F 
ATOM     76  C   UNL A   1      38.340  31.884  33.439  1.00  0.00     0.022 A 
BRANCH  73  77
ATOM     77  S   UNL A   1      39.313  34.461  33.422  1.00  0.00     0.124 S 
ATOM     78  O   UNL A   1      38.216  34.686  34.357  1.00  0.00    -0.237 OA
ATOM     79  O   UNL A   1      40.614  34.961  33.854  1.00  0.00    -0.237 OA
ATOM     80  O   UNL A   1      38.999  34.688  32.013  1.00  0.00    -0.744 OA
ENDBRANCH  73  77
ENDBRANCH  46  70
BRANCH  58  81
ATOM     81  C   UNL A   1      44.864  24.575  33.548  1.00  0.00     0.023 A 
ATOM     82  C   UNL A   1      46.222  24.299  33.763  1.00  0.00     0.031 A 
ATOM     83  C   UNL A   1      43.945  23.634  34.070  1.00  0.00     0.131 A 
ATOM     84  C   UNL A   1      46.613  23.182  34.521  1.00  0.00     0.055 A 
ATOM     85  C   UNL A   1      44.343  22.474  34.739  1.00  0.00     0.041 A 
ATOM     86  F   UNL A   1      42.619  23.822  33.996  1.00  0.00    -0.206 F 
ATOM     87  C   UNL A   1      45.686  22.249  34.982  1.00  0.00     0.022 A 
BRANCH  84  88
ATOM     88  S   UNL A   1      48.357  23.020  34.979  1.00  0.00     0.124 S 
ATOM     89  O   UNL A   1      48.297  22.921  36.433  1.00  0.00    -0.237 OA
ATOM     90  O   UNL A   1      48.733  21.797  34.274  1.00  0.00    -0.237 OA
ATOM     91  O   UNL A   1      48.966  24.244  34.461  1.00  0.00    -0.744 OA
ENDBRANCH  84  88
ENDBRANCH  58  81
ENDBRANCH  32  33
ENDBRANCH  24  27
ENDBRANCH  22  23
ENDBRANCH   1  22
TORSDOF 17
ENDMDL
MODEL 3
REMARK VINA RESULT:     -11.9      2.798      3.903
REMARK SMILES Cc1ccc([C@@H](Cc2cccs2)C(=O)NCCCCNC(=O)c2ccc(-c3c4nc(c(-c5cc(S(=O)(=O)[O-])ccc5F)c5ccc([nH]5)c(-c5cc(S(=O)(=O)[O-])ccc5F)c5nc(c(-c6cc(S(=O)(=O)[O-])ccc6F)c6ccc3[nH]6)C=C5)C=C4)cc2)cc1
REMARK SMILES IDX 18 1 17 2 16 3 15 4 13 5 14 6 6 8 5 9 1 10 2 11 3 12 87 13
REMARK SMILES IDX 4 14 86 15 7 16 8 17 9 18 12 19 10 20 11 21 19 22 20 23
REMARK SMILES IDX 21 24 22 26 23 27 24 28 85 29 25 30 84 31 26 32 27 33 28 34
REMARK SMILES IDX 78 35 29 36 83 37 77 38 79 39 30 40 82 41 76 42 75 43 31 45
REMARK SMILES IDX 63 46 43 47 62 48 44 49 47 50 61 51 80 52 45 53 46 54 60 56
REMARK SMILES IDX 81 57 48 58 32 59 33 60 41 61 34 62 40 63 42 64 39 65 35 66
REMARK SMILES IDX 36 67 37 68 38 69 64 70 65 71 73 72 66 73 72 74 74 75 71 76
REMARK SMILES IDX 67 77 68 78 69 79 70 80 49 81 50 82 58 83 51 84 57 85 59 86
REMARK SMILES IDX 56 87 52 88 53 89 54 90 55 91
REMARK H PARENT 15 7 20 25 79 44 47 55
REMARK Flexibility Score: inf
ROOT
ATOM      1  C   UNL A   1      32.345  29.920  27.339  1.00  0.00     0.023 C 
ENDROOT
BRANCH   1   2
ATOM      2  C   UNL A   1      31.829  29.017  26.221  1.00  0.00     0.023 C 
BRANCH   2   3
ATOM      3  C   UNL A   1      32.097  27.518  26.404  1.00  0.00     0.116 C 
BRANCH   3   4
ATOM      4  N   UNL A   1      30.940  26.711  26.743  1.00  0.00    -0.356 N 
ATOM      5  C   UNL A   1      30.182  25.863  25.994  1.00  0.00     0.227 C 
ATOM      6  O   UNL A   1      29.405  25.136  26.634  1.00  0.00    -0.274 OA
ATOM      7  H   UNL A   1      30.651  26.792  27.680  1.00  0.00     0.163 HD
BRANCH   5   8
ATOM      8  C   UNL A   1      30.191  25.771  24.455  1.00  0.00     0.113 C 
BRANCH   8   9
ATOM      9  C   UNL A   1      29.654  27.021  23.757  1.00  0.00    -0.035 A 
ATOM     10  C   UNL A   1      28.196  30.414  21.480  1.00  0.00     0.044 C 
ATOM     11  C   UNL A   1      28.724  29.270  22.289  1.00  0.00    -0.051 A 
ATOM     12  C   UNL A   1      27.837  28.465  22.997  1.00  0.00     0.004 A 
ATOM     13  C   UNL A   1      30.085  28.961  22.326  1.00  0.00     0.004 A 
ATOM     14  C   UNL A   1      28.302  27.370  23.727  1.00  0.00     0.005 A 
ATOM     15  C   UNL A   1      30.542  27.850  23.046  1.00  0.00     0.005 A 
ENDBRANCH   8   9
BRANCH   8  16
ATOM     16  C   UNL A   1      31.327  24.937  23.808  1.00  0.00     0.065 C 
BRANCH  16  17
ATOM     17  C   UNL A   1      32.148  24.090  24.720  1.00  0.00     0.006 A 
ATOM     18  C   UNL A   1      33.361  24.393  25.309  1.00  0.00     0.015 A 
ATOM     19  S   UNL A   1      31.651  22.497  25.129  1.00  0.00    -0.149 S 
ATOM     20  C   UNL A   1      33.657  23.498  26.372  1.00  0.00     0.012 A 
ATOM     21  C   UNL A   1      32.760  22.458  26.429  1.00  0.00     0.065 A 
ENDBRANCH  16  17
ENDBRANCH   8  16
ENDBRANCH   5   8
ENDBRANCH   3   4
ENDBRANCH   2   3
ENDBRANCH   1   2
BRANCH   1  22
ATOM     22  C   UNL A   1      33.714  30.539  27.068  1.00  0.00     0.116 C 
BRANCH  22  23
ATOM     23  N   UNL A   1      34.195  31.551  27.993  1.00  0.00    -0.352 N 
ATOM     24  C   UNL A   1      35.225  31.461  28.934  1.00  0.00     0.251 C 
ATOM     25  H   UNL A   1      33.730  32.418  27.953  1.00  0.00     0.163 HD
ATOM     26  O   UNL A   1      35.388  32.349  29.743  1.00  0.00    -0.269 OA
BRANCH  24  27
ATOM     27  C   UNL A   1      36.195  30.320  28.879  1.00  0.00     0.039 A 
ATOM     28  C   UNL A   1      36.547  29.674  30.075  1.00  0.00     0.014 A 
ATOM     29  C   UNL A   1      36.882  30.002  27.717  1.00  0.00     0.014 A 
ATOM     30  C   UNL A   1      37.718  28.913  30.136  1.00  0.00     0.010 A 
ATOM     31  C   UNL A   1      38.116  29.406  27.807  1.00  0.00     0.010 A 
ATOM     32  C   UNL A   1      38.555  28.889  29.024  1.00  0.00    -0.014 A 
BRANCH  32  33
ATOM     33  C   UNL A   1      39.942  28.447  29.017  1.00  0.00     0.031 A 
ATOM     34  C   UNL A   1      40.277  27.028  28.791  1.00  0.00     0.074 A 
ATOM     35  C   UNL A   1      40.918  29.380  28.985  1.00  0.00     0.049 A 
ATOM     36  N   UNL A   1      41.423  26.508  29.058  1.00  0.00    -0.248 NA
ATOM     37  C   UNL A   1      39.322  26.066  28.250  1.00  0.00     0.031 C 
ATOM     38  C   UNL A   1      42.314  29.211  28.588  1.00  0.00     0.029 A 
ATOM     39  N   UNL A   1      40.875  30.670  29.498  1.00  0.00    -0.354 N 
ATOM     40  C   UNL A   1      41.466  25.268  28.468  1.00  0.00     0.074 A 
ATOM     41  C   UNL A   1      40.113  25.013  28.028  1.00  0.00     0.031 C 
ATOM     42  C   UNL A   1      43.034  30.207  29.130  1.00  0.00     0.029 A 
ATOM     43  C   UNL A   1      42.148  30.946  30.014  1.00  0.00     0.049 A 
ATOM     44  H   UNL A   1      40.097  31.274  29.499  1.00  0.00     0.167 HD
ATOM     45  C   UNL A   1      42.665  24.646  28.298  1.00  0.00     0.034 A 
ATOM     46  C   UNL A   1      42.353  31.181  31.342  1.00  0.00     0.034 A 
ATOM     47  C   UNL A   1      43.767  25.442  28.838  1.00  0.00     0.049 A 
ATOM     48  C   UNL A   1      43.234  30.119  31.993  1.00  0.00     0.074 A 
ATOM     49  C   UNL A   1      44.735  26.263  28.286  1.00  0.00     0.029 A 
ATOM     50  N   UNL A   1      43.799  25.680  30.199  1.00  0.00    -0.354 N 
ATOM     51  N   UNL A   1      43.724  29.078  31.375  1.00  0.00    -0.248 NA
ATOM     52  C   UNL A   1      43.548  30.103  33.422  1.00  0.00     0.031 C 
ATOM     53  C   UNL A   1      45.327  27.021  29.342  1.00  0.00     0.029 A 
ATOM     54  C   UNL A   1      44.733  26.639  30.532  1.00  0.00     0.049 A 
ATOM     55  H   UNL A   1      43.224  25.221  30.852  1.00  0.00     0.167 HD
ATOM     56  C   UNL A   1      44.332  28.244  32.276  1.00  0.00     0.074 A 
ATOM     57  C   UNL A   1      44.200  28.934  33.548  1.00  0.00     0.031 C 
ATOM     58  C   UNL A   1      44.857  27.031  31.928  1.00  0.00     0.034 A 
BRANCH  45  59
ATOM     59  C   UNL A   1      42.868  23.427  27.436  1.00  0.00     0.023 A 
ATOM     60  C   UNL A   1      43.807  23.484  26.389  1.00  0.00     0.031 A 
ATOM     61  C   UNL A   1      42.183  22.204  27.572  1.00  0.00     0.131 A 
ATOM     62  C   UNL A   1      43.964  22.420  25.484  1.00  0.00     0.055 A 
ATOM     63  C   UNL A   1      42.290  21.166  26.636  1.00  0.00     0.041 A 
ATOM     64  F   UNL A   1      41.423  21.937  28.644  1.00  0.00    -0.206 F 
ATOM     65  C   UNL A   1      43.177  21.276  25.575  1.00  0.00     0.022 A 
BRANCH  62  66
ATOM     66  S   UNL A   1      45.230  22.552  24.195  1.00  0.00     0.124 S 
ATOM     67  O   UNL A   1      46.301  21.716  24.728  1.00  0.00    -0.237 OA
ATOM     68  O   UNL A   1      44.529  22.038  23.024  1.00  0.00    -0.237 OA
ATOM     69  O   UNL A   1      45.526  23.984  24.158  1.00  0.00    -0.744 OA
ENDBRANCH  62  66
ENDBRANCH  45  59
BRANCH  46  70
ATOM     70  C   UNL A   1      41.191  31.855  32.003  1.00  0.00     0.023 A 
ATOM     71  C   UNL A   1      40.289  31.062  32.752  1.00  0.00     0.031 A 
ATOM     72  C   UNL A   1      41.211  33.238  32.251  1.00  0.00     0.131 A 
ATOM     73  C   UNL A   1      39.539  31.640  33.787  1.00  0.00     0.055 A 
ATOM     74  C   UNL A   1      40.443  33.809  33.272  1.00  0.00     0.041 A 
ATOM     75  F   UNL A   1      42.093  34.031  31.624  1.00  0.00    -0.206 F 
ATOM     76  C   UNL A   1      39.630  33.005  34.067  1.00  0.00     0.022 A 
BRANCH  73  77
ATOM     77  S   UNL A   1      38.520  30.626  34.898  1.00  0.00     0.124 S 
ATOM     78  O   UNL A   1      37.490  31.567  35.321  1.00  0.00    -0.237 OA
ATOM     79  O   UNL A   1      38.058  29.535  34.045  1.00  0.00    -0.237 OA
ATOM     80  O   UNL A   1      39.486  30.242  35.925  1.00  0.00    -0.744 OA
ENDBRANCH  73  77
ENDBRANCH  46  70
BRANCH  58  81
ATOM     81  C   UNL A   1      45.519  26.093  32.906  1.00  0.00     0.023 A 
ATOM     82  C   UNL A   1      44.777  25.362  33.845  1.00  0.00     0.031 A 
ATOM     83  C   UNL A   1      46.926  25.966  32.987  1.00  0.00     0.131 A 
ATOM     84  C   UNL A   1      45.420  24.503  34.753  1.00  0.00     0.055 A 
ATOM     85  C   UNL A   1      47.565  25.186  33.954  1.00  0.00     0.041 A 
ATOM     86  F   UNL A   1      47.743  26.554  32.101  1.00  0.00    -0.206 F 
ATOM     87  C   UNL A   1      46.809  24.435  34.838  1.00  0.00     0.022 A 
BRANCH  84  88
ATOM     88  S   UNL A   1      44.402  23.398  35.762  1.00  0.00     0.124 S 
ATOM     89  O   UNL A   1      43.239  23.169  34.910  1.00  0.00    -0.237 OA
ATOM     90  O   UNL A   1      45.294  22.256  35.938  1.00  0.00    -0.237 OA
ATOM     91  O   UNL A   1      44.144  24.174  36.973  1.00  0.00    -0.744 OA
ENDBRANCH  84  88
ENDBRANCH  58  81
ENDBRANCH  32  33
ENDBRANCH  24  27
ENDBRANCH  22  23
ENDBRANCH   1  22
TORSDOF 17
ENDMDL
