MODEL 1
REMARK VINA RESULT:     -12.1      0.000      0.000
REMARK SMILES CO[C@@H]1C[C@H](C(=O)NCCCCNC(=O)c2ccc(-c3c4nc(c(-c5cc(S(=O)(=O)[O-])ccc5F)c5ccc([nH]5)c(-c5cc(S(=O)(=O)[O-])ccc5F)c5nc(c(-c6cc(S(=O)(=O)[O-])ccc6F)c6ccc3[nH]6)C=C5)C=C4)cc2)N(C(=O)c2ccn(C)c(=O)c2)C1
REMARK SMILES IDX 11 1 10 2 9 3 8 4 6 5 7 6 5 8 3 9 4 10 90 11 79 12 2 13 1 14
REMARK SMILES IDX 80 15 81 16 82 17 83 18 89 19 84 20 87 21 85 22 88 23 86 24
REMARK SMILES IDX 12 25 13 26 14 27 15 29 16 30 17 31 78 32 18 33 77 34 19 35
REMARK SMILES IDX 20 36 21 37 71 38 22 39 76 40 70 41 72 42 23 43 75 44 69 45
REMARK SMILES IDX 68 46 24 48 56 49 36 50 55 51 37 52 40 53 54 54 73 55 38 56
REMARK SMILES IDX 39 57 53 59 74 60 41 61 25 62 26 63 34 64 27 65 33 66 35 67
REMARK SMILES IDX 32 68 28 69 29 70 30 71 31 72 57 73 58 74 66 75 59 76 65 77
REMARK SMILES IDX 67 78 64 79 60 80 61 81 62 82 63 83 42 84 43 85 51 86 44 87
REMARK SMILES IDX 50 88 52 89 49 90 45 91 46 92 47 93 48 94
REMARK H PARENT 8 7 13 28 72 47 40 58
REMARK Flexibility Score: inf
ROOT
ATOM      1  C   UNL A   1      31.447  31.977  26.491  1.00  0.00     0.023 C 
ENDROOT
BRANCH   1   2
ATOM      2  C   UNL A   1      31.514  30.519  26.059  1.00  0.00     0.023 C 
BRANCH   2   3
ATOM      3  C   UNL A   1      32.915  29.901  26.005  1.00  0.00     0.116 C 
BRANCH   3   4
ATOM      4  N   UNL A   1      33.382  29.755  24.640  1.00  0.00    -0.354 N 
ATOM      5  C   UNL A   1      33.307  28.764  23.723  1.00  0.00     0.242 C 
ATOM      6  O   UNL A   1      33.976  28.949  22.694  1.00  0.00    -0.273 OA
ATOM      7  H   UNL A   1      33.857  30.552  24.309  1.00  0.00     0.163 HD
BRANCH   5   8
ATOM      8  C   UNL A   1      32.578  27.402  23.871  1.00  0.00     0.177 C 
ATOM      9  C   UNL A   1      30.451  27.358  22.755  1.00  0.00     0.139 C 
ATOM     10  C   UNL A   1      31.083  27.533  24.135  1.00  0.00     0.069 C 
ATOM     11  C   UNL A   1      31.393  26.354  22.056  1.00  0.00     0.152 C 
ATOM     12  N   UNL A   1      32.629  26.363  22.844  1.00  0.00    -0.324 N 
BRANCH   9  13
ATOM     13  O   UNL A   1      30.379  28.567  22.010  1.00  0.00    -0.380 OA
ATOM     14  C   UNL A   1      29.607  29.598  22.622  1.00  0.00     0.195 C 
ENDBRANCH   9  13
BRANCH  12  15
ATOM     15  C   UNL A   1      33.405  25.216  22.883  1.00  0.00     0.254 C 
ATOM     16  O   UNL A   1      33.856  24.665  21.884  1.00  0.00    -0.269 OA
BRANCH  15  17
ATOM     17  C   UNL A   1      33.488  24.537  24.209  1.00  0.00     0.046 A 
ATOM     18  C   UNL A   1      32.340  23.999  24.890  1.00  0.00     0.032 A 
ATOM     19  C   UNL A   1      34.722  24.403  24.720  1.00  0.00     0.085 A 
ATOM     20  C   UNL A   1      32.520  23.280  26.008  1.00  0.00     0.089 A 
ATOM     21  C   UNL A   1      34.933  23.593  25.942  1.00  0.00     0.251 A 
ATOM     22  N   UNL A   1      33.788  23.052  26.521  1.00  0.00    -0.319 N 
ATOM     23  O   UNL A   1      36.080  23.426  26.349  1.00  0.00    -0.269 OA
ATOM     24  C   UNL A   1      33.926  22.225  27.710  1.00  0.00     0.153 C 
ENDBRANCH  15  17
ENDBRANCH  12  15
ENDBRANCH   5   8
ENDBRANCH   3   4
ENDBRANCH   2   3
ENDBRANCH   1   2
BRANCH   1  25
ATOM     25  C   UNL A   1      32.711  32.495  27.150  1.00  0.00     0.116 C 
BRANCH  25  26
ATOM     26  N   UNL A   1      32.553  33.832  27.710  1.00  0.00    -0.352 N 
ATOM     27  C   UNL A   1      33.301  34.447  28.689  1.00  0.00     0.251 C 
ATOM     28  H   UNL A   1      31.815  34.365  27.337  1.00  0.00     0.163 HD
ATOM     29  O   UNL A   1      32.954  35.521  29.157  1.00  0.00    -0.269 OA
BRANCH  27  30
ATOM     30  C   UNL A   1      34.508  33.756  29.185  1.00  0.00     0.039 A 
ATOM     31  C   UNL A   1      35.769  34.261  28.864  1.00  0.00     0.014 A 
ATOM     32  C   UNL A   1      34.374  32.667  30.050  1.00  0.00     0.014 A 
ATOM     33  C   UNL A   1      36.898  33.723  29.484  1.00  0.00     0.010 A 
ATOM     34  C   UNL A   1      35.484  32.210  30.743  1.00  0.00     0.010 A 
ATOM     35  C   UNL A   1      36.759  32.726  30.463  1.00  0.00    -0.014 A 
BRANCH  35  36
ATOM     36  C   UNL A   1      37.926  32.176  31.197  1.00  0.00     0.031 A 
ATOM     37  C   UNL A   1      38.747  31.089  30.554  1.00  0.00     0.074 A 
ATOM     38  C   UNL A   1      38.174  32.571  32.462  1.00  0.00     0.049 A 
ATOM     39  N   UNL A   1      39.705  30.362  31.065  1.00  0.00    -0.248 NA
ATOM     40  C   UNL A   1      38.405  30.740  29.166  1.00  0.00     0.031 C 
ATOM     41  C   UNL A   1      37.400  33.569  33.207  1.00  0.00     0.029 A 
ATOM     42  N   UNL A   1      39.133  32.168  33.356  1.00  0.00    -0.354 N 
ATOM     43  C   UNL A   1      40.047  29.445  30.077  1.00  0.00     0.074 A 
ATOM     44  C   UNL A   1      39.155  29.668  28.963  1.00  0.00     0.031 C 
ATOM     45  C   UNL A   1      37.928  33.712  34.434  1.00  0.00     0.029 A 
ATOM     46  C   UNL A   1      39.045  32.786  34.583  1.00  0.00     0.049 A 
ATOM     47  H   UNL A   1      39.822  31.498  33.140  1.00  0.00     0.167 HD
ATOM     48  C   UNL A   1      41.034  28.516  30.093  1.00  0.00     0.034 A 
ATOM     49  C   UNL A   1      39.774  32.610  35.704  1.00  0.00     0.034 A 
ATOM     50  C   UNL A   1      41.947  28.352  31.195  1.00  0.00     0.049 A 
ATOM     51  C   UNL A   1      40.896  31.601  35.679  1.00  0.00     0.074 A 
ATOM     52  C   UNL A   1      43.049  27.521  31.284  1.00  0.00     0.029 A 
ATOM     53  N   UNL A   1      41.864  29.037  32.402  1.00  0.00    -0.354 N 
ATOM     54  N   UNL A   1      41.259  30.795  34.707  1.00  0.00    -0.248 NA
ATOM     55  C   UNL A   1      41.714  31.488  36.893  1.00  0.00     0.031 C 
ATOM     56  C   UNL A   1      43.594  27.656  32.565  1.00  0.00     0.029 A 
ATOM     57  C   UNL A   1      42.877  28.624  33.252  1.00  0.00     0.049 A 
ATOM     58  H   UNL A   1      41.184  29.714  32.620  1.00  0.00     0.167 HD
ATOM     59  C   UNL A   1      42.367  30.100  35.185  1.00  0.00     0.074 A 
ATOM     60  C   UNL A   1      42.622  30.598  36.521  1.00  0.00     0.031 C 
ATOM     61  C   UNL A   1      43.108  29.137  34.580  1.00  0.00     0.034 A 
BRANCH  48  62
ATOM     62  C   UNL A   1      41.160  27.605  28.896  1.00  0.00     0.023 A 
ATOM     63  C   UNL A   1      42.165  27.781  27.929  1.00  0.00     0.031 A 
ATOM     64  C   UNL A   1      40.245  26.554  28.709  1.00  0.00     0.131 A 
ATOM     65  C   UNL A   1      42.187  26.971  26.784  1.00  0.00     0.055 A 
ATOM     66  C   UNL A   1      40.322  25.697  27.609  1.00  0.00     0.041 A 
ATOM     67  F   UNL A   1      39.250  26.348  29.586  1.00  0.00    -0.206 F 
ATOM     68  C   UNL A   1      41.289  25.912  26.631  1.00  0.00     0.022 A 
BRANCH  65  69
ATOM     69  S   UNL A   1      43.325  27.400  25.439  1.00  0.00     0.124 S 
ATOM     70  O   UNL A   1      43.969  26.115  25.178  1.00  0.00    -0.237 OA
ATOM     71  O   UNL A   1      42.420  27.883  24.402  1.00  0.00    -0.237 OA
ATOM     72  O   UNL A   1      44.191  28.415  26.034  1.00  0.00    -0.744 OA
ENDBRANCH  65  69
ENDBRANCH  48  62
BRANCH  49  73
ATOM     73  C   UNL A   1      39.470  33.383  36.944  1.00  0.00     0.023 A 
ATOM     74  C   UNL A   1      38.746  32.807  38.000  1.00  0.00     0.031 A 
ATOM     75  C   UNL A   1      39.850  34.732  37.070  1.00  0.00     0.131 A 
ATOM     76  C   UNL A   1      38.372  33.587  39.106  1.00  0.00     0.055 A 
ATOM     77  C   UNL A   1      39.526  35.489  38.198  1.00  0.00     0.041 A 
ATOM     78  F   UNL A   1      40.550  35.335  36.096  1.00  0.00    -0.206 F 
ATOM     79  C   UNL A   1      38.768  34.922  39.217  1.00  0.00     0.022 A 
BRANCH  76  80
ATOM     80  S   UNL A   1      37.270  32.860  40.350  1.00  0.00     0.124 S 
ATOM     81  O   UNL A   1      37.158  33.946  41.319  1.00  0.00    -0.237 OA
ATOM     82  O   UNL A   1      36.074  32.576  39.564  1.00  0.00    -0.237 OA
ATOM     83  O   UNL A   1      38.006  31.686  40.811  1.00  0.00    -0.744 OA
ENDBRANCH  76  80
ENDBRANCH  49  73
BRANCH  61  84
ATOM     84  C   UNL A   1      44.288  28.600  35.349  1.00  0.00     0.023 A 
ATOM     85  C   UNL A   1      44.147  27.562  36.284  1.00  0.00     0.031 A 
ATOM     86  C   UNL A   1      45.569  29.140  35.143  1.00  0.00     0.131 A 
ATOM     87  C   UNL A   1      45.260  27.131  37.020  1.00  0.00     0.055 A 
ATOM     88  C   UNL A   1      46.685  28.666  35.833  1.00  0.00     0.041 A 
ATOM     89  F   UNL A   1      45.758  30.134  34.259  1.00  0.00    -0.206 F 
ATOM     90  C   UNL A   1      46.532  27.665  36.787  1.00  0.00     0.022 A 
BRANCH  87  91
ATOM     91  S   UNL A   1      45.010  25.926  38.351  1.00  0.00     0.124 S 
ATOM     92  O   UNL A   1      46.371  25.465  38.603  1.00  0.00    -0.237 OA
ATOM     93  O   UNL A   1      44.407  26.741  39.401  1.00  0.00    -0.237 OA
ATOM     94  O   UNL A   1      44.120  24.933  37.751  1.00  0.00    -0.744 OA
ENDBRANCH  87  91
ENDBRANCH  61  84
ENDBRANCH  35  36
ENDBRANCH  27  30
ENDBRANCH  25  26
ENDBRANCH   1  25
TORSDOF 17
ENDMDL
MODEL 2
REMARK VINA RESULT:     -11.9      1.603      1.932
REMARK SMILES CO[C@@H]1C[C@H](C(=O)NCCCCNC(=O)c2ccc(-c3c4nc(c(-c5cc(S(=O)(=O)[O-])ccc5F)c5ccc([nH]5)c(-c5cc(S(=O)(=O)[O-])ccc5F)c5nc(c(-c6cc(S(=O)(=O)[O-])ccc6F)c6ccc3[nH]6)C=C5)C=C4)cc2)N(C(=O)c2ccn(C)c(=O)c2)C1
REMARK SMILES IDX 11 1 10 2 9 3 8 4 6 5 7 6 5 8 3 9 4 10 90 11 79 12 2 13 1 14
REMARK SMILES IDX 80 15 81 16 82 17 83 18 89 19 84 20 87 21 85 22 88 23 86 24
REMARK SMILES IDX 12 25 13 26 14 27 15 29 16 30 17 31 78 32 18 33 77 34 19 35
REMARK SMILES IDX 20 36 21 37 71 38 22 39 76 40 70 41 72 42 23 43 75 44 69 45
REMARK SMILES IDX 68 46 24 48 56 49 36 50 55 51 37 52 40 53 54 54 73 55 38 56
REMARK SMILES IDX 39 57 53 59 74 60 41 61 25 62 26 63 34 64 27 65 33 66 35 67
REMARK SMILES IDX 32 68 28 69 29 70 30 71 31 72 57 73 58 74 66 75 59 76 65 77
REMARK SMILES IDX 67 78 64 79 60 80 61 81 62 82 63 83 42 84 43 85 51 86 44 87
REMARK SMILES IDX 50 88 52 89 49 90 45 91 46 92 47 93 48 94
REMARK H PARENT 8 7 13 28 72 47 40 58
REMARK Flexibility Score: inf
ROOT
ATOM      1  C   UNL A   1      32.132  31.209  26.851  1.00  0.00     0.023 C 
ENDROOT
BRANCH   1   2
ATOM      2  C   UNL A   1      32.289  29.746  27.245  1.00  0.00     0.023 C 
BRANCH   2   3
ATOM      3  C   UNL A   1      33.477  29.009  26.617  1.00  0.00     0.116 C 
BRANCH   3   4
ATOM      4  N   UNL A   1      33.652  29.369  25.224  1.00  0.00    -0.354 N 
ATOM      5  C   UNL A   1      33.309  28.784  24.052  1.00  0.00     0.242 C 
ATOM      6  O   UNL A   1      33.778  29.326  23.039  1.00  0.00    -0.273 OA
ATOM      7  H   UNL A   1      34.123  30.226  25.104  1.00  0.00     0.163 HD
BRANCH   5   8
ATOM      8  C   UNL A   1      32.503  27.473  23.860  1.00  0.00     0.177 C 
ATOM      9  C   UNL A   1      30.203  27.868  23.288  1.00  0.00     0.139 C 
ATOM     10  C   UNL A   1      31.107  27.517  24.469  1.00  0.00     0.069 C 
ATOM     11  C   UNL A   1      30.896  27.179  22.092  1.00  0.00     0.152 C 
ATOM     12  N   UNL A   1      32.257  26.883  22.546  1.00  0.00    -0.324 N 
BRANCH   9  13
ATOM     13  O   UNL A   1      30.097  29.267  23.056  1.00  0.00    -0.380 OA
ATOM     14  C   UNL A   1      28.764  29.773  23.075  1.00  0.00     0.195 C 
ENDBRANCH   9  13
BRANCH  12  15
ATOM     15  C   UNL A   1      32.919  25.792  22.005  1.00  0.00     0.254 C 
ATOM     16  O   UNL A   1      33.332  25.750  20.851  1.00  0.00    -0.269 OA
BRANCH  15  17
ATOM     17  C   UNL A   1      32.912  24.555  22.839  1.00  0.00     0.046 A 
ATOM     18  C   UNL A   1      31.712  23.827  23.157  1.00  0.00     0.032 A 
ATOM     19  C   UNL A   1      34.115  24.115  23.241  1.00  0.00     0.085 A 
ATOM     20  C   UNL A   1      31.809  22.649  23.791  1.00  0.00     0.089 A 
ATOM     21  C   UNL A   1      34.234  22.805  23.923  1.00  0.00     0.251 A 
ATOM     22  N   UNL A   1      33.041  22.124  24.150  1.00  0.00    -0.319 N 
ATOM     23  O   UNL A   1      35.353  22.393  24.217  1.00  0.00    -0.269 OA
ATOM     24  C   UNL A   1      33.088  20.820  24.793  1.00  0.00     0.153 C 
ENDBRANCH  15  17
ENDBRANCH  12  15
ENDBRANCH   5   8
ENDBRANCH   3   4
ENDBRANCH   2   3
ENDBRANCH   1   2
BRANCH   1  25
ATOM     25  C   UNL A   1      33.222  32.122  27.380  1.00  0.00     0.116 C 
BRANCH  25  26
ATOM     26  N   UNL A   1      32.770  33.494  27.570  1.00  0.00    -0.352 N 
ATOM     27  C   UNL A   1      33.183  34.412  28.511  1.00  0.00     0.251 C 
ATOM     28  H   UNL A   1      32.079  33.807  26.943  1.00  0.00     0.163 HD
ATOM     29  O   UNL A   1      32.603  35.480  28.636  1.00  0.00    -0.269 OA
BRANCH  27  30
ATOM     30  C   UNL A   1      34.316  34.054  29.387  1.00  0.00     0.039 A 
ATOM     31  C   UNL A   1      34.079  33.322  30.552  1.00  0.00     0.014 A 
ATOM     32  C   UNL A   1      35.620  34.361  28.990  1.00  0.00     0.014 A 
ATOM     33  C   UNL A   1      35.162  32.823  31.277  1.00  0.00     0.010 A 
ATOM     34  C   UNL A   1      36.687  33.773  29.651  1.00  0.00     0.010 A 
ATOM     35  C   UNL A   1      36.472  33.005  30.805  1.00  0.00    -0.014 A 
BRANCH  35  36
ATOM     36  C   UNL A   1      37.648  32.430  31.507  1.00  0.00     0.031 A 
ATOM     37  C   UNL A   1      38.431  31.331  30.839  1.00  0.00     0.074 A 
ATOM     38  C   UNL A   1      37.934  32.815  32.767  1.00  0.00     0.049 A 
ATOM     39  N   UNL A   1      39.388  30.584  31.323  1.00  0.00    -0.248 NA
ATOM     40  C   UNL A   1      38.048  30.995  29.458  1.00  0.00     0.031 C 
ATOM     41  C   UNL A   1      37.199  33.824  33.535  1.00  0.00     0.029 A 
ATOM     42  N   UNL A   1      38.908  32.390  33.634  1.00  0.00    -0.354 N 
ATOM     43  C   UNL A   1      39.688  29.665  30.323  1.00  0.00     0.074 A 
ATOM     44  C   UNL A   1      38.772  29.910  29.232  1.00  0.00     0.031 C 
ATOM     45  C   UNL A   1      37.759  33.951  34.749  1.00  0.00     0.029 A 
ATOM     46  C   UNL A   1      38.863  33.003  34.866  1.00  0.00     0.049 A 
ATOM     47  H   UNL A   1      39.579  31.709  33.398  1.00  0.00     0.167 HD
ATOM     48  C   UNL A   1      40.658  28.718  30.310  1.00  0.00     0.034 A 
ATOM     49  C   UNL A   1      39.616  32.809  35.968  1.00  0.00     0.034 A 
ATOM     50  C   UNL A   1      41.595  28.532  31.387  1.00  0.00     0.049 A 
ATOM     51  C   UNL A   1      40.718  31.780  35.910  1.00  0.00     0.074 A 
ATOM     52  C   UNL A   1      42.683  27.680  31.445  1.00  0.00     0.029 A 
ATOM     53  N   UNL A   1      41.555  29.213  32.599  1.00  0.00    -0.354 N 
ATOM     54  N   UNL A   1      41.041  30.971  34.926  1.00  0.00    -0.248 NA
ATOM     55  C   UNL A   1      41.564  31.646  37.102  1.00  0.00     0.031 C 
ATOM     56  C   UNL A   1      43.262  27.799  32.713  1.00  0.00     0.029 A 
ATOM     57  C   UNL A   1      42.581  28.777  33.421  1.00  0.00     0.049 A 
ATOM     58  H   UNL A   1      40.893  29.901  32.837  1.00  0.00     0.167 HD
ATOM     59  C   UNL A   1      42.147  30.253  35.373  1.00  0.00     0.074 A 
ATOM     60  C   UNL A   1      42.446  30.741  36.704  1.00  0.00     0.031 C 
ATOM     61  C   UNL A   1      42.855  29.280  34.746  1.00  0.00     0.034 A 
BRANCH  48  62
ATOM     62  C   UNL A   1      40.736  27.810  29.106  1.00  0.00     0.023 A 
ATOM     63  C   UNL A   1      41.671  28.018  28.077  1.00  0.00     0.031 A 
ATOM     64  C   UNL A   1      39.846  26.730  28.976  1.00  0.00     0.131 A 
ATOM     65  C   UNL A   1      41.646  27.207  26.933  1.00  0.00     0.055 A 
ATOM     66  C   UNL A   1      39.880  25.875  27.873  1.00  0.00     0.041 A 
ATOM     67  F   UNL A   1      38.916  26.493  29.916  1.00  0.00    -0.206 F 
ATOM     68  C   UNL A   1      40.775  26.120  26.836  1.00  0.00     0.022 A 
BRANCH  65  69
ATOM     69  S   UNL A   1      42.681  27.672  25.518  1.00  0.00     0.124 S 
ATOM     70  O   UNL A   1      41.971  28.843  25.008  1.00  0.00    -0.237 OA
ATOM     71  O   UNL A   1      43.973  27.930  26.142  1.00  0.00    -0.237 OA
ATOM     72  O   UNL A   1      42.629  26.495  24.654  1.00  0.00    -0.744 OA
ENDBRANCH  65  69
ENDBRANCH  48  62
BRANCH  49  73
ATOM     73  C   UNL A   1      39.358  33.583  37.218  1.00  0.00     0.023 A 
ATOM     74  C   UNL A   1      40.025  34.792  37.474  1.00  0.00     0.031 A 
ATOM     75  C   UNL A   1      38.482  33.096  38.205  1.00  0.00     0.131 A 
ATOM     76  C   UNL A   1      39.854  35.442  38.706  1.00  0.00     0.055 A 
ATOM     77  C   UNL A   1      38.270  33.776  39.406  1.00  0.00     0.041 A 
ATOM     78  F   UNL A   1      37.811  31.949  38.013  1.00  0.00    -0.206 F 
ATOM     79  C   UNL A   1      38.972  34.949  39.670  1.00  0.00     0.022 A 
BRANCH  76  80
ATOM     80  S   UNL A   1      40.883  36.891  39.075  1.00  0.00     0.124 S 
ATOM     81  O   UNL A   1      39.890  37.959  39.113  1.00  0.00    -0.237 OA
ATOM     82  O   UNL A   1      41.477  36.520  40.355  1.00  0.00    -0.237 OA
ATOM     83  O   UNL A   1      41.812  36.942  37.949  1.00  0.00    -0.744 OA
ENDBRANCH  76  80
ENDBRANCH  49  73
BRANCH  61  84
ATOM     84  C   UNL A   1      44.044  28.718  35.482  1.00  0.00     0.023 A 
ATOM     85  C   UNL A   1      43.920  27.626  36.357  1.00  0.00     0.031 A 
ATOM     86  C   UNL A   1      45.317  29.287  35.306  1.00  0.00     0.131 A 
ATOM     87  C   UNL A   1      45.040  27.171  37.067  1.00  0.00     0.055 A 
ATOM     88  C   UNL A   1      46.440  28.791  35.968  1.00  0.00     0.041 A 
ATOM     89  F   UNL A   1      45.490  30.333  34.481  1.00  0.00    -0.206 F 
ATOM     90  C   UNL A   1      46.303  27.735  36.863  1.00  0.00     0.022 A 
BRANCH  87  91
ATOM     91  S   UNL A   1      44.809  25.889  38.326  1.00  0.00     0.124 S 
ATOM     92  O   UNL A   1      44.285  26.658  39.450  1.00  0.00    -0.237 OA
ATOM     93  O   UNL A   1      43.866  24.982  37.679  1.00  0.00    -0.237 OA
ATOM     94  O   UNL A   1      46.154  25.349  38.518  1.00  0.00    -0.744 OA
ENDBRANCH  87  91
ENDBRANCH  61  84
ENDBRANCH  35  36
ENDBRANCH  27  30
ENDBRANCH  25  26
ENDBRANCH   1  25
TORSDOF 17
ENDMDL
MODEL 3
REMARK VINA RESULT:     -11.9      1.346      3.265
REMARK SMILES CO[C@@H]1C[C@H](C(=O)NCCCCNC(=O)c2ccc(-c3c4nc(c(-c5cc(S(=O)(=O)[O-])ccc5F)c5ccc([nH]5)c(-c5cc(S(=O)(=O)[O-])ccc5F)c5nc(c(-c6cc(S(=O)(=O)[O-])ccc6F)c6ccc3[nH]6)C=C5)C=C4)cc2)N(C(=O)c2ccn(C)c(=O)c2)C1
REMARK SMILES IDX 11 1 10 2 9 3 8 4 6 5 7 6 5 8 3 9 4 10 90 11 79 12 2 13 1 14
REMARK SMILES IDX 80 15 81 16 82 17 83 18 89 19 84 20 87 21 85 22 88 23 86 24
REMARK SMILES IDX 12 25 13 26 14 27 15 29 16 30 17 31 78 32 18 33 77 34 19 35
REMARK SMILES IDX 20 36 21 37 71 38 22 39 76 40 70 41 72 42 23 43 75 44 69 45
REMARK SMILES IDX 68 46 24 48 56 49 36 50 55 51 37 52 40 53 54 54 73 55 38 56
REMARK SMILES IDX 39 57 53 59 74 60 41 61 25 62 26 63 34 64 27 65 33 66 35 67
REMARK SMILES IDX 32 68 28 69 29 70 30 71 31 72 57 73 58 74 66 75 59 76 65 77
REMARK SMILES IDX 67 78 64 79 60 80 61 81 62 82 63 83 42 84 43 85 51 86 44 87
REMARK SMILES IDX 50 88 52 89 49 90 45 91 46 92 47 93 48 94
REMARK H PARENT 8 7 13 28 72 47 40 58
REMARK Flexibility Score: inf
ROOT
ATOM      1  C   UNL A   1      32.112  30.790  27.093  1.00  0.00     0.023 C 
ENDROOT
BRANCH   1   2
ATOM      2  C   UNL A   1      32.506  29.504  26.378  1.00  0.00     0.023 C 
BRANCH   2   3
ATOM      3  C   UNL A   1      32.729  28.282  27.276  1.00  0.00     0.116 C 
BRANCH   3   4
ATOM      4  N   UNL A   1      31.610  27.363  27.212  1.00  0.00    -0.354 N 
ATOM      5  C   UNL A   1      31.149  26.506  26.271  1.00  0.00     0.242 C 
ATOM      6  O   UNL A   1      30.048  25.992  26.524  1.00  0.00    -0.273 OA
ATOM      7  H   UNL A   1      31.066  27.361  28.034  1.00  0.00     0.163 HD
BRANCH   5   8
ATOM      8  C   UNL A   1      31.787  26.198  24.892  1.00  0.00     0.177 C 
ATOM      9  C   UNL A   1      31.956  23.842  24.448  1.00  0.00     0.139 C 
ATOM     10  C   UNL A   1      32.778  25.041  24.920  1.00  0.00     0.069 C 
ATOM     11  C   UNL A   1      30.970  24.464  23.436  1.00  0.00     0.152 C 
ATOM     12  N   UNL A   1      30.992  25.905  23.701  1.00  0.00    -0.324 N 
BRANCH   9  13
ATOM     13  O   UNL A   1      31.244  23.199  25.497  1.00  0.00    -0.380 OA
ATOM     14  C   UNL A   1      32.056  22.753  26.581  1.00  0.00     0.195 C 
ENDBRANCH   9  13
BRANCH  12  15
ATOM     15  C   UNL A   1      30.732  26.781  22.659  1.00  0.00     0.254 C 
ATOM     16  O   UNL A   1      31.257  26.698  21.553  1.00  0.00    -0.269 OA
BRANCH  15  17
ATOM     17  C   UNL A   1      29.934  27.990  23.016  1.00  0.00     0.046 A 
ATOM     18  C   UNL A   1      30.522  29.288  23.218  1.00  0.00     0.032 A 
ATOM     19  C   UNL A   1      28.606  27.813  23.086  1.00  0.00     0.085 A 
ATOM     20  C   UNL A   1      29.721  30.349  23.396  1.00  0.00     0.089 A 
ATOM     21  C   UNL A   1      27.712  28.981  23.261  1.00  0.00     0.251 A 
ATOM     22  N   UNL A   1      28.340  30.217  23.394  1.00  0.00    -0.319 N 
ATOM     23  O   UNL A   1      26.497  28.801  23.250  1.00  0.00    -0.269 OA
ATOM     24  C   UNL A   1      27.521  31.410  23.543  1.00  0.00     0.153 C 
ENDBRANCH  15  17
ENDBRANCH  12  15
ENDBRANCH   5   8
ENDBRANCH   3   4
ENDBRANCH   2   3
ENDBRANCH   1   2
BRANCH   1  25
ATOM     25  C   UNL A   1      33.275  31.709  27.416  1.00  0.00     0.116 C 
BRANCH  25  26
ATOM     26  N   UNL A   1      32.878  33.107  27.525  1.00  0.00    -0.352 N 
ATOM     27  C   UNL A   1      33.333  34.062  28.409  1.00  0.00     0.251 C 
ATOM     28  H   UNL A   1      32.197  33.410  26.883  1.00  0.00     0.163 HD
ATOM     29  O   UNL A   1      32.796  35.158  28.472  1.00  0.00    -0.269 OA
BRANCH  27  30
ATOM     30  C   UNL A   1      34.456  33.711  29.301  1.00  0.00     0.039 A 
ATOM     31  C   UNL A   1      34.240  32.832  30.363  1.00  0.00     0.014 A 
ATOM     32  C   UNL A   1      35.740  34.180  29.012  1.00  0.00     0.014 A 
ATOM     33  C   UNL A   1      35.334  32.354  31.086  1.00  0.00     0.010 A 
ATOM     34  C   UNL A   1      36.829  33.621  29.661  1.00  0.00     0.010 A 
ATOM     35  C   UNL A   1      36.640  32.709  30.710  1.00  0.00    -0.014 A 
BRANCH  35  36
ATOM     36  C   UNL A   1      37.834  32.168  31.408  1.00  0.00     0.031 A 
ATOM     37  C   UNL A   1      38.646  31.092  30.737  1.00  0.00     0.074 A 
ATOM     38  C   UNL A   1      38.114  32.561  32.667  1.00  0.00     0.049 A 
ATOM     39  N   UNL A   1      39.625  30.372  31.217  1.00  0.00    -0.248 NA
ATOM     40  C   UNL A   1      38.267  30.745  29.357  1.00  0.00     0.031 C 
ATOM     41  C   UNL A   1      37.353  33.548  33.438  1.00  0.00     0.029 A 
ATOM     42  N   UNL A   1      39.102  32.164  33.531  1.00  0.00    -0.354 N 
ATOM     43  C   UNL A   1      39.948  29.462  30.216  1.00  0.00     0.074 A 
ATOM     44  C   UNL A   1      39.021  29.681  29.128  1.00  0.00     0.031 C 
ATOM     45  C   UNL A   1      37.914  33.691  34.650  1.00  0.00     0.029 A 
ATOM     46  C   UNL A   1      39.044  32.775  34.762  1.00  0.00     0.049 A 
ATOM     47  H   UNL A   1      39.792  31.502  33.292  1.00  0.00     0.167 HD
ATOM     48  C   UNL A   1      40.943  28.543  30.199  1.00  0.00     0.034 A 
ATOM     49  C   UNL A   1      39.806  32.603  35.861  1.00  0.00     0.034 A 
ATOM     50  C   UNL A   1      41.889  28.384  31.273  1.00  0.00     0.049 A 
ATOM     51  C   UNL A   1      40.938  31.605  35.800  1.00  0.00     0.074 A 
ATOM     52  C   UNL A   1      43.001  27.563  31.327  1.00  0.00     0.029 A 
ATOM     53  N   UNL A   1      41.834  29.063  32.485  1.00  0.00    -0.354 N 
ATOM     54  N   UNL A   1      41.280  30.806  34.814  1.00  0.00    -0.248 NA
ATOM     55  C   UNL A   1      41.791  31.496  36.989  1.00  0.00     0.031 C 
ATOM     56  C   UNL A   1      43.582  27.699  32.593  1.00  0.00     0.029 A 
ATOM     57  C   UNL A   1      42.876  28.657  33.303  1.00  0.00     0.049 A 
ATOM     58  H   UNL A   1      41.155  29.732  32.726  1.00  0.00     0.167 HD
ATOM     59  C   UNL A   1      42.407  30.120  35.257  1.00  0.00     0.074 A 
ATOM     60  C   UNL A   1      42.697  30.616  36.587  1.00  0.00     0.031 C 
ATOM     61  C   UNL A   1      43.140  29.167  34.627  1.00  0.00     0.034 A 
BRANCH  48  62
ATOM     62  C   UNL A   1      41.044  27.638  28.995  1.00  0.00     0.023 A 
ATOM     63  C   UNL A   1      42.035  27.811  28.014  1.00  0.00     0.031 A 
ATOM     64  C   UNL A   1      40.117  26.596  28.816  1.00  0.00     0.131 A 
ATOM     65  C   UNL A   1      42.033  27.007  26.865  1.00  0.00     0.055 A 
ATOM     66  C   UNL A   1      40.170  25.745  27.710  1.00  0.00     0.041 A 
ATOM     67  F   UNL A   1      39.134  26.394  29.707  1.00  0.00    -0.206 F 
ATOM     68  C   UNL A   1      41.124  25.957  26.719  1.00  0.00     0.022 A 
BRANCH  65  69
ATOM     69  S   UNL A   1      43.154  27.435  25.505  1.00  0.00     0.124 S 
ATOM     70  O   UNL A   1      42.241  28.082  24.565  1.00  0.00    -0.237 OA
ATOM     71  O   UNL A   1      44.123  28.308  26.157  1.00  0.00    -0.237 OA
ATOM     72  O   UNL A   1      43.673  26.141  25.068  1.00  0.00    -0.744 OA
ENDBRANCH  65  69
ENDBRANCH  48  62
BRANCH  49  73
ATOM     73  C   UNL A   1      39.531  33.368  37.113  1.00  0.00     0.023 A 
ATOM     74  C   UNL A   1      38.755  32.817  38.145  1.00  0.00     0.031 A 
ATOM     75  C   UNL A   1      39.993  34.688  37.273  1.00  0.00     0.131 A 
ATOM     76  C   UNL A   1      38.412  33.597  39.261  1.00  0.00     0.055 A 
ATOM     77  C   UNL A   1      39.698  35.441  38.412  1.00  0.00     0.041 A 
ATOM     78  F   UNL A   1      40.746  35.265  36.324  1.00  0.00    -0.206 F 
ATOM     79  C   UNL A   1      38.889  34.901  39.407  1.00  0.00     0.022 A 
BRANCH  76  80
ATOM     80  S   UNL A   1      37.246  32.916  40.473  1.00  0.00     0.124 S 
ATOM     81  O   UNL A   1      38.056  31.889  41.119  1.00  0.00    -0.237 OA
ATOM     82  O   UNL A   1      36.932  34.089  41.281  1.00  0.00    -0.237 OA
ATOM     83  O   UNL A   1      36.150  32.417  39.645  1.00  0.00    -0.744 OA
ENDBRANCH  76  80
ENDBRANCH  49  73
BRANCH  61  84
ATOM     84  C   UNL A   1      44.347  28.639  35.359  1.00  0.00     0.023 A 
ATOM     85  C   UNL A   1      44.243  27.600  36.298  1.00  0.00     0.031 A 
ATOM     86  C   UNL A   1      45.618  29.188  35.113  1.00  0.00     0.131 A 
ATOM     87  C   UNL A   1      45.381  27.178  37.000  1.00  0.00     0.055 A 
ATOM     88  C   UNL A   1      46.757  28.722  35.769  1.00  0.00     0.041 A 
ATOM     89  F   UNL A   1      45.772  30.183  34.224  1.00  0.00    -0.206 F 
ATOM     90  C   UNL A   1      46.641  27.720  36.727  1.00  0.00     0.022 A 
BRANCH  87  91
ATOM     91  S   UNL A   1      45.180  25.971  38.337  1.00  0.00     0.124 S 
ATOM     92  O   UNL A   1      44.394  24.927  37.688  1.00  0.00    -0.237 OA
ATOM     93  O   UNL A   1      46.562  25.625  38.656  1.00  0.00    -0.237 OA
ATOM     94  O   UNL A   1      44.475  26.723  39.374  1.00  0.00    -0.744 OA
ENDBRANCH  87  91
ENDBRANCH  61  84
ENDBRANCH  35  36
ENDBRANCH  27  30
ENDBRANCH  25  26
ENDBRANCH   1  25
TORSDOF 17
ENDMDL
