MODEL 1
REMARK VINA RESULT:     -10.9      0.000      0.000
REMARK SMILES CC(C)[C@@H](CCNC(=O)N1C[C@@H](C)[C@H](C)C1)CCC(=O)NCCCCNC(=O)c1ccc(-c2c3nc(c(-c4cc(S(=O)(=O)[O-])ccc4F)c4ccc([nH]4)c(-c4cc(S(=O)(=O)[O-])ccc4F)c4nc(c(-c5cc(S(=O)(=O)[O-])ccc5F)c5ccc2[nH]5)C=C4)C=C3)cc1
REMARK SMILES IDX 22 1 21 2 19 3 20 4 18 6 17 7 4 8 2 9 1 10 3 11 5 12 6 13
REMARK SMILES IDX 7 14 8 15 9 17 10 18 11 19 16 20 12 21 14 22 13 23 15 24
REMARK SMILES IDX 23 25 24 26 25 27 26 28 27 29 28 31 29 32 30 33 91 34 31 35
REMARK SMILES IDX 90 36 32 37 33 38 34 39 84 40 35 41 89 42 83 43 85 44 36 45
REMARK SMILES IDX 88 46 82 47 81 48 37 50 69 51 49 52 68 53 50 54 53 55 67 56
REMARK SMILES IDX 86 57 51 58 52 59 66 61 87 62 54 63 38 64 39 65 47 66 40 67
REMARK SMILES IDX 46 68 48 69 45 70 41 71 42 72 43 73 44 74 70 75 71 76 79 77
REMARK SMILES IDX 72 78 78 79 80 80 77 81 73 82 74 83 75 84 76 85 55 86 56 87
REMARK SMILES IDX 64 88 57 89 63 90 65 91 62 92 58 93 59 94 60 95 61 96
REMARK H PARENT 21 5 7 16 26 30 85 49 53 60
REMARK Flexibility Score: inf
ROOT
ATOM      1  C   UNL A   1      36.760  21.382  25.326  1.00  0.00     0.116 C 
ENDROOT
BRANCH   1   2
ATOM      2  N   UNL A   1      36.991  22.144  24.111  1.00  0.00    -0.356 N 
ATOM      3  C   UNL A   1      36.259  23.130  23.521  1.00  0.00     0.220 C 
ATOM      4  O   UNL A   1      36.604  23.516  22.403  1.00  0.00    -0.275 OA
ATOM      5  H   UNL A   1      37.818  21.908  23.631  1.00  0.00     0.163 HD
BRANCH   3   6
ATOM      6  C   UNL A   1      35.087  23.785  24.238  1.00  0.00     0.100 C 
BRANCH   6   7
ATOM      7  C   UNL A   1      33.766  23.857  23.448  1.00  0.00     0.014 C 
BRANCH   7   8
ATOM      8  C   UNL A   1      32.960  22.538  23.402  1.00  0.00    -0.006 C 
BRANCH   8   9
ATOM      9  C   UNL A   1      33.208  21.506  24.544  1.00  0.00    -0.014 C 
ATOM     10  C   UNL A   1      32.313  21.824  25.755  1.00  0.00     0.007 C 
ATOM     11  C   UNL A   1      32.983  20.041  24.172  1.00  0.00     0.007 C 
ENDBRANCH   8   9
BRANCH   8  12
ATOM     12  C   UNL A   1      31.454  22.787  23.118  1.00  0.00     0.025 C 
BRANCH  12  13
ATOM     13  C   UNL A   1      30.957  24.234  23.153  1.00  0.00     0.118 C 
BRANCH  13  14
ATOM     14  N   UNL A   1      30.335  24.564  24.415  1.00  0.00    -0.338 N 
ATOM     15  C   UNL A   1      30.695  25.516  25.311  1.00  0.00     0.317 C 
ATOM     16  H   UNL A   1      29.545  24.029  24.657  1.00  0.00     0.165 HD
ATOM     17  O   UNL A   1      30.462  25.297  26.500  1.00  0.00    -0.249 OA
ATOM     18  N   UNL A   1      31.284  26.667  24.874  1.00  0.00    -0.324 N 
ATOM     19  C   UNL A   1      31.929  27.574  25.799  1.00  0.00     0.125 C 
ATOM     20  C   UNL A   1      31.050  27.330  23.601  1.00  0.00     0.125 C 
ATOM     21  C   UNL A   1      31.402  28.946  25.398  1.00  0.00     0.010 C 
ATOM     22  C   UNL A   1      31.186  28.834  23.876  1.00  0.00     0.010 C 
ATOM     23  C   UNL A   1      32.360  30.066  25.773  1.00  0.00     0.010 C 
ATOM     24  C   UNL A   1      29.959  29.610  23.410  1.00  0.00     0.010 C 
ENDBRANCH  13  14
ENDBRANCH  12  13
ENDBRANCH   8  12
ENDBRANCH   7   8
ENDBRANCH   6   7
ENDBRANCH   3   6
ENDBRANCH   1   2
BRANCH   1  25
ATOM     25  C   UNL A   1      36.663  19.884  25.001  1.00  0.00     0.023 C 
BRANCH  25  26
ATOM     26  C   UNL A   1      37.995  19.145  25.002  1.00  0.00     0.023 C 
BRANCH  26  27
ATOM     27  C   UNL A   1      39.095  19.881  25.751  1.00  0.00     0.116 C 
BRANCH  27  28
ATOM     28  N   UNL A   1      40.269  19.066  26.038  1.00  0.00    -0.352 N 
ATOM     29  C   UNL A   1      41.509  19.495  26.468  1.00  0.00     0.251 C 
ATOM     30  H   UNL A   1      40.167  18.095  25.909  1.00  0.00     0.163 HD
ATOM     31  O   UNL A   1      42.430  18.707  26.599  1.00  0.00    -0.269 OA
BRANCH  29  32
ATOM     32  C   UNL A   1      41.700  20.945  26.700  1.00  0.00     0.039 A 
ATOM     33  C   UNL A   1      41.908  21.399  28.003  1.00  0.00     0.014 A 
ATOM     34  C   UNL A   1      41.787  21.824  25.619  1.00  0.00     0.014 A 
ATOM     35  C   UNL A   1      42.283  22.728  28.211  1.00  0.00     0.010 A 
ATOM     36  C   UNL A   1      42.262  23.113  25.821  1.00  0.00     0.010 A 
ATOM     37  C   UNL A   1      42.505  23.584  27.119  1.00  0.00    -0.014 A 
BRANCH  37  38
ATOM     38  C   UNL A   1      42.957  24.985  27.317  1.00  0.00     0.031 A 
ATOM     39  C   UNL A   1      42.031  25.982  27.960  1.00  0.00     0.074 A 
ATOM     40  C   UNL A   1      44.167  25.371  26.867  1.00  0.00     0.049 A 
ATOM     41  N   UNL A   1      42.213  27.257  28.187  1.00  0.00    -0.248 NA
ATOM     42  C   UNL A   1      40.704  25.487  28.359  1.00  0.00     0.031 C 
ATOM     43  C   UNL A   1      45.121  24.515  26.155  1.00  0.00     0.029 A 
ATOM     44  N   UNL A   1      44.805  26.583  26.940  1.00  0.00    -0.354 N 
ATOM     45  C   UNL A   1      41.018  27.718  28.733  1.00  0.00     0.074 A 
ATOM     46  C   UNL A   1      40.096  26.604  28.721  1.00  0.00     0.031 C 
ATOM     47  C   UNL A   1      46.235  25.219  25.895  1.00  0.00     0.029 A 
ATOM     48  C   UNL A   1      46.067  26.580  26.393  1.00  0.00     0.049 A 
ATOM     49  H   UNL A   1      44.397  27.382  27.347  1.00  0.00     0.167 HD
ATOM     50  C   UNL A   1      40.729  28.943  29.236  1.00  0.00     0.034 A 
ATOM     51  C   UNL A   1      46.986  27.563  26.312  1.00  0.00     0.034 A 
ATOM     52  C   UNL A   1      41.674  30.032  29.269  1.00  0.00     0.049 A 
ATOM     53  C   UNL A   1      46.661  28.906  26.915  1.00  0.00     0.074 A 
ATOM     54  C   UNL A   1      41.518  31.297  29.806  1.00  0.00     0.029 A 
ATOM     55  N   UNL A   1      42.960  29.979  28.745  1.00  0.00    -0.354 N 
ATOM     56  N   UNL A   1      45.550  29.307  27.493  1.00  0.00    -0.248 NA
ATOM     57  C   UNL A   1      47.720  29.920  26.876  1.00  0.00     0.031 C 
ATOM     58  C   UNL A   1      42.689  32.025  29.561  1.00  0.00     0.029 A 
ATOM     59  C   UNL A   1      43.601  31.194  28.930  1.00  0.00     0.049 A 
ATOM     60  H   UNL A   1      43.358  29.194  28.305  1.00  0.00     0.167 HD
ATOM     61  C   UNL A   1      45.791  30.612  27.910  1.00  0.00     0.074 A 
ATOM     62  C   UNL A   1      47.159  30.919  27.539  1.00  0.00     0.031 C 
ATOM     63  C   UNL A   1      44.961  31.483  28.543  1.00  0.00     0.034 A 
BRANCH  50  64
ATOM     64  C   UNL A   1      39.332  29.155  29.773  1.00  0.00     0.023 A 
ATOM     65  C   UNL A   1      38.358  29.850  29.032  1.00  0.00     0.031 A 
ATOM     66  C   UNL A   1      38.985  28.713  31.060  1.00  0.00     0.131 A 
ATOM     67  C   UNL A   1      37.126  30.170  29.620  1.00  0.00     0.055 A 
ATOM     68  C   UNL A   1      37.721  28.953  31.605  1.00  0.00     0.041 A 
ATOM     69  F   UNL A   1      39.876  28.062  31.824  1.00  0.00    -0.206 F 
ATOM     70  C   UNL A   1      36.789  29.703  30.892  1.00  0.00     0.022 A 
BRANCH  67  71
ATOM     71  S   UNL A   1      36.039  31.343  28.763  1.00  0.00     0.124 S 
ATOM     72  O   UNL A   1      35.047  31.631  29.796  1.00  0.00    -0.237 OA
ATOM     73  O   UNL A   1      36.949  32.432  28.429  1.00  0.00    -0.237 OA
ATOM     74  O   UNL A   1      35.537  30.576  27.625  1.00  0.00    -0.744 OA
ENDBRANCH  67  71
ENDBRANCH  50  64
BRANCH  51  75
ATOM     75  C   UNL A   1      48.307  27.319  25.664  1.00  0.00     0.023 A 
ATOM     76  C   UNL A   1      48.477  27.497  24.282  1.00  0.00     0.031 A 
ATOM     77  C   UNL A   1      49.406  26.861  26.411  1.00  0.00     0.131 A 
ATOM     78  C   UNL A   1      49.701  27.171  23.678  1.00  0.00     0.055 A 
ATOM     79  C   UNL A   1      50.637  26.582  25.813  1.00  0.00     0.041 A 
ATOM     80  F   UNL A   1      49.301  26.685  27.737  1.00  0.00    -0.206 F 
ATOM     81  C   UNL A   1      50.785  26.724  24.437  1.00  0.00     0.022 A 
BRANCH  78  82
ATOM     82  S   UNL A   1      49.831  27.264  21.872  1.00  0.00     0.124 S 
ATOM     83  O   UNL A   1      49.561  28.675  21.625  1.00  0.00    -0.237 OA
ATOM     84  O   UNL A   1      51.203  26.822  21.645  1.00  0.00    -0.237 OA
ATOM     85  O   UNL A   1      48.797  26.339  21.409  1.00  0.00    -0.744 OA
ENDBRANCH  78  82
ENDBRANCH  51  75
BRANCH  63  86
ATOM     86  C   UNL A   1      45.536  32.830  28.901  1.00  0.00     0.023 A 
ATOM     87  C   UNL A   1      45.417  33.934  28.040  1.00  0.00     0.031 A 
ATOM     88  C   UNL A   1      46.241  33.001  30.105  1.00  0.00     0.131 A 
ATOM     89  C   UNL A   1      46.053  35.143  28.362  1.00  0.00     0.055 A 
ATOM     90  C   UNL A   1      46.817  34.224  30.451  1.00  0.00     0.041 A 
ATOM     91  F   UNL A   1      46.386  31.979  30.964  1.00  0.00    -0.206 F 
ATOM     92  C   UNL A   1      46.739  35.298  29.569  1.00  0.00     0.022 A 
BRANCH  89  93
ATOM     93  S   UNL A   1      46.066  36.473  27.129  1.00  0.00     0.124 S 
ATOM     94  O   UNL A   1      44.752  36.326  26.510  1.00  0.00    -0.237 OA
ATOM     95  O   UNL A   1      46.253  37.661  27.955  1.00  0.00    -0.237 OA
ATOM     96  O   UNL A   1      47.198  36.130  26.269  1.00  0.00    -0.744 OA
ENDBRANCH  89  93
ENDBRANCH  63  86
ENDBRANCH  37  38
ENDBRANCH  29  32
ENDBRANCH  27  28
ENDBRANCH  26  27
ENDBRANCH  25  26
ENDBRANCH   1  25
TORSDOF 20
ENDMDL
MODEL 2
REMARK VINA RESULT:     -10.9      5.006      8.511
REMARK SMILES CC(C)[C@@H](CCNC(=O)N1C[C@@H](C)[C@H](C)C1)CCC(=O)NCCCCNC(=O)c1ccc(-c2c3nc(c(-c4cc(S(=O)(=O)[O-])ccc4F)c4ccc([nH]4)c(-c4cc(S(=O)(=O)[O-])ccc4F)c4nc(c(-c5cc(S(=O)(=O)[O-])ccc5F)c5ccc2[nH]5)C=C4)C=C3)cc1
REMARK SMILES IDX 22 1 21 2 19 3 20 4 18 6 17 7 4 8 2 9 1 10 3 11 5 12 6 13
REMARK SMILES IDX 7 14 8 15 9 17 10 18 11 19 16 20 12 21 14 22 13 23 15 24
REMARK SMILES IDX 23 25 24 26 25 27 26 28 27 29 28 31 29 32 30 33 91 34 31 35
REMARK SMILES IDX 90 36 32 37 33 38 34 39 84 40 35 41 89 42 83 43 85 44 36 45
REMARK SMILES IDX 88 46 82 47 81 48 37 50 69 51 49 52 68 53 50 54 53 55 67 56
REMARK SMILES IDX 86 57 51 58 52 59 66 61 87 62 54 63 38 64 39 65 47 66 40 67
REMARK SMILES IDX 46 68 48 69 45 70 41 71 42 72 43 73 44 74 70 75 71 76 79 77
REMARK SMILES IDX 72 78 78 79 80 80 77 81 73 82 74 83 75 84 76 85 55 86 56 87
REMARK SMILES IDX 64 88 57 89 63 90 65 91 62 92 58 93 59 94 60 95 61 96
REMARK H PARENT 21 5 7 16 26 30 85 49 53 60
REMARK Flexibility Score: inf
ROOT
ATOM      1  C   UNL A   1      32.135  28.378  23.623  1.00  0.00     0.116 C 
ENDROOT
BRANCH   1   2
ATOM      2  N   UNL A   1      32.509  27.820  22.335  1.00  0.00    -0.356 N 
ATOM      3  C   UNL A   1      33.047  26.612  22.006  1.00  0.00     0.220 C 
ATOM      4  O   UNL A   1      33.411  26.440  20.841  1.00  0.00    -0.275 OA
ATOM      5  H   UNL A   1      32.345  28.416  21.568  1.00  0.00     0.163 HD
BRANCH   3   6
ATOM      6  C   UNL A   1      33.144  25.484  23.022  1.00  0.00     0.100 C 
BRANCH   6   7
ATOM      7  C   UNL A   1      31.841  24.708  23.296  1.00  0.00     0.014 C 
BRANCH   7   8
ATOM      8  C   UNL A   1      31.542  24.439  24.788  1.00  0.00    -0.006 C 
BRANCH   8   9
ATOM      9  C   UNL A   1      30.554  25.407  25.507  1.00  0.00    -0.014 C 
ATOM     10  C   UNL A   1      29.616  26.071  24.483  1.00  0.00     0.007 C 
ATOM     11  C   UNL A   1      29.683  24.777  26.594  1.00  0.00     0.007 C 
ENDBRANCH   8   9
BRANCH   8  12
ATOM     12  C   UNL A   1      31.237  22.940  25.060  1.00  0.00     0.025 C 
BRANCH  12  13
ATOM     13  C   UNL A   1      32.268  22.144  25.863  1.00  0.00     0.118 C 
BRANCH  13  14
ATOM     14  N   UNL A   1      33.543  22.068  25.186  1.00  0.00    -0.338 N 
ATOM     15  C   UNL A   1      34.308  20.974  24.947  1.00  0.00     0.317 C 
ATOM     16  H   UNL A   1      33.903  22.922  24.853  1.00  0.00     0.165 HD
ATOM     17  O   UNL A   1      35.529  21.133  24.904  1.00  0.00    -0.249 OA
ATOM     18  N   UNL A   1      33.714  19.761  24.758  1.00  0.00    -0.324 N 
ATOM     19  C   UNL A   1      34.487  18.539  24.778  1.00  0.00     0.125 C 
ATOM     20  C   UNL A   1      32.409  19.520  24.163  1.00  0.00     0.125 C 
ATOM     21  C   UNL A   1      34.005  17.776  23.550  1.00  0.00     0.010 C 
ATOM     22  C   UNL A   1      32.526  18.187  23.412  1.00  0.00     0.010 C 
ATOM     23  C   UNL A   1      34.186  16.273  23.694  1.00  0.00     0.010 C 
ATOM     24  C   UNL A   1      32.098  18.316  21.954  1.00  0.00     0.010 C 
ENDBRANCH  13  14
ENDBRANCH  12  13
ENDBRANCH   8  12
ENDBRANCH   7   8
ENDBRANCH   6   7
ENDBRANCH   3   6
ENDBRANCH   1   2
BRANCH   1  25
ATOM     25  C   UNL A   1      33.391  28.663  24.461  1.00  0.00     0.023 C 
BRANCH  25  26
ATOM     26  C   UNL A   1      33.623  27.693  25.611  1.00  0.00     0.023 C 
BRANCH  26  27
ATOM     27  C   UNL A   1      34.029  28.378  26.908  1.00  0.00     0.116 C 
BRANCH  27  28
ATOM     28  N   UNL A   1      33.650  29.784  26.983  1.00  0.00    -0.352 N 
ATOM     29  C   UNL A   1      34.341  30.811  27.595  1.00  0.00     0.251 C 
ATOM     30  H   UNL A   1      32.803  30.030  26.548  1.00  0.00     0.163 HD
ATOM     31  O   UNL A   1      33.870  31.935  27.646  1.00  0.00    -0.269 OA
BRANCH  29  32
ATOM     32  C   UNL A   1      35.636  30.491  28.239  1.00  0.00     0.039 A 
ATOM     33  C   UNL A   1      35.637  29.756  29.424  1.00  0.00     0.014 A 
ATOM     34  C   UNL A   1      36.835  30.822  27.606  1.00  0.00     0.014 A 
ATOM     35  C   UNL A   1      36.849  29.283  29.933  1.00  0.00     0.010 A 
ATOM     36  C   UNL A   1      38.023  30.261  28.055  1.00  0.00     0.010 A 
ATOM     37  C   UNL A   1      38.046  29.495  29.228  1.00  0.00    -0.014 A 
BRANCH  37  38
ATOM     38  C   UNL A   1      39.338  28.953  29.725  1.00  0.00     0.031 A 
ATOM     39  C   UNL A   1      40.006  29.591  30.912  1.00  0.00     0.074 A 
ATOM     40  C   UNL A   1      39.934  27.934  29.073  1.00  0.00     0.049 A 
ATOM     41  N   UNL A   1      41.150  29.300  31.476  1.00  0.00    -0.248 NA
ATOM     42  C   UNL A   1      39.316  30.741  31.518  1.00  0.00     0.031 C 
ATOM     43  C   UNL A   1      39.422  27.286  27.862  1.00  0.00     0.029 A 
ATOM     44  N   UNL A   1      41.100  27.262  29.338  1.00  0.00    -0.354 N 
ATOM     45  C   UNL A   1      41.324  30.243  32.485  1.00  0.00     0.074 A 
ATOM     46  C   UNL A   1      40.211  31.162  32.395  1.00  0.00     0.031 C 
ATOM     47  C   UNL A   1      40.250  26.286  27.515  1.00  0.00     0.029 A 
ATOM     48  C   UNL A   1      41.363  26.239  28.457  1.00  0.00     0.049 A 
ATOM     49  H   UNL A   1      41.694  27.491  30.089  1.00  0.00     0.167 HD
ATOM     50  C   UNL A   1      42.298  30.314  33.425  1.00  0.00     0.034 A 
ATOM     51  C   UNL A   1      42.383  25.358  28.422  1.00  0.00     0.034 A 
ATOM     52  C   UNL A   1      43.383  29.368  33.518  1.00  0.00     0.049 A 
ATOM     53  C   UNL A   1      43.433  25.427  29.501  1.00  0.00     0.074 A 
ATOM     54  C   UNL A   1      44.393  29.301  34.460  1.00  0.00     0.029 A 
ATOM     55  N   UNL A   1      43.594  28.317  32.634  1.00  0.00    -0.354 N 
ATOM     56  N   UNL A   1      43.547  26.282  30.492  1.00  0.00    -0.248 NA
ATOM     57  C   UNL A   1      44.478  24.398  29.469  1.00  0.00     0.031 C 
ATOM     58  C   UNL A   1      45.243  28.242  34.116  1.00  0.00     0.029 A 
ATOM     59  C   UNL A   1      44.727  27.607  32.998  1.00  0.00     0.049 A 
ATOM     60  H   UNL A   1      43.022  28.107  31.860  1.00  0.00     0.167 HD
ATOM     61  C   UNL A   1      44.662  25.874  31.218  1.00  0.00     0.074 A 
ATOM     62  C   UNL A   1      45.169  24.684  30.562  1.00  0.00     0.031 C 
ATOM     63  C   UNL A   1      45.221  26.429  32.325  1.00  0.00     0.034 A 
BRANCH  50  64
ATOM     64  C   UNL A   1      42.226  31.460  34.407  1.00  0.00     0.023 A 
ATOM     65  C   UNL A   1      41.253  31.497  35.423  1.00  0.00     0.031 A 
ATOM     66  C   UNL A   1      43.098  32.557  34.293  1.00  0.00     0.131 A 
ATOM     67  C   UNL A   1      41.110  32.645  36.216  1.00  0.00     0.055 A 
ATOM     68  C   UNL A   1      43.010  33.658  35.149  1.00  0.00     0.041 A 
ATOM     69  F   UNL A   1      44.034  32.590  33.333  1.00  0.00    -0.206 F 
ATOM     70  C   UNL A   1      41.999  33.716  36.105  1.00  0.00     0.022 A 
BRANCH  67  71
ATOM     71  S   UNL A   1      39.645  32.783  37.276  1.00  0.00     0.124 S 
ATOM     72  O   UNL A   1      39.067  31.447  37.153  1.00  0.00    -0.237 OA
ATOM     73  O   UNL A   1      40.222  33.113  38.574  1.00  0.00    -0.237 OA
ATOM     74  O   UNL A   1      38.867  33.850  36.649  1.00  0.00    -0.744 OA
ENDBRANCH  67  71
ENDBRANCH  50  64
BRANCH  51  75
ATOM     75  C   UNL A   1      42.455  24.320  27.353  1.00  0.00     0.023 A 
ATOM     76  C   UNL A   1      41.649  23.172  27.407  1.00  0.00     0.031 A 
ATOM     77  C   UNL A   1      43.362  24.441  26.287  1.00  0.00     0.131 A 
ATOM     78  C   UNL A   1      41.800  22.163  26.442  1.00  0.00     0.055 A 
ATOM     79  C   UNL A   1      43.476  23.456  25.302  1.00  0.00     0.041 A 
ATOM     80  F   UNL A   1      44.147  25.524  26.181  1.00  0.00    -0.206 F 
ATOM     81  C   UNL A   1      42.702  22.303  25.385  1.00  0.00     0.022 A 
BRANCH  78  82
ATOM     82  S   UNL A   1      40.855  20.627  26.636  1.00  0.00     0.124 S 
ATOM     83  O   UNL A   1      40.870  20.448  28.083  1.00  0.00    -0.237 OA
ATOM     84  O   UNL A   1      39.570  20.988  26.047  1.00  0.00    -0.237 OA
ATOM     85  O   UNL A   1      41.634  19.651  25.877  1.00  0.00    -0.744 OA
ENDBRANCH  78  82
ENDBRANCH  51  75
BRANCH  63  86
ATOM     86  C   UNL A   1      46.419  25.722  32.907  1.00  0.00     0.023 A 
ATOM     87  C   UNL A   1      47.723  25.986  32.455  1.00  0.00     0.031 A 
ATOM     88  C   UNL A   1      46.248  24.747  33.905  1.00  0.00     0.131 A 
ATOM     89  C   UNL A   1      48.799  25.235  32.949  1.00  0.00     0.055 A 
ATOM     90  C   UNL A   1      47.331  24.047  34.441  1.00  0.00     0.041 A 
ATOM     91  F   UNL A   1      45.024  24.454  34.374  1.00  0.00    -0.206 F 
ATOM     92  C   UNL A   1      48.613  24.278  33.950  1.00  0.00     0.022 A 
BRANCH  89  93
ATOM     93  S   UNL A   1      50.430  25.448  32.185  1.00  0.00     0.124 S 
ATOM     94  O   UNL A   1      51.308  25.503  33.350  1.00  0.00    -0.237 OA
ATOM     95  O   UNL A   1      50.544  24.253  31.356  1.00  0.00    -0.237 OA
ATOM     96  O   UNL A   1      50.300  26.704  31.447  1.00  0.00    -0.744 OA
ENDBRANCH  89  93
ENDBRANCH  63  86
ENDBRANCH  37  38
ENDBRANCH  29  32
ENDBRANCH  27  28
ENDBRANCH  26  27
ENDBRANCH  25  26
ENDBRANCH   1  25
TORSDOF 20
ENDMDL
MODEL 3
REMARK VINA RESULT:     -10.6      2.288      7.715
REMARK SMILES CC(C)[C@@H](CCNC(=O)N1C[C@@H](C)[C@H](C)C1)CCC(=O)NCCCCNC(=O)c1ccc(-c2c3nc(c(-c4cc(S(=O)(=O)[O-])ccc4F)c4ccc([nH]4)c(-c4cc(S(=O)(=O)[O-])ccc4F)c4nc(c(-c5cc(S(=O)(=O)[O-])ccc5F)c5ccc2[nH]5)C=C4)C=C3)cc1
REMARK SMILES IDX 22 1 21 2 19 3 20 4 18 6 17 7 4 8 2 9 1 10 3 11 5 12 6 13
REMARK SMILES IDX 7 14 8 15 9 17 10 18 11 19 16 20 12 21 14 22 13 23 15 24
REMARK SMILES IDX 23 25 24 26 25 27 26 28 27 29 28 31 29 32 30 33 91 34 31 35
REMARK SMILES IDX 90 36 32 37 33 38 34 39 84 40 35 41 89 42 83 43 85 44 36 45
REMARK SMILES IDX 88 46 82 47 81 48 37 50 69 51 49 52 68 53 50 54 53 55 67 56
REMARK SMILES IDX 86 57 51 58 52 59 66 61 87 62 54 63 38 64 39 65 47 66 40 67
REMARK SMILES IDX 46 68 48 69 45 70 41 71 42 72 43 73 44 74 70 75 71 76 79 77
REMARK SMILES IDX 72 78 78 79 80 80 77 81 73 82 74 83 75 84 76 85 55 86 56 87
REMARK SMILES IDX 64 88 57 89 63 90 65 91 62 92 58 93 59 94 60 95 61 96
REMARK H PARENT 21 5 7 16 26 30 85 49 53 60
REMARK Flexibility Score: inf
ROOT
ATOM      1  C   UNL A   1      37.274  21.526  25.481  1.00  0.00     0.116 C 
ENDROOT
BRANCH   1   2
ATOM      2  N   UNL A   1      37.421  22.230  24.219  1.00  0.00    -0.356 N 
ATOM      3  C   UNL A   1      36.544  23.003  23.520  1.00  0.00     0.220 C 
ATOM      4  O   UNL A   1      36.871  23.369  22.389  1.00  0.00    -0.275 OA
ATOM      5  H   UNL A   1      38.305  22.131  23.796  1.00  0.00     0.163 HD
BRANCH   3   6
ATOM      6  C   UNL A   1      35.226  23.458  24.130  1.00  0.00     0.100 C 
BRANCH   6   7
ATOM      7  C   UNL A   1      33.956  23.106  23.332  1.00  0.00     0.014 C 
BRANCH   7   8
ATOM      8  C   UNL A   1      33.036  22.058  23.998  1.00  0.00    -0.006 C 
BRANCH   8   9
ATOM      9  C   UNL A   1      33.588  21.312  25.251  1.00  0.00    -0.014 C 
ATOM     10  C   UNL A   1      32.939  21.867  26.532  1.00  0.00     0.007 C 
ATOM     11  C   UNL A   1      33.401  19.795  25.255  1.00  0.00     0.007 C 
ENDBRANCH   8   9
BRANCH   8  12
ATOM     12  C   UNL A   1      31.590  22.591  24.191  1.00  0.00     0.025 C 
BRANCH  12  13
ATOM     13  C   UNL A   1      31.167  23.804  23.359  1.00  0.00     0.118 C 
BRANCH  13  14
ATOM     14  N   UNL A   1      30.345  24.721  24.116  1.00  0.00    -0.338 N 
ATOM     15  C   UNL A   1      30.708  25.533  25.140  1.00  0.00     0.317 C 
ATOM     16  H   UNL A   1      29.397  24.763  23.854  1.00  0.00     0.165 HD
ATOM     17  O   UNL A   1      29.860  25.781  25.998  1.00  0.00    -0.249 OA
ATOM     18  N   UNL A   1      31.971  26.046  25.180  1.00  0.00    -0.324 N 
ATOM     19  C   UNL A   1      32.483  26.679  26.376  1.00  0.00     0.125 C 
ATOM     20  C   UNL A   1      32.807  26.382  24.038  1.00  0.00     0.125 C 
ATOM     21  C   UNL A   1      33.119  27.968  25.868  1.00  0.00     0.010 C 
ATOM     22  C   UNL A   1      33.635  27.602  24.463  1.00  0.00     0.010 C 
ATOM     23  C   UNL A   1      34.223  28.469  26.787  1.00  0.00     0.010 C 
ATOM     24  C   UNL A   1      33.494  28.758  23.478  1.00  0.00     0.010 C 
ENDBRANCH  13  14
ENDBRANCH  12  13
ENDBRANCH   8  12
ENDBRANCH   7   8
ENDBRANCH   6   7
ENDBRANCH   3   6
ENDBRANCH   1   2
BRANCH   1  25
ATOM     25  C   UNL A   1      37.213  20.010  25.239  1.00  0.00     0.023 C 
BRANCH  25  26
ATOM     26  C   UNL A   1      38.567  19.342  25.040  1.00  0.00     0.023 C 
BRANCH  26  27
ATOM     27  C   UNL A   1      39.625  19.812  26.027  1.00  0.00     0.116 C 
BRANCH  27  28
ATOM     28  N   UNL A   1      40.879  19.074  25.953  1.00  0.00    -0.352 N 
ATOM     29  C   UNL A   1      42.157  19.562  26.139  1.00  0.00     0.251 C 
ATOM     30  H   UNL A   1      40.807  18.114  25.745  1.00  0.00     0.163 HD
ATOM     31  O   UNL A   1      43.129  18.844  25.974  1.00  0.00    -0.269 OA
BRANCH  29  32
ATOM     32  C   UNL A   1      42.311  20.995  26.480  1.00  0.00     0.039 A 
ATOM     33  C   UNL A   1      42.390  21.365  27.822  1.00  0.00     0.014 A 
ATOM     34  C   UNL A   1      42.489  21.942  25.470  1.00  0.00     0.014 A 
ATOM     35  C   UNL A   1      42.731  22.680  28.149  1.00  0.00     0.010 A 
ATOM     36  C   UNL A   1      42.930  23.217  25.797  1.00  0.00     0.010 A 
ATOM     37  C   UNL A   1      43.045  23.605  27.139  1.00  0.00    -0.014 A 
BRANCH  37  38
ATOM     38  C   UNL A   1      43.462  24.992  27.468  1.00  0.00     0.031 A 
ATOM     39  C   UNL A   1      44.908  25.387  27.336  1.00  0.00     0.074 A 
ATOM     40  C   UNL A   1      42.556  25.872  27.941  1.00  0.00     0.049 A 
ATOM     41  N   UNL A   1      45.485  26.529  27.610  1.00  0.00    -0.248 NA
ATOM     42  C   UNL A   1      45.837  24.343  26.877  1.00  0.00     0.031 C 
ATOM     43  C   UNL A   1      41.141  25.582  28.189  1.00  0.00     0.029 A 
ATOM     44  N   UNL A   1      42.689  27.190  28.298  1.00  0.00    -0.354 N 
ATOM     45  C   UNL A   1      46.843  26.330  27.378  1.00  0.00     0.074 A 
ATOM     46  C   UNL A   1      47.008  24.937  27.025  1.00  0.00     0.031 C 
ATOM     47  C   UNL A   1      40.531  26.700  28.618  1.00  0.00     0.029 A 
ATOM     48  C   UNL A   1      41.513  27.776  28.704  1.00  0.00     0.049 A 
ATOM     49  H   UNL A   1      43.547  27.671  28.266  1.00  0.00     0.167 HD
ATOM     50  C   UNL A   1      47.854  27.233  27.415  1.00  0.00     0.034 A 
ATOM     51  C   UNL A   1      41.257  29.041  29.092  1.00  0.00     0.034 A 
ATOM     52  C   UNL A   1      47.664  28.626  27.737  1.00  0.00     0.049 A 
ATOM     53  C   UNL A   1      42.385  30.041  29.086  1.00  0.00     0.074 A 
ATOM     54  C   UNL A   1      48.596  29.646  27.748  1.00  0.00     0.029 A 
ATOM     55  N   UNL A   1      46.449  29.195  28.101  1.00  0.00    -0.354 N 
ATOM     56  N   UNL A   1      43.653  29.855  28.795  1.00  0.00    -0.248 NA
ATOM     57  C   UNL A   1      42.043  31.423  29.436  1.00  0.00     0.031 C 
ATOM     58  C   UNL A   1      47.958  30.820  28.169  1.00  0.00     0.029 A 
ATOM     59  C   UNL A   1      46.612  30.547  28.356  1.00  0.00     0.049 A 
ATOM     60  H   UNL A   1      45.596  28.708  28.169  1.00  0.00     0.167 HD
ATOM     61  C   UNL A   1      44.253  31.106  28.901  1.00  0.00     0.074 A 
ATOM     62  C   UNL A   1      43.202  32.039  29.259  1.00  0.00     0.031 C 
ATOM     63  C   UNL A   1      45.553  31.457  28.722  1.00  0.00     0.034 A 
BRANCH  50  64
ATOM     64  C   UNL A   1      49.243  26.725  27.109  1.00  0.00     0.023 A 
ATOM     65  C   UNL A   1      50.235  26.653  28.106  1.00  0.00     0.031 A 
ATOM     66  C   UNL A   1      49.602  26.364  25.800  1.00  0.00     0.131 A 
ATOM     67  C   UNL A   1      51.555  26.330  27.760  1.00  0.00     0.055 A 
ATOM     68  C   UNL A   1      50.898  25.952  25.479  1.00  0.00     0.041 A 
ATOM     69  F   UNL A   1      48.707  26.430  24.802  1.00  0.00    -0.206 F 
ATOM     70  C   UNL A   1      51.889  25.953  26.458  1.00  0.00     0.022 A 
BRANCH  67  71
ATOM     71  S   UNL A   1      52.856  26.573  29.000  1.00  0.00     0.124 S 
ATOM     72  O   UNL A   1      53.917  25.711  28.484  1.00  0.00    -0.237 OA
ATOM     73  O   UNL A   1      53.104  28.008  28.923  1.00  0.00    -0.237 OA
ATOM     74  O   UNL A   1      52.237  26.112  30.241  1.00  0.00    -0.744 OA
ENDBRANCH  67  71
ENDBRANCH  50  64
BRANCH  51  75
ATOM     75  C   UNL A   1      39.879  29.450  29.492  1.00  0.00     0.023 A 
ATOM     76  C   UNL A   1      39.523  29.557  30.846  1.00  0.00     0.031 A 
ATOM     77  C   UNL A   1      38.888  29.696  28.527  1.00  0.00     0.131 A 
ATOM     78  C   UNL A   1      38.198  29.851  31.201  1.00  0.00     0.055 A 
ATOM     79  C   UNL A   1      37.581  30.035  28.884  1.00  0.00     0.041 A 
ATOM     80  F   UNL A   1      39.178  29.620  27.219  1.00  0.00    -0.206 F 
ATOM     81  C   UNL A   1      37.226  30.100  30.228  1.00  0.00     0.022 A 
BRANCH  78  82
ATOM     82  S   UNL A   1      37.742  29.823  32.957  1.00  0.00     0.124 S 
ATOM     83  O   UNL A   1      37.352  28.431  33.142  1.00  0.00    -0.237 OA
ATOM     84  O   UNL A   1      38.987  30.233  33.597  1.00  0.00    -0.237 OA
ATOM     85  O   UNL A   1      36.653  30.794  33.041  1.00  0.00    -0.744 OA
ENDBRANCH  78  82
ENDBRANCH  51  75
BRANCH  63  86
ATOM     86  C   UNL A   1      45.888  32.920  28.874  1.00  0.00     0.023 A 
ATOM     87  C   UNL A   1      45.842  33.804  27.783  1.00  0.00     0.031 A 
ATOM     88  C   UNL A   1      46.288  33.427  30.123  1.00  0.00     0.131 A 
ATOM     89  C   UNL A   1      46.259  35.134  27.945  1.00  0.00     0.055 A 
ATOM     90  C   UNL A   1      46.640  34.767  30.292  1.00  0.00     0.041 A 
ATOM     91  F   UNL A   1      46.350  32.626  31.199  1.00  0.00    -0.206 F 
ATOM     92  C   UNL A   1      46.643  35.624  29.195  1.00  0.00     0.022 A 
BRANCH  89  93
ATOM     93  S   UNL A   1      46.399  36.185  26.472  1.00  0.00     0.124 S 
ATOM     94  O   UNL A   1      46.147  35.233  25.395  1.00  0.00    -0.237 OA
ATOM     95  O   UNL A   1      45.358  37.181  26.701  1.00  0.00    -0.237 OA
ATOM     96  O   UNL A   1      47.768  36.692  26.544  1.00  0.00    -0.744 OA
ENDBRANCH  89  93
ENDBRANCH  63  86
ENDBRANCH  37  38
ENDBRANCH  29  32
ENDBRANCH  27  28
ENDBRANCH  26  27
ENDBRANCH  25  26
ENDBRANCH   1  25
TORSDOF 20
ENDMDL
