MODEL 1
REMARK VINA RESULT:     -11.0      0.000      0.000
REMARK SMILES Cc1nc(C(F)(F)F)c(C(=O)NCCCCNC(=O)c2ccc(-c3c4nc(c(-c5cc(S(=O)(=O)[O-])ccc5F)c5ccc([nH]5)c(-c5cc(S(=O)(=O)[O-])ccc5F)c5nc(c(-c6cc(S(=O)(=O)[O-])ccc6F)c6ccc3[nH]6)C=C5)C=C4)cc2)s1
REMARK SMILES IDX 15 1 14 2 13 3 12 4 10 5 11 6 9 8 1 9 2 10 3 11 83 12 4 13
REMARK SMILES IDX 5 14 6 15 7 16 8 17 16 18 17 19 18 20 19 22 20 23 21 24
REMARK SMILES IDX 82 25 22 26 81 27 23 28 24 29 25 30 75 31 26 32 80 33 74 34
REMARK SMILES IDX 76 35 27 36 79 37 73 38 72 39 28 41 60 42 40 43 59 44 41 45
REMARK SMILES IDX 44 46 58 47 77 48 42 49 43 50 57 52 78 53 45 54 29 55 30 56
REMARK SMILES IDX 38 57 31 58 37 59 39 60 36 61 32 62 33 63 34 64 35 65 61 66
REMARK SMILES IDX 62 67 70 68 63 69 69 70 71 71 68 72 64 73 65 74 66 75 67 76
REMARK SMILES IDX 46 77 47 78 55 79 48 80 54 81 56 82 53 83 49 84 50 85 51 86
REMARK SMILES IDX 52 87
REMARK H PARENT 12 7 17 21 76 40 44 51
REMARK Flexibility Score: inf
ROOT
ATOM      1  C   UNL A   1      31.405  29.183  26.227  1.00  0.00     0.023 C 
ENDROOT
BRANCH   1   2
ATOM      2  C   UNL A   1      31.119  28.260  25.041  1.00  0.00     0.023 C 
BRANCH   2   3
ATOM      3  C   UNL A   1      31.037  28.968  23.689  1.00  0.00     0.116 C 
BRANCH   3   4
ATOM      4  N   UNL A   1      32.310  28.954  23.012  1.00  0.00    -0.351 N 
ATOM      5  C   UNL A   1      33.269  28.033  22.704  1.00  0.00     0.263 C 
ATOM      6  O   UNL A   1      34.199  28.560  22.075  1.00  0.00    -0.268 OA
ATOM      7  H   UNL A   1      32.552  29.849  22.684  1.00  0.00     0.163 HD
BRANCH   5   8
ATOM      8  C   UNL A   1      33.281  26.601  23.019  1.00  0.00     0.124 A 
ATOM      9  C   UNL A   1      32.903  22.847  21.897  1.00  0.00     0.079 C 
ATOM     10  C   UNL A   1      33.075  24.181  22.529  1.00  0.00     0.091 A 
ATOM     11  N   UNL A   1      33.414  24.365  23.775  1.00  0.00    -0.236 NA
ATOM     12  S   UNL A   1      32.841  25.599  21.635  1.00  0.00    -0.113 S 
ATOM     13  C   UNL A   1      33.554  25.736  24.085  1.00  0.00     0.168 A 
BRANCH  13  14
ATOM     14  C   UNL A   1      33.995  26.006  25.490  1.00  0.00     0.435 C 
ATOM     15  F   UNL A   1      33.001  25.811  26.387  1.00  0.00    -0.164 F 
ATOM     16  F   UNL A   1      35.053  25.237  25.855  1.00  0.00    -0.164 F 
ATOM     17  F   UNL A   1      34.402  27.295  25.672  1.00  0.00    -0.164 F 
ENDBRANCH  13  14
ENDBRANCH   5   8
ENDBRANCH   3   4
ENDBRANCH   2   3
ENDBRANCH   1   2
BRANCH   1  18
ATOM     18  C   UNL A   1      32.521  30.199  25.999  1.00  0.00     0.116 C 
BRANCH  18  19
ATOM     19  N   UNL A   1      32.195  31.546  26.442  1.00  0.00    -0.352 N 
ATOM     20  C   UNL A   1      32.919  32.365  27.283  1.00  0.00     0.251 C 
ATOM     21  H   UNL A   1      31.350  31.919  26.099  1.00  0.00     0.163 HD
ATOM     22  O   UNL A   1      32.476  33.448  27.626  1.00  0.00    -0.269 OA
BRANCH  20  23
ATOM     23  C   UNL A   1      34.215  31.875  27.798  1.00  0.00     0.039 A 
ATOM     24  C   UNL A   1      35.244  32.793  28.011  1.00  0.00     0.014 A 
ATOM     25  C   UNL A   1      34.374  30.531  28.146  1.00  0.00     0.014 A 
ATOM     26  C   UNL A   1      36.410  32.378  28.656  1.00  0.00     0.010 A 
ATOM     27  C   UNL A   1      35.505  30.137  28.851  1.00  0.00     0.010 A 
ATOM     28  C   UNL A   1      36.530  31.059  29.123  1.00  0.00    -0.014 A 
BRANCH  28  29
ATOM     29  C   UNL A   1      37.712  30.620  29.907  1.00  0.00     0.031 A 
ATOM     30  C   UNL A   1      38.711  29.681  29.293  1.00  0.00     0.074 A 
ATOM     31  C   UNL A   1      37.835  31.000  31.194  1.00  0.00     0.049 A 
ATOM     32  N   UNL A   1      39.752  29.107  29.837  1.00  0.00    -0.248 NA
ATOM     33  C   UNL A   1      38.482  29.308  27.890  1.00  0.00     0.031 C 
ATOM     34  C   UNL A   1      36.897  31.864  31.916  1.00  0.00     0.029 A 
ATOM     35  N   UNL A   1      38.792  30.697  32.129  1.00  0.00    -0.354 N 
ATOM     36  C   UNL A   1      40.291  28.287  28.851  1.00  0.00     0.074 A 
ATOM     37  C   UNL A   1      39.420  28.394  27.699  1.00  0.00     0.031 C 
ATOM     38  C   UNL A   1      37.340  32.041  33.171  1.00  0.00     0.029 A 
ATOM     39  C   UNL A   1      38.567  31.275  33.356  1.00  0.00     0.049 A 
ATOM     40  H   UNL A   1      39.567  30.122  31.938  1.00  0.00     0.167 HD
ATOM     41  C   UNL A   1      41.420  27.537  28.895  1.00  0.00     0.034 A 
ATOM     42  C   UNL A   1      39.268  31.188  34.505  1.00  0.00     0.034 A 
ATOM     43  C   UNL A   1      42.287  27.463  30.046  1.00  0.00     0.049 A 
ATOM     44  C   UNL A   1      40.521  30.353  34.531  1.00  0.00     0.074 A 
ATOM     45  C   UNL A   1      43.491  26.793  30.179  1.00  0.00     0.029 A 
ATOM     46  N   UNL A   1      42.038  28.075  31.268  1.00  0.00    -0.354 N 
ATOM     47  N   UNL A   1      41.051  29.628  33.572  1.00  0.00    -0.248 NA
ATOM     48  C   UNL A   1      41.274  30.332  35.791  1.00  0.00     0.031 C 
ATOM     49  C   UNL A   1      43.939  26.954  31.495  1.00  0.00     0.029 A 
ATOM     50  C   UNL A   1      43.050  27.778  32.166  1.00  0.00     0.049 A 
ATOM     51  H   UNL A   1      41.255  28.639  31.466  1.00  0.00     0.167 HD
ATOM     52  C   UNL A   1      42.216  29.087  34.107  1.00  0.00     0.074 A 
ATOM     53  C   UNL A   1      42.316  29.578  35.466  1.00  0.00     0.031 C 
ATOM     54  C   UNL A   1      43.125  28.265  33.525  1.00  0.00     0.034 A 
BRANCH  41  55
ATOM     55  C   UNL A   1      41.754  26.724  27.665  1.00  0.00     0.023 A 
ATOM     56  C   UNL A   1      41.439  25.356  27.579  1.00  0.00     0.031 A 
ATOM     57  C   UNL A   1      42.447  27.308  26.590  1.00  0.00     0.131 A 
ATOM     58  C   UNL A   1      41.899  24.599  26.493  1.00  0.00     0.055 A 
ATOM     59  C   UNL A   1      42.824  26.566  25.469  1.00  0.00     0.041 A 
ATOM     60  F   UNL A   1      42.792  28.605  26.622  1.00  0.00    -0.206 F 
ATOM     61  C   UNL A   1      42.569  25.198  25.424  1.00  0.00     0.022 A 
BRANCH  58  62
ATOM     62  S   UNL A   1      41.761  22.792  26.581  1.00  0.00     0.124 S 
ATOM     63  O   UNL A   1      40.324  22.617  26.782  1.00  0.00    -0.237 OA
ATOM     64  O   UNL A   1      42.280  22.372  25.285  1.00  0.00    -0.237 OA
ATOM     65  O   UNL A   1      42.591  22.441  27.732  1.00  0.00    -0.744 OA
ENDBRANCH  58  62
ENDBRANCH  41  55
BRANCH  42  66
ATOM     66  C   UNL A   1      38.810  31.913  35.722  1.00  0.00     0.023 A 
ATOM     67  C   UNL A   1      38.154  31.233  36.760  1.00  0.00     0.031 A 
ATOM     68  C   UNL A   1      38.996  33.301  35.853  1.00  0.00     0.131 A 
ATOM     69  C   UNL A   1      37.673  31.947  37.869  1.00  0.00     0.055 A 
ATOM     70  C   UNL A   1      38.554  33.999  36.978  1.00  0.00     0.041 A 
ATOM     71  F   UNL A   1      39.627  33.995  34.893  1.00  0.00    -0.206 F 
ATOM     72  C   UNL A   1      37.877  33.323  37.989  1.00  0.00     0.022 A 
BRANCH  69  73
ATOM     73  S   UNL A   1      36.719  31.055  39.127  1.00  0.00     0.124 S 
ATOM     74  O   UNL A   1      35.524  31.884  39.239  1.00  0.00    -0.237 OA
ATOM     75  O   UNL A   1      36.539  29.749  38.501  1.00  0.00    -0.237 OA
ATOM     76  O   UNL A   1      37.600  31.068  40.293  1.00  0.00    -0.744 OA
ENDBRANCH  69  73
ENDBRANCH  42  66
BRANCH  54  77
ATOM     77  C   UNL A   1      44.326  27.883  34.353  1.00  0.00     0.023 A 
ATOM     78  C   UNL A   1      44.337  26.725  35.150  1.00  0.00     0.031 A 
ATOM     79  C   UNL A   1      45.470  28.700  34.354  1.00  0.00     0.131 A 
ATOM     80  C   UNL A   1      45.451  26.442  35.954  1.00  0.00     0.055 A 
ATOM     81  C   UNL A   1      46.596  28.386  35.116  1.00  0.00     0.041 A 
ATOM     82  F   UNL A   1      45.511  29.819  33.613  1.00  0.00    -0.206 F 
ATOM     83  C   UNL A   1      46.585  27.258  35.931  1.00  0.00     0.022 A 
BRANCH  80  84
ATOM     84  S   UNL A   1      45.365  25.038  37.098  1.00  0.00     0.124 S 
ATOM     85  O   UNL A   1      45.774  23.926  36.245  1.00  0.00    -0.237 OA
ATOM     86  O   UNL A   1      46.312  25.424  38.139  1.00  0.00    -0.237 OA
ATOM     87  O   UNL A   1      43.963  25.017  37.513  1.00  0.00    -0.744 OA
ENDBRANCH  80  84
ENDBRANCH  54  77
ENDBRANCH  28  29
ENDBRANCH  20  23
ENDBRANCH  18  19
ENDBRANCH   1  18
TORSDOF 15
ENDMDL
MODEL 2
REMARK VINA RESULT:     -11.0      5.363     10.508
REMARK SMILES Cc1nc(C(F)(F)F)c(C(=O)NCCCCNC(=O)c2ccc(-c3c4nc(c(-c5cc(S(=O)(=O)[O-])ccc5F)c5ccc([nH]5)c(-c5cc(S(=O)(=O)[O-])ccc5F)c5nc(c(-c6cc(S(=O)(=O)[O-])ccc6F)c6ccc3[nH]6)C=C5)C=C4)cc2)s1
REMARK SMILES IDX 15 1 14 2 13 3 12 4 10 5 11 6 9 8 1 9 2 10 3 11 83 12 4 13
REMARK SMILES IDX 5 14 6 15 7 16 8 17 16 18 17 19 18 20 19 22 20 23 21 24
REMARK SMILES IDX 82 25 22 26 81 27 23 28 24 29 25 30 75 31 26 32 80 33 74 34
REMARK SMILES IDX 76 35 27 36 79 37 73 38 72 39 28 41 60 42 40 43 59 44 41 45
REMARK SMILES IDX 44 46 58 47 77 48 42 49 43 50 57 52 78 53 45 54 29 55 30 56
REMARK SMILES IDX 38 57 31 58 37 59 39 60 36 61 32 62 33 63 34 64 35 65 61 66
REMARK SMILES IDX 62 67 70 68 63 69 69 70 71 71 68 72 64 73 65 74 66 75 67 76
REMARK SMILES IDX 46 77 47 78 55 79 48 80 54 81 56 82 53 83 49 84 50 85 51 86
REMARK SMILES IDX 52 87
REMARK H PARENT 12 7 17 21 76 40 44 51
REMARK Flexibility Score: inf
ROOT
ATOM      1  C   UNL A   1      35.825  21.730  24.232  1.00  0.00     0.023 C 
ENDROOT
BRANCH   1   2
ATOM      2  C   UNL A   1      34.581  21.209  24.954  1.00  0.00     0.023 C 
BRANCH   2   3
ATOM      3  C   UNL A   1      33.283  21.929  24.588  1.00  0.00     0.116 C 
BRANCH   3   4
ATOM      4  N   UNL A   1      33.340  22.465  23.251  1.00  0.00    -0.351 N 
ATOM      5  C   UNL A   1      33.127  23.670  22.646  1.00  0.00     0.263 C 
ATOM      6  O   UNL A   1      33.333  23.592  21.425  1.00  0.00    -0.268 OA
ATOM      7  H   UNL A   1      33.604  21.777  22.599  1.00  0.00     0.163 HD
BRANCH   5   8
ATOM      8  C   UNL A   1      32.721  24.933  23.268  1.00  0.00     0.124 A 
ATOM      9  C   UNL A   1      30.368  28.088  23.387  1.00  0.00     0.079 C 
ATOM     10  C   UNL A   1      31.364  26.992  23.517  1.00  0.00     0.091 A 
ATOM     11  N   UNL A   1      32.232  26.900  24.487  1.00  0.00    -0.236 NA
ATOM     12  S   UNL A   1      31.430  25.742  22.378  1.00  0.00    -0.113 S 
ATOM     13  C   UNL A   1      33.015  25.728  24.383  1.00  0.00     0.168 A 
BRANCH  13  14
ATOM     14  C   UNL A   1      33.993  25.542  25.499  1.00  0.00     0.435 C 
ATOM     15  F   UNL A   1      34.408  26.719  26.021  1.00  0.00    -0.164 F 
ATOM     16  F   UNL A   1      33.487  24.786  26.508  1.00  0.00    -0.164 F 
ATOM     17  F   UNL A   1      35.129  24.902  25.099  1.00  0.00    -0.164 F 
ENDBRANCH  13  14
ENDBRANCH   5   8
ENDBRANCH   3   4
ENDBRANCH   2   3
ENDBRANCH   1   2
BRANCH   1  18
ATOM     18  C   UNL A   1      37.006  22.060  25.141  1.00  0.00     0.116 C 
BRANCH  18  19
ATOM     19  N   UNL A   1      37.884  20.930  25.405  1.00  0.00    -0.352 N 
ATOM     20  C   UNL A   1      39.107  20.931  26.043  1.00  0.00     0.251 C 
ATOM     21  H   UNL A   1      37.566  20.054  25.087  1.00  0.00     0.163 HD
ATOM     22  O   UNL A   1      39.766  19.909  26.122  1.00  0.00    -0.269 OA
BRANCH  20  23
ATOM     23  C   UNL A   1      39.619  22.211  26.578  1.00  0.00     0.039 A 
ATOM     24  C   UNL A   1      40.734  22.189  27.417  1.00  0.00     0.014 A 
ATOM     25  C   UNL A   1      39.049  23.422  26.179  1.00  0.00     0.014 A 
ATOM     26  C   UNL A   1      41.333  23.394  27.790  1.00  0.00     0.010 A 
ATOM     27  C   UNL A   1      39.690  24.615  26.492  1.00  0.00     0.010 A 
ATOM     28  C   UNL A   1      40.844  24.613  27.292  1.00  0.00    -0.014 A 
BRANCH  28  29
ATOM     29  C   UNL A   1      41.528  25.898  27.584  1.00  0.00     0.031 A 
ATOM     30  C   UNL A   1      40.816  26.964  28.367  1.00  0.00     0.074 A 
ATOM     31  C   UNL A   1      42.752  26.132  27.072  1.00  0.00     0.049 A 
ATOM     32  N   UNL A   1      41.198  28.183  28.645  1.00  0.00    -0.248 NA
ATOM     33  C   UNL A   1      39.477  26.622  28.869  1.00  0.00     0.031 C 
ATOM     34  C   UNL A   1      43.520  25.194  26.248  1.00  0.00     0.029 A 
ATOM     35  N   UNL A   1      43.561  27.236  27.156  1.00  0.00    -0.354 N 
ATOM     36  C   UNL A   1      40.138  28.763  29.334  1.00  0.00     0.074 A 
ATOM     37  C   UNL A   1      39.077  27.780  29.373  1.00  0.00     0.031 C 
ATOM     38  C   UNL A   1      44.697  25.754  25.925  1.00  0.00     0.029 A 
ATOM     39  C   UNL A   1      44.753  27.101  26.482  1.00  0.00     0.049 A 
ATOM     40  H   UNL A   1      43.312  28.049  27.652  1.00  0.00     0.167 HD
ATOM     41  C   UNL A   1      40.068  29.992  29.904  1.00  0.00     0.034 A 
ATOM     42  C   UNL A   1      45.772  27.969  26.325  1.00  0.00     0.034 A 
ATOM     43  C   UNL A   1      41.146  30.951  29.873  1.00  0.00     0.049 A 
ATOM     44  C   UNL A   1      45.676  29.328  26.969  1.00  0.00     0.074 A 
ATOM     45  C   UNL A   1      41.214  32.195  30.475  1.00  0.00     0.029 A 
ATOM     46  N   UNL A   1      42.347  30.773  29.197  1.00  0.00    -0.354 N 
ATOM     47  N   UNL A   1      44.690  29.842  27.668  1.00  0.00    -0.248 NA
ATOM     48  C   UNL A   1      46.833  30.217  26.809  1.00  0.00     0.031 C 
ATOM     49  C   UNL A   1      42.428  32.791  30.116  1.00  0.00     0.029 A 
ATOM     50  C   UNL A   1      43.149  31.894  29.345  1.00  0.00     0.049 A 
ATOM     51  H   UNL A   1      42.593  29.967  28.687  1.00  0.00     0.167 HD
ATOM     52  C   UNL A   1      45.122  31.107  28.055  1.00  0.00     0.074 A 
ATOM     53  C   UNL A   1      46.459  31.271  27.522  1.00  0.00     0.031 C 
ATOM     54  C   UNL A   1      44.475  32.046  28.792  1.00  0.00     0.034 A 
BRANCH  41  55
ATOM     55  C   UNL A   1      38.769  30.364  30.580  1.00  0.00     0.023 A 
ATOM     56  C   UNL A   1      37.704  30.939  29.864  1.00  0.00     0.031 A 
ATOM     57  C   UNL A   1      38.613  30.196  31.967  1.00  0.00     0.131 A 
ATOM     58  C   UNL A   1      36.576  31.414  30.548  1.00  0.00     0.055 A 
ATOM     59  C   UNL A   1      37.448  30.589  32.630  1.00  0.00     0.041 A 
ATOM     60  F   UNL A   1      39.601  29.670  32.708  1.00  0.00    -0.206 F 
ATOM     61  C   UNL A   1      36.428  31.220  31.924  1.00  0.00     0.022 A 
BRANCH  58  62
ATOM     62  S   UNL A   1      35.385  32.438  29.641  1.00  0.00     0.124 S 
ATOM     63  O   UNL A   1      36.223  33.556  29.215  1.00  0.00    -0.237 OA
ATOM     64  O   UNL A   1      34.935  31.538  28.585  1.00  0.00    -0.237 OA
ATOM     65  O   UNL A   1      34.381  32.771  30.649  1.00  0.00    -0.744 OA
ENDBRANCH  58  62
ENDBRANCH  41  55
BRANCH  42  66
ATOM     66  C   UNL A   1      46.972  27.584  25.532  1.00  0.00     0.023 A 
ATOM     67  C   UNL A   1      47.073  27.916  24.172  1.00  0.00     0.031 A 
ATOM     68  C   UNL A   1      48.024  26.855  26.115  1.00  0.00     0.131 A 
ATOM     69  C   UNL A   1      48.183  27.487  23.428  1.00  0.00     0.055 A 
ATOM     70  C   UNL A   1      49.146  26.469  25.381  1.00  0.00     0.041 A 
ATOM     71  F   UNL A   1      47.980  26.523  27.415  1.00  0.00    -0.206 F 
ATOM     72  C   UNL A   1      49.225  26.775  24.026  1.00  0.00     0.022 A 
BRANCH  69  73
ATOM     73  S   UNL A   1      48.216  27.825  21.646  1.00  0.00     0.124 S 
ATOM     74  O   UNL A   1      46.945  28.512  21.450  1.00  0.00    -0.237 OA
ATOM     75  O   UNL A   1      49.417  28.644  21.516  1.00  0.00    -0.237 OA
ATOM     76  O   UNL A   1      48.306  26.494  21.051  1.00  0.00    -0.744 OA
ENDBRANCH  69  73
ENDBRANCH  42  66
BRANCH  54  77
ATOM     77  C   UNL A   1      45.231  33.315  29.092  1.00  0.00     0.023 A 
ATOM     78  C   UNL A   1      45.131  34.448  28.266  1.00  0.00     0.031 A 
ATOM     79  C   UNL A   1      46.075  33.384  30.214  1.00  0.00     0.131 A 
ATOM     80  C   UNL A   1      45.902  35.586  28.547  1.00  0.00     0.055 A 
ATOM     81  C   UNL A   1      46.799  34.538  30.519  1.00  0.00     0.041 A 
ATOM     82  F   UNL A   1      46.209  32.329  31.034  1.00  0.00    -0.206 F 
ATOM     83  C   UNL A   1      46.724  35.643  29.676  1.00  0.00     0.022 A 
BRANCH  80  84
ATOM     84  S   UNL A   1      45.882  36.965  27.369  1.00  0.00     0.124 S 
ATOM     85  O   UNL A   1      46.871  36.539  26.384  1.00  0.00    -0.237 OA
ATOM     86  O   UNL A   1      44.494  36.969  26.917  1.00  0.00    -0.237 OA
ATOM     87  O   UNL A   1      46.271  38.117  28.181  1.00  0.00    -0.744 OA
ENDBRANCH  80  84
ENDBRANCH  54  77
ENDBRANCH  28  29
ENDBRANCH  20  23
ENDBRANCH  18  19
ENDBRANCH   1  18
TORSDOF 15
ENDMDL
MODEL 3
REMARK VINA RESULT:     -11.0      5.389      7.710
REMARK SMILES Cc1nc(C(F)(F)F)c(C(=O)NCCCCNC(=O)c2ccc(-c3c4nc(c(-c5cc(S(=O)(=O)[O-])ccc5F)c5ccc([nH]5)c(-c5cc(S(=O)(=O)[O-])ccc5F)c5nc(c(-c6cc(S(=O)(=O)[O-])ccc6F)c6ccc3[nH]6)C=C5)C=C4)cc2)s1
REMARK SMILES IDX 15 1 14 2 13 3 12 4 10 5 11 6 9 8 1 9 2 10 3 11 83 12 4 13
REMARK SMILES IDX 5 14 6 15 7 16 8 17 16 18 17 19 18 20 19 22 20 23 21 24
REMARK SMILES IDX 82 25 22 26 81 27 23 28 24 29 25 30 75 31 26 32 80 33 74 34
REMARK SMILES IDX 76 35 27 36 79 37 73 38 72 39 28 41 60 42 40 43 59 44 41 45
REMARK SMILES IDX 44 46 58 47 77 48 42 49 43 50 57 52 78 53 45 54 29 55 30 56
REMARK SMILES IDX 38 57 31 58 37 59 39 60 36 61 32 62 33 63 34 64 35 65 61 66
REMARK SMILES IDX 62 67 70 68 63 69 69 70 71 71 68 72 64 73 65 74 66 75 67 76
REMARK SMILES IDX 46 77 47 78 55 79 48 80 54 81 56 82 53 83 49 84 50 85 51 86
REMARK SMILES IDX 52 87
REMARK H PARENT 12 7 17 21 76 40 44 51
REMARK Flexibility Score: inf
ROOT
ATOM      1  C   UNL A   1      35.079  21.570  25.153  1.00  0.00     0.023 C 
ENDROOT
BRANCH   1   2
ATOM      2  C   UNL A   1      34.120  21.018  26.209  1.00  0.00     0.023 C 
BRANCH   2   3
ATOM      3  C   UNL A   1      33.969  21.894  27.453  1.00  0.00     0.116 C 
BRANCH   3   4
ATOM      4  N   UNL A   1      32.636  22.433  27.556  1.00  0.00    -0.351 N 
ATOM      5  C   UNL A   1      31.864  23.330  26.876  1.00  0.00     0.263 C 
ATOM      6  O   UNL A   1      30.742  23.426  27.395  1.00  0.00    -0.268 OA
ATOM      7  H   UNL A   1      32.153  22.052  28.324  1.00  0.00     0.163 HD
BRANCH   5   8
ATOM      8  C   UNL A   1      32.220  24.108  25.686  1.00  0.00     0.124 A 
ATOM      9  C   UNL A   1      33.750  27.344  24.046  1.00  0.00     0.079 C 
ATOM     10  C   UNL A   1      33.126  26.058  24.453  1.00  0.00     0.091 A 
ATOM     11  N   UNL A   1      32.744  25.130  23.619  1.00  0.00    -0.236 NA
ATOM     12  S   UNL A   1      32.870  25.699  26.088  1.00  0.00    -0.113 S 
ATOM     13  C   UNL A   1      32.235  23.996  24.291  1.00  0.00     0.168 A 
BRANCH  13  14
ATOM     14  C   UNL A   1      31.831  22.876  23.385  1.00  0.00     0.435 C 
ATOM     15  F   UNL A   1      32.644  22.765  22.309  1.00  0.00    -0.164 F 
ATOM     16  F   UNL A   1      31.809  21.678  24.025  1.00  0.00    -0.164 F 
ATOM     17  F   UNL A   1      30.576  23.041  22.876  1.00  0.00    -0.164 F 
ENDBRANCH  13  14
ENDBRANCH   5   8
ENDBRANCH   3   4
ENDBRANCH   2   3
ENDBRANCH   1   2
BRANCH   1  18
ATOM     18  C   UNL A   1      36.438  22.016  25.685  1.00  0.00     0.116 C 
BRANCH  18  19
ATOM     19  N   UNL A   1      37.478  21.003  25.575  1.00  0.00    -0.352 N 
ATOM     20  C   UNL A   1      38.812  21.112  25.907  1.00  0.00     0.251 C 
ATOM     21  H   UNL A   1      37.193  20.131  25.216  1.00  0.00     0.163 HD
ATOM     22  O   UNL A   1      39.583  20.195  25.684  1.00  0.00    -0.269 OA
BRANCH  20  23
ATOM     23  C   UNL A   1      39.290  22.386  26.486  1.00  0.00     0.039 A 
ATOM     24  C   UNL A   1      40.320  22.350  27.428  1.00  0.00     0.014 A 
ATOM     25  C   UNL A   1      38.779  23.604  26.034  1.00  0.00     0.014 A 
ATOM     26  C   UNL A   1      40.899  23.546  27.855  1.00  0.00     0.010 A 
ATOM     27  C   UNL A   1      39.405  24.789  26.406  1.00  0.00     0.010 A 
ATOM     28  C   UNL A   1      40.478  24.771  27.312  1.00  0.00    -0.014 A 
BRANCH  28  29
ATOM     29  C   UNL A   1      41.150  26.046  27.667  1.00  0.00     0.031 A 
ATOM     30  C   UNL A   1      42.568  26.290  27.237  1.00  0.00     0.074 A 
ATOM     31  C   UNL A   1      40.511  26.941  28.446  1.00  0.00     0.049 A 
ATOM     32  N   UNL A   1      43.362  27.289  27.523  1.00  0.00    -0.248 NA
ATOM     33  C   UNL A   1      43.187  25.248  26.405  1.00  0.00     0.031 C 
ATOM     34  C   UNL A   1      39.152  26.788  28.973  1.00  0.00     0.029 A 
ATOM     35  N   UNL A   1      40.924  28.150  28.944  1.00  0.00    -0.354 N 
ATOM     36  C   UNL A   1      44.581  26.987  26.928  1.00  0.00     0.074 A 
ATOM     37  C   UNL A   1      44.436  25.681  26.319  1.00  0.00     0.031 C 
ATOM     38  C   UNL A   1      38.836  27.874  29.697  1.00  0.00     0.029 A 
ATOM     39  C   UNL A   1      39.979  28.779  29.721  1.00  0.00     0.049 A 
ATOM     40  H   UNL A   1      41.812  28.532  28.761  1.00  0.00     0.167 HD
ATOM     41  C   UNL A   1      45.708  27.740  26.871  1.00  0.00     0.034 A 
ATOM     42  C   UNL A   1      40.033  29.952  30.385  1.00  0.00     0.034 A 
ATOM     43  C   UNL A   1      45.825  29.050  27.466  1.00  0.00     0.049 A 
ATOM     44  C   UNL A   1      41.293  30.774  30.306  1.00  0.00     0.074 A 
ATOM     45  C   UNL A   1      46.890  29.931  27.411  1.00  0.00     0.029 A 
ATOM     46  N   UNL A   1      44.842  29.665  28.231  1.00  0.00    -0.354 N 
ATOM     47  N   UNL A   1      42.420  30.503  29.689  1.00  0.00    -0.248 NA
ATOM     48  C   UNL A   1      41.282  32.065  31.005  1.00  0.00     0.031 C 
ATOM     49  C   UNL A   1      46.574  31.051  28.189  1.00  0.00     0.029 A 
ATOM     50  C   UNL A   1      45.285  30.900  28.676  1.00  0.00     0.049 A 
ATOM     51  H   UNL A   1      43.957  29.278  28.429  1.00  0.00     0.167 HD
ATOM     52  C   UNL A   1      43.243  31.604  29.905  1.00  0.00     0.074 A 
ATOM     53  C   UNL A   1      42.479  32.546  30.697  1.00  0.00     0.031 C 
ATOM     54  C   UNL A   1      44.514  31.820  29.479  1.00  0.00     0.034 A 
BRANCH  41  55
ATOM     55  C   UNL A   1      46.901  27.142  26.162  1.00  0.00     0.023 A 
ATOM     56  C   UNL A   1      47.876  26.404  26.856  1.00  0.00     0.031 A 
ATOM     57  C   UNL A   1      47.097  27.360  24.787  1.00  0.00     0.131 A 
ATOM     58  C   UNL A   1      49.045  25.996  26.198  1.00  0.00     0.055 A 
ATOM     59  C   UNL A   1      48.222  26.873  24.119  1.00  0.00     0.041 A 
ATOM     60  F   UNL A   1      46.211  28.073  24.074  1.00  0.00    -0.206 F 
ATOM     61  C   UNL A   1      49.215  26.204  24.828  1.00  0.00     0.022 A 
BRANCH  58  62
ATOM     62  S   UNL A   1      50.413  25.345  27.196  1.00  0.00     0.124 S 
ATOM     63  O   UNL A   1      51.382  24.980  26.165  1.00  0.00    -0.237 OA
ATOM     64  O   UNL A   1      50.768  26.488  28.029  1.00  0.00    -0.237 OA
ATOM     65  O   UNL A   1      49.813  24.216  27.905  1.00  0.00    -0.744 OA
ENDBRANCH  58  62
ENDBRANCH  41  55
BRANCH  42  66
ATOM     66  C   UNL A   1      38.863  30.422  31.175  1.00  0.00     0.023 A 
ATOM     67  C   UNL A   1      37.800  31.099  30.555  1.00  0.00     0.031 A 
ATOM     68  C   UNL A   1      38.801  30.227  32.566  1.00  0.00     0.131 A 
ATOM     69  C   UNL A   1      36.738  31.591  31.330  1.00  0.00     0.055 A 
ATOM     70  C   UNL A   1      37.721  30.680  33.325  1.00  0.00     0.041 A 
ATOM     71  F   UNL A   1      39.786  29.575  33.204  1.00  0.00    -0.206 F 
ATOM     72  C   UNL A   1      36.686  31.377  32.708  1.00  0.00     0.022 A 
BRANCH  69  73
ATOM     73  S   UNL A   1      35.450  32.571  30.512  1.00  0.00     0.124 S 
ATOM     74  O   UNL A   1      36.128  33.846  30.310  1.00  0.00    -0.237 OA
ATOM     75  O   UNL A   1      35.189  31.785  29.310  1.00  0.00    -0.237 OA
ATOM     76  O   UNL A   1      34.364  32.588  31.490  1.00  0.00    -0.744 OA
ENDBRANCH  69  73
ENDBRANCH  42  66
BRANCH  54  77
ATOM     77  C   UNL A   1      45.133  33.148  29.834  1.00  0.00     0.023 A 
ATOM     78  C   UNL A   1      44.983  34.277  29.009  1.00  0.00     0.031 A 
ATOM     79  C   UNL A   1      45.895  33.280  31.007  1.00  0.00     0.131 A 
ATOM     80  C   UNL A   1      45.630  35.476  29.345  1.00  0.00     0.055 A 
ATOM     81  C   UNL A   1      46.493  34.490  31.364  1.00  0.00     0.041 A 
ATOM     82  F   UNL A   1      46.072  32.232  31.828  1.00  0.00    -0.206 F 
ATOM     83  C   UNL A   1      46.372  35.593  30.523  1.00  0.00     0.022 A 
BRANCH  80  84
ATOM     84  S   UNL A   1      45.559  36.861  28.176  1.00  0.00     0.124 S 
ATOM     85  O   UNL A   1      45.037  37.938  29.011  1.00  0.00    -0.237 OA
ATOM     86  O   UNL A   1      46.953  36.993  27.763  1.00  0.00    -0.237 OA
ATOM     87  O   UNL A   1      44.649  36.386  27.135  1.00  0.00    -0.744 OA
ENDBRANCH  80  84
ENDBRANCH  54  77
ENDBRANCH  28  29
ENDBRANCH  20  23
ENDBRANCH  18  19
ENDBRANCH   1  18
TORSDOF 15
ENDMDL
