MODEL 1
REMARK VINA RESULT:     -12.3      0.000      0.000
REMARK SMILES CC1CCN(C(=O)N[C@]2(C(=O)NCCCCNC(=O)c3ccc(-c4c5nc(c(-c6cc(S(=O)(=O)[O-])ccc6F)c6ccc([nH]6)c(-c6cc(S(=O)(=O)[O-])ccc6F)c6nc(c(-c7cc(S(=O)(=O)[O-])ccc7F)c7ccc4[nH]7)C=C6)C=C5)cc3)CCSC2)CC1
REMARK SMILES IDX 15 1 14 2 13 3 12 4 10 5 11 6 9 8 83 9 86 10 84 11 85 12
REMARK SMILES IDX 8 13 1 14 2 15 3 16 88 17 4 18 87 19 5 20 6 21 7 22 16 24
REMARK SMILES IDX 17 25 18 26 19 28 20 29 21 30 82 31 22 32 81 33 23 34 24 35
REMARK SMILES IDX 25 36 75 37 26 38 80 39 74 40 76 41 27 42 79 43 73 44 72 45
REMARK SMILES IDX 28 47 60 48 40 49 59 50 41 51 44 52 58 53 77 54 42 55 43 56
REMARK SMILES IDX 57 58 78 59 45 60 29 61 30 62 38 63 31 64 37 65 39 66 36 67
REMARK SMILES IDX 32 68 33 69 34 70 35 71 61 72 62 73 70 74 63 75 69 76 71 77
REMARK SMILES IDX 68 78 64 79 65 80 66 81 67 82 46 83 47 84 55 85 48 86 54 87
REMARK SMILES IDX 56 88 53 89 49 90 50 91 51 92 52 93
REMARK H PARENT 12 7 8 23 17 27 76 46 44 57
REMARK Flexibility Score: inf
ROOT
ATOM      1  C   UNL A   1      31.401  31.854  26.896  1.00  0.00     0.023 C 
ENDROOT
BRANCH   1   2
ATOM      2  C   UNL A   1      31.404  30.890  25.709  1.00  0.00     0.023 C 
BRANCH   2   3
ATOM      3  C   UNL A   1      31.923  29.456  25.900  1.00  0.00     0.116 C 
BRANCH   3   4
ATOM      4  N   UNL A   1      32.962  29.010  24.992  1.00  0.00    -0.354 N 
ATOM      5  C   UNL A   1      32.962  28.582  23.701  1.00  0.00     0.246 C 
ATOM      6  O   UNL A   1      34.051  28.699  23.120  1.00  0.00    -0.272 OA
ATOM      7  H   UNL A   1      33.859  29.018  25.397  1.00  0.00     0.163 HD
BRANCH   5   8
ATOM      8  C   UNL A   1      31.731  28.033  22.919  1.00  0.00     0.130 C 
ATOM      9  C   UNL A   1      30.554  27.346  23.635  1.00  0.00     0.050 C 
ATOM     10  C   UNL A   1      31.182  29.319  22.219  1.00  0.00     0.108 C 
ATOM     11  C   UNL A   1      29.217  27.870  23.130  1.00  0.00     0.072 C 
ATOM     12  S   UNL A   1      29.514  29.614  22.850  1.00  0.00    -0.159 SA
BRANCH   8  13
ATOM     13  N   UNL A   1      32.250  27.093  21.873  1.00  0.00    -0.323 N 
ATOM     14  C   UNL A   1      35.908  24.077  25.752  1.00  0.00     0.008 C 
ATOM     15  C   UNL A   1      34.635  23.938  24.917  1.00  0.00    -0.011 C 
ATOM     16  C   UNL A   1      34.943  23.709  23.430  1.00  0.00     0.025 C 
ATOM     17  C   UNL A   1      33.781  25.196  25.071  1.00  0.00     0.025 C 
ATOM     18  C   UNL A   1      33.675  23.754  22.560  1.00  0.00     0.121 C 
ATOM     19  C   UNL A   1      32.524  25.103  24.209  1.00  0.00     0.121 C 
ATOM     20  N   UNL A   1      32.896  24.977  22.810  1.00  0.00    -0.325 N 
ATOM     21  C   UNL A   1      32.677  25.824  21.765  1.00  0.00     0.318 C 
ATOM     22  O   UNL A   1      32.903  25.478  20.598  1.00  0.00    -0.249 OA
ATOM     23  H   UNL A   1      32.291  27.545  20.998  1.00  0.00     0.166 HD
ENDBRANCH   8  13
ENDBRANCH   5   8
ENDBRANCH   3   4
ENDBRANCH   2   3
ENDBRANCH   1   2
BRANCH   1  24
ATOM     24  C   UNL A   1      32.717  32.525  27.248  1.00  0.00     0.116 C 
BRANCH  24  25
ATOM     25  N   UNL A   1      32.528  33.914  27.619  1.00  0.00    -0.352 N 
ATOM     26  C   UNL A   1      33.140  34.643  28.607  1.00  0.00     0.251 C 
ATOM     27  H   UNL A   1      31.863  34.406  27.082  1.00  0.00     0.163 HD
ATOM     28  O   UNL A   1      32.690  35.747  28.898  1.00  0.00    -0.269 OA
BRANCH  26  29
ATOM     29  C   UNL A   1      34.306  34.092  29.333  1.00  0.00     0.039 A 
ATOM     30  C   UNL A   1      34.073  33.252  30.424  1.00  0.00     0.014 A 
ATOM     31  C   UNL A   1      35.616  34.410  28.963  1.00  0.00     0.014 A 
ATOM     32  C   UNL A   1      35.152  32.691  31.112  1.00  0.00     0.010 A 
ATOM     33  C   UNL A   1      36.690  33.795  29.606  1.00  0.00     0.010 A 
ATOM     34  C   UNL A   1      36.470  32.932  30.690  1.00  0.00    -0.014 A 
BRANCH  34  35
ATOM     35  C   UNL A   1      37.619  32.285  31.378  1.00  0.00     0.031 A 
ATOM     36  C   UNL A   1      38.357  31.150  30.719  1.00  0.00     0.074 A 
ATOM     37  C   UNL A   1      37.971  32.696  32.613  1.00  0.00     0.049 A 
ATOM     38  N   UNL A   1      39.352  30.436  31.178  1.00  0.00    -0.248 NA
ATOM     39  C   UNL A   1      37.902  30.754  29.378  1.00  0.00     0.031 C 
ATOM     40  C   UNL A   1      37.307  33.764  33.366  1.00  0.00     0.029 A 
ATOM     41  N   UNL A   1      38.965  32.269  33.456  1.00  0.00    -0.354 N 
ATOM     42  C   UNL A   1      39.638  29.500  30.188  1.00  0.00     0.074 A 
ATOM     43  C   UNL A   1      38.672  29.704  29.130  1.00  0.00     0.031 C 
ATOM     44  C   UNL A   1      37.929  33.923  34.545  1.00  0.00     0.029 A 
ATOM     45  C   UNL A   1      39.000  32.939  34.657  1.00  0.00     0.049 A 
ATOM     46  H   UNL A   1      39.595  31.548  33.223  1.00  0.00     0.167 HD
ATOM     47  C   UNL A   1      40.626  28.571  30.160  1.00  0.00     0.034 A 
ATOM     48  C   UNL A   1      39.796  32.771  35.734  1.00  0.00     0.034 A 
ATOM     49  C   UNL A   1      41.587  28.388  31.221  1.00  0.00     0.049 A 
ATOM     50  C   UNL A   1      40.867  31.709  35.686  1.00  0.00     0.074 A 
ATOM     51  C   UNL A   1      42.662  27.516  31.267  1.00  0.00     0.029 A 
ATOM     52  N   UNL A   1      41.587  29.079  32.426  1.00  0.00    -0.354 N 
ATOM     53  N   UNL A   1      41.158  30.872  34.717  1.00  0.00    -0.248 NA
ATOM     54  C   UNL A   1      41.724  31.579  36.872  1.00  0.00     0.031 C 
ATOM     55  C   UNL A   1      43.262  27.624  32.526  1.00  0.00     0.029 A 
ATOM     56  C   UNL A   1      42.618  28.625  33.235  1.00  0.00     0.049 A 
ATOM     57  H   UNL A   1      40.948  29.787  32.669  1.00  0.00     0.167 HD
ATOM     58  C   UNL A   1      42.253  30.139  35.167  1.00  0.00     0.074 A 
ATOM     59  C   UNL A   1      42.582  30.649  36.482  1.00  0.00     0.031 C 
ATOM     60  C   UNL A   1      42.929  29.136  34.549  1.00  0.00     0.034 A 
BRANCH  47  61
ATOM     61  C   UNL A   1      40.699  27.663  28.955  1.00  0.00     0.023 A 
ATOM     62  C   UNL A   1      41.630  27.874  27.922  1.00  0.00     0.031 A 
ATOM     63  C   UNL A   1      39.827  26.565  28.838  1.00  0.00     0.131 A 
ATOM     64  C   UNL A   1      41.625  27.040  26.793  1.00  0.00     0.055 A 
ATOM     65  C   UNL A   1      39.880  25.693  27.750  1.00  0.00     0.041 A 
ATOM     66  F   UNL A   1      38.902  26.325  29.782  1.00  0.00    -0.206 F 
ATOM     67  C   UNL A   1      40.776  25.935  26.713  1.00  0.00     0.022 A 
BRANCH  64  68
ATOM     68  S   UNL A   1      42.660  27.496  25.375  1.00  0.00     0.124 S 
ATOM     69  O   UNL A   1      42.702  26.242  24.627  1.00  0.00    -0.237 OA
ATOM     70  O   UNL A   1      41.900  28.581  24.764  1.00  0.00    -0.237 OA
ATOM     71  O   UNL A   1      43.928  27.890  25.988  1.00  0.00    -0.744 OA
ENDBRANCH  64  68
ENDBRANCH  47  61
BRANCH  48  72
ATOM     72  C   UNL A   1      39.605  33.604  36.958  1.00  0.00     0.023 A 
ATOM     73  C   UNL A   1      38.962  33.087  38.094  1.00  0.00     0.031 A 
ATOM     74  C   UNL A   1      40.004  34.953  36.985  1.00  0.00     0.131 A 
ATOM     75  C   UNL A   1      38.683  33.927  39.184  1.00  0.00     0.055 A 
ATOM     76  C   UNL A   1      39.782  35.767  38.098  1.00  0.00     0.041 A 
ATOM     77  F   UNL A   1      40.625  35.500  35.928  1.00  0.00    -0.206 F 
ATOM     78  C   UNL A   1      39.102  35.259  39.199  1.00  0.00     0.022 A 
BRANCH  75  79
ATOM     79  S   UNL A   1      37.663  33.281  40.538  1.00  0.00     0.124 S 
ATOM     80  O   UNL A   1      37.431  34.481  41.332  1.00  0.00    -0.237 OA
ATOM     81  O   UNL A   1      36.508  32.752  39.820  1.00  0.00    -0.237 OA
ATOM     82  O   UNL A   1      38.522  32.274  41.159  1.00  0.00    -0.744 OA
ENDBRANCH  75  79
ENDBRANCH  48  72
BRANCH  60  83
ATOM     83  C   UNL A   1      44.119  28.559  35.278  1.00  0.00     0.023 A 
ATOM     84  C   UNL A   1      44.012  27.410  36.081  1.00  0.00     0.031 A 
ATOM     85  C   UNL A   1      45.377  29.182  35.183  1.00  0.00     0.131 A 
ATOM     86  C   UNL A   1      45.125  26.956  36.805  1.00  0.00     0.055 A 
ATOM     87  C   UNL A   1      46.497  28.686  35.851  1.00  0.00     0.041 A 
ATOM     88  F   UNL A   1      45.538  30.286  34.434  1.00  0.00    -0.206 F 
ATOM     89  C   UNL A   1      46.371  27.575  36.680  1.00  0.00     0.022 A 
BRANCH  86  90
ATOM     90  S   UNL A   1      44.897  25.608  37.997  1.00  0.00     0.124 S 
ATOM     91  O   UNL A   1      44.033  26.229  38.995  1.00  0.00    -0.237 OA
ATOM     92  O   UNL A   1      44.281  24.569  37.179  1.00  0.00    -0.237 OA
ATOM     93  O   UNL A   1      46.257  25.316  38.448  1.00  0.00    -0.744 OA
ENDBRANCH  86  90
ENDBRANCH  60  83
ENDBRANCH  34  35
ENDBRANCH  26  29
ENDBRANCH  24  25
ENDBRANCH   1  24
TORSDOF 15
ENDMDL
MODEL 2
REMARK VINA RESULT:     -12.2      5.963     11.743
REMARK SMILES CC1CCN(C(=O)N[C@]2(C(=O)NCCCCNC(=O)c3ccc(-c4c5nc(c(-c6cc(S(=O)(=O)[O-])ccc6F)c6ccc([nH]6)c(-c6cc(S(=O)(=O)[O-])ccc6F)c6nc(c(-c7cc(S(=O)(=O)[O-])ccc7F)c7ccc4[nH]7)C=C6)C=C5)cc3)CCSC2)CC1
REMARK SMILES IDX 15 1 14 2 13 3 12 4 10 5 11 6 9 8 83 9 86 10 84 11 85 12
REMARK SMILES IDX 8 13 1 14 2 15 3 16 88 17 4 18 87 19 5 20 6 21 7 22 16 24
REMARK SMILES IDX 17 25 18 26 19 28 20 29 21 30 82 31 22 32 81 33 23 34 24 35
REMARK SMILES IDX 25 36 75 37 26 38 80 39 74 40 76 41 27 42 79 43 73 44 72 45
REMARK SMILES IDX 28 47 60 48 40 49 59 50 41 51 44 52 58 53 77 54 42 55 43 56
REMARK SMILES IDX 57 58 78 59 45 60 29 61 30 62 38 63 31 64 37 65 39 66 36 67
REMARK SMILES IDX 32 68 33 69 34 70 35 71 61 72 62 73 70 74 63 75 69 76 71 77
REMARK SMILES IDX 68 78 64 79 65 80 66 81 67 82 46 83 47 84 55 85 48 86 54 87
REMARK SMILES IDX 56 88 53 89 49 90 50 91 51 92 52 93
REMARK H PARENT 12 7 8 23 17 27 76 46 44 57
REMARK Flexibility Score: inf
ROOT
ATOM      1  C   UNL A   1      37.967  20.081  24.810  1.00  0.00     0.023 C 
ENDROOT
BRANCH   1   2
ATOM      2  C   UNL A   1      36.546  20.594  25.046  1.00  0.00     0.023 C 
BRANCH   2   3
ATOM      3  C   UNL A   1      36.294  22.108  25.143  1.00  0.00     0.116 C 
BRANCH   3   4
ATOM      4  N   UNL A   1      35.580  22.579  26.313  1.00  0.00    -0.354 N 
ATOM      5  C   UNL A   1      34.319  22.389  26.786  1.00  0.00     0.246 C 
ATOM      6  O   UNL A   1      34.192  22.576  28.005  1.00  0.00    -0.272 OA
ATOM      7  H   UNL A   1      36.126  23.161  26.890  1.00  0.00     0.163 HD
BRANCH   5   8
ATOM      8  C   UNL A   1      33.092  21.918  25.950  1.00  0.00     0.130 C 
ATOM      9  C   UNL A   1      33.019  22.121  24.426  1.00  0.00     0.050 C 
ATOM     10  C   UNL A   1      33.069  20.380  26.231  1.00  0.00     0.108 C 
ATOM     11  C   UNL A   1      32.558  20.854  23.720  1.00  0.00     0.072 C 
ATOM     12  S   UNL A   1      33.327  19.534  24.655  1.00  0.00    -0.159 SA
BRANCH   8  13
ATOM     13  N   UNL A   1      31.872  22.542  26.560  1.00  0.00    -0.323 N 
ATOM     14  C   UNL A   1      34.235  28.193  26.611  1.00  0.00     0.008 C 
ATOM     15  C   UNL A   1      33.173  27.320  25.943  1.00  0.00    -0.011 C 
ATOM     16  C   UNL A   1      31.937  27.130  26.835  1.00  0.00     0.025 C 
ATOM     17  C   UNL A   1      33.770  25.955  25.603  1.00  0.00     0.025 C 
ATOM     18  C   UNL A   1      30.949  26.107  26.249  1.00  0.00     0.121 C 
ATOM     19  C   UNL A   1      32.716  25.047  24.976  1.00  0.00     0.121 C 
ATOM     20  N   UNL A   1      31.623  24.843  25.912  1.00  0.00    -0.325 N 
ATOM     21  C   UNL A   1      31.198  23.704  26.528  1.00  0.00     0.318 C 
ATOM     22  O   UNL A   1      30.134  23.672  27.161  1.00  0.00    -0.249 OA
ATOM     23  H   UNL A   1      31.431  21.905  27.169  1.00  0.00     0.166 HD
ENDBRANCH   8  13
ENDBRANCH   5   8
ENDBRANCH   3   4
ENDBRANCH   2   3
ENDBRANCH   1   2
BRANCH   1  24
ATOM     24  C   UNL A   1      39.025  20.479  25.824  1.00  0.00     0.116 C 
BRANCH  24  25
ATOM     25  N   UNL A   1      40.048  19.460  25.958  1.00  0.00    -0.352 N 
ATOM     26  C   UNL A   1      41.402  19.602  26.132  1.00  0.00     0.251 C 
ATOM     27  H   UNL A   1      39.724  18.530  25.919  1.00  0.00     0.163 HD
ATOM     28  O   UNL A   1      42.124  18.617  26.013  1.00  0.00    -0.269 OA
BRANCH  26  29
ATOM     29  C   UNL A   1      41.985  20.930  26.427  1.00  0.00     0.039 A 
ATOM     30  C   UNL A   1      42.234  21.798  25.362  1.00  0.00     0.014 A 
ATOM     31  C   UNL A   1      42.304  21.316  27.733  1.00  0.00     0.014 A 
ATOM     32  C   UNL A   1      42.755  23.070  25.610  1.00  0.00     0.010 A 
ATOM     33  C   UNL A   1      42.759  22.610  27.985  1.00  0.00     0.010 A 
ATOM     34  C   UNL A   1      42.993  23.499  26.926  1.00  0.00    -0.014 A 
BRANCH  34  35
ATOM     35  C   UNL A   1      43.486  24.876  27.200  1.00  0.00     0.031 A 
ATOM     36  C   UNL A   1      42.549  25.926  27.735  1.00  0.00     0.074 A 
ATOM     37  C   UNL A   1      44.769  25.188  26.929  1.00  0.00     0.049 A 
ATOM     38  N   UNL A   1      42.782  27.187  27.994  1.00  0.00    -0.248 NA
ATOM     39  C   UNL A   1      41.162  25.508  27.990  1.00  0.00     0.031 C 
ATOM     40  C   UNL A   1      45.763  24.263  26.376  1.00  0.00     0.029 A 
ATOM     41  N   UNL A   1      45.462  26.364  27.075  1.00  0.00    -0.354 N 
ATOM     42  C   UNL A   1      41.573  27.716  28.434  1.00  0.00     0.074 A 
ATOM     43  C   UNL A   1      40.597  26.651  28.352  1.00  0.00     0.031 C 
ATOM     44  C   UNL A   1      46.938  24.899  26.255  1.00  0.00     0.029 A 
ATOM     45  C   UNL A   1      46.775  26.288  26.671  1.00  0.00     0.049 A 
ATOM     46  H   UNL A   1      45.055  27.185  27.435  1.00  0.00     0.167 HD
ATOM     47  C   UNL A   1      41.309  28.969  28.882  1.00  0.00     0.034 A 
ATOM     48  C   UNL A   1      47.736  27.235  26.626  1.00  0.00     0.034 A 
ATOM     49  C   UNL A   1      42.298  30.016  28.968  1.00  0.00     0.049 A 
ATOM     50  C   UNL A   1      47.405  28.628  27.102  1.00  0.00     0.074 A 
ATOM     51  C   UNL A   1      42.149  31.302  29.460  1.00  0.00     0.029 A 
ATOM     52  N   UNL A   1      43.615  29.907  28.541  1.00  0.00    -0.354 N 
ATOM     53  N   UNL A   1      46.270  29.094  27.570  1.00  0.00    -0.248 NA
ATOM     54  C   UNL A   1      48.489  29.617  27.057  1.00  0.00     0.031 C 
ATOM     55  C   UNL A   1      43.350  31.990  29.261  1.00  0.00     0.029 A 
ATOM     56  C   UNL A   1      44.277  31.112  28.724  1.00  0.00     0.049 A 
ATOM     57  H   UNL A   1      44.020  29.093  28.164  1.00  0.00     0.167 HD
ATOM     58  C   UNL A   1      46.516  30.423  27.904  1.00  0.00     0.074 A 
ATOM     59  C   UNL A   1      47.910  30.675  27.605  1.00  0.00     0.031 C 
ATOM     60  C   UNL A   1      45.666  31.353  28.413  1.00  0.00     0.034 A 
BRANCH  47  61
ATOM     61  C   UNL A   1      39.888  29.282  29.290  1.00  0.00     0.023 A 
ATOM     62  C   UNL A   1      39.508  29.381  30.639  1.00  0.00     0.031 A 
ATOM     63  C   UNL A   1      38.899  29.490  28.311  1.00  0.00     0.131 A 
ATOM     64  C   UNL A   1      38.166  29.617  30.974  1.00  0.00     0.055 A 
ATOM     65  C   UNL A   1      37.581  29.803  28.650  1.00  0.00     0.041 A 
ATOM     66  F   UNL A   1      39.196  29.387  27.006  1.00  0.00    -0.206 F 
ATOM     67  C   UNL A   1      37.205  29.857  29.989  1.00  0.00     0.022 A 
BRANCH  64  68
ATOM     68  S   UNL A   1      37.669  29.483  32.713  1.00  0.00     0.124 S 
ATOM     69  O   UNL A   1      38.804  30.103  33.392  1.00  0.00    -0.237 OA
ATOM     70  O   UNL A   1      36.418  30.232  32.744  1.00  0.00    -0.237 OA
ATOM     71  O   UNL A   1      37.539  28.042  32.923  1.00  0.00    -0.744 OA
ENDBRANCH  64  68
ENDBRANCH  47  61
BRANCH  48  72
ATOM     72  C   UNL A   1      49.093  26.915  26.093  1.00  0.00     0.023 A 
ATOM     73  C   UNL A   1      49.497  27.360  24.825  1.00  0.00     0.031 A 
ATOM     74  C   UNL A   1      49.983  26.102  26.819  1.00  0.00     0.131 A 
ATOM     75  C   UNL A   1      50.728  26.941  24.295  1.00  0.00     0.055 A 
ATOM     76  C   UNL A   1      51.234  25.742  26.314  1.00  0.00     0.041 A 
ATOM     77  F   UNL A   1      49.650  25.649  28.039  1.00  0.00    -0.206 F 
ATOM     78  C   UNL A   1      51.605  26.148  25.037  1.00  0.00     0.022 A 
BRANCH  75  79
ATOM     79  S   UNL A   1      51.118  27.358  22.573  1.00  0.00     0.124 S 
ATOM     80  O   UNL A   1      50.037  26.695  21.855  1.00  0.00    -0.237 OA
ATOM     81  O   UNL A   1      51.074  28.817  22.598  1.00  0.00    -0.237 OA
ATOM     82  O   UNL A   1      52.447  26.781  22.376  1.00  0.00    -0.744 OA
ENDBRANCH  75  79
ENDBRANCH  48  72
BRANCH  60  83
ATOM     83  C   UNL A   1      46.243  32.715  28.719  1.00  0.00     0.023 A 
ATOM     84  C   UNL A   1      46.249  33.749  27.767  1.00  0.00     0.031 A 
ATOM     85  C   UNL A   1      46.813  32.974  29.979  1.00  0.00     0.131 A 
ATOM     86  C   UNL A   1      46.869  34.972  28.067  1.00  0.00     0.055 A 
ATOM     87  C   UNL A   1      47.367  34.215  30.295  1.00  0.00     0.041 A 
ATOM     88  F   UNL A   1      46.840  32.022  30.927  1.00  0.00    -0.206 F 
ATOM     89  C   UNL A   1      47.410  35.218  29.331  1.00  0.00     0.022 A 
BRANCH  86  90
ATOM     90  S   UNL A   1      47.053  36.201  26.745  1.00  0.00     0.124 S 
ATOM     91  O   UNL A   1      48.078  37.082  27.293  1.00  0.00    -0.237 OA
ATOM     92  O   UNL A   1      47.458  35.380  25.610  1.00  0.00    -0.237 OA
ATOM     93  O   UNL A   1      45.719  36.791  26.638  1.00  0.00    -0.744 OA
ENDBRANCH  86  90
ENDBRANCH  60  83
ENDBRANCH  34  35
ENDBRANCH  26  29
ENDBRANCH  24  25
ENDBRANCH   1  24
TORSDOF 15
ENDMDL
MODEL 3
REMARK VINA RESULT:     -12.0      1.361      1.704
REMARK SMILES CC1CCN(C(=O)N[C@]2(C(=O)NCCCCNC(=O)c3ccc(-c4c5nc(c(-c6cc(S(=O)(=O)[O-])ccc6F)c6ccc([nH]6)c(-c6cc(S(=O)(=O)[O-])ccc6F)c6nc(c(-c7cc(S(=O)(=O)[O-])ccc7F)c7ccc4[nH]7)C=C6)C=C5)cc3)CCSC2)CC1
REMARK SMILES IDX 15 1 14 2 13 3 12 4 10 5 11 6 9 8 83 9 86 10 84 11 85 12
REMARK SMILES IDX 8 13 1 14 2 15 3 16 88 17 4 18 87 19 5 20 6 21 7 22 16 24
REMARK SMILES IDX 17 25 18 26 19 28 20 29 21 30 82 31 22 32 81 33 23 34 24 35
REMARK SMILES IDX 25 36 75 37 26 38 80 39 74 40 76 41 27 42 79 43 73 44 72 45
REMARK SMILES IDX 28 47 60 48 40 49 59 50 41 51 44 52 58 53 77 54 42 55 43 56
REMARK SMILES IDX 57 58 78 59 45 60 29 61 30 62 38 63 31 64 37 65 39 66 36 67
REMARK SMILES IDX 32 68 33 69 34 70 35 71 61 72 62 73 70 74 63 75 69 76 71 77
REMARK SMILES IDX 68 78 64 79 65 80 66 81 67 82 46 83 47 84 55 85 48 86 54 87
REMARK SMILES IDX 56 88 53 89 49 90 50 91 51 92 52 93
REMARK H PARENT 12 7 8 23 17 27 76 46 44 57
REMARK Flexibility Score: inf
ROOT
ATOM      1  C   UNL A   1      31.206  31.978  26.574  1.00  0.00     0.023 C 
ENDROOT
BRANCH   1   2
ATOM      2  C   UNL A   1      31.116  30.828  25.570  1.00  0.00     0.023 C 
BRANCH   2   3
ATOM      3  C   UNL A   1      31.842  29.506  25.867  1.00  0.00     0.116 C 
BRANCH   3   4
ATOM      4  N   UNL A   1      32.895  29.119  24.949  1.00  0.00    -0.354 N 
ATOM      5  C   UNL A   1      32.908  28.678  23.663  1.00  0.00     0.246 C 
ATOM      6  O   UNL A   1      33.980  28.860  23.066  1.00  0.00    -0.272 OA
ATOM      7  H   UNL A   1      33.795  29.190  25.343  1.00  0.00     0.163 HD
BRANCH   5   8
ATOM      8  C   UNL A   1      31.705  28.042  22.903  1.00  0.00     0.130 C 
ATOM      9  C   UNL A   1      30.582  27.291  23.641  1.00  0.00     0.050 C 
ATOM     10  C   UNL A   1      31.067  29.282  22.194  1.00  0.00     0.108 C 
ATOM     11  C   UNL A   1      29.209  27.722  23.146  1.00  0.00     0.072 C 
ATOM     12  S   UNL A   1      29.391  29.477  22.842  1.00  0.00    -0.159 SA
BRANCH   8  13
ATOM     13  N   UNL A   1      32.271  27.124  21.862  1.00  0.00    -0.323 N 
ATOM     14  C   UNL A   1      35.903  24.158  25.803  1.00  0.00     0.008 C 
ATOM     15  C   UNL A   1      34.655  23.997  24.936  1.00  0.00    -0.011 C 
ATOM     16  C   UNL A   1      35.003  23.789  23.455  1.00  0.00     0.025 C 
ATOM     17  C   UNL A   1      33.768  25.234  25.080  1.00  0.00     0.025 C 
ATOM     18  C   UNL A   1      33.756  23.812  22.554  1.00  0.00     0.121 C 
ATOM     19  C   UNL A   1      32.535  25.119  24.187  1.00  0.00     0.121 C 
ATOM     20  N   UNL A   1      32.943  25.015  22.796  1.00  0.00    -0.325 N 
ATOM     21  C   UNL A   1      32.730  25.866  21.753  1.00  0.00     0.318 C 
ATOM     22  O   UNL A   1      32.993  25.537  20.589  1.00  0.00    -0.249 OA
ATOM     23  H   UNL A   1      32.322  27.584  20.992  1.00  0.00     0.166 HD
ENDBRANCH   8  13
ENDBRANCH   5   8
ENDBRANCH   3   4
ENDBRANCH   2   3
ENDBRANCH   1   2
BRANCH   1  24
ATOM     24  C   UNL A   1      32.591  32.516  26.891  1.00  0.00     0.116 C 
BRANCH  24  25
ATOM     25  N   UNL A   1      32.533  33.864  27.422  1.00  0.00    -0.352 N 
ATOM     26  C   UNL A   1      33.250  34.428  28.447  1.00  0.00     0.251 C 
ATOM     27  H   UNL A   1      31.885  34.462  26.982  1.00  0.00     0.163 HD
ATOM     28  O   UNL A   1      32.906  35.522  28.883  1.00  0.00    -0.269 OA
BRANCH  26  29
ATOM     29  C   UNL A   1      34.402  33.711  29.039  1.00  0.00     0.039 A 
ATOM     30  C   UNL A   1      35.690  34.148  28.723  1.00  0.00     0.014 A 
ATOM     31  C   UNL A   1      34.224  32.608  29.880  1.00  0.00     0.014 A 
ATOM     32  C   UNL A   1      36.798  33.512  29.290  1.00  0.00     0.010 A 
ATOM     33  C   UNL A   1      35.327  32.019  30.498  1.00  0.00     0.010 A 
ATOM     34  C   UNL A   1      36.625  32.462  30.207  1.00  0.00    -0.014 A 
BRANCH  34  35
ATOM     35  C   UNL A   1      37.799  31.825  30.863  1.00  0.00     0.031 A 
ATOM     36  C   UNL A   1      38.610  30.790  30.130  1.00  0.00     0.074 A 
ATOM     37  C   UNL A   1      38.108  32.154  32.134  1.00  0.00     0.049 A 
ATOM     38  N   UNL A   1      39.637  30.097  30.549  1.00  0.00    -0.248 NA
ATOM     39  C   UNL A   1      38.199  30.480  28.752  1.00  0.00     0.031 C 
ATOM     40  C   UNL A   1      37.374  33.119  32.957  1.00  0.00     0.029 A 
ATOM     41  N   UNL A   1      39.112  31.714  32.960  1.00  0.00    -0.354 N 
ATOM     42  C   UNL A   1      39.990  29.261  29.494  1.00  0.00     0.074 A 
ATOM     43  C   UNL A   1      39.030  29.498  28.436  1.00  0.00     0.031 C 
ATOM     44  C   UNL A   1      37.967  33.214  34.157  1.00  0.00     0.029 A 
ATOM     45  C   UNL A   1      39.091  32.286  34.211  1.00  0.00     0.049 A 
ATOM     46  H   UNL A   1      39.785  31.051  32.681  1.00  0.00     0.167 HD
ATOM     47  C   UNL A   1      41.029  28.394  29.410  1.00  0.00     0.034 A 
ATOM     48  C   UNL A   1      39.878  32.075  35.287  1.00  0.00     0.034 A 
ATOM     49  C   UNL A   1      41.983  28.179  30.472  1.00  0.00     0.049 A 
ATOM     50  C   UNL A   1      41.008  31.081  35.175  1.00  0.00     0.074 A 
ATOM     51  C   UNL A   1      43.104  27.366  30.469  1.00  0.00     0.029 A 
ATOM     52  N   UNL A   1      41.925  28.768  31.728  1.00  0.00    -0.354 N 
ATOM     53  N   UNL A   1      41.361  30.343  34.148  1.00  0.00    -0.248 NA
ATOM     54  C   UNL A   1      41.853  30.902  36.362  1.00  0.00     0.031 C 
ATOM     55  C   UNL A   1      43.677  27.404  31.744  1.00  0.00     0.029 A 
ATOM     56  C   UNL A   1      42.968  28.307  32.518  1.00  0.00     0.049 A 
ATOM     57  H   UNL A   1      41.243  29.417  32.015  1.00  0.00     0.167 HD
ATOM     58  C   UNL A   1      42.489  29.637  34.558  1.00  0.00     0.074 A 
ATOM     59  C   UNL A   1      42.768  30.055  35.916  1.00  0.00     0.031 C 
ATOM     60  C   UNL A   1      43.229  28.725  33.875  1.00  0.00     0.034 A 
BRANCH  47  61
ATOM     61  C   UNL A   1      41.172  27.592  28.138  1.00  0.00     0.023 A 
ATOM     62  C   UNL A   1      40.823  26.231  28.074  1.00  0.00     0.031 A 
ATOM     63  C   UNL A   1      41.661  28.200  26.967  1.00  0.00     0.131 A 
ATOM     64  C   UNL A   1      41.026  25.511  26.887  1.00  0.00     0.055 A 
ATOM     65  C   UNL A   1      41.785  27.497  25.767  1.00  0.00     0.041 A 
ATOM     66  F   UNL A   1      42.030  29.491  26.971  1.00  0.00    -0.206 F 
ATOM     67  C   UNL A   1      41.478  26.141  25.726  1.00  0.00     0.022 A 
BRANCH  64  68
ATOM     68  S   UNL A   1      40.808  23.711  26.919  1.00  0.00     0.124 S 
ATOM     69  O   UNL A   1      41.828  23.274  25.969  1.00  0.00    -0.237 OA
ATOM     70  O   UNL A   1      41.056  23.385  28.319  1.00  0.00    -0.237 OA
ATOM     71  O   UNL A   1      39.429  23.524  26.469  1.00  0.00    -0.744 OA
ENDBRANCH  64  68
ENDBRANCH  47  61
BRANCH  48  72
ATOM     72  C   UNL A   1      39.622  32.794  36.569  1.00  0.00     0.023 A 
ATOM     73  C   UNL A   1      38.695  32.303  37.502  1.00  0.00     0.031 A 
ATOM     74  C   UNL A   1      40.252  34.019  36.851  1.00  0.00     0.131 A 
ATOM     75  C   UNL A   1      38.380  33.061  38.641  1.00  0.00     0.055 A 
ATOM     76  C   UNL A   1      39.983  34.738  38.017  1.00  0.00     0.041 A 
ATOM     77  F   UNL A   1      41.149  34.536  35.995  1.00  0.00    -0.206 F 
ATOM     78  C   UNL A   1      39.028  34.268  38.912  1.00  0.00     0.022 A 
BRANCH  75  79
ATOM     79  S   UNL A   1      37.025  32.499  39.709  1.00  0.00     0.124 S 
ATOM     80  O   UNL A   1      37.113  33.440  40.819  1.00  0.00    -0.237 OA
ATOM     81  O   UNL A   1      35.868  32.647  38.832  1.00  0.00    -0.237 OA
ATOM     82  O   UNL A   1      37.391  31.120  40.026  1.00  0.00    -0.744 OA
ENDBRANCH  75  79
ENDBRANCH  48  72
BRANCH  60  83
ATOM     83  C   UNL A   1      44.439  28.158  34.579  1.00  0.00     0.023 A 
ATOM     84  C   UNL A   1      44.373  26.967  35.323  1.00  0.00     0.031 A 
ATOM     85  C   UNL A   1      45.673  28.831  34.519  1.00  0.00     0.131 A 
ATOM     86  C   UNL A   1      45.501  26.519  36.028  1.00  0.00     0.055 A 
ATOM     87  C   UNL A   1      46.809  28.345  35.166  1.00  0.00     0.041 A 
ATOM     88  F   UNL A   1      45.794  29.976  33.827  1.00  0.00    -0.206 F 
ATOM     89  C   UNL A   1      46.723  27.190  35.938  1.00  0.00     0.022 A 
BRANCH  86  90
ATOM     90  S   UNL A   1      45.321  25.106  37.151  1.00  0.00     0.124 S 
ATOM     91  O   UNL A   1      44.877  24.054  36.243  1.00  0.00    -0.237 OA
ATOM     92  O   UNL A   1      46.670  24.959  37.686  1.00  0.00    -0.237 OA
ATOM     93  O   UNL A   1      44.319  25.559  38.114  1.00  0.00    -0.744 OA
ENDBRANCH  86  90
ENDBRANCH  60  83
ENDBRANCH  34  35
ENDBRANCH  26  29
ENDBRANCH  24  25
ENDBRANCH   1  24
TORSDOF 15
ENDMDL
