MODEL 1
REMARK VINA RESULT:     -12.8      0.000      0.000
REMARK SMILES Nc1nc2ccccc2nc1N1CCC(C(=O)NCCCCNC(=O)c2ccc(-c3c4nc(c(-c5cc(S(=O)(=O)[O-])ccc5F)c5ccc([nH]5)c(-c5cc(S(=O)(=O)[O-])ccc5F)c5nc(c(-c6cc(S(=O)(=O)[O-])ccc6F)c6ccc3[nH]6)C=C5)C=C4)cc2)CC1
REMARK SMILES IDX 21 1 20 2 19 3 18 4 16 5 17 6 15 8 12 9 13 10 90 11 14 12
REMARK SMILES IDX 89 13 11 14 2 15 3 16 4 17 10 18 5 19 9 20 6 21 8 22 7 23
REMARK SMILES IDX 1 24 22 27 23 28 24 29 25 31 26 32 27 33 88 34 28 35 87 36
REMARK SMILES IDX 29 37 30 38 31 39 81 40 32 41 86 42 80 43 82 44 33 45 85 46
REMARK SMILES IDX 79 47 78 48 34 50 66 51 46 52 65 53 47 54 50 55 64 56 83 57
REMARK SMILES IDX 48 58 49 59 63 61 84 62 51 63 35 64 36 65 44 66 37 67 43 68
REMARK SMILES IDX 45 69 42 70 38 71 39 72 40 73 41 74 67 75 68 76 76 77 69 78
REMARK SMILES IDX 75 79 77 80 74 81 70 82 71 83 72 84 73 85 52 86 53 87 61 88
REMARK SMILES IDX 54 89 60 90 62 91 59 92 55 93 56 94 57 95 58 96
REMARK H PARENT 18 7 1 25 1 26 23 30 82 49 50 60
REMARK Flexibility Score: inf
ROOT
ATOM      1  C   UNL A   1      32.014  29.720  25.378  1.00  0.00     0.023 C 
ENDROOT
BRANCH   1   2
ATOM      2  C   UNL A   1      33.283  29.089  24.815  1.00  0.00     0.023 C 
BRANCH   2   3
ATOM      3  C   UNL A   1      33.080  28.245  23.558  1.00  0.00     0.116 C 
BRANCH   3   4
ATOM      4  N   UNL A   1      32.000  27.281  23.704  1.00  0.00    -0.356 N 
ATOM      5  C   UNL A   1      31.973  26.060  24.310  1.00  0.00     0.223 C 
ATOM      6  O   UNL A   1      30.908  25.437  24.313  1.00  0.00    -0.275 OA
ATOM      7  H   UNL A   1      31.146  27.556  23.298  1.00  0.00     0.163 HD
BRANCH   5   8
ATOM      8  C   UNL A   1      33.204  25.472  24.986  1.00  0.00     0.082 C 
ATOM      9  N   UNL A   1      34.777  23.154  25.485  1.00  0.00    -0.353 N 
ATOM     10  C   UNL A   1      33.972  23.638  26.587  1.00  0.00     0.119 C 
ATOM     11  C   UNL A   1      35.325  24.123  24.552  1.00  0.00     0.119 C 
ATOM     12  C   UNL A   1      32.814  24.484  26.092  1.00  0.00     0.035 C 
ATOM     13  C   UNL A   1      34.206  24.956  23.941  1.00  0.00     0.035 C 
BRANCH   9  14
ATOM     14  C   UNL A   1      34.769  21.806  25.155  1.00  0.00     0.172 A 
ATOM     15  C   UNL A   1      35.926  21.007  25.366  1.00  0.00     0.167 A 
ATOM     16  N   UNL A   1      35.964  19.691  25.087  1.00  0.00    -0.226 NA
ATOM     17  C   UNL A   1      34.835  19.150  24.605  1.00  0.00     0.091 A 
ATOM     18  N   UNL A   1      33.628  21.245  24.690  1.00  0.00    -0.225 NA
ATOM     19  C   UNL A   1      34.820  17.792  24.312  1.00  0.00     0.031 A 
ATOM     20  C   UNL A   1      33.665  19.924  24.399  1.00  0.00     0.091 A 
ATOM     21  C   UNL A   1      33.683  17.170  23.800  1.00  0.00     0.002 A 
ATOM     22  C   UNL A   1      32.538  19.290  23.881  1.00  0.00     0.031 A 
ATOM     23  C   UNL A   1      32.538  17.925  23.578  1.00  0.00     0.002 A 
BRANCH  15  24
ATOM     24  N   UNL A   1      37.098  21.541  25.894  1.00  0.00    -0.381 N 
ATOM     25  H   UNL A   1      37.863  20.952  26.088  1.00  0.00     0.158 HD
ATOM     26  H   UNL A   1      37.162  22.507  26.073  1.00  0.00     0.158 HD
ENDBRANCH  15  24
ENDBRANCH   9  14
ENDBRANCH   5   8
ENDBRANCH   3   4
ENDBRANCH   2   3
ENDBRANCH   1   2
BRANCH   1  27
ATOM     27  C   UNL A   1      32.114  30.200  26.819  1.00  0.00     0.116 C 
BRANCH  27  28
ATOM     28  N   UNL A   1      31.922  31.636  26.972  1.00  0.00    -0.352 N 
ATOM     29  C   UNL A   1      32.814  32.571  27.453  1.00  0.00     0.251 C 
ATOM     30  H   UNL A   1      31.042  31.983  26.699  1.00  0.00     0.163 HD
ATOM     31  O   UNL A   1      32.463  33.736  27.617  1.00  0.00    -0.269 OA
BRANCH  29  32
ATOM     32  C   UNL A   1      34.180  32.133  27.814  1.00  0.00     0.039 A 
ATOM     33  C   UNL A   1      34.431  30.792  28.105  1.00  0.00     0.014 A 
ATOM     34  C   UNL A   1      35.193  33.086  27.953  1.00  0.00     0.014 A 
ATOM     35  C   UNL A   1      35.623  30.441  28.725  1.00  0.00     0.010 A 
ATOM     36  C   UNL A   1      36.430  32.709  28.487  1.00  0.00     0.010 A 
ATOM     37  C   UNL A   1      36.634  31.396  28.938  1.00  0.00    -0.014 A 
BRANCH  37  38
ATOM     38  C   UNL A   1      37.876  30.974  29.640  1.00  0.00     0.031 A 
ATOM     39  C   UNL A   1      38.137  31.368  31.072  1.00  0.00     0.074 A 
ATOM     40  C   UNL A   1      38.720  30.131  29.010  1.00  0.00     0.049 A 
ATOM     41  N   UNL A   1      39.094  30.969  31.870  1.00  0.00    -0.248 NA
ATOM     42  C   UNL A   1      37.211  32.332  31.688  1.00  0.00     0.031 C 
ATOM     43  C   UNL A   1      38.566  29.686  27.624  1.00  0.00     0.029 A 
ATOM     44  N   UNL A   1      39.829  29.458  29.455  1.00  0.00    -0.354 N 
ATOM     45  C   UNL A   1      38.893  31.634  33.076  1.00  0.00     0.074 A 
ATOM     46  C   UNL A   1      37.745  32.493  32.893  1.00  0.00     0.031 C 
ATOM     47  C   UNL A   1      39.481  28.743  27.364  1.00  0.00     0.029 A 
ATOM     48  C   UNL A   1      40.333  28.565  28.537  1.00  0.00     0.049 A 
ATOM     49  H   UNL A   1      40.227  29.601  30.344  1.00  0.00     0.167 HD
ATOM     50  C   UNL A   1      39.589  31.521  34.233  1.00  0.00     0.034 A 
ATOM     51  C   UNL A   1      41.353  27.689  28.629  1.00  0.00     0.034 A 
ATOM     52  C   UNL A   1      40.722  30.647  34.412  1.00  0.00     0.049 A 
ATOM     53  C   UNL A   1      42.118  27.599  29.923  1.00  0.00     0.074 A 
ATOM     54  C   UNL A   1      41.489  30.461  35.548  1.00  0.00     0.029 A 
ATOM     55  N   UNL A   1      41.243  29.804  33.440  1.00  0.00    -0.354 N 
ATOM     56  N   UNL A   1      41.891  28.213  31.061  1.00  0.00    -0.248 NA
ATOM     57  C   UNL A   1      43.280  26.700  29.948  1.00  0.00     0.031 C 
ATOM     58  C   UNL A   1      42.498  29.544  35.253  1.00  0.00     0.029 A 
ATOM     59  C   UNL A   1      42.331  29.112  33.947  1.00  0.00     0.049 A 
ATOM     60  H   UNL A   1      40.891  29.712  32.525  1.00  0.00     0.167 HD
ATOM     61  C   UNL A   1      42.879  27.771  31.936  1.00  0.00     0.074 A 
ATOM     62  C   UNL A   1      43.674  26.803  31.210  1.00  0.00     0.031 C 
ATOM     63  C   UNL A   1      43.117  28.147  33.217  1.00  0.00     0.034 A 
BRANCH  50  64
ATOM     64  C   UNL A   1      39.150  32.338  35.424  1.00  0.00     0.023 A 
ATOM     65  C   UNL A   1      39.640  33.644  35.608  1.00  0.00     0.031 A 
ATOM     66  C   UNL A   1      38.361  31.773  36.443  1.00  0.00     0.131 A 
ATOM     67  C   UNL A   1      39.368  34.329  36.799  1.00  0.00     0.055 A 
ATOM     68  C   UNL A   1      38.062  32.473  37.612  1.00  0.00     0.041 A 
ATOM     69  F   UNL A   1      37.868  30.531  36.312  1.00  0.00    -0.206 F 
ATOM     70  C   UNL A   1      38.577  33.752  37.800  1.00  0.00     0.022 A 
BRANCH  67  71
ATOM     71  S   UNL A   1      40.070  35.970  37.124  1.00  0.00     0.124 S 
ATOM     72  O   UNL A   1      41.488  35.660  37.303  1.00  0.00    -0.237 OA
ATOM     73  O   UNL A   1      39.739  36.690  35.899  1.00  0.00    -0.237 OA
ATOM     74  O   UNL A   1      39.377  36.415  38.328  1.00  0.00    -0.744 OA
ENDBRANCH  67  71
ENDBRANCH  50  64
BRANCH  51  75
ATOM     75  C   UNL A   1      41.659  26.791  27.476  1.00  0.00     0.023 A 
ATOM     76  C   UNL A   1      41.249  25.447  27.470  1.00  0.00     0.031 A 
ATOM     77  C   UNL A   1      42.447  27.245  26.404  1.00  0.00     0.131 A 
ATOM     78  C   UNL A   1      41.682  24.589  26.452  1.00  0.00     0.055 A 
ATOM     79  C   UNL A   1      42.816  26.405  25.352  1.00  0.00     0.041 A 
ATOM     80  F   UNL A   1      42.875  28.517  26.370  1.00  0.00    -0.206 F 
ATOM     81  C   UNL A   1      42.449  25.062  25.384  1.00  0.00     0.022 A 
BRANCH  78  82
ATOM     82  S   UNL A   1      41.390  22.801  26.564  1.00  0.00     0.124 S 
ATOM     83  O   UNL A   1      41.940  22.486  27.878  1.00  0.00    -0.237 OA
ATOM     84  O   UNL A   1      39.935  22.724  26.452  1.00  0.00    -0.237 OA
ATOM     85  O   UNL A   1      42.124  22.263  25.423  1.00  0.00    -0.744 OA
ENDBRANCH  78  82
ENDBRANCH  51  75
BRANCH  63  86
ATOM     86  C   UNL A   1      44.297  27.534  33.930  1.00  0.00     0.023 A 
ATOM     87  C   UNL A   1      44.156  26.322  34.631  1.00  0.00     0.031 A 
ATOM     88  C   UNL A   1      45.527  28.210  34.011  1.00  0.00     0.131 A 
ATOM     89  C   UNL A   1      45.222  25.832  35.397  1.00  0.00     0.055 A 
ATOM     90  C   UNL A   1      46.600  27.698  34.741  1.00  0.00     0.041 A 
ATOM     91  F   UNL A   1      45.707  29.376  33.369  1.00  0.00    -0.206 F 
ATOM     92  C   UNL A   1      46.445  26.509  35.449  1.00  0.00     0.022 A 
BRANCH  89  93
ATOM     93  S   UNL A   1      45.037  24.344  36.419  1.00  0.00     0.124 S 
ATOM     94  O   UNL A   1      46.311  23.666  36.195  1.00  0.00    -0.237 OA
ATOM     95  O   UNL A   1      44.856  24.906  37.755  1.00  0.00    -0.237 OA
ATOM     96  O   UNL A   1      43.868  23.676  35.859  1.00  0.00    -0.744 OA
ENDBRANCH  89  93
ENDBRANCH  63  86
ENDBRANCH  37  38
ENDBRANCH  29  32
ENDBRANCH  27  28
ENDBRANCH   1  27
TORSDOF 16
ENDMDL
MODEL 2
REMARK VINA RESULT:     -12.7      1.662      1.929
REMARK SMILES Nc1nc2ccccc2nc1N1CCC(C(=O)NCCCCNC(=O)c2ccc(-c3c4nc(c(-c5cc(S(=O)(=O)[O-])ccc5F)c5ccc([nH]5)c(-c5cc(S(=O)(=O)[O-])ccc5F)c5nc(c(-c6cc(S(=O)(=O)[O-])ccc6F)c6ccc3[nH]6)C=C5)C=C4)cc2)CC1
REMARK SMILES IDX 21 1 20 2 19 3 18 4 16 5 17 6 15 8 12 9 13 10 90 11 14 12
REMARK SMILES IDX 89 13 11 14 2 15 3 16 4 17 10 18 5 19 9 20 6 21 8 22 7 23
REMARK SMILES IDX 1 24 22 27 23 28 24 29 25 31 26 32 27 33 88 34 28 35 87 36
REMARK SMILES IDX 29 37 30 38 31 39 81 40 32 41 86 42 80 43 82 44 33 45 85 46
REMARK SMILES IDX 79 47 78 48 34 50 66 51 46 52 65 53 47 54 50 55 64 56 83 57
REMARK SMILES IDX 48 58 49 59 63 61 84 62 51 63 35 64 36 65 44 66 37 67 43 68
REMARK SMILES IDX 45 69 42 70 38 71 39 72 40 73 41 74 67 75 68 76 76 77 69 78
REMARK SMILES IDX 75 79 77 80 74 81 70 82 71 83 72 84 73 85 52 86 53 87 61 88
REMARK SMILES IDX 54 89 60 90 62 91 59 92 55 93 56 94 57 95 58 96
REMARK H PARENT 18 7 1 25 1 26 23 30 82 49 50 60
REMARK Flexibility Score: inf
ROOT
ATOM      1  C   UNL A   1      31.730  29.120  27.096  1.00  0.00     0.023 C 
ENDROOT
BRANCH   1   2
ATOM      2  C   UNL A   1      31.981  27.620  26.983  1.00  0.00     0.023 C 
BRANCH   2   3
ATOM      3  C   UNL A   1      31.141  26.904  25.928  1.00  0.00     0.116 C 
BRANCH   3   4
ATOM      4  N   UNL A   1      30.537  25.680  26.433  1.00  0.00    -0.356 N 
ATOM      5  C   UNL A   1      31.085  24.461  26.697  1.00  0.00     0.223 C 
ATOM      6  O   UNL A   1      30.349  23.578  27.146  1.00  0.00    -0.275 OA
ATOM      7  H   UNL A   1      29.571  25.743  26.613  1.00  0.00     0.163 HD
BRANCH   5   8
ATOM      8  C   UNL A   1      32.564  24.180  26.473  1.00  0.00     0.082 C 
ATOM      9  N   UNL A   1      34.550  22.282  25.730  1.00  0.00    -0.353 N 
ATOM     10  C   UNL A   1      34.468  22.613  27.137  1.00  0.00     0.119 C 
ATOM     11  C   UNL A   1      34.243  23.316  24.757  1.00  0.00     0.119 C 
ATOM     12  C   UNL A   1      33.101  23.168  27.493  1.00  0.00     0.035 C 
ATOM     13  C   UNL A   1      32.841  23.862  24.995  1.00  0.00     0.035 C 
BRANCH   9  14
ATOM     14  C   UNL A   1      34.616  20.955  25.330  1.00  0.00     0.172 A 
ATOM     15  C   UNL A   1      35.869  20.355  25.029  1.00  0.00     0.167 A 
ATOM     16  N   UNL A   1      35.992  19.066  24.660  1.00  0.00    -0.226 NA
ATOM     17  C   UNL A   1      34.858  18.352  24.603  1.00  0.00     0.091 A 
ATOM     18  N   UNL A   1      33.480  20.218  25.290  1.00  0.00    -0.225 NA
ATOM     19  C   UNL A   1      34.933  17.014  24.237  1.00  0.00     0.031 A 
ATOM     20  C   UNL A   1      33.597  18.925  24.911  1.00  0.00     0.091 A 
ATOM     21  C   UNL A   1      33.792  16.218  24.149  1.00  0.00     0.002 A 
ATOM     22  C   UNL A   1      32.466  18.119  24.811  1.00  0.00     0.031 A 
ATOM     23  C   UNL A   1      32.551  16.776  24.432  1.00  0.00     0.002 A 
BRANCH  15  24
ATOM     24  N   UNL A   1      37.061  21.069  25.113  1.00  0.00    -0.381 N 
ATOM     25  H   UNL A   1      37.190  21.728  25.833  1.00  0.00     0.158 HD
ATOM     26  H   UNL A   1      37.774  20.917  24.452  1.00  0.00     0.158 HD
ENDBRANCH  15  24
ENDBRANCH   9  14
ENDBRANCH   5   8
ENDBRANCH   3   4
ENDBRANCH   2   3
ENDBRANCH   1   2
BRANCH   1  27
ATOM     27  C   UNL A   1      32.910  30.005  26.722  1.00  0.00     0.116 C 
BRANCH  27  28
ATOM     28  N   UNL A   1      32.730  31.405  27.083  1.00  0.00    -0.352 N 
ATOM     29  C   UNL A   1      33.626  32.249  27.703  1.00  0.00     0.251 C 
ATOM     30  H   UNL A   1      31.856  31.798  26.855  1.00  0.00     0.163 HD
ATOM     31  O   UNL A   1      33.285  33.381  28.033  1.00  0.00    -0.269 OA
BRANCH  29  32
ATOM     32  C   UNL A   1      34.983  31.749  28.009  1.00  0.00     0.039 A 
ATOM     33  C   UNL A   1      35.174  30.412  28.358  1.00  0.00     0.014 A 
ATOM     34  C   UNL A   1      36.057  32.644  28.036  1.00  0.00     0.014 A 
ATOM     35  C   UNL A   1      36.379  30.021  28.927  1.00  0.00     0.010 A 
ATOM     36  C   UNL A   1      37.300  32.220  28.518  1.00  0.00     0.010 A 
ATOM     37  C   UNL A   1      37.455  30.922  29.028  1.00  0.00    -0.014 A 
BRANCH  37  38
ATOM     38  C   UNL A   1      38.711  30.462  29.680  1.00  0.00     0.031 A 
ATOM     39  C   UNL A   1      39.067  30.890  31.082  1.00  0.00     0.074 A 
ATOM     40  C   UNL A   1      39.478  29.558  29.038  1.00  0.00     0.049 A 
ATOM     41  N   UNL A   1      40.045  30.471  31.843  1.00  0.00    -0.248 NA
ATOM     42  C   UNL A   1      38.222  31.919  31.710  1.00  0.00     0.031 C 
ATOM     43  C   UNL A   1      39.230  29.075  27.679  1.00  0.00     0.029 A 
ATOM     44  N   UNL A   1      40.576  28.846  29.449  1.00  0.00    -0.354 N 
ATOM     45  C   UNL A   1      39.940  31.185  33.033  1.00  0.00     0.074 A 
ATOM     46  C   UNL A   1      38.827  32.094  32.879  1.00  0.00     0.031 C 
ATOM     47  C   UNL A   1      40.084  28.080  27.406  1.00  0.00     0.029 A 
ATOM     48  C   UNL A   1      40.986  27.899  28.539  1.00  0.00     0.049 A 
ATOM     49  H   UNL A   1      41.027  28.998  30.310  1.00  0.00     0.167 HD
ATOM     50  C   UNL A   1      40.691  31.076  34.156  1.00  0.00     0.034 A 
ATOM     51  C   UNL A   1      41.967  26.976  28.609  1.00  0.00     0.034 A 
ATOM     52  C   UNL A   1      41.788  30.153  34.307  1.00  0.00     0.049 A 
ATOM     53  C   UNL A   1      42.794  26.891  29.865  1.00  0.00     0.074 A 
ATOM     54  C   UNL A   1      42.605  29.967  35.409  1.00  0.00     0.029 A 
ATOM     55  N   UNL A   1      42.215  29.253  33.340  1.00  0.00    -0.354 N 
ATOM     56  N   UNL A   1      42.658  27.553  30.990  1.00  0.00    -0.248 NA
ATOM     57  C   UNL A   1      43.912  25.937  29.861  1.00  0.00     0.031 C 
ATOM     58  C   UNL A   1      43.551  28.991  35.095  1.00  0.00     0.029 A 
ATOM     59  C   UNL A   1      43.294  28.525  33.816  1.00  0.00     0.049 A 
ATOM     60  H   UNL A   1      41.811  29.149  32.449  1.00  0.00     0.167 HD
ATOM     61  C   UNL A   1      43.670  27.092  31.828  1.00  0.00     0.074 A 
ATOM     62  C   UNL A   1      44.377  26.061  31.097  1.00  0.00     0.031 C 
ATOM     63  C   UNL A   1      43.993  27.498  33.081  1.00  0.00     0.034 A 
BRANCH  50  64
ATOM     64  C   UNL A   1      40.356  31.953  35.338  1.00  0.00     0.023 A 
ATOM     65  C   UNL A   1      39.303  31.603  36.204  1.00  0.00     0.031 A 
ATOM     66  C   UNL A   1      40.985  33.197  35.523  1.00  0.00     0.131 A 
ATOM     67  C   UNL A   1      38.886  32.504  37.193  1.00  0.00     0.055 A 
ATOM     68  C   UNL A   1      40.589  34.075  36.533  1.00  0.00     0.041 A 
ATOM     69  F   UNL A   1      41.996  33.574  34.724  1.00  0.00    -0.206 F 
ATOM     70  C   UNL A   1      39.527  33.736  37.365  1.00  0.00     0.022 A 
BRANCH  67  71
ATOM     71  S   UNL A   1      37.463  32.140  38.258  1.00  0.00     0.124 S 
ATOM     72  O   UNL A   1      37.962  32.540  39.573  1.00  0.00    -0.237 OA
ATOM     73  O   UNL A   1      36.431  33.004  37.693  1.00  0.00    -0.237 OA
ATOM     74  O   UNL A   1      37.254  30.707  38.085  1.00  0.00    -0.744 OA
ENDBRANCH  67  71
ENDBRANCH  50  64
BRANCH  51  75
ATOM     75  C   UNL A   1      42.168  26.027  27.475  1.00  0.00     0.023 A 
ATOM     76  C   UNL A   1      41.527  24.776  27.450  1.00  0.00     0.031 A 
ATOM     77  C   UNL A   1      43.077  26.323  26.445  1.00  0.00     0.131 A 
ATOM     78  C   UNL A   1      41.853  23.844  26.457  1.00  0.00     0.055 A 
ATOM     79  C   UNL A   1      43.343  25.420  25.414  1.00  0.00     0.041 A 
ATOM     80  F   UNL A   1      43.723  27.499  26.431  1.00  0.00    -0.206 F 
ATOM     81  C   UNL A   1      42.744  24.164  25.429  1.00  0.00     0.022 A 
BRANCH  78  82
ATOM     82  S   UNL A   1      41.244  22.137  26.556  1.00  0.00     0.124 S 
ATOM     83  O   UNL A   1      41.377  21.851  27.980  1.00  0.00    -0.237 OA
ATOM     84  O   UNL A   1      39.875  22.275  26.064  1.00  0.00    -0.237 OA
ATOM     85  O   UNL A   1      42.144  21.401  25.673  1.00  0.00    -0.744 OA
ENDBRANCH  78  82
ENDBRANCH  51  75
BRANCH  63  86
ATOM     86  C   UNL A   1      45.179  26.851  33.754  1.00  0.00     0.023 A 
ATOM     87  C   UNL A   1      45.004  25.721  34.574  1.00  0.00     0.031 A 
ATOM     88  C   UNL A   1      46.460  27.423  33.673  1.00  0.00     0.131 A 
ATOM     89  C   UNL A   1      46.091  25.210  35.296  1.00  0.00     0.055 A 
ATOM     90  C   UNL A   1      47.548  26.887  34.362  1.00  0.00     0.041 A 
ATOM     91  F   UNL A   1      46.674  28.509  32.913  1.00  0.00    -0.206 F 
ATOM     92  C   UNL A   1      47.362  25.782  35.189  1.00  0.00     0.022 A 
BRANCH  89  93
ATOM     93  S   UNL A   1      45.879  23.839  36.466  1.00  0.00     0.124 S 
ATOM     94  O   UNL A   1      44.811  23.069  35.833  1.00  0.00    -0.237 OA
ATOM     95  O   UNL A   1      47.196  23.209  36.448  1.00  0.00    -0.237 OA
ATOM     96  O   UNL A   1      45.517  24.496  37.716  1.00  0.00    -0.744 OA
ENDBRANCH  89  93
ENDBRANCH  63  86
ENDBRANCH  37  38
ENDBRANCH  29  32
ENDBRANCH  27  28
ENDBRANCH   1  27
TORSDOF 16
ENDMDL
MODEL 3
REMARK VINA RESULT:     -12.5      4.765     10.400
REMARK SMILES Nc1nc2ccccc2nc1N1CCC(C(=O)NCCCCNC(=O)c2ccc(-c3c4nc(c(-c5cc(S(=O)(=O)[O-])ccc5F)c5ccc([nH]5)c(-c5cc(S(=O)(=O)[O-])ccc5F)c5nc(c(-c6cc(S(=O)(=O)[O-])ccc6F)c6ccc3[nH]6)C=C5)C=C4)cc2)CC1
REMARK SMILES IDX 21 1 20 2 19 3 18 4 16 5 17 6 15 8 12 9 13 10 90 11 14 12
REMARK SMILES IDX 89 13 11 14 2 15 3 16 4 17 10 18 5 19 9 20 6 21 8 22 7 23
REMARK SMILES IDX 1 24 22 27 23 28 24 29 25 31 26 32 27 33 88 34 28 35 87 36
REMARK SMILES IDX 29 37 30 38 31 39 81 40 32 41 86 42 80 43 82 44 33 45 85 46
REMARK SMILES IDX 79 47 78 48 34 50 66 51 46 52 65 53 47 54 50 55 64 56 83 57
REMARK SMILES IDX 48 58 49 59 63 61 84 62 51 63 35 64 36 65 44 66 37 67 43 68
REMARK SMILES IDX 45 69 42 70 38 71 39 72 40 73 41 74 67 75 68 76 76 77 69 78
REMARK SMILES IDX 75 79 77 80 74 81 70 82 71 83 72 84 73 85 52 86 53 87 61 88
REMARK SMILES IDX 54 89 60 90 62 91 59 92 55 93 56 94 57 95 58 96
REMARK H PARENT 18 7 1 25 1 26 23 30 82 49 50 60
REMARK Flexibility Score: inf
ROOT
ATOM      1  C   UNL A   1      35.533  21.773  24.407  1.00  0.00     0.023 C 
ENDROOT
BRANCH   1   2
ATOM      2  C   UNL A   1      34.498  20.754  24.872  1.00  0.00     0.023 C 
BRANCH   2   3
ATOM      3  C   UNL A   1      33.895  21.031  26.248  1.00  0.00     0.116 C 
BRANCH   3   4
ATOM      4  N   UNL A   1      32.489  21.400  26.175  1.00  0.00    -0.356 N 
ATOM      5  C   UNL A   1      31.894  22.560  25.780  1.00  0.00     0.223 C 
ATOM      6  O   UNL A   1      30.662  22.614  25.792  1.00  0.00    -0.275 OA
ATOM      7  H   UNL A   1      31.864  20.694  26.460  1.00  0.00     0.163 HD
BRANCH   5   8
ATOM      8  C   UNL A   1      32.705  23.760  25.313  1.00  0.00     0.082 C 
ATOM      9  N   UNL A   1      32.671  26.409  24.273  1.00  0.00    -0.353 N 
ATOM     10  C   UNL A   1      33.041  25.358  23.349  1.00  0.00     0.119 C 
ATOM     11  C   UNL A   1      33.042  26.264  25.670  1.00  0.00     0.119 C 
ATOM     12  C   UNL A   1      32.518  24.011  23.811  1.00  0.00     0.035 C 
ATOM     13  C   UNL A   1      32.472  24.968  26.233  1.00  0.00     0.035 C 
BRANCH   9  14
ATOM     14  C   UNL A   1      31.735  27.365  23.904  1.00  0.00     0.172 A 
ATOM     15  C   UNL A   1      32.151  28.664  23.506  1.00  0.00     0.167 A 
ATOM     16  N   UNL A   1      31.288  29.620  23.115  1.00  0.00    -0.226 NA
ATOM     17  C   UNL A   1      29.990  29.281  23.101  1.00  0.00     0.091 A 
ATOM     18  N   UNL A   1      30.424  27.027  23.863  1.00  0.00    -0.225 NA
ATOM     19  C   UNL A   1      29.060  30.229  22.694  1.00  0.00     0.031 A 
ATOM     20  C   UNL A   1      29.552  27.987  23.480  1.00  0.00     0.091 A 
ATOM     21  C   UNL A   1      27.696  29.945  22.665  1.00  0.00     0.002 A 
ATOM     22  C   UNL A   1      28.185  27.720  23.452  1.00  0.00     0.031 A 
ATOM     23  C   UNL A   1      27.256  28.685  23.052  1.00  0.00     0.002 A 
BRANCH  15  24
ATOM     24  N   UNL A   1      33.496  29.027  23.484  1.00  0.00    -0.381 N 
ATOM     25  H   UNL A   1      34.190  28.336  23.379  1.00  0.00     0.158 HD
ATOM     26  H   UNL A   1      33.752  29.973  23.573  1.00  0.00     0.158 HD
ENDBRANCH  15  24
ENDBRANCH   9  14
ENDBRANCH   5   8
ENDBRANCH   3   4
ENDBRANCH   2   3
ENDBRANCH   1   2
BRANCH   1  27
ATOM     27  C   UNL A   1      36.696  21.999  25.364  1.00  0.00     0.116 C 
BRANCH  27  28
ATOM     28  N   UNL A   1      37.668  20.913  25.370  1.00  0.00    -0.352 N 
ATOM     29  C   UNL A   1      38.952  20.920  25.870  1.00  0.00     0.251 C 
ATOM     30  H   UNL A   1      37.370  20.068  24.965  1.00  0.00     0.163 HD
ATOM     31  O   UNL A   1      39.686  19.950  25.707  1.00  0.00    -0.269 OA
BRANCH  29  32
ATOM     32  C   UNL A   1      39.444  22.133  26.559  1.00  0.00     0.039 A 
ATOM     33  C   UNL A   1      38.980  23.392  26.175  1.00  0.00     0.014 A 
ATOM     34  C   UNL A   1      40.442  22.017  27.530  1.00  0.00     0.014 A 
ATOM     35  C   UNL A   1      39.653  24.527  26.607  1.00  0.00     0.010 A 
ATOM     36  C   UNL A   1      41.052  23.169  28.039  1.00  0.00     0.010 A 
ATOM     37  C   UNL A   1      40.706  24.432  27.534  1.00  0.00    -0.014 A 
BRANCH  37  38
ATOM     38  C   UNL A   1      41.418  25.676  27.935  1.00  0.00     0.031 A 
ATOM     39  C   UNL A   1      42.816  25.968  27.453  1.00  0.00     0.074 A 
ATOM     40  C   UNL A   1      40.746  26.602  28.650  1.00  0.00     0.049 A 
ATOM     41  N   UNL A   1      43.519  27.063  27.592  1.00  0.00    -0.248 NA
ATOM     42  C   UNL A   1      43.517  24.899  26.723  1.00  0.00     0.031 C 
ATOM     43  C   UNL A   1      39.390  26.424  29.171  1.00  0.00     0.029 A 
ATOM     44  N   UNL A   1      41.077  27.882  29.013  1.00  0.00    -0.354 N 
ATOM     45  C   UNL A   1      44.743  26.816  26.977  1.00  0.00     0.074 A 
ATOM     46  C   UNL A   1      44.703  25.452  26.499  1.00  0.00     0.031 C 
ATOM     47  C   UNL A   1      38.969  27.582  29.698  1.00  0.00     0.029 A 
ATOM     48  C   UNL A   1      40.046  28.564  29.618  1.00  0.00     0.049 A 
ATOM     49  H   UNL A   1      41.966  28.275  28.858  1.00  0.00     0.167 HD
ATOM     50  C   UNL A   1      45.793  27.655  26.811  1.00  0.00     0.034 A 
ATOM     51  C   UNL A   1      39.966  29.840  30.047  1.00  0.00     0.034 A 
ATOM     52  C   UNL A   1      45.817  29.020  27.276  1.00  0.00     0.049 A 
ATOM     53  C   UNL A   1      41.156  30.744  29.862  1.00  0.00     0.074 A 
ATOM     54  C   UNL A   1      46.835  29.950  27.151  1.00  0.00     0.029 A 
ATOM     55  N   UNL A   1      44.778  29.657  27.941  1.00  0.00    -0.354 N 
ATOM     56  N   UNL A   1      42.291  30.500  29.250  1.00  0.00    -0.248 NA
ATOM     57  C   UNL A   1      41.058  32.096  30.428  1.00  0.00     0.031 C 
ATOM     58  C   UNL A   1      46.432  31.130  27.776  1.00  0.00     0.029 A 
ATOM     59  C   UNL A   1      45.140  30.959  28.246  1.00  0.00     0.049 A 
ATOM     60  H   UNL A   1      43.913  29.244  28.162  1.00  0.00     0.167 HD
ATOM     61  C   UNL A   1      43.040  31.669  29.355  1.00  0.00     0.074 A 
ATOM     62  C   UNL A   1      42.208  32.634  30.046  1.00  0.00     0.031 C 
ATOM     63  C   UNL A   1      44.305  31.915  28.934  1.00  0.00     0.034 A 
BRANCH  50  64
ATOM     64  C   UNL A   1      47.012  27.153  26.076  1.00  0.00     0.023 A 
ATOM     65  C   UNL A   1      48.048  26.509  26.777  1.00  0.00     0.031 A 
ATOM     66  C   UNL A   1      47.208  27.438  24.712  1.00  0.00     0.131 A 
ATOM     67  C   UNL A   1      49.247  26.202  26.121  1.00  0.00     0.055 A 
ATOM     68  C   UNL A   1      48.391  27.098  24.054  1.00  0.00     0.041 A 
ATOM     69  F   UNL A   1      46.247  28.049  24.000  1.00  0.00    -0.206 F 
ATOM     70  C   UNL A   1      49.422  26.488  24.762  1.00  0.00     0.022 A 
BRANCH  67  71
ATOM     71  S   UNL A   1      50.648  25.471  27.013  1.00  0.00     0.124 S 
ATOM     72  O   UNL A   1      51.567  25.153  25.921  1.00  0.00    -0.237 OA
ATOM     73  O   UNL A   1      51.064  26.569  27.879  1.00  0.00    -0.237 OA
ATOM     74  O   UNL A   1      50.067  24.315  27.689  1.00  0.00    -0.744 OA
ENDBRANCH  67  71
ENDBRANCH  50  64
BRANCH  51  75
ATOM     75  C   UNL A   1      38.687  30.340  30.633  1.00  0.00     0.023 A 
ATOM     76  C   UNL A   1      37.711  30.958  29.832  1.00  0.00     0.031 A 
ATOM     77  C   UNL A   1      38.467  30.288  32.021  1.00  0.00     0.131 A 
ATOM     78  C   UNL A   1      36.595  31.557  30.429  1.00  0.00     0.055 A 
ATOM     79  C   UNL A   1      37.316  30.821  32.604  1.00  0.00     0.041 A 
ATOM     80  F   UNL A   1      39.374  29.720  32.829  1.00  0.00    -0.206 F 
ATOM     81  C   UNL A   1      36.382  31.477  31.809  1.00  0.00     0.022 A 
BRANCH  78  82
ATOM     82  S   UNL A   1      35.464  32.586  29.451  1.00  0.00     0.124 S 
ATOM     83  O   UNL A   1      34.325  32.725  30.353  1.00  0.00    -0.237 OA
ATOM     84  O   UNL A   1      36.258  33.796  29.245  1.00  0.00    -0.237 OA
ATOM     85  O   UNL A   1      35.230  31.791  28.250  1.00  0.00    -0.744 OA
ENDBRANCH  78  82
ENDBRANCH  51  75
BRANCH  63  86
ATOM     86  C   UNL A   1      44.897  33.273  29.219  1.00  0.00     0.023 A 
ATOM     87  C   UNL A   1      44.849  34.291  28.248  1.00  0.00     0.031 A 
ATOM     88  C   UNL A   1      45.610  33.520  30.406  1.00  0.00     0.131 A 
ATOM     89  C   UNL A   1      45.517  35.501  28.474  1.00  0.00     0.055 A 
ATOM     90  C   UNL A   1      46.239  34.741  30.644  1.00  0.00     0.041 A 
ATOM     91  F   UNL A   1      45.694  32.576  31.358  1.00  0.00    -0.206 F 
ATOM     92  C   UNL A   1      46.204  35.734  29.669  1.00  0.00     0.022 A 
BRANCH  89  93
ATOM     93  S   UNL A   1      45.590  36.785  27.194  1.00  0.00     0.124 S 
ATOM     94  O   UNL A   1      46.169  36.054  26.069  1.00  0.00    -0.237 OA
ATOM     95  O   UNL A   1      44.185  37.152  27.042  1.00  0.00    -0.237 OA
ATOM     96  O   UNL A   1      46.445  37.814  27.776  1.00  0.00    -0.744 OA
ENDBRANCH  89  93
ENDBRANCH  63  86
ENDBRANCH  37  38
ENDBRANCH  29  32
ENDBRANCH  27  28
ENDBRANCH   1  27
TORSDOF 16
ENDMDL
