MODEL 1
REMARK VINA RESULT:     -11.8      0.000      0.000
REMARK SMILES COc1ccc2c(c1)[C@H]([NH2+][C@H]1CCC[C@H](C(=O)NCCCCNC(=O)c3ccc(-c4c5nc(c(-c6cc(S(=O)(=O)[O-])ccc6F)c6ccc([nH]6)c(-c6cc(S(=O)(=O)[O-])ccc6F)c6nc(c(-c7cc(S(=O)(=O)[O-])ccc7F)c7ccc4[nH]7)C=C6)C=C5)cc3)C1)CC2
REMARK SMILES IDX 20 1 19 2 18 3 16 4 17 5 15 7 11 8 12 9 89 10 13 11 14 12
REMARK SMILES IDX 10 13 9 16 3 17 4 18 8 19 5 20 7 21 6 22 91 23 90 24 2 25
REMARK SMILES IDX 1 26 21 27 22 28 23 29 24 30 25 32 26 33 27 34 88 35 28 36
REMARK SMILES IDX 87 37 29 38 30 39 31 40 81 41 32 42 86 43 80 44 82 45 33 46
REMARK SMILES IDX 85 47 79 48 78 49 34 51 66 52 46 53 65 54 47 55 50 56 64 57
REMARK SMILES IDX 83 58 48 59 49 60 63 62 84 63 51 64 35 65 36 66 44 67 37 68
REMARK SMILES IDX 43 69 45 70 42 71 38 72 39 73 40 74 41 75 67 76 68 77 76 78
REMARK SMILES IDX 69 79 75 80 77 81 74 82 70 83 71 84 72 85 73 86 52 87 53 88
REMARK SMILES IDX 61 89 54 90 60 91 62 92 59 93 55 94 56 95 57 96 58 97
REMARK H PARENT 18 6 10 14 10 15 23 31 82 50 50 61
REMARK Flexibility Score: inf
ROOT
ATOM      1  C   UNL A   1      31.542  30.204  25.389  1.00  0.00     0.023 C 
ENDROOT
BRANCH   1   2
ATOM      2  C   UNL A   1      32.938  29.612  25.335  1.00  0.00     0.116 C 
BRANCH   2   3
ATOM      3  N   UNL A   1      33.393  29.468  23.972  1.00  0.00    -0.356 N 
ATOM      4  C   UNL A   1      33.307  28.404  23.138  1.00  0.00     0.223 C 
ATOM      5  O   UNL A   1      33.912  28.468  22.064  1.00  0.00    -0.275 OA
ATOM      6  H   UNL A   1      33.832  30.263  23.592  1.00  0.00     0.163 HD
BRANCH   4   7
ATOM      7  C   UNL A   1      32.503  27.166  23.502  1.00  0.00     0.084 C 
ATOM      8  C   UNL A   1      32.603  24.663  23.909  1.00  0.00     0.183 C 
ATOM      9  C   UNL A   1      31.143  24.571  23.378  1.00  0.00     0.065 C 
ATOM     10  C   UNL A   1      33.204  25.850  23.156  1.00  0.00     0.078 C 
ATOM     11  C   UNL A   1      30.334  25.883  23.482  1.00  0.00     0.007 C 
ATOM     12  C   UNL A   1      31.073  27.133  22.977  1.00  0.00     0.014 C 
BRANCH   8  13
ATOM     13  N   UNL A   1      32.585  24.769  25.365  1.00  0.00    -0.338 N 
ATOM     14  H   UNL A   1      32.709  25.757  25.587  1.00  0.00     0.347 HD
ATOM     15  H   UNL A   1      31.699  24.331  25.614  1.00  0.00     0.347 HD
BRANCH  13  16
ATOM     16  C   UNL A   1      33.561  24.028  26.183  1.00  0.00     0.214 C 
ATOM     17  C   UNL A   1      33.348  20.263  25.374  1.00  0.00     0.119 A 
ATOM     18  C   UNL A   1      34.601  20.120  24.778  1.00  0.00     0.047 A 
ATOM     19  C   UNL A   1      33.019  21.480  25.984  1.00  0.00     0.056 A 
ATOM     20  C   UNL A   1      35.522  21.174  24.820  1.00  0.00     0.008 A 
ATOM     21  C   UNL A   1      33.832  22.591  25.823  1.00  0.00     0.016 A 
ATOM     22  C   UNL A   1      35.126  22.394  25.353  1.00  0.00    -0.038 A 
ATOM     23  C   UNL A   1      35.979  23.578  25.653  1.00  0.00     0.042 C 
ATOM     24  C   UNL A   1      34.935  24.682  25.832  1.00  0.00     0.075 C 
BRANCH  17  25
ATOM     25  O   UNL A   1      32.341  19.342  25.423  1.00  0.00    -0.497 OA
ATOM     26  C   UNL A   1      32.647  17.977  25.670  1.00  0.00     0.278 C 
ENDBRANCH  17  25
ENDBRANCH  13  16
ENDBRANCH   8  13
ENDBRANCH   4   7
ENDBRANCH   2   3
ENDBRANCH   1   2
BRANCH   1  27
ATOM     27  C   UNL A   1      31.369  31.276  26.457  1.00  0.00     0.023 C 
BRANCH  27  28
ATOM     28  C   UNL A   1      32.670  31.919  26.913  1.00  0.00     0.116 C 
BRANCH  28  29
ATOM     29  N   UNL A   1      32.494  33.304  27.330  1.00  0.00    -0.352 N 
ATOM     30  C   UNL A   1      33.205  34.017  28.261  1.00  0.00     0.251 C 
ATOM     31  H   UNL A   1      31.766  33.794  26.883  1.00  0.00     0.163 HD
ATOM     32  O   UNL A   1      32.803  35.120  28.629  1.00  0.00    -0.269 OA
BRANCH  30  33
ATOM     33  C   UNL A   1      34.436  33.432  28.827  1.00  0.00     0.039 A 
ATOM     34  C   UNL A   1      34.335  32.517  29.875  1.00  0.00     0.014 A 
ATOM     35  C   UNL A   1      35.684  33.767  28.295  1.00  0.00     0.014 A 
ATOM     36  C   UNL A   1      35.490  31.904  30.361  1.00  0.00     0.010 A 
ATOM     37  C   UNL A   1      36.816  33.079  28.708  1.00  0.00     0.010 A 
ATOM     38  C   UNL A   1      36.737  32.162  29.765  1.00  0.00    -0.014 A 
BRANCH  38  39
ATOM     39  C   UNL A   1      37.983  31.541  30.286  1.00  0.00     0.031 A 
ATOM     40  C   UNL A   1      38.560  32.029  31.589  1.00  0.00     0.074 A 
ATOM     41  C   UNL A   1      38.600  30.569  29.586  1.00  0.00     0.049 A 
ATOM     42  N   UNL A   1      39.666  31.675  32.190  1.00  0.00    -0.248 NA
ATOM     43  C   UNL A   1      37.807  33.081  32.295  1.00  0.00     0.031 C 
ATOM     44  C   UNL A   1      38.154  30.039  28.294  1.00  0.00     0.029 A 
ATOM     45  N   UNL A   1      39.737  29.852  29.860  1.00  0.00    -0.354 N 
ATOM     46  C   UNL A   1      39.740  32.458  33.338  1.00  0.00     0.074 A 
ATOM     47  C   UNL A   1      38.616  33.366  33.303  1.00  0.00     0.031 C 
ATOM     48  C   UNL A   1      38.990  29.062  27.907  1.00  0.00     0.029 A 
ATOM     49  C   UNL A   1      40.057  28.925  28.894  1.00  0.00     0.049 A 
ATOM     50  H   UNL A   1      40.276  29.988  30.673  1.00  0.00     0.167 HD
ATOM     51  C   UNL A   1      40.639  32.398  34.351  1.00  0.00     0.034 A 
ATOM     52  C   UNL A   1      41.095  28.070  28.813  1.00  0.00     0.034 A 
ATOM     53  C   UNL A   1      41.745  31.475  34.382  1.00  0.00     0.049 A 
ATOM     54  C   UNL A   1      42.100  28.045  29.943  1.00  0.00     0.074 A 
ATOM     55  C   UNL A   1      42.712  31.321  35.360  1.00  0.00     0.029 A 
ATOM     56  N   UNL A   1      42.027  30.542  33.393  1.00  0.00    -0.354 N 
ATOM     57  N   UNL A   1      42.137  28.775  31.035  1.00  0.00    -0.248 NA
ATOM     58  C   UNL A   1      43.187  27.064  29.840  1.00  0.00     0.031 C 
ATOM     59  C   UNL A   1      43.610  30.337  34.936  1.00  0.00     0.029 A 
ATOM     60  C   UNL A   1      43.158  29.816  33.734  1.00  0.00     0.049 A 
ATOM     61  H   UNL A   1      41.501  30.414  32.571  1.00  0.00     0.167 HD
ATOM     62  C   UNL A   1      43.222  28.302  31.770  1.00  0.00     0.074 A 
ATOM     63  C   UNL A   1      43.795  27.214  31.006  1.00  0.00     0.031 C 
ATOM     64  C   UNL A   1      43.705  28.724  32.967  1.00  0.00     0.034 A 
BRANCH  51  65
ATOM     65  C   UNL A   1      40.455  33.358  35.501  1.00  0.00     0.023 A 
ATOM     66  C   UNL A   1      39.778  32.975  36.673  1.00  0.00     0.031 A 
ATOM     67  C   UNL A   1      40.954  34.669  35.428  1.00  0.00     0.131 A 
ATOM     68  C   UNL A   1      39.563  33.911  37.695  1.00  0.00     0.055 A 
ATOM     69  C   UNL A   1      40.809  35.572  36.483  1.00  0.00     0.041 A 
ATOM     70  F   UNL A   1      41.587  35.099  34.325  1.00  0.00    -0.206 F 
ATOM     71  C   UNL A   1      40.100  35.198  37.621  1.00  0.00     0.022 A 
BRANCH  68  72
ATOM     72  S   UNL A   1      38.465  33.459  39.067  1.00  0.00     0.124 S 
ATOM     73  O   UNL A   1      39.193  32.343  39.667  1.00  0.00    -0.237 OA
ATOM     74  O   UNL A   1      38.417  34.687  39.852  1.00  0.00    -0.237 OA
ATOM     75  O   UNL A   1      37.217  33.095  38.400  1.00  0.00    -0.744 OA
ENDBRANCH  68  72
ENDBRANCH  51  65
BRANCH  52  76
ATOM     76  C   UNL A   1      41.263  27.168  27.634  1.00  0.00     0.023 A 
ATOM     77  C   UNL A   1      40.908  25.811  27.703  1.00  0.00     0.031 A 
ATOM     78  C   UNL A   1      41.876  27.624  26.453  1.00  0.00     0.131 A 
ATOM     79  C   UNL A   1      41.247  24.942  26.654  1.00  0.00     0.055 A 
ATOM     80  C   UNL A   1      42.144  26.770  25.382  1.00  0.00     0.041 A 
ATOM     81  F   UNL A   1      42.235  28.911  26.327  1.00  0.00    -0.206 F 
ATOM     82  C   UNL A   1      41.850  25.415  25.488  1.00  0.00     0.022 A 
BRANCH  79  83
ATOM     83  S   UNL A   1      41.028  23.158  26.904  1.00  0.00     0.124 S 
ATOM     84  O   UNL A   1      41.512  22.990  28.269  1.00  0.00    -0.237 OA
ATOM     85  O   UNL A   1      39.591  23.000  26.708  1.00  0.00    -0.237 OA
ATOM     86  O   UNL A   1      41.867  22.564  25.865  1.00  0.00    -0.744 OA
ENDBRANCH  79  83
ENDBRANCH  52  76
BRANCH  64  87
ATOM     87  C   UNL A   1      44.859  27.948  33.555  1.00  0.00     0.023 A 
ATOM     88  C   UNL A   1      44.663  26.826  34.379  1.00  0.00     0.031 A 
ATOM     89  C   UNL A   1      46.182  28.363  33.311  1.00  0.00     0.131 A 
ATOM     90  C   UNL A   1      45.762  26.212  34.996  1.00  0.00     0.055 A 
ATOM     91  C   UNL A   1      47.276  27.699  33.866  1.00  0.00     0.041 A 
ATOM     92  F   UNL A   1      46.432  29.428  32.531  1.00  0.00    -0.206 F 
ATOM     93  C   UNL A   1      47.069  26.630  34.731  1.00  0.00     0.022 A 
BRANCH  90  94
ATOM     94  S   UNL A   1      45.452  24.946  36.258  1.00  0.00     0.124 S 
ATOM     95  O   UNL A   1      45.798  23.719  35.548  1.00  0.00    -0.237 OA
ATOM     96  O   UNL A   1      46.361  25.343  37.327  1.00  0.00    -0.237 OA
ATOM     97  O   UNL A   1      44.030  25.107  36.562  1.00  0.00    -0.744 OA
ENDBRANCH  90  94
ENDBRANCH  64  87
ENDBRANCH  38  39
ENDBRANCH  30  33
ENDBRANCH  28  29
ENDBRANCH  27  28
ENDBRANCH   1  27
TORSDOF 17
ENDMDL
MODEL 2
REMARK VINA RESULT:     -11.8      4.828      9.924
REMARK SMILES COc1ccc2c(c1)[C@H]([NH2+][C@H]1CCC[C@H](C(=O)NCCCCNC(=O)c3ccc(-c4c5nc(c(-c6cc(S(=O)(=O)[O-])ccc6F)c6ccc([nH]6)c(-c6cc(S(=O)(=O)[O-])ccc6F)c6nc(c(-c7cc(S(=O)(=O)[O-])ccc7F)c7ccc4[nH]7)C=C6)C=C5)cc3)C1)CC2
REMARK SMILES IDX 20 1 19 2 18 3 16 4 17 5 15 7 11 8 12 9 89 10 13 11 14 12
REMARK SMILES IDX 10 13 9 16 3 17 4 18 8 19 5 20 7 21 6 22 91 23 90 24 2 25
REMARK SMILES IDX 1 26 21 27 22 28 23 29 24 30 25 32 26 33 27 34 88 35 28 36
REMARK SMILES IDX 87 37 29 38 30 39 31 40 81 41 32 42 86 43 80 44 82 45 33 46
REMARK SMILES IDX 85 47 79 48 78 49 34 51 66 52 46 53 65 54 47 55 50 56 64 57
REMARK SMILES IDX 83 58 48 59 49 60 63 62 84 63 51 64 35 65 36 66 44 67 37 68
REMARK SMILES IDX 43 69 45 70 42 71 38 72 39 73 40 74 41 75 67 76 68 77 76 78
REMARK SMILES IDX 69 79 75 80 77 81 74 82 70 83 71 84 72 85 73 86 52 87 53 88
REMARK SMILES IDX 61 89 54 90 60 91 62 92 59 93 55 94 56 95 57 96 58 97
REMARK H PARENT 18 6 10 14 10 15 23 31 82 50 50 61
REMARK Flexibility Score: inf
ROOT
ATOM      1  C   UNL A   1      34.786  22.937  27.101  1.00  0.00     0.023 C 
ENDROOT
BRANCH   1   2
ATOM      2  C   UNL A   1      33.916  21.811  27.628  1.00  0.00     0.116 C 
BRANCH   2   3
ATOM      3  N   UNL A   1      32.562  22.258  27.856  1.00  0.00    -0.356 N 
ATOM      4  C   UNL A   1      31.687  22.841  27.002  1.00  0.00     0.223 C 
ATOM      5  O   UNL A   1      30.633  23.279  27.472  1.00  0.00    -0.275 OA
ATOM      6  H   UNL A   1      32.224  22.118  28.770  1.00  0.00     0.163 HD
BRANCH   4   7
ATOM      7  C   UNL A   1      31.982  22.963  25.516  1.00  0.00     0.084 C 
ATOM      8  C   UNL A   1      31.899  24.497  23.495  1.00  0.00     0.183 C 
ATOM      9  C   UNL A   1      31.680  23.235  22.611  1.00  0.00     0.065 C 
ATOM     10  C   UNL A   1      31.264  24.133  24.837  1.00  0.00     0.078 C 
ATOM     11  C   UNL A   1      32.187  21.915  23.233  1.00  0.00     0.007 C 
ATOM     12  C   UNL A   1      31.772  21.695  24.697  1.00  0.00     0.014 C 
BRANCH   8  13
ATOM     13  N   UNL A   1      33.320  24.827  23.527  1.00  0.00    -0.338 N 
ATOM     14  H   UNL A   1      33.748  24.211  24.218  1.00  0.00     0.347 HD
ATOM     15  H   UNL A   1      33.601  24.720  22.553  1.00  0.00     0.347 HD
BRANCH  13  16
ATOM     16  C   UNL A   1      33.766  26.194  23.848  1.00  0.00     0.214 C 
ATOM     17  C   UNL A   1      30.984  28.714  22.966  1.00  0.00     0.119 A 
ATOM     18  C   UNL A   1      30.673  29.125  24.262  1.00  0.00     0.047 A 
ATOM     19  C   UNL A   1      32.085  27.874  22.763  1.00  0.00     0.056 A 
ATOM     20  C   UNL A   1      31.477  28.722  25.337  1.00  0.00     0.008 A 
ATOM     21  C   UNL A   1      32.734  27.290  23.840  1.00  0.00     0.016 A 
ATOM     22  C   UNL A   1      32.503  27.816  25.107  1.00  0.00    -0.038 A 
ATOM     23  C   UNL A   1      33.573  27.390  26.053  1.00  0.00     0.042 C 
ATOM     24  C   UNL A   1      34.120  26.136  25.369  1.00  0.00     0.075 C 
BRANCH  17  25
ATOM     25  O   UNL A   1      30.311  29.014  21.816  1.00  0.00    -0.497 OA
ATOM     26  C   UNL A   1      29.472  30.159  21.769  1.00  0.00     0.278 C 
ENDBRANCH  17  25
ENDBRANCH  13  16
ENDBRANCH   8  13
ENDBRANCH   4   7
ENDBRANCH   2   3
ENDBRANCH   1   2
BRANCH   1  27
ATOM     27  C   UNL A   1      35.532  22.590  25.820  1.00  0.00     0.023 C 
BRANCH  27  28
ATOM     28  C   UNL A   1      36.951  23.137  25.756  1.00  0.00     0.116 C 
BRANCH  28  29
ATOM     29  N   UNL A   1      37.957  22.111  25.993  1.00  0.00    -0.352 N 
ATOM     30  C   UNL A   1      39.262  22.264  26.388  1.00  0.00     0.251 C 
ATOM     31  H   UNL A   1      37.661  21.183  25.851  1.00  0.00     0.163 HD
ATOM     32  O   UNL A   1      40.030  21.303  26.358  1.00  0.00    -0.269 OA
BRANCH  30  33
ATOM     33  C   UNL A   1      39.730  23.594  26.822  1.00  0.00     0.039 A 
ATOM     34  C   UNL A   1      39.814  24.625  25.887  1.00  0.00     0.014 A 
ATOM     35  C   UNL A   1      40.053  23.824  28.163  1.00  0.00     0.014 A 
ATOM     36  C   UNL A   1      40.182  25.903  26.308  1.00  0.00     0.010 A 
ATOM     37  C   UNL A   1      40.316  25.116  28.596  1.00  0.00     0.010 A 
ATOM     38  C   UNL A   1      40.412  26.165  27.670  1.00  0.00    -0.014 A 
BRANCH  38  39
ATOM     39  C   UNL A   1      40.832  27.512  28.135  1.00  0.00     0.031 A 
ATOM     40  C   UNL A   1      42.288  27.893  28.069  1.00  0.00     0.074 A 
ATOM     41  C   UNL A   1      39.922  28.371  28.633  1.00  0.00     0.049 A 
ATOM     42  N   UNL A   1      42.879  28.985  28.479  1.00  0.00    -0.248 NA
ATOM     43  C   UNL A   1      43.209  26.898  27.492  1.00  0.00     0.031 C 
ATOM     44  C   UNL A   1      38.489  28.100  28.779  1.00  0.00     0.029 A 
ATOM     45  N   UNL A   1      40.065  29.650  29.110  1.00  0.00    -0.354 N 
ATOM     46  C   UNL A   1      44.232  28.807  28.212  1.00  0.00     0.074 A 
ATOM     47  C   UNL A   1      44.386  27.469  27.688  1.00  0.00     0.031 C 
ATOM     48  C   UNL A   1      37.883  29.190  29.280  1.00  0.00     0.029 A 
ATOM     49  C   UNL A   1      38.886  30.220  29.534  1.00  0.00     0.049 A 
ATOM     50  H   UNL A   1      40.931  30.116  29.147  1.00  0.00     0.167 HD
ATOM     51  C   UNL A   1      45.249  29.692  28.351  1.00  0.00     0.034 A 
ATOM     52  C   UNL A   1      38.646  31.432  30.073  1.00  0.00     0.034 A 
ATOM     53  C   UNL A   1      45.079  31.029  28.859  1.00  0.00     0.049 A 
ATOM     54  C   UNL A   1      39.804  32.388  30.245  1.00  0.00     0.074 A 
ATOM     55  C   UNL A   1      46.037  32.012  29.035  1.00  0.00     0.029 A 
ATOM     56  N   UNL A   1      43.868  31.575  29.264  1.00  0.00    -0.354 N 
ATOM     57  N   UNL A   1      41.075  32.211  29.959  1.00  0.00    -0.248 NA
ATOM     58  C   UNL A   1      39.492  33.716  30.788  1.00  0.00     0.031 C 
ATOM     59  C   UNL A   1      45.417  33.131  29.600  1.00  0.00     0.029 A 
ATOM     60  C   UNL A   1      44.057  32.878  29.697  1.00  0.00     0.049 A 
ATOM     61  H   UNL A   1      43.003  31.106  29.245  1.00  0.00     0.167 HD
ATOM     62  C   UNL A   1      41.699  33.425  30.241  1.00  0.00     0.074 A 
ATOM     63  C   UNL A   1      40.662  34.326  30.696  1.00  0.00     0.031 C 
ATOM     64  C   UNL A   1      43.009  33.767  30.134  1.00  0.00     0.034 A 
BRANCH  51  65
ATOM     65  C   UNL A   1      46.629  29.233  27.946  1.00  0.00     0.023 A 
ATOM     66  C   UNL A   1      46.927  28.893  26.614  1.00  0.00     0.031 A 
ATOM     67  C   UNL A   1      47.659  29.129  28.897  1.00  0.00     0.131 A 
ATOM     68  C   UNL A   1      48.199  28.404  26.283  1.00  0.00     0.055 A 
ATOM     69  C   UNL A   1      48.946  28.720  28.546  1.00  0.00     0.041 A 
ATOM     70  F   UNL A   1      47.427  29.416  30.188  1.00  0.00    -0.206 F 
ATOM     71  C   UNL A   1      49.220  28.344  27.234  1.00  0.00     0.022 A 
BRANCH  68  72
ATOM     72  S   UNL A   1      48.463  27.732  24.619  1.00  0.00     0.124 S 
ATOM     73  O   UNL A   1      47.351  28.329  23.883  1.00  0.00    -0.237 OA
ATOM     74  O   UNL A   1      49.791  28.229  24.284  1.00  0.00    -0.237 OA
ATOM     75  O   UNL A   1      48.368  26.287  24.815  1.00  0.00    -0.744 OA
ENDBRANCH  68  72
ENDBRANCH  51  65
BRANCH  52  76
ATOM     76  C   UNL A   1      37.271  31.828  30.501  1.00  0.00     0.023 A 
ATOM     77  C   UNL A   1      36.373  32.423  29.599  1.00  0.00     0.031 A 
ATOM     78  C   UNL A   1      36.866  31.712  31.844  1.00  0.00     0.131 A 
ATOM     79  C   UNL A   1      35.161  32.958  30.064  1.00  0.00     0.055 A 
ATOM     80  C   UNL A   1      35.628  32.179  32.287  1.00  0.00     0.041 A 
ATOM     81  F   UNL A   1      37.680  31.149  32.752  1.00  0.00    -0.206 F 
ATOM     82  C   UNL A   1      34.777  32.828  31.399  1.00  0.00     0.022 A 
BRANCH  79  83
ATOM     83  S   UNL A   1      34.168  33.965  28.926  1.00  0.00     0.124 S 
ATOM     84  O   UNL A   1      33.687  32.960  27.986  1.00  0.00    -0.237 OA
ATOM     85  O   UNL A   1      33.169  34.535  29.824  1.00  0.00    -0.237 OA
ATOM     86  O   UNL A   1      35.135  34.918  28.385  1.00  0.00    -0.744 OA
ENDBRANCH  79  83
ENDBRANCH  52  76
BRANCH  64  87
ATOM     87  C   UNL A   1      43.370  35.201  30.439  1.00  0.00     0.023 A 
ATOM     88  C   UNL A   1      43.241  36.224  29.482  1.00  0.00     0.031 A 
ATOM     89  C   UNL A   1      43.888  35.543  31.702  1.00  0.00     0.131 A 
ATOM     90  C   UNL A   1      43.702  37.516  29.774  1.00  0.00     0.055 A 
ATOM     91  C   UNL A   1      44.271  36.848  32.013  1.00  0.00     0.041 A 
ATOM     92  F   UNL A   1      44.033  34.609  32.657  1.00  0.00    -0.206 F 
ATOM     93  C   UNL A   1      44.199  37.839  31.039  1.00  0.00     0.022 A 
BRANCH  90  94
ATOM     94  S   UNL A   1      43.768  38.736  28.433  1.00  0.00     0.124 S 
ATOM     95  O   UNL A   1      44.167  37.915  27.295  1.00  0.00    -0.237 OA
ATOM     96  O   UNL A   1      42.400  39.243  28.407  1.00  0.00    -0.237 OA
ATOM     97  O   UNL A   1      44.774  39.693  28.891  1.00  0.00    -0.744 OA
ENDBRANCH  90  94
ENDBRANCH  64  87
ENDBRANCH  38  39
ENDBRANCH  30  33
ENDBRANCH  28  29
ENDBRANCH  27  28
ENDBRANCH   1  27
TORSDOF 17
ENDMDL
MODEL 3
REMARK VINA RESULT:     -11.8      2.707      3.601
REMARK SMILES COc1ccc2c(c1)[C@H]([NH2+][C@H]1CCC[C@H](C(=O)NCCCCNC(=O)c3ccc(-c4c5nc(c(-c6cc(S(=O)(=O)[O-])ccc6F)c6ccc([nH]6)c(-c6cc(S(=O)(=O)[O-])ccc6F)c6nc(c(-c7cc(S(=O)(=O)[O-])ccc7F)c7ccc4[nH]7)C=C6)C=C5)cc3)C1)CC2
REMARK SMILES IDX 20 1 19 2 18 3 16 4 17 5 15 7 11 8 12 9 89 10 13 11 14 12
REMARK SMILES IDX 10 13 9 16 3 17 4 18 8 19 5 20 7 21 6 22 91 23 90 24 2 25
REMARK SMILES IDX 1 26 21 27 22 28 23 29 24 30 25 32 26 33 27 34 88 35 28 36
REMARK SMILES IDX 87 37 29 38 30 39 31 40 81 41 32 42 86 43 80 44 82 45 33 46
REMARK SMILES IDX 85 47 79 48 78 49 34 51 66 52 46 53 65 54 47 55 50 56 64 57
REMARK SMILES IDX 83 58 48 59 49 60 63 62 84 63 51 64 35 65 36 66 44 67 37 68
REMARK SMILES IDX 43 69 45 70 42 71 38 72 39 73 40 74 41 75 67 76 68 77 76 78
REMARK SMILES IDX 69 79 75 80 77 81 74 82 70 83 71 84 72 85 73 86 52 87 53 88
REMARK SMILES IDX 61 89 54 90 60 91 62 92 59 93 55 94 56 95 57 96 58 97
REMARK H PARENT 18 6 10 14 10 15 23 31 82 50 50 61
REMARK Flexibility Score: inf
ROOT
ATOM      1  C   UNL A   1      33.511  29.320  24.178  1.00  0.00     0.023 C 
ENDROOT
BRANCH   1   2
ATOM      2  C   UNL A   1      33.288  28.794  22.772  1.00  0.00     0.116 C 
BRANCH   2   3
ATOM      3  N   UNL A   1      31.892  28.843  22.409  1.00  0.00    -0.356 N 
ATOM      4  C   UNL A   1      30.887  27.989  22.714  1.00  0.00     0.223 C 
ATOM      5  O   UNL A   1      29.799  28.159  22.155  1.00  0.00    -0.275 OA
ATOM      6  H   UNL A   1      31.632  29.615  21.856  1.00  0.00     0.163 HD
BRANCH   4   7
ATOM      7  C   UNL A   1      31.078  26.851  23.705  1.00  0.00     0.084 C 
ATOM      8  C   UNL A   1      31.003  24.334  24.025  1.00  0.00     0.183 C 
ATOM      9  C   UNL A   1      30.584  24.587  25.502  1.00  0.00     0.065 C 
ATOM     10  C   UNL A   1      30.439  25.532  23.262  1.00  0.00     0.078 C 
ATOM     11  C   UNL A   1      30.994  25.967  26.063  1.00  0.00     0.007 C 
ATOM     12  C   UNL A   1      30.672  27.155  25.142  1.00  0.00     0.014 C 
BRANCH   8  13
ATOM     13  N   UNL A   1      32.450  24.154  23.954  1.00  0.00    -0.338 N 
ATOM     14  H   UNL A   1      32.827  24.987  23.503  1.00  0.00     0.347 HD
ATOM     15  H   UNL A   1      32.705  23.979  24.926  1.00  0.00     0.347 HD
BRANCH  13  16
ATOM     16  C   UNL A   1      33.028  22.996  23.250  1.00  0.00     0.214 C 
ATOM     17  C   UNL A   1      36.469  22.133  24.764  1.00  0.00     0.119 A 
ATOM     18  C   UNL A   1      36.133  20.900  25.322  1.00  0.00     0.047 A 
ATOM     19  C   UNL A   1      35.537  22.788  23.949  1.00  0.00     0.056 A 
ATOM     20  C   UNL A   1      34.890  20.318  25.042  1.00  0.00     0.008 A 
ATOM     21  C   UNL A   1      34.232  22.330  23.862  1.00  0.00     0.016 A 
ATOM     22  C   UNL A   1      33.960  21.040  24.306  1.00  0.00    -0.038 A 
ATOM     23  C   UNL A   1      32.663  20.558  23.751  1.00  0.00     0.042 C 
ATOM     24  C   UNL A   1      31.957  21.871  23.411  1.00  0.00     0.075 C 
BRANCH  17  25
ATOM     25  O   UNL A   1      37.628  22.834  24.934  1.00  0.00    -0.497 OA
ATOM     26  C   UNL A   1      37.760  23.722  26.035  1.00  0.00     0.278 C 
ENDBRANCH  17  25
ENDBRANCH  13  16
ENDBRANCH   8  13
ENDBRANCH   4   7
ENDBRANCH   2   3
ENDBRANCH   1   2
BRANCH   1  27
ATOM     27  C   UNL A   1      34.094  28.290  25.136  1.00  0.00     0.023 C 
BRANCH  27  28
ATOM     28  C   UNL A   1      33.828  28.583  26.606  1.00  0.00     0.116 C 
BRANCH  28  29
ATOM     29  N   UNL A   1      33.647  30.004  26.869  1.00  0.00    -0.352 N 
ATOM     30  C   UNL A   1      34.409  30.836  27.649  1.00  0.00     0.251 C 
ATOM     31  H   UNL A   1      32.873  30.423  26.429  1.00  0.00     0.163 HD
ATOM     32  O   UNL A   1      34.006  31.967  27.916  1.00  0.00    -0.269 OA
BRANCH  30  33
ATOM     33  C   UNL A   1      35.696  30.345  28.178  1.00  0.00     0.039 A 
ATOM     34  C   UNL A   1      35.737  29.777  29.451  1.00  0.00     0.014 A 
ATOM     35  C   UNL A   1      36.853  30.421  27.396  1.00  0.00     0.014 A 
ATOM     36  C   UNL A   1      36.936  29.243  29.923  1.00  0.00     0.010 A 
ATOM     37  C   UNL A   1      38.015  29.796  27.825  1.00  0.00     0.010 A 
ATOM     38  C   UNL A   1      38.079  29.226  29.104  1.00  0.00    -0.014 A 
BRANCH  38  39
ATOM     39  C   UNL A   1      39.372  28.687  29.599  1.00  0.00     0.031 A 
ATOM     40  C   UNL A   1      40.006  29.299  30.821  1.00  0.00     0.074 A 
ATOM     41  C   UNL A   1      39.982  27.679  28.944  1.00  0.00     0.049 A 
ATOM     42  N   UNL A   1      41.156  29.028  31.381  1.00  0.00    -0.248 NA
ATOM     43  C   UNL A   1      39.260  30.383  31.483  1.00  0.00     0.031 C 
ATOM     44  C   UNL A   1      39.481  27.030  27.729  1.00  0.00     0.029 A 
ATOM     45  N   UNL A   1      41.156  27.021  29.207  1.00  0.00    -0.354 N 
ATOM     46  C   UNL A   1      41.269  29.906  32.455  1.00  0.00     0.074 A 
ATOM     47  C   UNL A   1      40.115  30.775  32.413  1.00  0.00     0.031 C 
ATOM     48  C   UNL A   1      40.326  26.049  27.373  1.00  0.00     0.029 A 
ATOM     49  C   UNL A   1      41.451  26.025  28.302  1.00  0.00     0.049 A 
ATOM     50  H   UNL A   1      41.735  27.240  29.972  1.00  0.00     0.167 HD
ATOM     51  C   UNL A   1      42.226  29.956  33.414  1.00  0.00     0.034 A 
ATOM     52  C   UNL A   1      42.512  25.197  28.230  1.00  0.00     0.034 A 
ATOM     53  C   UNL A   1      43.363  29.073  33.454  1.00  0.00     0.049 A 
ATOM     54  C   UNL A   1      43.580  25.296  29.295  1.00  0.00     0.074 A 
ATOM     55  C   UNL A   1      44.389  29.029  34.381  1.00  0.00     0.029 A 
ATOM     56  N   UNL A   1      43.620  28.069  32.529  1.00  0.00    -0.354 N 
ATOM     57  N   UNL A   1      43.655  26.116  30.321  1.00  0.00    -0.248 NA
ATOM     58  C   UNL A   1      44.692  24.343  29.208  1.00  0.00     0.031 C 
ATOM     59  C   UNL A   1      45.294  28.039  33.986  1.00  0.00     0.029 A 
ATOM     60  C   UNL A   1      44.792  27.407  32.860  1.00  0.00     0.049 A 
ATOM     61  H   UNL A   1      43.052  27.858  31.753  1.00  0.00     0.167 HD
ATOM     62  C   UNL A   1      44.796  25.737  31.025  1.00  0.00     0.074 A 
ATOM     63  C   UNL A   1      45.360  24.606  30.319  1.00  0.00     0.031 C 
ATOM     64  C   UNL A   1      45.331  26.271  32.153  1.00  0.00     0.034 A 
BRANCH  51  65
ATOM     65  C   UNL A   1      42.076  31.003  34.491  1.00  0.00     0.023 A 
ATOM     66  C   UNL A   1      42.644  32.283  34.353  1.00  0.00     0.031 A 
ATOM     67  C   UNL A   1      41.365  30.723  35.670  1.00  0.00     0.131 A 
ATOM     68  C   UNL A   1      42.546  33.209  35.400  1.00  0.00     0.055 A 
ATOM     69  C   UNL A   1      41.201  31.678  36.674  1.00  0.00     0.041 A 
ATOM     70  F   UNL A   1      40.823  29.511  35.869  1.00  0.00    -0.206 F 
ATOM     71  C   UNL A   1      41.802  32.927  36.548  1.00  0.00     0.022 A 
BRANCH  68  72
ATOM     72  S   UNL A   1      43.508  34.744  35.293  1.00  0.00     0.124 S 
ATOM     73  O   UNL A   1      43.589  35.136  36.699  1.00  0.00    -0.237 OA
ATOM     74  O   UNL A   1      44.753  34.295  34.683  1.00  0.00    -0.237 OA
ATOM     75  O   UNL A   1      42.679  35.609  34.457  1.00  0.00    -0.744 OA
ENDBRANCH  68  72
ENDBRANCH  51  65
BRANCH  52  76
ATOM     76  C   UNL A   1      42.643  24.206  27.120  1.00  0.00     0.023 A 
ATOM     77  C   UNL A   1      41.955  22.982  27.156  1.00  0.00     0.031 A 
ATOM     78  C   UNL A   1      43.536  24.422  26.055  1.00  0.00     0.131 A 
ATOM     79  C   UNL A   1      42.236  21.990  26.204  1.00  0.00     0.055 A 
ATOM     80  C   UNL A   1      43.757  23.460  25.068  1.00  0.00     0.041 A 
ATOM     81  F   UNL A   1      44.220  25.574  25.964  1.00  0.00    -0.206 F 
ATOM     82  C   UNL A   1      43.122  22.225  25.152  1.00  0.00     0.022 A 
BRANCH  79  83
ATOM     83  S   UNL A   1      41.543  20.331  26.454  1.00  0.00     0.124 S 
ATOM     84  O   UNL A   1      42.046  19.997  27.781  1.00  0.00    -0.237 OA
ATOM     85  O   UNL A   1      40.109  20.585  26.355  1.00  0.00    -0.237 OA
ATOM     86  O   UNL A   1      42.115  19.556  25.354  1.00  0.00    -0.744 OA
ENDBRANCH  79  83
ENDBRANCH  52  76
BRANCH  64  87
ATOM     87  C   UNL A   1      46.543  25.581  32.731  1.00  0.00     0.023 A 
ATOM     88  C   UNL A   1      46.434  24.556  33.687  1.00  0.00     0.031 A 
ATOM     89  C   UNL A   1      47.835  25.984  32.342  1.00  0.00     0.131 A 
ATOM     90  C   UNL A   1      47.589  24.029  34.282  1.00  0.00     0.055 A 
ATOM     91  C   UNL A   1      48.981  25.400  32.881  1.00  0.00     0.041 A 
ATOM     92  F   UNL A   1      48.002  26.958  31.432  1.00  0.00    -0.206 F 
ATOM     93  C   UNL A   1      48.863  24.431  33.872  1.00  0.00     0.022 A 
BRANCH  90  94
ATOM     94  S   UNL A   1      47.402  22.907  35.695  1.00  0.00     0.124 S 
ATOM     95  O   UNL A   1      45.951  22.807  35.813  1.00  0.00    -0.237 OA
ATOM     96  O   UNL A   1      48.090  21.707  35.232  1.00  0.00    -0.237 OA
ATOM     97  O   UNL A   1      48.065  23.619  36.787  1.00  0.00    -0.744 OA
ENDBRANCH  90  94
ENDBRANCH  64  87
ENDBRANCH  38  39
ENDBRANCH  30  33
ENDBRANCH  28  29
ENDBRANCH  27  28
ENDBRANCH   1  27
TORSDOF 17
ENDMDL
