MODEL 1
REMARK VINA RESULT:     -12.1      0.000      0.000
REMARK SMILES C[C@@H](C(=O)NCCCCNC(=O)c1ccc(-c2c3nc(c(-c4cc(S(=O)(=O)[O-])ccc4F)c4ccc([nH]4)c(-c4cc(S(=O)(=O)[O-])ccc4F)c4nc(c(-c5cc(S(=O)(=O)[O-])ccc5F)c5ccc2[nH]5)C=C4)C=C3)cc1)c1ccc(-c2cccc(OC(=O)NC3CC3)c2)c(F)c1
REMARK SMILES IDX 6 1 5 2 3 3 4 4 2 6 1 7 76 8 77 9 95 10 78 11 93 12 79 13
REMARK SMILES IDX 94 14 80 15 81 16 92 17 82 18 84 19 83 20 85 21 86 22 87 23
REMARK SMILES IDX 88 24 89 26 90 27 91 28 7 29 8 30 9 31 10 32 11 33 12 35
REMARK SMILES IDX 13 36 14 37 75 38 15 39 74 40 16 41 17 42 18 43 68 44 19 45
REMARK SMILES IDX 73 46 67 47 69 48 20 49 72 50 66 51 65 52 21 54 53 55 33 56
REMARK SMILES IDX 52 57 34 58 37 59 51 60 70 61 35 62 36 63 50 65 71 66 38 67
REMARK SMILES IDX 22 68 23 69 31 70 24 71 30 72 32 73 29 74 25 75 26 76 27 77
REMARK SMILES IDX 28 78 54 79 55 80 63 81 56 82 62 83 64 84 61 85 57 86 58 87
REMARK SMILES IDX 59 88 60 89 39 90 40 91 48 92 41 93 47 94 49 95 46 96 42 97
REMARK SMILES IDX 43 98 44 99 45 100
REMARK H PARENT 5 5 88 25 10 34 69 53 37 64
REMARK Flexibility Score: inf
ROOT
ATOM      1  C   UNL A   1      33.522  29.413  26.261  1.00  0.00     0.116 C 
ENDROOT
BRANCH   1   2
ATOM      2  N   UNL A   1      32.327  28.804  25.713  1.00  0.00    -0.356 N 
ATOM      3  C   UNL A   1      32.151  28.200  24.500  1.00  0.00     0.227 C 
ATOM      4  O   UNL A   1      30.991  28.074  24.106  1.00  0.00    -0.274 OA
ATOM      5  H   UNL A   1      31.533  28.828  26.295  1.00  0.00     0.163 HD
BRANCH   3   6
ATOM      6  C   UNL A   1      33.382  27.700  23.721  1.00  0.00     0.105 C 
ATOM      7  C   UNL A   1      33.218  28.072  22.240  1.00  0.00     0.023 C 
BRANCH   6   8
ATOM      8  C   UNL A   1      33.683  26.207  23.890  1.00  0.00    -0.033 A 
ATOM      9  C   UNL A   1      33.711  25.321  22.800  1.00  0.00     0.005 A 
ATOM     10  C   UNL A   1      33.898  25.664  25.166  1.00  0.00     0.044 A 
ATOM     11  C   UNL A   1      34.045  23.972  22.966  1.00  0.00     0.012 A 
ATOM     12  C   UNL A   1      34.223  24.324  25.328  1.00  0.00     0.131 A 
ATOM     13  C   UNL A   1      34.314  23.457  24.238  1.00  0.00     0.018 A 
ATOM     14  F   UNL A   1      34.439  23.877  26.576  1.00  0.00    -0.206 F 
BRANCH  13  15
ATOM     15  C   UNL A   1      34.587  22.036  24.435  1.00  0.00    -0.012 A 
ATOM     16  C   UNL A   1      35.846  21.561  24.828  1.00  0.00     0.009 A 
ATOM     17  C   UNL A   1      33.550  21.116  24.222  1.00  0.00     0.056 A 
ATOM     18  C   UNL A   1      36.060  20.193  25.009  1.00  0.00     0.004 A 
ATOM     19  C   UNL A   1      33.763  19.758  24.401  1.00  0.00     0.133 A 
ATOM     20  C   UNL A   1      35.017  19.290  24.795  1.00  0.00     0.047 A 
BRANCH  19  21
ATOM     21  O   UNL A   1      32.767  18.775  24.196  1.00  0.00    -0.410 OA
BRANCH  21  22
ATOM     22  C   UNL A   1      32.723  17.860  23.147  1.00  0.00     0.412 C 
ATOM     23  O   UNL A   1      32.441  18.098  21.976  1.00  0.00    -0.224 OA
ATOM     24  N   UNL A   1      33.018  16.577  23.518  1.00  0.00    -0.318 N 
ATOM     25  H   UNL A   1      32.959  15.908  22.797  1.00  0.00     0.167 HD
BRANCH  24  26
ATOM     26  C   UNL A   1      33.396  16.064  24.790  1.00  0.00     0.085 C 
ATOM     27  C   UNL A   1      32.619  16.165  26.071  1.00  0.00     0.027 C 
ATOM     28  C   UNL A   1      32.651  14.867  25.325  1.00  0.00     0.027 C 
ENDBRANCH  24  26
ENDBRANCH  21  22
ENDBRANCH  19  21
ENDBRANCH  13  15
ENDBRANCH   6   8
ENDBRANCH   3   6
ENDBRANCH   1   2
BRANCH   1  29
ATOM     29  C   UNL A   1      33.174  30.255  27.494  1.00  0.00     0.023 C 
BRANCH  29  30
ATOM     30  C   UNL A   1      32.660  31.657  27.175  1.00  0.00     0.023 C 
BRANCH  30  31
ATOM     31  C   UNL A   1      33.674  32.760  27.408  1.00  0.00     0.116 C 
BRANCH  31  32
ATOM     32  N   UNL A   1      33.053  33.995  27.865  1.00  0.00    -0.352 N 
ATOM     33  C   UNL A   1      33.338  34.711  29.004  1.00  0.00     0.251 C 
ATOM     34  H   UNL A   1      32.344  34.362  27.289  1.00  0.00     0.163 HD
ATOM     35  O   UNL A   1      32.616  35.639  29.353  1.00  0.00    -0.269 OA
BRANCH  33  36
ATOM     36  C   UNL A   1      34.508  34.308  29.807  1.00  0.00     0.039 A 
ATOM     37  C   UNL A   1      34.312  33.612  31.000  1.00  0.00     0.014 A 
ATOM     38  C   UNL A   1      35.795  34.542  29.319  1.00  0.00     0.014 A 
ATOM     39  C   UNL A   1      35.416  33.088  31.676  1.00  0.00     0.010 A 
ATOM     40  C   UNL A   1      36.881  33.944  29.943  1.00  0.00     0.010 A 
ATOM     41  C   UNL A   1      36.704  33.216  31.131  1.00  0.00    -0.014 A 
BRANCH  41  42
ATOM     42  C   UNL A   1      37.901  32.634  31.789  1.00  0.00     0.031 A 
ATOM     43  C   UNL A   1      38.613  31.486  31.128  1.00  0.00     0.074 A 
ATOM     44  C   UNL A   1      38.282  33.059  33.009  1.00  0.00     0.049 A 
ATOM     45  N   UNL A   1      39.558  30.714  31.597  1.00  0.00    -0.248 NA
ATOM     46  C   UNL A   1      38.164  31.137  29.772  1.00  0.00     0.031 C 
ATOM     47  C   UNL A   1      37.654  34.146  33.761  1.00  0.00     0.029 A 
ATOM     48  N   UNL A   1      39.274  32.608  33.843  1.00  0.00    -0.354 N 
ATOM     49  C   UNL A   1      39.798  29.770  30.604  1.00  0.00     0.074 A 
ATOM     50  C   UNL A   1      38.848  30.028  29.543  1.00  0.00     0.031 C 
ATOM     51  C   UNL A   1      38.285  34.287  34.938  1.00  0.00     0.029 A 
ATOM     52  C   UNL A   1      39.319  33.262  35.053  1.00  0.00     0.049 A 
ATOM     53  H   UNL A   1      39.898  31.885  33.598  1.00  0.00     0.167 HD
ATOM     54  C   UNL A   1      40.737  28.792  30.573  1.00  0.00     0.034 A 
ATOM     55  C   UNL A   1      40.083  33.042  36.141  1.00  0.00     0.034 A 
ATOM     56  C   UNL A   1      41.675  28.559  31.643  1.00  0.00     0.049 A 
ATOM     57  C   UNL A   1      41.093  31.922  36.110  1.00  0.00     0.074 A 
ATOM     58  C   UNL A   1      42.702  27.633  31.702  1.00  0.00     0.029 A 
ATOM     59  N   UNL A   1      41.696  29.248  32.850  1.00  0.00    -0.354 N 
ATOM     60  N   UNL A   1      41.335  31.056  35.153  1.00  0.00    -0.248 NA
ATOM     61  C   UNL A   1      41.939  31.756  37.298  1.00  0.00     0.031 C 
ATOM     62  C   UNL A   1      43.284  27.704  32.971  1.00  0.00     0.029 A 
ATOM     63  C   UNL A   1      42.691  28.743  33.671  1.00  0.00     0.049 A 
ATOM     64  H   UNL A   1      41.090  29.988  33.087  1.00  0.00     0.167 HD
ATOM     65  C   UNL A   1      42.389  30.268  35.610  1.00  0.00     0.074 A 
ATOM     66  C   UNL A   1      42.732  30.761  36.928  1.00  0.00     0.031 C 
ATOM     67  C   UNL A   1      43.024  29.242  34.987  1.00  0.00     0.034 A 
BRANCH  54  68
ATOM     68  C   UNL A   1      40.752  27.886  29.363  1.00  0.00     0.023 A 
ATOM     69  C   UNL A   1      41.686  28.054  28.324  1.00  0.00     0.031 A 
ATOM     70  C   UNL A   1      39.782  26.880  29.213  1.00  0.00     0.131 A 
ATOM     71  C   UNL A   1      41.561  27.310  27.142  1.00  0.00     0.055 A 
ATOM     72  C   UNL A   1      39.729  26.069  28.077  1.00  0.00     0.041 A 
ATOM     73  F   UNL A   1      38.848  26.683  30.157  1.00  0.00    -0.206 F 
ATOM     74  C   UNL A   1      40.608  26.297  27.022  1.00  0.00     0.022 A 
BRANCH  71  75
ATOM     75  S   UNL A   1      42.531  27.821  25.697  1.00  0.00     0.124 S 
ATOM     76  O   UNL A   1      42.343  26.684  24.798  1.00  0.00    -0.237 OA
ATOM     77  O   UNL A   1      41.877  29.063  25.301  1.00  0.00    -0.237 OA
ATOM     78  O   UNL A   1      43.885  27.967  26.227  1.00  0.00    -0.744 OA
ENDBRANCH  71  75
ENDBRANCH  54  68
BRANCH  55  79
ATOM     79  C   UNL A   1      39.906  33.884  37.359  1.00  0.00     0.023 A 
ATOM     80  C   UNL A   1      40.731  34.995  37.600  1.00  0.00     0.031 A 
ATOM     81  C   UNL A   1      38.912  33.585  38.308  1.00  0.00     0.131 A 
ATOM     82  C   UNL A   1      40.568  35.746  38.774  1.00  0.00     0.055 A 
ATOM     83  C   UNL A   1      38.718  34.366  39.448  1.00  0.00     0.041 A 
ATOM     84  F   UNL A   1      38.093  32.536  38.125  1.00  0.00    -0.206 F 
ATOM     85  C   UNL A   1      39.557  35.449  39.691  1.00  0.00     0.022 A 
BRANCH  82  86
ATOM     86  S   UNL A   1      41.742  37.084  39.122  1.00  0.00     0.124 S 
ATOM     87  O   UNL A   1      40.846  38.173  39.496  1.00  0.00    -0.237 OA
ATOM     88  O   UNL A   1      42.543  36.513  40.199  1.00  0.00    -0.237 OA
ATOM     89  O   UNL A   1      42.444  37.261  37.853  1.00  0.00    -0.744 OA
ENDBRANCH  82  86
ENDBRANCH  55  79
BRANCH  67  90
ATOM     90  C   UNL A   1      44.210  28.624  35.691  1.00  0.00     0.023 A 
ATOM     91  C   UNL A   1      44.077  27.560  36.598  1.00  0.00     0.031 A 
ATOM     92  C   UNL A   1      45.506  29.100  35.417  1.00  0.00     0.131 A 
ATOM     93  C   UNL A   1      45.216  27.034  37.228  1.00  0.00     0.055 A 
ATOM     94  C   UNL A   1      46.639  28.531  35.997  1.00  0.00     0.041 A 
ATOM     95  F   UNL A   1      45.692  30.120  34.562  1.00  0.00    -0.206 F 
ATOM     96  C   UNL A   1      46.497  27.498  36.916  1.00  0.00     0.022 A 
BRANCH  93  97
ATOM     97  S   UNL A   1      45.002  25.780  38.523  1.00  0.00     0.124 S 
ATOM     98  O   UNL A   1      44.240  26.513  39.530  1.00  0.00    -0.237 OA
ATOM     99  O   UNL A   1      44.280  24.724  37.820  1.00  0.00    -0.237 OA
ATOM    100  O   UNL A   1      46.372  25.443  38.906  1.00  0.00    -0.744 OA
ENDBRANCH  93  97
ENDBRANCH  67  90
ENDBRANCH  41  42
ENDBRANCH  33  36
ENDBRANCH  31  32
ENDBRANCH  30  31
ENDBRANCH  29  30
ENDBRANCH   1  29
TORSDOF 19
ENDMDL
MODEL 2
REMARK VINA RESULT:     -12.1      3.032      4.138
REMARK SMILES C[C@@H](C(=O)NCCCCNC(=O)c1ccc(-c2c3nc(c(-c4cc(S(=O)(=O)[O-])ccc4F)c4ccc([nH]4)c(-c4cc(S(=O)(=O)[O-])ccc4F)c4nc(c(-c5cc(S(=O)(=O)[O-])ccc5F)c5ccc2[nH]5)C=C4)C=C3)cc1)c1ccc(-c2cccc(OC(=O)NC3CC3)c2)c(F)c1
REMARK SMILES IDX 6 1 5 2 3 3 4 4 2 6 1 7 76 8 77 9 95 10 78 11 93 12 79 13
REMARK SMILES IDX 94 14 80 15 81 16 92 17 82 18 84 19 83 20 85 21 86 22 87 23
REMARK SMILES IDX 88 24 89 26 90 27 91 28 7 29 8 30 9 31 10 32 11 33 12 35
REMARK SMILES IDX 13 36 14 37 75 38 15 39 74 40 16 41 17 42 18 43 68 44 19 45
REMARK SMILES IDX 73 46 67 47 69 48 20 49 72 50 66 51 65 52 21 54 53 55 33 56
REMARK SMILES IDX 52 57 34 58 37 59 51 60 70 61 35 62 36 63 50 65 71 66 38 67
REMARK SMILES IDX 22 68 23 69 31 70 24 71 30 72 32 73 29 74 25 75 26 76 27 77
REMARK SMILES IDX 28 78 54 79 55 80 63 81 56 82 62 83 64 84 61 85 57 86 58 87
REMARK SMILES IDX 59 88 60 89 39 90 40 91 48 92 41 93 47 94 49 95 46 96 42 97
REMARK SMILES IDX 43 98 44 99 45 100
REMARK H PARENT 5 5 88 25 10 34 69 53 37 64
REMARK Flexibility Score: inf
ROOT
ATOM      1  C   UNL A   1      31.813  30.062  25.448  1.00  0.00     0.116 C 
ENDROOT
BRANCH   1   2
ATOM      2  N   UNL A   1      31.184  29.159  24.505  1.00  0.00    -0.356 N 
ATOM      3  C   UNL A   1      31.766  28.378  23.547  1.00  0.00     0.227 C 
ATOM      4  O   UNL A   1      31.035  27.973  22.642  1.00  0.00    -0.274 OA
ATOM      5  H   UNL A   1      30.203  29.101  24.563  1.00  0.00     0.163 HD
BRANCH   3   6
ATOM      6  C   UNL A   1      33.263  28.036  23.660  1.00  0.00     0.105 C 
ATOM      7  C   UNL A   1      33.996  28.600  22.433  1.00  0.00     0.023 C 
BRANCH   6   8
ATOM      8  C   UNL A   1      33.566  26.546  23.853  1.00  0.00    -0.033 A 
ATOM      9  C   UNL A   1      33.758  25.674  22.767  1.00  0.00     0.005 A 
ATOM     10  C   UNL A   1      33.616  25.991  25.141  1.00  0.00     0.044 A 
ATOM     11  C   UNL A   1      34.091  24.329  22.964  1.00  0.00     0.012 A 
ATOM     12  C   UNL A   1      33.940  24.655  25.332  1.00  0.00     0.131 A 
ATOM     13  C   UNL A   1      34.194  23.803  24.255  1.00  0.00     0.018 A 
ATOM     14  F   UNL A   1      33.994  24.196  26.593  1.00  0.00    -0.206 F 
BRANCH  13  15
ATOM     15  C   UNL A   1      34.464  22.384  24.474  1.00  0.00    -0.012 A 
ATOM     16  C   UNL A   1      35.744  21.903  24.782  1.00  0.00     0.009 A 
ATOM     17  C   UNL A   1      33.403  21.474  24.369  1.00  0.00     0.056 A 
ATOM     18  C   UNL A   1      35.955  20.538  24.988  1.00  0.00     0.004 A 
ATOM     19  C   UNL A   1      33.612  20.118  24.571  1.00  0.00     0.133 A 
ATOM     20  C   UNL A   1      34.887  19.644  24.882  1.00  0.00     0.047 A 
BRANCH  19  21
ATOM     21  O   UNL A   1      32.592  19.145  24.473  1.00  0.00    -0.410 OA
BRANCH  21  22
ATOM     22  C   UNL A   1      32.436  18.224  23.441  1.00  0.00     0.412 C 
ATOM     23  O   UNL A   1      32.259  18.475  22.252  1.00  0.00    -0.224 OA
ATOM     24  N   UNL A   1      32.475  16.919  23.851  1.00  0.00    -0.318 N 
ATOM     25  H   UNL A   1      32.333  16.251  23.140  1.00  0.00     0.167 HD
BRANCH  24  26
ATOM     26  C   UNL A   1      32.691  16.383  25.151  1.00  0.00     0.085 C 
ATOM     27  C   UNL A   1      32.745  14.931  25.531  1.00  0.00     0.027 C 
ATOM     28  C   UNL A   1      34.014  15.720  25.437  1.00  0.00     0.027 C 
ENDBRANCH  24  26
ENDBRANCH  21  22
ENDBRANCH  19  21
ENDBRANCH  13  15
ENDBRANCH   6   8
ENDBRANCH   3   6
ENDBRANCH   1   2
BRANCH   1  29
ATOM     29  C   UNL A   1      31.845  29.435  26.847  1.00  0.00     0.023 C 
BRANCH  29  30
ATOM     30  C   UNL A   1      33.206  28.878  27.256  1.00  0.00     0.023 C 
BRANCH  30  31
ATOM     31  C   UNL A   1      34.330  29.897  27.229  1.00  0.00     0.116 C 
BRANCH  31  32
ATOM     32  N   UNL A   1      34.063  31.036  28.095  1.00  0.00    -0.352 N 
ATOM     33  C   UNL A   1      34.843  31.517  29.120  1.00  0.00     0.251 C 
ATOM     34  H   UNL A   1      33.223  31.521  27.927  1.00  0.00     0.163 HD
ATOM     35  O   UNL A   1      34.412  32.378  29.880  1.00  0.00    -0.269 OA
BRANCH  33  36
ATOM     36  C   UNL A   1      36.191  30.944  29.300  1.00  0.00     0.039 A 
ATOM     37  C   UNL A   1      37.296  31.614  28.774  1.00  0.00     0.014 A 
ATOM     38  C   UNL A   1      36.354  29.791  30.072  1.00  0.00     0.014 A 
ATOM     39  C   UNL A   1      38.580  31.161  29.083  1.00  0.00     0.010 A 
ATOM     40  C   UNL A   1      37.630  29.398  30.450  1.00  0.00     0.010 A 
ATOM     41  C   UNL A   1      38.757  30.075  29.954  1.00  0.00    -0.014 A 
BRANCH  41  42
ATOM     42  C   UNL A   1      40.104  29.589  30.348  1.00  0.00     0.031 A 
ATOM     43  C   UNL A   1      40.732  28.465  29.573  1.00  0.00     0.074 A 
ATOM     44  C   UNL A   1      40.708  30.079  31.448  1.00  0.00     0.049 A 
ATOM     45  N   UNL A   1      41.804  27.768  29.841  1.00  0.00    -0.248 NA
ATOM     46  C   UNL A   1      40.026  28.042  28.355  1.00  0.00     0.031 C 
ATOM     47  C   UNL A   1      40.186  31.152  32.295  1.00  0.00     0.029 A 
ATOM     48  N   UNL A   1      41.885  29.719  32.056  1.00  0.00    -0.354 N 
ATOM     49  C   UNL A   1      41.888  26.807  28.840  1.00  0.00     0.074 A 
ATOM     50  C   UNL A   1      40.717  26.969  28.005  1.00  0.00     0.031 C 
ATOM     51  C   UNL A   1      41.045  31.371  33.304  1.00  0.00     0.029 A 
ATOM     52  C   UNL A   1      42.145  30.416  33.213  1.00  0.00     0.049 A 
ATOM     53  H   UNL A   1      42.488  29.027  31.697  1.00  0.00     0.167 HD
ATOM     54  C   UNL A   1      42.861  25.887  28.626  1.00  0.00     0.034 A 
ATOM     55  C   UNL A   1      43.138  30.281  34.114  1.00  0.00     0.034 A 
ATOM     56  C   UNL A   1      44.022  25.749  29.472  1.00  0.00     0.049 A 
ATOM     57  C   UNL A   1      44.191  29.224  33.888  1.00  0.00     0.074 A 
ATOM     58  C   UNL A   1      45.097  24.889  29.326  1.00  0.00     0.029 A 
ATOM     59  N   UNL A   1      44.255  26.479  30.631  1.00  0.00    -0.354 N 
ATOM     60  N   UNL A   1      44.279  28.341  32.920  1.00  0.00    -0.248 NA
ATOM     61  C   UNL A   1      45.281  29.151  34.868  1.00  0.00     0.031 C 
ATOM     62  C   UNL A   1      45.932  25.040  30.437  1.00  0.00     0.029 A 
ATOM     63  C   UNL A   1      45.435  26.065  31.227  1.00  0.00     0.049 A 
ATOM     64  H   UNL A   1      43.666  27.189  30.978  1.00  0.00     0.167 HD
ATOM     65  C   UNL A   1      45.456  27.635  33.154  1.00  0.00     0.074 A 
ATOM     66  C   UNL A   1      46.041  28.193  34.355  1.00  0.00     0.031 C 
ATOM     67  C   UNL A   1      46.009  26.628  32.429  1.00  0.00     0.034 A 
BRANCH  54  68
ATOM     68  C   UNL A   1      42.677  24.942  27.461  1.00  0.00     0.023 A 
ATOM     69  C   UNL A   1      41.987  23.724  27.597  1.00  0.00     0.031 A 
ATOM     70  C   UNL A   1      43.251  25.232  26.210  1.00  0.00     0.131 A 
ATOM     71  C   UNL A   1      41.986  22.797  26.544  1.00  0.00     0.055 A 
ATOM     72  C   UNL A   1      43.153  24.350  25.132  1.00  0.00     0.041 A 
ATOM     73  F   UNL A   1      43.941  26.367  26.020  1.00  0.00    -0.206 F 
ATOM     74  C   UNL A   1      42.538  23.113  25.302  1.00  0.00     0.022 A 
BRANCH  71  75
ATOM     75  S   UNL A   1      41.429  21.105  26.888  1.00  0.00     0.124 S 
ATOM     76  O   UNL A   1      40.001  21.307  27.123  1.00  0.00    -0.237 OA
ATOM     77  O   UNL A   1      41.781  20.402  25.660  1.00  0.00    -0.237 OA
ATOM     78  O   UNL A   1      42.199  20.725  28.071  1.00  0.00    -0.744 OA
ENDBRANCH  71  75
ENDBRANCH  54  68
BRANCH  55  79
ATOM     79  C   UNL A   1      43.172  31.153  35.324  1.00  0.00     0.023 A 
ATOM     80  C   UNL A   1      43.789  32.413  35.293  1.00  0.00     0.031 A 
ATOM     81  C   UNL A   1      42.593  30.732  36.534  1.00  0.00     0.131 A 
ATOM     82  C   UNL A   1      43.841  33.196  36.457  1.00  0.00     0.055 A 
ATOM     83  C   UNL A   1      42.599  31.536  37.676  1.00  0.00     0.041 A 
ATOM     84  F   UNL A   1      41.986  29.537  36.618  1.00  0.00    -0.206 F 
ATOM     85  C   UNL A   1      43.236  32.773  37.643  1.00  0.00     0.022 A 
BRANCH  82  86
ATOM     86  S   UNL A   1      44.770  34.753  36.420  1.00  0.00     0.124 S 
ATOM     87  O   UNL A   1      45.643  34.603  37.579  1.00  0.00    -0.237 OA
ATOM     88  O   UNL A   1      45.418  34.689  35.115  1.00  0.00    -0.237 OA
ATOM     89  O   UNL A   1      43.731  35.773  36.547  1.00  0.00    -0.744 OA
ENDBRANCH  82  86
ENDBRANCH  55  79
BRANCH  67  90
ATOM     90  C   UNL A   1      47.357  26.109  32.872  1.00  0.00     0.023 A 
ATOM     91  C   UNL A   1      47.495  24.999  33.723  1.00  0.00     0.031 A 
ATOM     92  C   UNL A   1      48.530  26.728  32.400  1.00  0.00     0.131 A 
ATOM     93  C   UNL A   1      48.775  24.568  34.106  1.00  0.00     0.055 A 
ATOM     94  C   UNL A   1      49.799  26.256  32.733  1.00  0.00     0.041 A 
ATOM     95  F   UNL A   1      48.458  27.796  31.589  1.00  0.00    -0.206 F 
ATOM     96  C   UNL A   1      49.927  25.176  33.599  1.00  0.00     0.022 A 
BRANCH  93  97
ATOM     97  S   UNL A   1      48.922  23.246  35.341  1.00  0.00     0.124 S 
ATOM     98  O   UNL A   1      47.853  22.337  34.938  1.00  0.00    -0.237 OA
ATOM     99  O   UNL A   1      50.283  22.766  35.124  1.00  0.00    -0.237 OA
ATOM    100  O   UNL A   1      48.704  23.936  36.611  1.00  0.00    -0.744 OA
ENDBRANCH  93  97
ENDBRANCH  67  90
ENDBRANCH  41  42
ENDBRANCH  33  36
ENDBRANCH  31  32
ENDBRANCH  30  31
ENDBRANCH  29  30
ENDBRANCH   1  29
TORSDOF 19
ENDMDL
MODEL 3
REMARK VINA RESULT:     -12.1      2.134      2.507
REMARK SMILES C[C@@H](C(=O)NCCCCNC(=O)c1ccc(-c2c3nc(c(-c4cc(S(=O)(=O)[O-])ccc4F)c4ccc([nH]4)c(-c4cc(S(=O)(=O)[O-])ccc4F)c4nc(c(-c5cc(S(=O)(=O)[O-])ccc5F)c5ccc2[nH]5)C=C4)C=C3)cc1)c1ccc(-c2cccc(OC(=O)NC3CC3)c2)c(F)c1
REMARK SMILES IDX 6 1 5 2 3 3 4 4 2 6 1 7 76 8 77 9 95 10 78 11 93 12 79 13
REMARK SMILES IDX 94 14 80 15 81 16 92 17 82 18 84 19 83 20 85 21 86 22 87 23
REMARK SMILES IDX 88 24 89 26 90 27 91 28 7 29 8 30 9 31 10 32 11 33 12 35
REMARK SMILES IDX 13 36 14 37 75 38 15 39 74 40 16 41 17 42 18 43 68 44 19 45
REMARK SMILES IDX 73 46 67 47 69 48 20 49 72 50 66 51 65 52 21 54 53 55 33 56
REMARK SMILES IDX 52 57 34 58 37 59 51 60 70 61 35 62 36 63 50 65 71 66 38 67
REMARK SMILES IDX 22 68 23 69 31 70 24 71 30 72 32 73 29 74 25 75 26 76 27 77
REMARK SMILES IDX 28 78 54 79 55 80 63 81 56 82 62 83 64 84 61 85 57 86 58 87
REMARK SMILES IDX 59 88 60 89 39 90 40 91 48 92 41 93 47 94 49 95 46 96 42 97
REMARK SMILES IDX 43 98 44 99 45 100
REMARK H PARENT 5 5 88 25 10 34 69 53 37 64
REMARK Flexibility Score: inf
ROOT
ATOM      1  C   UNL A   1      31.715  28.918  25.434  1.00  0.00     0.116 C 
ENDROOT
BRANCH   1   2
ATOM      2  N   UNL A   1      32.503  29.484  24.358  1.00  0.00    -0.356 N 
ATOM      3  C   UNL A   1      32.934  28.890  23.205  1.00  0.00     0.227 C 
ATOM      4  O   UNL A   1      33.869  29.432  22.616  1.00  0.00    -0.274 OA
ATOM      5  H   UNL A   1      32.765  30.426  24.473  1.00  0.00     0.163 HD
BRANCH   3   6
ATOM      6  C   UNL A   1      32.227  27.616  22.705  1.00  0.00     0.105 C 
ATOM      7  C   UNL A   1      30.779  27.616  23.218  1.00  0.00     0.023 C 
BRANCH   6   8
ATOM      8  C   UNL A   1      32.942  26.307  23.057  1.00  0.00    -0.033 A 
ATOM      9  C   UNL A   1      32.901  25.182  22.216  1.00  0.00     0.005 A 
ATOM     10  C   UNL A   1      33.634  26.179  24.271  1.00  0.00     0.044 A 
ATOM     11  C   UNL A   1      33.609  24.015  22.527  1.00  0.00     0.012 A 
ATOM     12  C   UNL A   1      34.330  25.017  24.578  1.00  0.00     0.131 A 
ATOM     13  C   UNL A   1      34.342  23.921  23.713  1.00  0.00     0.018 A 
ATOM     14  F   UNL A   1      34.989  24.972  25.747  1.00  0.00    -0.206 F 
BRANCH  13  15
ATOM     15  C   UNL A   1      35.021  22.683  24.087  1.00  0.00    -0.012 A 
ATOM     16  C   UNL A   1      36.417  22.561  24.075  1.00  0.00     0.009 A 
ATOM     17  C   UNL A   1      34.245  21.580  24.469  1.00  0.00     0.056 A 
ATOM     18  C   UNL A   1      37.024  21.358  24.445  1.00  0.00     0.004 A 
ATOM     19  C   UNL A   1      34.847  20.385  24.835  1.00  0.00     0.133 A 
ATOM     20  C   UNL A   1      36.237  20.269  24.825  1.00  0.00     0.047 A 
BRANCH  19  21
ATOM     21  O   UNL A   1      34.128  19.232  25.223  1.00  0.00    -0.410 OA
BRANCH  21  22
ATOM     22  C   UNL A   1      32.766  19.012  25.028  1.00  0.00     0.412 C 
ATOM     23  O   UNL A   1      31.866  19.840  25.132  1.00  0.00    -0.224 OA
ATOM     24  N   UNL A   1      32.454  17.720  24.704  1.00  0.00    -0.318 N 
ATOM     25  H   UNL A   1      31.492  17.535  24.595  1.00  0.00     0.167 HD
BRANCH  24  26
ATOM     26  C   UNL A   1      33.311  16.602  24.503  1.00  0.00     0.085 C 
ATOM     27  C   UNL A   1      34.197  15.948  25.524  1.00  0.00     0.027 C 
ATOM     28  C   UNL A   1      32.918  15.284  25.119  1.00  0.00     0.027 C 
ENDBRANCH  24  26
ENDBRANCH  21  22
ENDBRANCH  19  21
ENDBRANCH  13  15
ENDBRANCH   6   8
ENDBRANCH   3   6
ENDBRANCH   1   2
BRANCH   1  29
ATOM     29  C   UNL A   1      31.932  29.709  26.728  1.00  0.00     0.023 C 
BRANCH  29  30
ATOM     30  C   UNL A   1      31.836  31.224  26.565  1.00  0.00     0.023 C 
BRANCH  30  31
ATOM     31  C   UNL A   1      32.956  31.994  27.239  1.00  0.00     0.116 C 
BRANCH  31  32
ATOM     32  N   UNL A   1      32.619  33.396  27.439  1.00  0.00    -0.352 N 
ATOM     33  C   UNL A   1      33.154  34.270  28.357  1.00  0.00     0.251 C 
ATOM     34  H   UNL A   1      31.924  33.764  26.846  1.00  0.00     0.163 HD
ATOM     35  O   UNL A   1      32.652  35.375  28.531  1.00  0.00    -0.269 OA
BRANCH  33  36
ATOM     36  C   UNL A   1      34.318  33.825  29.146  1.00  0.00     0.039 A 
ATOM     37  C   UNL A   1      34.138  32.890  30.166  1.00  0.00     0.014 A 
ATOM     38  C   UNL A   1      35.597  34.270  28.802  1.00  0.00     0.014 A 
ATOM     39  C   UNL A   1      35.256  32.348  30.802  1.00  0.00     0.010 A 
ATOM     40  C   UNL A   1      36.707  33.663  29.372  1.00  0.00     0.010 A 
ATOM     41  C   UNL A   1      36.549  32.700  30.383  1.00  0.00    -0.014 A 
BRANCH  41  42
ATOM     42  C   UNL A   1      37.766  32.112  30.996  1.00  0.00     0.031 A 
ATOM     43  C   UNL A   1      38.534  31.064  30.239  1.00  0.00     0.074 A 
ATOM     44  C   UNL A   1      38.119  32.438  32.255  1.00  0.00     0.049 A 
ATOM     45  N   UNL A   1      39.509  30.294  30.645  1.00  0.00    -0.248 NA
ATOM     46  C   UNL A   1      38.110  30.824  28.852  1.00  0.00     0.031 C 
ATOM     47  C   UNL A   1      37.438  33.421  33.097  1.00  0.00     0.029 A 
ATOM     48  N   UNL A   1      39.125  31.955  33.054  1.00  0.00    -0.354 N 
ATOM     49  C   UNL A   1      39.798  29.459  29.571  1.00  0.00     0.074 A 
ATOM     50  C   UNL A   1      38.845  29.772  28.528  1.00  0.00     0.031 C 
ATOM     51  C   UNL A   1      38.054  33.479  34.289  1.00  0.00     0.029 A 
ATOM     52  C   UNL A   1      39.132  32.495  34.320  1.00  0.00     0.049 A 
ATOM     53  H   UNL A   1      39.782  31.287  32.750  1.00  0.00     0.167 HD
ATOM     54  C   UNL A   1      40.780  28.530  29.459  1.00  0.00     0.034 A 
ATOM     55  C   UNL A   1      39.898  32.208  35.392  1.00  0.00     0.034 A 
ATOM     56  C   UNL A   1      41.721  28.239  30.513  1.00  0.00     0.049 A 
ATOM     57  C   UNL A   1      40.958  31.142  35.267  1.00  0.00     0.074 A 
ATOM     58  C   UNL A   1      42.788  27.358  30.497  1.00  0.00     0.029 A 
ATOM     59  N   UNL A   1      41.702  28.813  31.779  1.00  0.00    -0.354 N 
ATOM     60  N   UNL A   1      41.245  30.380  34.237  1.00  0.00    -0.248 NA
ATOM     61  C   UNL A   1      41.802  30.903  36.444  1.00  0.00     0.031 C 
ATOM     62  C   UNL A   1      43.358  27.336  31.774  1.00  0.00     0.029 A 
ATOM     63  C   UNL A   1      42.713  28.278  32.561  1.00  0.00     0.049 A 
ATOM     64  H   UNL A   1      41.062  29.500  32.077  1.00  0.00     0.167 HD
ATOM     65  C   UNL A   1      42.330  29.600  34.630  1.00  0.00     0.074 A 
ATOM     66  C   UNL A   1      42.642  29.982  35.992  1.00  0.00     0.031 C 
ATOM     67  C   UNL A   1      43.014  28.666  33.921  1.00  0.00     0.034 A 
BRANCH  54  68
ATOM     68  C   UNL A   1      40.845  27.743  28.170  1.00  0.00     0.023 A 
ATOM     69  C   UNL A   1      40.305  26.448  28.066  1.00  0.00     0.031 A 
ATOM     70  C   UNL A   1      41.509  28.267  27.047  1.00  0.00     0.131 A 
ATOM     71  C   UNL A   1      40.536  25.683  26.912  1.00  0.00     0.055 A 
ATOM     72  C   UNL A   1      41.642  27.539  25.863  1.00  0.00     0.041 A 
ATOM     73  F   UNL A   1      42.065  29.488  27.089  1.00  0.00    -0.206 F 
ATOM     74  C   UNL A   1      41.175  26.229  25.799  1.00  0.00     0.022 A 
BRANCH  71  75
ATOM     75  S   UNL A   1      40.166  23.908  26.969  1.00  0.00     0.124 S 
ATOM     76  O   UNL A   1      41.126  23.376  26.004  1.00  0.00    -0.237 OA
ATOM     77  O   UNL A   1      40.416  23.578  28.367  1.00  0.00    -0.237 OA
ATOM     78  O   UNL A   1      38.769  23.836  26.548  1.00  0.00    -0.744 OA
ENDBRANCH  71  75
ENDBRANCH  54  68
BRANCH  55  79
ATOM     79  C   UNL A   1      39.675  32.924  36.681  1.00  0.00     0.023 A 
ATOM     80  C   UNL A   1      38.770  32.436  37.636  1.00  0.00     0.031 A 
ATOM     81  C   UNL A   1      40.361  34.117  36.973  1.00  0.00     0.131 A 
ATOM     82  C   UNL A   1      38.551  33.152  38.823  1.00  0.00     0.055 A 
ATOM     83  C   UNL A   1      40.180  34.798  38.178  1.00  0.00     0.041 A 
ATOM     84  F   UNL A   1      41.241  34.626  36.096  1.00  0.00    -0.206 F 
ATOM     85  C   UNL A   1      39.262  34.320  39.107  1.00  0.00     0.022 A 
BRANCH  82  86
ATOM     86  S   UNL A   1      37.271  32.569  39.968  1.00  0.00     0.124 S 
ATOM     87  O   UNL A   1      37.259  33.635  40.965  1.00  0.00    -0.237 OA
ATOM     88  O   UNL A   1      36.101  32.488  39.101  1.00  0.00    -0.237 OA
ATOM     89  O   UNL A   1      37.789  31.284  40.433  1.00  0.00    -0.744 OA
ENDBRANCH  82  86
ENDBRANCH  55  79
BRANCH  67  90
ATOM     90  C   UNL A   1      44.222  28.038  34.578  1.00  0.00     0.023 A 
ATOM     91  C   UNL A   1      44.141  26.851  35.324  1.00  0.00     0.031 A 
ATOM     92  C   UNL A   1      45.487  28.635  34.421  1.00  0.00     0.131 A 
ATOM     93  C   UNL A   1      45.298  26.320  35.918  1.00  0.00     0.055 A 
ATOM     94  C   UNL A   1      46.642  28.069  34.959  1.00  0.00     0.041 A 
ATOM     95  F   UNL A   1      45.622  29.775  33.723  1.00  0.00    -0.206 F 
ATOM     96  C   UNL A   1      46.550  26.910  35.721  1.00  0.00     0.022 A 
BRANCH  93  97
ATOM     97  S   UNL A   1      45.140  24.886  37.018  1.00  0.00     0.124 S 
ATOM     98  O   UNL A   1      45.397  23.775  36.107  1.00  0.00    -0.237 OA
ATOM     99  O   UNL A   1      46.172  25.143  38.018  1.00  0.00    -0.237 OA
ATOM    100  O   UNL A   1      43.766  24.980  37.510  1.00  0.00    -0.744 OA
ENDBRANCH  93  97
ENDBRANCH  67  90
ENDBRANCH  41  42
ENDBRANCH  33  36
ENDBRANCH  31  32
ENDBRANCH  30  31
ENDBRANCH  29  30
ENDBRANCH   1  29
TORSDOF 19
ENDMDL
