MODEL 1
REMARK VINA RESULT:     -11.7      0.000      0.000
REMARK SMILES Cc1nc(CN(C)C(=O)NCc2ccc(C(=O)NCCCCNC(=O)c3ccc(-c4c5nc(c(-c6cc(S(=O)(=O)[O-])ccc6F)c6ccc([nH]6)c(-c6cc(S(=O)(=O)[O-])ccc6F)c6nc(c(-c7cc(S(=O)(=O)[O-])ccc7F)c7ccc4[nH]7)C=C6)C=C5)cc3)o2)n[nH]1
REMARK SMILES IDX 19 1 18 2 16 3 17 4 15 6 12 7 13 8 89 9 14 10 11 11 10 12
REMARK SMILES IDX 8 13 9 14 6 16 7 17 5 18 4 19 1 20 2 21 3 22 91 23 90 24
REMARK SMILES IDX 20 26 21 27 22 28 23 29 24 30 25 32 26 33 27 34 88 35 28 36
REMARK SMILES IDX 87 37 29 38 30 39 31 40 81 41 32 42 86 43 80 44 82 45 33 46
REMARK SMILES IDX 85 47 79 48 78 49 34 51 66 52 46 53 65 54 47 55 50 56 64 57
REMARK SMILES IDX 83 58 48 59 49 60 63 62 84 63 51 64 35 65 36 66 44 67 37 68
REMARK SMILES IDX 43 69 45 70 42 71 38 72 39 73 40 74 41 75 67 76 68 77 76 78
REMARK SMILES IDX 69 79 75 80 77 81 74 82 70 83 71 84 72 85 73 86 52 87 53 88
REMARK SMILES IDX 61 89 54 90 60 91 62 92 59 93 55 94 56 95 57 96 58 97
REMARK H PARENT 18 5 10 15 91 25 23 31 82 50 50 61
REMARK Flexibility Score: inf
ROOT
ATOM      1  C   UNL A   1      33.043  29.512  25.855  1.00  0.00     0.116 C 
ENDROOT
BRANCH   1   2
ATOM      2  N   UNL A   1      33.632  29.286  24.554  1.00  0.00    -0.349 N 
ATOM      3  C   UNL A   1      33.266  28.450  23.524  1.00  0.00     0.286 C 
ATOM      4  O   UNL A   1      33.964  28.525  22.509  1.00  0.00    -0.266 OA
ATOM      5  H   UNL A   1      34.436  29.825  24.374  1.00  0.00     0.163 HD
BRANCH   3   6
ATOM      6  C   UNL A   1      32.128  27.551  23.625  1.00  0.00     0.191 A 
ATOM      7  C   UNL A   1      31.218  25.530  23.466  1.00  0.00     0.124 A 
ATOM      8  C   UNL A   1      30.209  26.380  23.861  1.00  0.00     0.048 A 
ATOM      9  O   UNL A   1      32.371  26.232  23.306  1.00  0.00    -0.454 OA
ATOM     10  C   UNL A   1      30.799  27.660  23.998  1.00  0.00     0.056 A 
BRANCH   7  11
ATOM     11  C   UNL A   1      31.308  24.068  23.228  1.00  0.00     0.193 C 
BRANCH  11  12
ATOM     12  N   UNL A   1      31.387  23.390  24.504  1.00  0.00    -0.331 N 
ATOM     13  C   UNL A   1      31.879  22.218  24.937  1.00  0.00     0.317 C 
ATOM     14  O   UNL A   1      31.449  21.854  26.036  1.00  0.00    -0.249 OA
ATOM     15  H   UNL A   1      30.981  23.916  25.231  1.00  0.00     0.165 HD
BRANCH  13  16
ATOM     16  N   UNL A   1      32.778  21.477  24.226  1.00  0.00    -0.320 N 
ATOM     17  C   UNL A   1      34.183  21.287  24.521  1.00  0.00     0.149 C 
BRANCH  16  18
ATOM     18  C   UNL A   1      32.221  20.638  23.152  1.00  0.00     0.200 C 
BRANCH  18  19
ATOM     19  C   UNL A   1      32.332  19.174  23.469  1.00  0.00     0.170 A 
ATOM     20  C   UNL A   1      32.784  16.471  25.746  1.00  0.00     0.089 C 
ATOM     21  C   UNL A   1      32.585  17.445  24.656  1.00  0.00     0.121 A 
ATOM     22  N   UNL A   1      32.257  18.712  24.763  1.00  0.00    -0.215 NA
ATOM     23  N   UNL A   1      32.770  17.147  23.337  1.00  0.00    -0.263 N 
ATOM     24  N   UNL A   1      32.557  18.215  22.553  1.00  0.00    -0.157 NA
ATOM     25  H   UNL A   1      33.027  16.258  23.003  1.00  0.00     0.192 HD
ENDBRANCH  18  19
ENDBRANCH  16  18
ENDBRANCH  13  16
ENDBRANCH  11  12
ENDBRANCH   7  11
ENDBRANCH   3   6
ENDBRANCH   1   2
BRANCH   1  26
ATOM     26  C   UNL A   1      31.923  30.550  25.788  1.00  0.00     0.023 C 
BRANCH  26  27
ATOM     27  C   UNL A   1      31.819  31.438  27.035  1.00  0.00     0.023 C 
BRANCH  27  28
ATOM     28  C   UNL A   1      33.022  32.344  27.293  1.00  0.00     0.116 C 
BRANCH  28  29
ATOM     29  N   UNL A   1      32.658  33.721  27.584  1.00  0.00    -0.352 N 
ATOM     30  C   UNL A   1      33.198  34.569  28.523  1.00  0.00     0.251 C 
ATOM     31  H   UNL A   1      31.929  34.095  27.038  1.00  0.00     0.163 HD
ATOM     32  O   UNL A   1      32.700  35.671  28.711  1.00  0.00    -0.269 OA
BRANCH  30  33
ATOM     33  C   UNL A   1      34.350  34.113  29.331  1.00  0.00     0.039 A 
ATOM     34  C   UNL A   1      34.112  33.326  30.459  1.00  0.00     0.014 A 
ATOM     35  C   UNL A   1      35.659  34.433  28.956  1.00  0.00     0.014 A 
ATOM     36  C   UNL A   1      35.189  32.797  31.171  1.00  0.00     0.010 A 
ATOM     37  C   UNL A   1      36.730  33.852  29.629  1.00  0.00     0.010 A 
ATOM     38  C   UNL A   1      36.507  33.024  30.739  1.00  0.00    -0.014 A 
BRANCH  38  39
ATOM     39  C   UNL A   1      37.662  32.399  31.434  1.00  0.00     0.031 A 
ATOM     40  C   UNL A   1      38.402  31.259  30.788  1.00  0.00     0.074 A 
ATOM     41  C   UNL A   1      37.997  32.812  32.673  1.00  0.00     0.049 A 
ATOM     42  N   UNL A   1      39.375  30.528  31.265  1.00  0.00    -0.248 NA
ATOM     43  C   UNL A   1      37.965  30.872  29.438  1.00  0.00     0.031 C 
ATOM     44  C   UNL A   1      37.323  33.877  33.420  1.00  0.00     0.029 A 
ATOM     45  N   UNL A   1      38.977  32.378  33.530  1.00  0.00    -0.354 N 
ATOM     46  C   UNL A   1      39.657  29.584  30.284  1.00  0.00     0.074 A 
ATOM     47  C   UNL A   1      38.714  29.804  29.209  1.00  0.00     0.031 C 
ATOM     48  C   UNL A   1      37.921  34.025  34.613  1.00  0.00     0.029 A 
ATOM     49  C   UNL A   1      38.992  33.040  34.736  1.00  0.00     0.049 A 
ATOM     50  H   UNL A   1      39.612  31.661  33.303  1.00  0.00     0.167 HD
ATOM     51  C   UNL A   1      40.628  28.637  30.273  1.00  0.00     0.034 A 
ATOM     52  C   UNL A   1      39.771  32.867  35.823  1.00  0.00     0.034 A 
ATOM     53  C   UNL A   1      41.574  28.445  31.345  1.00  0.00     0.049 A 
ATOM     54  C   UNL A   1      40.842  31.806  35.786  1.00  0.00     0.074 A 
ATOM     55  C   UNL A   1      42.634  27.558  31.411  1.00  0.00     0.029 A 
ATOM     56  N   UNL A   1      41.573  29.149  32.543  1.00  0.00    -0.354 N 
ATOM     57  N   UNL A   1      41.131  30.957  34.825  1.00  0.00    -0.248 NA
ATOM     58  C   UNL A   1      41.699  31.687  36.972  1.00  0.00     0.031 C 
ATOM     59  C   UNL A   1      43.235  27.683  32.669  1.00  0.00     0.029 A 
ATOM     60  C   UNL A   1      42.595  28.699  33.362  1.00  0.00     0.049 A 
ATOM     61  H   UNL A   1      40.937  29.865  32.775  1.00  0.00     0.167 HD
ATOM     62  C   UNL A   1      42.227  30.229  35.282  1.00  0.00     0.074 A 
ATOM     63  C   UNL A   1      42.553  30.748  36.594  1.00  0.00     0.031 C 
ATOM     64  C   UNL A   1      42.905  29.223  34.671  1.00  0.00     0.034 A 
BRANCH  51  65
ATOM     65  C   UNL A   1      40.696  27.724  29.072  1.00  0.00     0.023 A 
ATOM     66  C   UNL A   1      41.631  27.925  28.043  1.00  0.00     0.031 A 
ATOM     67  C   UNL A   1      39.801  26.646  28.947  1.00  0.00     0.131 A 
ATOM     68  C   UNL A   1      41.606  27.108  26.903  1.00  0.00     0.055 A 
ATOM     69  C   UNL A   1      39.833  25.787  27.847  1.00  0.00     0.041 A 
ATOM     70  F   UNL A   1      38.873  26.416  29.888  1.00  0.00    -0.206 F 
ATOM     71  C   UNL A   1      40.730  26.024  26.809  1.00  0.00     0.022 A 
BRANCH  68  72
ATOM     72  S   UNL A   1      42.645  27.563  25.488  1.00  0.00     0.124 S 
ATOM     73  O   UNL A   1      43.933  27.803  26.134  1.00  0.00    -0.237 OA
ATOM     74  O   UNL A   1      42.566  26.377  24.644  1.00  0.00    -0.237 OA
ATOM     75  O   UNL A   1      41.992  28.755  24.952  1.00  0.00    -0.744 OA
ENDBRANCH  68  72
ENDBRANCH  51  65
BRANCH  52  76
ATOM     76  C   UNL A   1      39.570  33.700  37.043  1.00  0.00     0.023 A 
ATOM     77  C   UNL A   1      38.909  33.185  38.170  1.00  0.00     0.031 A 
ATOM     78  C   UNL A   1      39.988  35.042  37.080  1.00  0.00     0.131 A 
ATOM     79  C   UNL A   1      38.636  34.021  39.264  1.00  0.00     0.055 A 
ATOM     80  C   UNL A   1      39.762  35.854  38.194  1.00  0.00     0.041 A 
ATOM     81  F   UNL A   1      40.630  35.583  36.034  1.00  0.00    -0.206 F 
ATOM     82  C   UNL A   1      39.068  35.348  39.288  1.00  0.00     0.022 A 
BRANCH  79  83
ATOM     83  S   UNL A   1      37.618  33.370  40.618  1.00  0.00     0.124 S 
ATOM     84  O   UNL A   1      38.442  32.271  41.107  1.00  0.00    -0.237 OA
ATOM     85  O   UNL A   1      37.508  34.531  41.496  1.00  0.00    -0.237 OA
ATOM     86  O   UNL A   1      36.380  32.974  39.951  1.00  0.00    -0.744 OA
ENDBRANCH  79  83
ENDBRANCH  52  76
BRANCH  64  87
ATOM     87  C   UNL A   1      44.098  28.661  35.402  1.00  0.00     0.023 A 
ATOM     88  C   UNL A   1      43.972  27.611  36.328  1.00  0.00     0.031 A 
ATOM     89  C   UNL A   1      45.379  29.195  35.177  1.00  0.00     0.131 A 
ATOM     90  C   UNL A   1      45.098  27.165  37.036  1.00  0.00     0.055 A 
ATOM     91  C   UNL A   1      46.505  28.708  35.840  1.00  0.00     0.041 A 
ATOM     92  F   UNL A   1      45.556  30.201  34.304  1.00  0.00    -0.206 F 
ATOM     93  C   UNL A   1      46.367  27.696  36.786  1.00  0.00     0.022 A 
BRANCH  90  94
ATOM     94  S   UNL A   1      44.871  25.941  38.355  1.00  0.00     0.124 S 
ATOM     95  O   UNL A   1      46.247  25.549  38.644  1.00  0.00    -0.237 OA
ATOM     96  O   UNL A   1      44.199  26.719  39.390  1.00  0.00    -0.237 OA
ATOM     97  O   UNL A   1      44.051  24.907  37.726  1.00  0.00    -0.744 OA
ENDBRANCH  90  94
ENDBRANCH  64  87
ENDBRANCH  38  39
ENDBRANCH  30  33
ENDBRANCH  28  29
ENDBRANCH  27  28
ENDBRANCH  26  27
ENDBRANCH   1  26
TORSDOF 19
ENDMDL
MODEL 2
REMARK VINA RESULT:     -11.7      5.584     11.872
REMARK SMILES Cc1nc(CN(C)C(=O)NCc2ccc(C(=O)NCCCCNC(=O)c3ccc(-c4c5nc(c(-c6cc(S(=O)(=O)[O-])ccc6F)c6ccc([nH]6)c(-c6cc(S(=O)(=O)[O-])ccc6F)c6nc(c(-c7cc(S(=O)(=O)[O-])ccc7F)c7ccc4[nH]7)C=C6)C=C5)cc3)o2)n[nH]1
REMARK SMILES IDX 19 1 18 2 16 3 17 4 15 6 12 7 13 8 89 9 14 10 11 11 10 12
REMARK SMILES IDX 8 13 9 14 6 16 7 17 5 18 4 19 1 20 2 21 3 22 91 23 90 24
REMARK SMILES IDX 20 26 21 27 22 28 23 29 24 30 25 32 26 33 27 34 88 35 28 36
REMARK SMILES IDX 87 37 29 38 30 39 31 40 81 41 32 42 86 43 80 44 82 45 33 46
REMARK SMILES IDX 85 47 79 48 78 49 34 51 66 52 46 53 65 54 47 55 50 56 64 57
REMARK SMILES IDX 83 58 48 59 49 60 63 62 84 63 51 64 35 65 36 66 44 67 37 68
REMARK SMILES IDX 43 69 45 70 42 71 38 72 39 73 40 74 41 75 67 76 68 77 76 78
REMARK SMILES IDX 69 79 75 80 77 81 74 82 70 83 71 84 72 85 73 86 52 87 53 88
REMARK SMILES IDX 61 89 54 90 60 91 62 92 59 93 55 94 56 95 57 96 58 97
REMARK H PARENT 18 5 10 15 91 25 23 31 82 50 50 61
REMARK Flexibility Score: inf
ROOT
ATOM      1  C   UNL A   1      36.573  21.476  25.418  1.00  0.00     0.116 C 
ENDROOT
BRANCH   1   2
ATOM      2  N   UNL A   1      35.623  21.523  26.508  1.00  0.00    -0.349 N 
ATOM      3  C   UNL A   1      34.247  21.555  26.512  1.00  0.00     0.286 C 
ATOM      4  O   UNL A   1      33.722  21.548  27.629  1.00  0.00    -0.266 OA
ATOM      5  H   UNL A   1      36.033  21.535  27.403  1.00  0.00     0.163 HD
BRANCH   3   6
ATOM      6  C   UNL A   1      33.470  21.583  25.283  1.00  0.00     0.191 A 
ATOM      7  C   UNL A   1      32.189  22.642  23.809  1.00  0.00     0.124 A 
ATOM      8  C   UNL A   1      32.338  21.357  23.341  1.00  0.00     0.048 A 
ATOM      9  O   UNL A   1      32.854  22.780  24.987  1.00  0.00    -0.454 OA
ATOM     10  C   UNL A   1      33.185  20.693  24.261  1.00  0.00     0.056 A 
BRANCH   7  11
ATOM     11  C   UNL A   1      31.515  23.861  23.296  1.00  0.00     0.193 C 
BRANCH  11  12
ATOM     12  N   UNL A   1      32.269  24.376  22.173  1.00  0.00    -0.331 N 
ATOM     13  C   UNL A   1      32.958  25.499  21.917  1.00  0.00     0.317 C 
ATOM     14  O   UNL A   1      33.173  25.709  20.719  1.00  0.00    -0.249 OA
ATOM     15  H   UNL A   1      32.278  23.750  21.413  1.00  0.00     0.165 HD
BRANCH  13  16
ATOM     16  N   UNL A   1      33.386  26.352  22.893  1.00  0.00    -0.320 N 
ATOM     17  C   UNL A   1      33.905  25.998  24.199  1.00  0.00     0.149 C 
BRANCH  16  18
ATOM     18  C   UNL A   1      33.503  27.768  22.511  1.00  0.00     0.200 C 
BRANCH  18  19
ATOM     19  C   UNL A   1      32.635  28.653  23.360  1.00  0.00     0.170 A 
ATOM     20  C   UNL A   1      31.885  30.338  26.409  1.00  0.00     0.089 C 
ATOM     21  C   UNL A   1      32.018  29.720  25.076  1.00  0.00     0.121 A 
ATOM     22  N   UNL A   1      33.093  29.186  24.543  1.00  0.00    -0.215 NA
ATOM     23  N   UNL A   1      30.977  29.579  24.204  1.00  0.00    -0.263 N 
ATOM     24  N   UNL A   1      31.355  28.955  23.077  1.00  0.00    -0.157 NA
ATOM     25  H   UNL A   1      30.062  29.896  24.380  1.00  0.00     0.192 HD
ENDBRANCH  18  19
ENDBRANCH  16  18
ENDBRANCH  13  16
ENDBRANCH  11  12
ENDBRANCH   7  11
ENDBRANCH   3   6
ENDBRANCH   1   2
BRANCH   1  26
ATOM     26  C   UNL A   1      36.901  20.036  25.026  1.00  0.00     0.023 C 
BRANCH  26  27
ATOM     27  C   UNL A   1      38.393  19.782  24.773  1.00  0.00     0.023 C 
BRANCH  27  28
ATOM     28  C   UNL A   1      39.317  20.103  25.947  1.00  0.00     0.116 C 
BRANCH  28  29
ATOM     29  N   UNL A   1      40.490  19.247  26.010  1.00  0.00    -0.352 N 
ATOM     30  C   UNL A   1      41.800  19.605  26.230  1.00  0.00     0.251 C 
ATOM     31  H   UNL A   1      40.325  18.285  25.878  1.00  0.00     0.163 HD
ATOM     32  O   UNL A   1      42.687  18.765  26.147  1.00  0.00    -0.269 OA
BRANCH  30  33
ATOM     33  C   UNL A   1      42.125  21.019  26.517  1.00  0.00     0.039 A 
ATOM     34  C   UNL A   1      42.340  21.404  27.842  1.00  0.00     0.014 A 
ATOM     35  C   UNL A   1      42.249  21.950  25.482  1.00  0.00     0.014 A 
ATOM     36  C   UNL A   1      42.752  22.707  28.124  1.00  0.00     0.010 A 
ATOM     37  C   UNL A   1      42.723  23.230  25.759  1.00  0.00     0.010 A 
ATOM     38  C   UNL A   1      42.984  23.620  27.081  1.00  0.00    -0.014 A 
BRANCH  38  39
ATOM     39  C   UNL A   1      43.505  24.984  27.355  1.00  0.00     0.031 A 
ATOM     40  C   UNL A   1      42.596  26.036  27.930  1.00  0.00     0.074 A 
ATOM     41  C   UNL A   1      44.775  25.292  27.019  1.00  0.00     0.049 A 
ATOM     42  N   UNL A   1      42.836  27.301  28.159  1.00  0.00    -0.248 NA
ATOM     43  C   UNL A   1      41.227  25.613  28.261  1.00  0.00     0.031 C 
ATOM     44  C   UNL A   1      45.736  24.367  26.413  1.00  0.00     0.029 A 
ATOM     45  N   UNL A   1      45.472  26.468  27.127  1.00  0.00    -0.354 N 
ATOM     46  C   UNL A   1      41.645  27.831  28.644  1.00  0.00     0.074 A 
ATOM     47  C   UNL A   1      40.672  26.760  28.624  1.00  0.00     0.031 C 
ATOM     48  C   UNL A   1      46.901  25.007  26.219  1.00  0.00     0.029 A 
ATOM     49  C   UNL A   1      46.760  26.395  26.647  1.00  0.00     0.049 A 
ATOM     50  H   UNL A   1      45.088  27.289  27.512  1.00  0.00     0.167 HD
ATOM     51  C   UNL A   1      41.395  29.089  29.085  1.00  0.00     0.034 A 
ATOM     52  C   UNL A   1      47.715  27.342  26.551  1.00  0.00     0.034 A 
ATOM     53  C   UNL A   1      42.383  30.139  29.119  1.00  0.00     0.049 A 
ATOM     54  C   UNL A   1      47.411  28.733  27.048  1.00  0.00     0.074 A 
ATOM     55  C   UNL A   1      42.253  31.430  29.602  1.00  0.00     0.029 A 
ATOM     56  N   UNL A   1      43.684  30.023  28.644  1.00  0.00    -0.354 N 
ATOM     57  N   UNL A   1      46.295  29.203  27.557  1.00  0.00    -0.248 NA
ATOM     58  C   UNL A   1      48.498  29.718  26.971  1.00  0.00     0.031 C 
ATOM     59  C   UNL A   1      43.453  32.110  29.366  1.00  0.00     0.029 A 
ATOM     60  C   UNL A   1      44.357  31.224  28.801  1.00  0.00     0.049 A 
ATOM     61  H   UNL A   1      44.070  29.205  28.255  1.00  0.00     0.167 HD
ATOM     62  C   UNL A   1      46.559  30.529  27.891  1.00  0.00     0.074 A 
ATOM     63  C   UNL A   1      47.943  30.777  27.540  1.00  0.00     0.031 C 
ATOM     64  C   UNL A   1      45.736  31.457  28.440  1.00  0.00     0.034 A 
BRANCH  51  65
ATOM     65  C   UNL A   1      39.990  29.398  29.546  1.00  0.00     0.023 A 
ATOM     66  C   UNL A   1      39.667  29.509  30.909  1.00  0.00     0.031 A 
ATOM     67  C   UNL A   1      38.955  29.568  28.609  1.00  0.00     0.131 A 
ATOM     68  C   UNL A   1      38.335  29.711  31.300  1.00  0.00     0.055 A 
ATOM     69  C   UNL A   1      37.645  29.847  29.001  1.00  0.00     0.041 A 
ATOM     70  F   UNL A   1      39.199  29.452  27.294  1.00  0.00    -0.206 F 
ATOM     71  C   UNL A   1      37.325  29.907  30.354  1.00  0.00     0.022 A 
BRANCH  68  72
ATOM     72  S   UNL A   1      37.920  29.584  33.060  1.00  0.00     0.124 S 
ATOM     73  O   UNL A   1      39.241  29.652  33.680  1.00  0.00    -0.237 OA
ATOM     74  O   UNL A   1      37.057  30.741  33.266  1.00  0.00    -0.237 OA
ATOM     75  O   UNL A   1      37.257  28.285  33.164  1.00  0.00    -0.744 OA
ENDBRANCH  68  72
ENDBRANCH  51  65
BRANCH  52  76
ATOM     76  C   UNL A   1      49.045  27.023  25.955  1.00  0.00     0.023 A 
ATOM     77  C   UNL A   1      49.371  27.438  24.653  1.00  0.00     0.031 A 
ATOM     78  C   UNL A   1      49.987  26.252  26.657  1.00  0.00     0.131 A 
ATOM     79  C   UNL A   1      50.583  27.033  24.074  1.00  0.00     0.055 A 
ATOM     80  C   UNL A   1      51.216  25.898  26.095  1.00  0.00     0.041 A 
ATOM     81  F   UNL A   1      49.729  25.835  27.906  1.00  0.00    -0.206 F 
ATOM     82  C   UNL A   1      51.513  26.277  24.790  1.00  0.00     0.022 A 
BRANCH  79  83
ATOM     83  S   UNL A   1      50.885  27.432  22.329  1.00  0.00     0.124 S 
ATOM     84  O   UNL A   1      50.068  26.432  21.651  1.00  0.00    -0.237 OA
ATOM     85  O   UNL A   1      50.414  28.810  22.249  1.00  0.00    -0.237 OA
ATOM     86  O   UNL A   1      52.330  27.259  22.187  1.00  0.00    -0.744 OA
ENDBRANCH  79  83
ENDBRANCH  52  76
BRANCH  64  87
ATOM     87  C   UNL A   1      46.333  32.809  28.741  1.00  0.00     0.023 A 
ATOM     88  C   UNL A   1      46.310  33.855  27.802  1.00  0.00     0.031 A 
ATOM     89  C   UNL A   1      46.947  33.048  29.983  1.00  0.00     0.131 A 
ATOM     90  C   UNL A   1      46.939  35.073  28.098  1.00  0.00     0.055 A 
ATOM     91  C   UNL A   1      47.519  34.282  30.295  1.00  0.00     0.041 A 
ATOM     92  F   UNL A   1      46.998  32.084  30.917  1.00  0.00    -0.206 F 
ATOM     93  C   UNL A   1      47.529  35.299  29.345  1.00  0.00     0.022 A 
BRANCH  90  94
ATOM     94  S   UNL A   1      47.054  36.333  26.798  1.00  0.00     0.124 S 
ATOM     95  O   UNL A   1      48.489  36.599  26.761  1.00  0.00    -0.237 OA
ATOM     96  O   UNL A   1      46.505  35.637  25.640  1.00  0.00    -0.237 OA
ATOM     97  O   UNL A   1      46.233  37.429  27.309  1.00  0.00    -0.744 OA
ENDBRANCH  90  94
ENDBRANCH  64  87
ENDBRANCH  38  39
ENDBRANCH  30  33
ENDBRANCH  28  29
ENDBRANCH  27  28
ENDBRANCH  26  27
ENDBRANCH   1  26
TORSDOF 19
ENDMDL
MODEL 3
REMARK VINA RESULT:     -11.7      1.858      7.779
REMARK SMILES Cc1nc(CN(C)C(=O)NCc2ccc(C(=O)NCCCCNC(=O)c3ccc(-c4c5nc(c(-c6cc(S(=O)(=O)[O-])ccc6F)c6ccc([nH]6)c(-c6cc(S(=O)(=O)[O-])ccc6F)c6nc(c(-c7cc(S(=O)(=O)[O-])ccc7F)c7ccc4[nH]7)C=C6)C=C5)cc3)o2)n[nH]1
REMARK SMILES IDX 19 1 18 2 16 3 17 4 15 6 12 7 13 8 89 9 14 10 11 11 10 12
REMARK SMILES IDX 8 13 9 14 6 16 7 17 5 18 4 19 1 20 2 21 3 22 91 23 90 24
REMARK SMILES IDX 20 26 21 27 22 28 23 29 24 30 25 32 26 33 27 34 88 35 28 36
REMARK SMILES IDX 87 37 29 38 30 39 31 40 81 41 32 42 86 43 80 44 82 45 33 46
REMARK SMILES IDX 85 47 79 48 78 49 34 51 66 52 46 53 65 54 47 55 50 56 64 57
REMARK SMILES IDX 83 58 48 59 49 60 63 62 84 63 51 64 35 65 36 66 44 67 37 68
REMARK SMILES IDX 43 69 45 70 42 71 38 72 39 73 40 74 41 75 67 76 68 77 76 78
REMARK SMILES IDX 69 79 75 80 77 81 74 82 70 83 71 84 72 85 73 86 52 87 53 88
REMARK SMILES IDX 61 89 54 90 60 91 62 92 59 93 55 94 56 95 57 96 58 97
REMARK H PARENT 18 5 10 15 91 25 23 31 82 50 50 61
REMARK Flexibility Score: inf
ROOT
ATOM      1  C   UNL A   1      32.465  29.900  25.955  1.00  0.00     0.116 C 
ENDROOT
BRANCH   1   2
ATOM      2  N   UNL A   1      33.101  29.700  24.672  1.00  0.00    -0.349 N 
ATOM      3  C   UNL A   1      32.746  28.921  23.594  1.00  0.00     0.286 C 
ATOM      4  O   UNL A   1      33.490  29.004  22.614  1.00  0.00    -0.266 OA
ATOM      5  H   UNL A   1      33.934  30.210  24.547  1.00  0.00     0.163 HD
BRANCH   3   6
ATOM      6  C   UNL A   1      31.567  28.069  23.610  1.00  0.00     0.191 A 
ATOM      7  C   UNL A   1      30.604  26.075  23.785  1.00  0.00     0.124 A 
ATOM      8  C   UNL A   1      29.586  26.982  23.598  1.00  0.00     0.048 A 
ATOM      9  O   UNL A   1      31.800  26.721  23.776  1.00  0.00    -0.454 OA
ATOM     10  C   UNL A   1      30.198  28.257  23.524  1.00  0.00     0.056 A 
BRANCH   7  11
ATOM     11  C   UNL A   1      30.657  24.610  24.021  1.00  0.00     0.193 C 
BRANCH  11  12
ATOM     12  N   UNL A   1      30.333  24.347  25.407  1.00  0.00    -0.331 N 
ATOM     13  C   UNL A   1      30.958  23.763  26.441  1.00  0.00     0.317 C 
ATOM     14  O   UNL A   1      30.214  23.432  27.371  1.00  0.00    -0.249 OA
ATOM     15  H   UNL A   1      29.438  24.677  25.648  1.00  0.00     0.165 HD
BRANCH  13  16
ATOM     16  N   UNL A   1      32.304  23.541  26.473  1.00  0.00    -0.320 N 
ATOM     17  C   UNL A   1      33.353  24.476  26.123  1.00  0.00     0.149 C 
BRANCH  16  18
ATOM     18  C   UNL A   1      32.739  22.282  27.100  1.00  0.00     0.200 C 
BRANCH  18  19
ATOM     19  C   UNL A   1      33.165  21.264  26.082  1.00  0.00     0.170 A 
ATOM     20  C   UNL A   1      32.537  18.443  23.997  1.00  0.00     0.089 C 
ATOM     21  C   UNL A   1      32.989  19.607  24.784  1.00  0.00     0.121 A 
ATOM     22  N   UNL A   1      32.246  20.480  25.423  1.00  0.00    -0.215 NA
ATOM     23  N   UNL A   1      34.303  19.911  24.991  1.00  0.00    -0.263 N 
ATOM     24  N   UNL A   1      34.445  20.997  25.766  1.00  0.00    -0.157 NA
ATOM     25  H   UNL A   1      35.055  19.397  24.617  1.00  0.00     0.192 HD
ENDBRANCH  18  19
ENDBRANCH  16  18
ENDBRANCH  13  16
ENDBRANCH  11  12
ENDBRANCH   7  11
ENDBRANCH   3   6
ENDBRANCH   1   2
BRANCH   1  26
ATOM     26  C   UNL A   1      31.328  30.918  25.861  1.00  0.00     0.023 C 
BRANCH  26  27
ATOM     27  C   UNL A   1      31.409  32.042  26.902  1.00  0.00     0.023 C 
BRANCH  27  28
ATOM     28  C   UNL A   1      32.743  32.786  26.957  1.00  0.00     0.116 C 
BRANCH  28  29
ATOM     29  N   UNL A   1      32.681  34.030  27.706  1.00  0.00    -0.352 N 
ATOM     30  C   UNL A   1      33.482  34.443  28.746  1.00  0.00     0.251 C 
ATOM     31  H   UNL A   1      31.974  34.658  27.434  1.00  0.00     0.163 HD
ATOM     32  O   UNL A   1      33.227  35.482  29.340  1.00  0.00    -0.269 OA
BRANCH  30  33
ATOM     33  C   UNL A   1      34.619  33.595  29.164  1.00  0.00     0.039 A 
ATOM     34  C   UNL A   1      35.910  33.963  28.780  1.00  0.00     0.014 A 
ATOM     35  C   UNL A   1      34.415  32.463  29.959  1.00  0.00     0.014 A 
ATOM     36  C   UNL A   1      37.005  33.238  29.253  1.00  0.00     0.010 A 
ATOM     37  C   UNL A   1      35.510  31.781  30.482  1.00  0.00     0.010 A 
ATOM     38  C   UNL A   1      36.816  32.164  30.140  1.00  0.00    -0.014 A 
BRANCH  38  39
ATOM     39  C   UNL A   1      37.971  31.435  30.722  1.00  0.00     0.031 A 
ATOM     40  C   UNL A   1      38.471  31.791  32.096  1.00  0.00     0.074 A 
ATOM     41  C   UNL A   1      38.612  30.505  29.985  1.00  0.00     0.049 A 
ATOM     42  N   UNL A   1      39.513  31.334  32.741  1.00  0.00    -0.248 NA
ATOM     43  C   UNL A   1      37.715  32.820  32.825  1.00  0.00     0.031 C 
ATOM     44  C   UNL A   1      38.247  30.108  28.622  1.00  0.00     0.029 A 
ATOM     45  N   UNL A   1      39.710  29.733  30.269  1.00  0.00    -0.354 N 
ATOM     46  C   UNL A   1      39.549  32.030  33.945  1.00  0.00     0.074 A 
ATOM     47  C   UNL A   1      38.455  32.978  33.912  1.00  0.00     0.031 C 
ATOM     48  C   UNL A   1      39.094  29.157  28.199  1.00  0.00     0.029 A 
ATOM     49  C   UNL A   1      40.087  28.904  29.238  1.00  0.00     0.049 A 
ATOM     50  H   UNL A   1      40.185  29.770  31.132  1.00  0.00     0.167 HD
ATOM     51  C   UNL A   1      40.403  31.877  34.987  1.00  0.00     0.034 A 
ATOM     52  C   UNL A   1      41.122  28.045  29.137  1.00  0.00     0.034 A 
ATOM     53  C   UNL A   1      41.475  30.912  35.011  1.00  0.00     0.049 A 
ATOM     54  C   UNL A   1      42.058  27.895  30.310  1.00  0.00     0.074 A 
ATOM     55  C   UNL A   1      42.359  30.631  36.039  1.00  0.00     0.029 A 
ATOM     56  N   UNL A   1      41.814  30.073  33.957  1.00  0.00    -0.354 N 
ATOM     57  N   UNL A   1      42.043  28.522  31.464  1.00  0.00    -0.248 NA
ATOM     58  C   UNL A   1      43.140  26.911  30.173  1.00  0.00     0.031 C 
ATOM     59  C   UNL A   1      43.268  29.668  35.586  1.00  0.00     0.029 A 
ATOM     60  C   UNL A   1      42.907  29.294  34.300  1.00  0.00     0.049 A 
ATOM     61  H   UNL A   1      41.344  30.037  33.092  1.00  0.00     0.167 HD
ATOM     62  C   UNL A   1      43.095  27.982  32.202  1.00  0.00     0.074 A 
ATOM     63  C   UNL A   1      43.710  26.970  31.368  1.00  0.00     0.031 C 
ATOM     64  C   UNL A   1      43.513  28.292  33.455  1.00  0.00     0.034 A 
BRANCH  51  65
ATOM     65  C   UNL A   1      40.220  32.790  36.176  1.00  0.00     0.023 A 
ATOM     66  C   UNL A   1      39.394  32.440  37.257  1.00  0.00     0.031 A 
ATOM     67  C   UNL A   1      40.870  34.037  36.221  1.00  0.00     0.131 A 
ATOM     68  C   UNL A   1      39.182  33.352  38.302  1.00  0.00     0.055 A 
ATOM     69  C   UNL A   1      40.717  34.908  37.302  1.00  0.00     0.041 A 
ATOM     70  F   UNL A   1      41.655  34.435  35.208  1.00  0.00    -0.206 F 
ATOM     71  C   UNL A   1      39.858  34.573  38.344  1.00  0.00     0.022 A 
BRANCH  68  72
ATOM     72  S   UNL A   1      37.910  32.974  39.537  1.00  0.00     0.124 S 
ATOM     73  O   UNL A   1      36.740  32.739  38.693  1.00  0.00    -0.237 OA
ATOM     74  O   UNL A   1      38.459  31.801  40.209  1.00  0.00    -0.237 OA
ATOM     75  O   UNL A   1      37.849  34.187  40.350  1.00  0.00    -0.744 OA
ENDBRANCH  68  72
ENDBRANCH  51  65
BRANCH  52  76
ATOM     76  C   UNL A   1      41.345  27.268  27.884  1.00  0.00     0.023 A 
ATOM     77  C   UNL A   1      41.075  25.890  27.830  1.00  0.00     0.031 A 
ATOM     78  C   UNL A   1      41.882  27.879  26.738  1.00  0.00     0.131 A 
ATOM     79  C   UNL A   1      41.395  25.160  26.676  1.00  0.00     0.055 A 
ATOM     80  C   UNL A   1      42.147  27.157  25.572  1.00  0.00     0.041 A 
ATOM     81  F   UNL A   1      42.152  29.194  26.732  1.00  0.00    -0.206 F 
ATOM     82  C   UNL A   1      41.917  25.785  25.542  1.00  0.00     0.022 A 
BRANCH  79  83
ATOM     83  S   UNL A   1      41.206  23.355  26.713  1.00  0.00     0.124 S 
ATOM     84  O   UNL A   1      39.806  23.195  26.338  1.00  0.00    -0.237 OA
ATOM     85  O   UNL A   1      42.190  22.930  25.723  1.00  0.00    -0.237 OA
ATOM     86  O   UNL A   1      41.526  23.009  28.096  1.00  0.00    -0.744 OA
ENDBRANCH  79  83
ENDBRANCH  52  76
BRANCH  64  87
ATOM     87  C   UNL A   1      44.659  27.486  34.013  1.00  0.00     0.023 A 
ATOM     88  C   UNL A   1      44.479  26.176  34.492  1.00  0.00     0.031 A 
ATOM     89  C   UNL A   1      45.948  28.044  34.078  1.00  0.00     0.131 A 
ATOM     90  C   UNL A   1      45.559  25.489  35.065  1.00  0.00     0.055 A 
ATOM     91  C   UNL A   1      47.031  27.334  34.595  1.00  0.00     0.041 A 
ATOM     92  F   UNL A   1      46.175  29.292  33.635  1.00  0.00    -0.206 F 
ATOM     93  C   UNL A   1      46.838  26.053  35.105  1.00  0.00     0.022 A 
BRANCH  90  94
ATOM     94  S   UNL A   1      45.254  23.878  35.841  1.00  0.00     0.124 S 
ATOM     95  O   UNL A   1      45.798  22.956  34.849  1.00  0.00    -0.237 OA
ATOM     96  O   UNL A   1      46.003  23.986  37.089  1.00  0.00    -0.237 OA
ATOM     97  O   UNL A   1      43.800  23.840  35.992  1.00  0.00    -0.744 OA
ENDBRANCH  90  94
ENDBRANCH  64  87
ENDBRANCH  38  39
ENDBRANCH  30  33
ENDBRANCH  28  29
ENDBRANCH  27  28
ENDBRANCH  26  27
ENDBRANCH   1  26
TORSDOF 19
ENDMDL
