MODEL 1
REMARK VINA RESULT:     -13.0      0.000      0.000
REMARK SMILES COc1ccccc1[C@@H]1C[N@@H+](Cc2cc3c(cc2C)OCO3)C[C@H]1C(=O)NCCCCNC(=O)c1ccc(-c2c3nc(c(-c4cc(S(=O)(=O)[O-])ccc4F)c4ccc([nH]4)c(-c4cc(S(=O)(=O)[O-])ccc4F)c4nc(c(-c5cc(S(=O)(=O)[O-])ccc5F)c5ccc2[nH]5)C=C4)C=C3)cc1
REMARK SMILES IDX 30 1 29 2 28 3 27 4 25 5 26 6 24 8 9 9 10 10 11 11 23 12
REMARK SMILES IDX 8 14 3 15 4 16 5 17 7 18 6 19 2 20 1 21 12 22 13 23 14 24
REMARK SMILES IDX 18 25 15 26 17 27 19 28 16 29 22 30 20 31 21 32 31 33 32 34
REMARK SMILES IDX 33 35 34 37 35 38 36 39 97 40 37 41 96 42 38 43 39 44 40 45
REMARK SMILES IDX 90 46 41 47 95 48 89 49 91 50 42 51 94 52 88 53 87 54 43 56
REMARK SMILES IDX 75 57 55 58 74 59 56 60 59 61 73 62 92 63 57 64 58 65 72 67
REMARK SMILES IDX 93 68 60 69 44 70 45 71 53 72 46 73 52 74 54 75 51 76 47 77
REMARK SMILES IDX 48 78 49 79 50 80 76 81 77 82 85 83 78 84 84 85 86 86 83 87
REMARK SMILES IDX 79 88 80 89 81 90 82 91 61 92 62 93 70 94 63 95 69 96 71 97
REMARK SMILES IDX 68 98 64 99 65 100 66 101 67 102
REMARK H PARENT 27 7 11 13 32 36 91 55 59 66
REMARK Flexibility Score: inf
ROOT
ATOM      1  C   UNL A   1      31.403  31.190  26.875  1.00  0.00     0.023 C 
ENDROOT
BRANCH   1   2
ATOM      2  C   UNL A   1      32.045  29.879  26.425  1.00  0.00     0.023 C 
BRANCH   2   3
ATOM      3  C   UNL A   1      32.535  28.766  27.414  1.00  0.00     0.116 C 
BRANCH   3   4
ATOM      4  N   UNL A   1      32.854  27.333  26.875  1.00  0.00    -0.356 N 
ATOM      5  C   UNL A   1      33.227  26.430  25.920  1.00  0.00     0.229 C 
ATOM      6  O   UNL A   1      33.388  25.325  26.503  1.00  0.00    -0.275 OA
ATOM      7  H   UNL A   1      32.698  26.764  27.664  1.00  0.00     0.163 HD
BRANCH   5   8
ATOM      8  C   UNL A   1      33.488  26.303  24.316  1.00  0.00     0.146 C 
ATOM      9  C   UNL A   1      33.227  24.935  23.600  1.00  0.00     0.096 C 
ATOM     10  C   UNL A   1      33.014  25.236  22.098  1.00  0.00     0.272 C 
ATOM     11  N   UNL A   1      32.591  26.635  21.990  1.00  0.00    -0.330 N 
ATOM     12  C   UNL A   1      33.190  27.317  23.173  1.00  0.00     0.276 C 
ATOM     13  H   UNL A   1      32.946  27.143  21.179  1.00  0.00     0.348 HD
BRANCH   9  14
ATOM     14  C   UNL A   1      34.016  23.639  23.781  1.00  0.00     0.004 A 
ATOM     15  C   UNL A   1      33.572  22.354  24.142  1.00  0.00     0.122 A 
ATOM     16  C   UNL A   1      34.524  21.349  24.445  1.00  0.00     0.047 A 
ATOM     17  C   UNL A   1      35.895  21.593  24.462  1.00  0.00     0.004 A 
ATOM     18  C   UNL A   1      35.429  23.849  23.811  1.00  0.00     0.008 A 
ATOM     19  C   UNL A   1      36.349  22.860  24.161  1.00  0.00     0.001 A 
BRANCH  15  20
ATOM     20  O   UNL A   1      32.323  21.892  24.445  1.00  0.00    -0.496 OA
ATOM     21  C   UNL A   1      31.721  22.175  25.686  1.00  0.00     0.278 C 
ENDBRANCH  15  20
ENDBRANCH   9  14
BRANCH  11  22
ATOM     22  C   UNL A   1      31.143  26.793  21.631  1.00  0.00     0.299 C 
BRANCH  22  23
ATOM     23  C   UNL A   1      30.386  27.847  22.418  1.00  0.00     0.013 A 
ATOM     24  C   UNL A   1      30.401  29.243  22.189  1.00  0.00     0.060 A 
ATOM     25  C   UNL A   1      29.440  27.353  23.288  1.00  0.00    -0.038 A 
ATOM     26  C   UNL A   1      29.306  29.983  22.614  1.00  0.00     0.166 A 
ATOM     27  C   UNL A   1      28.213  27.994  23.227  1.00  0.00     0.054 A 
ATOM     28  C   UNL A   1      29.805  26.224  24.213  1.00  0.00     0.045 C 
ATOM     29  C   UNL A   1      28.180  29.330  22.994  1.00  0.00     0.166 A 
ATOM     30  O   UNL A   1      29.100  31.327  22.654  1.00  0.00    -0.454 OA
ATOM     31  O   UNL A   1      27.107  30.124  23.221  1.00  0.00    -0.454 OA
ATOM     32  C   UNL A   1      27.803  31.375  23.317  1.00  0.00     0.468 C 
ENDBRANCH  22  23
ENDBRANCH  11  22
ENDBRANCH   5   8
ENDBRANCH   3   4
ENDBRANCH   2   3
ENDBRANCH   1   2
BRANCH   1  33
ATOM     33  C   UNL A   1      32.069  32.434  26.288  1.00  0.00     0.116 C 
BRANCH  33  34
ATOM     34  N   UNL A   1      32.094  33.612  27.174  1.00  0.00    -0.352 N 
ATOM     35  C   UNL A   1      33.005  34.056  28.128  1.00  0.00     0.251 C 
ATOM     36  H   UNL A   1      31.311  34.200  27.070  1.00  0.00     0.163 HD
ATOM     37  O   UNL A   1      32.778  35.055  28.775  1.00  0.00    -0.269 OA
BRANCH  35  38
ATOM     38  C   UNL A   1      34.229  33.261  28.388  1.00  0.00     0.039 A 
ATOM     39  C   UNL A   1      35.497  33.833  28.253  1.00  0.00     0.014 A 
ATOM     40  C   UNL A   1      34.109  31.965  28.859  1.00  0.00     0.014 A 
ATOM     41  C   UNL A   1      36.614  33.147  28.747  1.00  0.00     0.010 A 
ATOM     42  C   UNL A   1      35.165  31.395  29.540  1.00  0.00     0.010 A 
ATOM     43  C   UNL A   1      36.447  31.957  29.474  1.00  0.00    -0.014 A 
BRANCH  43  44
ATOM     44  C   UNL A   1      37.567  31.233  30.139  1.00  0.00     0.031 A 
ATOM     45  C   UNL A   1      37.881  31.538  31.588  1.00  0.00     0.074 A 
ATOM     46  C   UNL A   1      38.365  30.409  29.427  1.00  0.00     0.049 A 
ATOM     47  N   UNL A   1      38.922  31.199  32.302  1.00  0.00    -0.248 NA
ATOM     48  C   UNL A   1      36.934  32.411  32.306  1.00  0.00     0.031 C 
ATOM     49  C   UNL A   1      38.218  30.095  28.003  1.00  0.00     0.029 A 
ATOM     50  N   UNL A   1      39.472  29.688  29.803  1.00  0.00    -0.354 N 
ATOM     51  C   UNL A   1      38.778  31.865  33.517  1.00  0.00     0.074 A 
ATOM     52  C   UNL A   1      37.611  32.706  33.403  1.00  0.00     0.031 C 
ATOM     53  C   UNL A   1      39.157  29.205  27.642  1.00  0.00     0.029 A 
ATOM     54  C   UNL A   1      40.016  28.931  28.788  1.00  0.00     0.049 A 
ATOM     55  H   UNL A   1      39.843  29.709  30.715  1.00  0.00     0.167 HD
ATOM     56  C   UNL A   1      39.517  31.746  34.646  1.00  0.00     0.034 A 
ATOM     57  C   UNL A   1      41.091  28.116  28.783  1.00  0.00     0.034 A 
ATOM     58  C   UNL A   1      40.618  30.828  34.767  1.00  0.00     0.049 A 
ATOM     59  C   UNL A   1      41.873  27.964  30.067  1.00  0.00     0.074 A 
ATOM     60  C   UNL A   1      41.376  30.534  35.884  1.00  0.00     0.029 A 
ATOM     61  N   UNL A   1      41.106  30.040  33.731  1.00  0.00    -0.354 N 
ATOM     62  N   UNL A   1      41.679  28.549  31.227  1.00  0.00    -0.248 NA
ATOM     63  C   UNL A   1      43.011  27.037  30.043  1.00  0.00     0.031 C 
ATOM     64  C   UNL A   1      42.364  29.619  35.509  1.00  0.00     0.029 A 
ATOM     65  C   UNL A   1      42.174  29.283  34.177  1.00  0.00     0.049 A 
ATOM     66  H   UNL A   1      40.744  30.024  32.816  1.00  0.00     0.167 HD
ATOM     67  C   UNL A   1      42.655  28.038  32.077  1.00  0.00     0.074 A 
ATOM     68  C   UNL A   1      43.416  27.078  31.304  1.00  0.00     0.031 C 
ATOM     69  C   UNL A   1      42.911  28.335  33.378  1.00  0.00     0.034 A 
BRANCH  56  70
ATOM     70  C   UNL A   1      39.147  32.612  35.828  1.00  0.00     0.023 A 
ATOM     71  C   UNL A   1      39.584  33.944  35.940  1.00  0.00     0.031 A 
ATOM     72  C   UNL A   1      38.361  32.092  36.872  1.00  0.00     0.131 A 
ATOM     73  C   UNL A   1      39.305  34.681  37.100  1.00  0.00     0.055 A 
ATOM     74  C   UNL A   1      38.012  32.861  37.984  1.00  0.00     0.041 A 
ATOM     75  F   UNL A   1      37.932  30.820  36.837  1.00  0.00    -0.206 F 
ATOM     76  C   UNL A   1      38.496  34.159  38.111  1.00  0.00     0.022 A 
BRANCH  73  77
ATOM     77  S   UNL A   1      40.134  36.278  37.329  1.00  0.00     0.124 S 
ATOM     78  O   UNL A   1      39.305  36.892  38.365  1.00  0.00    -0.237 OA
ATOM     79  O   UNL A   1      41.476  35.883  37.736  1.00  0.00    -0.237 OA
ATOM     80  O   UNL A   1      40.039  36.905  36.012  1.00  0.00    -0.744 OA
ENDBRANCH  73  77
ENDBRANCH  56  70
BRANCH  57  81
ATOM     81  C   UNL A   1      41.498  27.379  27.548  1.00  0.00     0.023 A 
ATOM     82  C   UNL A   1      41.377  25.982  27.467  1.00  0.00     0.031 A 
ATOM     83  C   UNL A   1      42.072  28.048  26.452  1.00  0.00     0.131 A 
ATOM     84  C   UNL A   1      41.876  25.294  26.349  1.00  0.00     0.055 A 
ATOM     85  C   UNL A   1      42.509  27.367  25.314  1.00  0.00     0.041 A 
ATOM     86  F   UNL A   1      42.211  29.384  26.469  1.00  0.00    -0.206 F 
ATOM     87  C   UNL A   1      42.428  25.979  25.265  1.00  0.00     0.022 A 
BRANCH  84  88
ATOM     88  S   UNL A   1      41.900  23.480  26.384  1.00  0.00     0.124 S 
ATOM     89  O   UNL A   1      40.476  23.165  26.378  1.00  0.00    -0.237 OA
ATOM     90  O   UNL A   1      42.630  23.164  25.162  1.00  0.00    -0.237 OA
ATOM     91  O   UNL A   1      42.603  23.174  27.627  1.00  0.00    -0.744 OA
ENDBRANCH  84  88
ENDBRANCH  57  81
BRANCH  69  92
ATOM     92  C   UNL A   1      44.034  27.582  34.041  1.00  0.00     0.023 A 
ATOM     93  C   UNL A   1      43.824  26.327  34.634  1.00  0.00     0.031 A 
ATOM     94  C   UNL A   1      45.330  28.126  34.076  1.00  0.00     0.131 A 
ATOM     95  C   UNL A   1      44.881  25.683  35.293  1.00  0.00     0.055 A 
ATOM     96  C   UNL A   1      46.393  27.449  34.671  1.00  0.00     0.041 A 
ATOM     97  F   UNL A   1      45.584  29.323  33.523  1.00  0.00    -0.206 F 
ATOM     98  C   UNL A   1      46.168  26.226  35.297  1.00  0.00     0.022 A 
BRANCH  95  99
ATOM     99  S   UNL A   1      44.523  24.173  36.230  1.00  0.00     0.124 S 
ATOM    100  O   UNL A   1      44.268  24.701  37.566  1.00  0.00    -0.237 OA
ATOM    101  O   UNL A   1      43.364  23.635  35.525  1.00  0.00    -0.237 OA
ATOM    102  O   UNL A   1      45.750  23.390  36.096  1.00  0.00    -0.744 OA
ENDBRANCH  95  99
ENDBRANCH  69  92
ENDBRANCH  43  44
ENDBRANCH  35  38
ENDBRANCH  33  34
ENDBRANCH   1  33
TORSDOF 18
ENDMDL
MODEL 2
REMARK VINA RESULT:     -12.8      1.787      4.783
REMARK SMILES COc1ccccc1[C@@H]1C[N@@H+](Cc2cc3c(cc2C)OCO3)C[C@H]1C(=O)NCCCCNC(=O)c1ccc(-c2c3nc(c(-c4cc(S(=O)(=O)[O-])ccc4F)c4ccc([nH]4)c(-c4cc(S(=O)(=O)[O-])ccc4F)c4nc(c(-c5cc(S(=O)(=O)[O-])ccc5F)c5ccc2[nH]5)C=C4)C=C3)cc1
REMARK SMILES IDX 30 1 29 2 28 3 27 4 25 5 26 6 24 8 9 9 10 10 11 11 23 12
REMARK SMILES IDX 8 14 3 15 4 16 5 17 7 18 6 19 2 20 1 21 12 22 13 23 14 24
REMARK SMILES IDX 18 25 15 26 17 27 19 28 16 29 22 30 20 31 21 32 31 33 32 34
REMARK SMILES IDX 33 35 34 37 35 38 36 39 97 40 37 41 96 42 38 43 39 44 40 45
REMARK SMILES IDX 90 46 41 47 95 48 89 49 91 50 42 51 94 52 88 53 87 54 43 56
REMARK SMILES IDX 75 57 55 58 74 59 56 60 59 61 73 62 92 63 57 64 58 65 72 67
REMARK SMILES IDX 93 68 60 69 44 70 45 71 53 72 46 73 52 74 54 75 51 76 47 77
REMARK SMILES IDX 48 78 49 79 50 80 76 81 77 82 85 83 78 84 84 85 86 86 83 87
REMARK SMILES IDX 79 88 80 89 81 90 82 91 61 92 62 93 70 94 63 95 69 96 71 97
REMARK SMILES IDX 68 98 64 99 65 100 66 101 67 102
REMARK H PARENT 27 7 11 13 32 36 91 55 59 66
REMARK Flexibility Score: inf
ROOT
ATOM      1  C   UNL A   1      31.881  30.057  25.561  1.00  0.00     0.023 C 
ENDROOT
BRANCH   1   2
ATOM      2  C   UNL A   1      32.350  28.609  25.424  1.00  0.00     0.023 C 
BRANCH   2   3
ATOM      3  C   UNL A   1      33.828  28.147  25.666  1.00  0.00     0.116 C 
BRANCH   3   4
ATOM      4  N   UNL A   1      34.161  26.622  25.757  1.00  0.00    -0.356 N 
ATOM      5  C   UNL A   1      33.880  25.290  25.642  1.00  0.00     0.229 C 
ATOM      6  O   UNL A   1      34.964  24.670  25.802  1.00  0.00    -0.275 OA
ATOM      7  H   UNL A   1      35.094  26.621  26.073  1.00  0.00     0.163 HD
BRANCH   5   8
ATOM      8  C   UNL A   1      32.634  24.264  25.411  1.00  0.00     0.146 C 
ATOM      9  C   UNL A   1      31.829  24.321  24.069  1.00  0.00     0.096 C 
ATOM     10  C   UNL A   1      31.129  22.954  23.894  1.00  0.00     0.272 C 
ATOM     11  N   UNL A   1      31.879  21.976  24.689  1.00  0.00    -0.330 N 
ATOM     12  C   UNL A   1      32.493  22.763  25.797  1.00  0.00     0.276 C 
ATOM     13  H   UNL A   1      31.319  21.257  25.148  1.00  0.00     0.348 HD
BRANCH   9  14
ATOM     14  C   UNL A   1      30.921  25.454  23.592  1.00  0.00     0.004 A 
ATOM     15  C   UNL A   1      31.181  26.502  22.690  1.00  0.00     0.122 A 
ATOM     16  C   UNL A   1      30.242  27.554  22.558  1.00  0.00     0.047 A 
ATOM     17  C   UNL A   1      29.087  27.633  23.332  1.00  0.00     0.004 A 
ATOM     18  C   UNL A   1      29.726  25.572  24.367  1.00  0.00     0.008 A 
ATOM     19  C   UNL A   1      28.838  26.642  24.258  1.00  0.00     0.001 A 
BRANCH  15  20
ATOM     20  O   UNL A   1      32.311  26.822  21.993  1.00  0.00    -0.496 OA
ATOM     21  C   UNL A   1      32.921  25.894  21.126  1.00  0.00     0.278 C 
ENDBRANCH  15  20
ENDBRANCH   9  14
BRANCH  11  22
ATOM     22  C   UNL A   1      32.679  21.020  23.855  1.00  0.00     0.299 C 
BRANCH  22  23
ATOM     23  C   UNL A   1      33.048  19.713  24.533  1.00  0.00     0.013 A 
ATOM     24  C   UNL A   1      32.168  18.658  24.868  1.00  0.00     0.060 A 
ATOM     25  C   UNL A   1      34.400  19.470  24.624  1.00  0.00    -0.038 A 
ATOM     26  C   UNL A   1      32.700  17.380  24.982  1.00  0.00     0.166 A 
ATOM     27  C   UNL A   1      34.780  18.190  24.248  1.00  0.00     0.054 A 
ATOM     28  C   UNL A   1      35.315  20.554  25.125  1.00  0.00     0.045 C 
ATOM     29  C   UNL A   1      33.959  17.150  24.535  1.00  0.00     0.166 A 
ATOM     30  O   UNL A   1      32.139  16.218  25.414  1.00  0.00    -0.454 OA
ATOM     31  O   UNL A   1      34.332  15.849  24.520  1.00  0.00    -0.454 OA
ATOM     32  C   UNL A   1      33.300  15.337  25.376  1.00  0.00     0.468 C 
ENDBRANCH  22  23
ENDBRANCH  11  22
ENDBRANCH   5   8
ENDBRANCH   3   4
ENDBRANCH   2   3
ENDBRANCH   1   2
BRANCH   1  33
ATOM     33  C   UNL A   1      31.872  30.567  27.001  1.00  0.00     0.116 C 
BRANCH  33  34
ATOM     34  N   UNL A   1      31.987  32.028  27.153  1.00  0.00    -0.352 N 
ATOM     35  C   UNL A   1      33.041  32.857  27.527  1.00  0.00     0.251 C 
ATOM     36  H   UNL A   1      31.155  32.513  26.950  1.00  0.00     0.163 HD
ATOM     37  O   UNL A   1      32.875  34.054  27.626  1.00  0.00    -0.269 OA
BRANCH  35  38
ATOM     38  C   UNL A   1      34.353  32.256  27.866  1.00  0.00     0.039 A 
ATOM     39  C   UNL A   1      35.483  33.059  28.046  1.00  0.00     0.014 A 
ATOM     40  C   UNL A   1      34.436  30.894  28.095  1.00  0.00     0.014 A 
ATOM     41  C   UNL A   1      36.637  32.500  28.610  1.00  0.00     0.010 A 
ATOM     42  C   UNL A   1      35.482  30.400  28.848  1.00  0.00     0.010 A 
ATOM     43  C   UNL A   1      36.617  31.182  29.097  1.00  0.00    -0.014 A 
BRANCH  43  44
ATOM     44  C   UNL A   1      37.758  30.554  29.822  1.00  0.00     0.031 A 
ATOM     45  C   UNL A   1      38.013  30.939  31.264  1.00  0.00     0.074 A 
ATOM     46  C   UNL A   1      38.622  29.749  29.168  1.00  0.00     0.049 A 
ATOM     47  N   UNL A   1      39.052  30.694  32.018  1.00  0.00    -0.248 NA
ATOM     48  C   UNL A   1      36.998  31.785  31.918  1.00  0.00     0.031 C 
ATOM     49  C   UNL A   1      38.534  29.367  27.756  1.00  0.00     0.029 A 
ATOM     50  N   UNL A   1      39.758  29.111  29.604  1.00  0.00    -0.354 N 
ATOM     51  C   UNL A   1      38.835  31.401  33.198  1.00  0.00     0.074 A 
ATOM     52  C   UNL A   1      37.626  32.167  33.017  1.00  0.00     0.031 C 
ATOM     53  C   UNL A   1      39.532  28.518  27.460  1.00  0.00     0.029 A 
ATOM     54  C   UNL A   1      40.373  28.344  28.638  1.00  0.00     0.049 A 
ATOM     55  H   UNL A   1      40.101  29.193  30.523  1.00  0.00     0.167 HD
ATOM     56  C   UNL A   1      39.548  31.374  34.350  1.00  0.00     0.034 A 
ATOM     57  C   UNL A   1      41.493  27.595  28.697  1.00  0.00     0.034 A 
ATOM     58  C   UNL A   1      40.696  30.528  34.540  1.00  0.00     0.049 A 
ATOM     59  C   UNL A   1      42.246  27.544  30.006  1.00  0.00     0.074 A 
ATOM     60  C   UNL A   1      41.438  30.329  35.688  1.00  0.00     0.029 A 
ATOM     61  N   UNL A   1      41.257  29.727  33.553  1.00  0.00    -0.354 N 
ATOM     62  N   UNL A   1      41.986  28.166  31.134  1.00  0.00    -0.248 NA
ATOM     63  C   UNL A   1      43.435  26.685  30.052  1.00  0.00     0.031 C 
ATOM     64  C   UNL A   1      42.487  29.457  35.379  1.00  0.00     0.029 A 
ATOM     65  C   UNL A   1      42.354  29.054  34.059  1.00  0.00     0.049 A 
ATOM     66  H   UNL A   1      40.923  29.650  32.631  1.00  0.00     0.167 HD
ATOM     67  C   UNL A   1      42.965  27.751  32.030  1.00  0.00     0.074 A 
ATOM     68  C   UNL A   1      43.801  26.804  31.320  1.00  0.00     0.031 C 
ATOM     69  C   UNL A   1      43.167  28.117  33.323  1.00  0.00     0.034 A 
BRANCH  56  70
ATOM     70  C   UNL A   1      39.096  32.267  35.483  1.00  0.00     0.023 A 
ATOM     71  C   UNL A   1      39.541  33.595  35.606  1.00  0.00     0.031 A 
ATOM     72  C   UNL A   1      38.221  31.777  36.469  1.00  0.00     0.131 A 
ATOM     73  C   UNL A   1      39.180  34.358  36.726  1.00  0.00     0.055 A 
ATOM     74  C   UNL A   1      37.794  32.571  37.535  1.00  0.00     0.041 A 
ATOM     75  F   UNL A   1      37.778  30.510  36.422  1.00  0.00    -0.206 F 
ATOM     76  C   UNL A   1      38.284  33.865  37.677  1.00  0.00     0.022 A 
BRANCH  73  77
ATOM     77  S   UNL A   1      40.009  35.949  36.993  1.00  0.00     0.124 S 
ATOM     78  O   UNL A   1      39.278  36.469  38.147  1.00  0.00    -0.237 OA
ATOM     79  O   UNL A   1      41.389  35.549  37.238  1.00  0.00    -0.237 OA
ATOM     80  O   UNL A   1      39.779  36.669  35.743  1.00  0.00    -0.744 OA
ENDBRANCH  73  77
ENDBRANCH  56  70
BRANCH  57  81
ATOM     81  C   UNL A   1      41.976  26.831  27.507  1.00  0.00     0.023 A 
ATOM     82  C   UNL A   1      41.719  25.456  27.378  1.00  0.00     0.031 A 
ATOM     83  C   UNL A   1      42.754  27.445  26.509  1.00  0.00     0.131 A 
ATOM     84  C   UNL A   1      42.284  24.729  26.316  1.00  0.00     0.055 A 
ATOM     85  C   UNL A   1      43.261  26.732  25.420  1.00  0.00     0.041 A 
ATOM     86  F   UNL A   1      43.031  28.758  26.576  1.00  0.00    -0.206 F 
ATOM     87  C   UNL A   1      43.040  25.362  25.329  1.00  0.00     0.022 A 
BRANCH  84  88
ATOM     88  S   UNL A   1      42.110  22.923  26.310  1.00  0.00     0.124 S 
ATOM     89  O   UNL A   1      42.657  22.577  25.003  1.00  0.00    -0.237 OA
ATOM     90  O   UNL A   1      42.914  22.539  27.464  1.00  0.00    -0.237 OA
ATOM     91  O   UNL A   1      40.671  22.720  26.459  1.00  0.00    -0.744 OA
ENDBRANCH  84  88
ENDBRANCH  57  81
BRANCH  69  92
ATOM     92  C   UNL A   1      44.312  27.460  34.047  1.00  0.00     0.023 A 
ATOM     93  C   UNL A   1      44.122  26.307  34.825  1.00  0.00     0.031 A 
ATOM     94  C   UNL A   1      45.610  27.995  33.954  1.00  0.00     0.131 A 
ATOM     95  C   UNL A   1      45.201  25.759  35.531  1.00  0.00     0.055 A 
ATOM     96  C   UNL A   1      46.693  27.404  34.603  1.00  0.00     0.041 A 
ATOM     97  F   UNL A   1      45.846  29.096  33.223  1.00  0.00    -0.206 F 
ATOM     98  C   UNL A   1      46.489  26.287  35.409  1.00  0.00     0.022 A 
BRANCH  95  99
ATOM     99  S   UNL A   1      44.876  24.405  36.691  1.00  0.00     0.124 S 
ATOM    100  O   UNL A   1      44.722  23.267  35.790  1.00  0.00    -0.237 OA
ATOM    101  O   UNL A   1      46.078  24.405  37.517  1.00  0.00    -0.237 OA
ATOM    102  O   UNL A   1      43.653  24.826  37.373  1.00  0.00    -0.744 OA
ENDBRANCH  95  99
ENDBRANCH  69  92
ENDBRANCH  43  44
ENDBRANCH  35  38
ENDBRANCH  33  34
ENDBRANCH   1  33
TORSDOF 18
ENDMDL
MODEL 3
REMARK VINA RESULT:     -12.7      2.089      4.782
REMARK SMILES COc1ccccc1[C@@H]1C[N@@H+](Cc2cc3c(cc2C)OCO3)C[C@H]1C(=O)NCCCCNC(=O)c1ccc(-c2c3nc(c(-c4cc(S(=O)(=O)[O-])ccc4F)c4ccc([nH]4)c(-c4cc(S(=O)(=O)[O-])ccc4F)c4nc(c(-c5cc(S(=O)(=O)[O-])ccc5F)c5ccc2[nH]5)C=C4)C=C3)cc1
REMARK SMILES IDX 30 1 29 2 28 3 27 4 25 5 26 6 24 8 9 9 10 10 11 11 23 12
REMARK SMILES IDX 8 14 3 15 4 16 5 17 7 18 6 19 2 20 1 21 12 22 13 23 14 24
REMARK SMILES IDX 18 25 15 26 17 27 19 28 16 29 22 30 20 31 21 32 31 33 32 34
REMARK SMILES IDX 33 35 34 37 35 38 36 39 97 40 37 41 96 42 38 43 39 44 40 45
REMARK SMILES IDX 90 46 41 47 95 48 89 49 91 50 42 51 94 52 88 53 87 54 43 56
REMARK SMILES IDX 75 57 55 58 74 59 56 60 59 61 73 62 92 63 57 64 58 65 72 67
REMARK SMILES IDX 93 68 60 69 44 70 45 71 53 72 46 73 52 74 54 75 51 76 47 77
REMARK SMILES IDX 48 78 49 79 50 80 76 81 77 82 85 83 78 84 84 85 86 86 83 87
REMARK SMILES IDX 79 88 80 89 81 90 82 91 61 92 62 93 70 94 63 95 69 96 71 97
REMARK SMILES IDX 68 98 64 99 65 100 66 101 67 102
REMARK H PARENT 27 7 11 13 32 36 91 55 59 66
REMARK Flexibility Score: inf
ROOT
ATOM      1  C   UNL A   1      31.652  30.381  26.161  1.00  0.00     0.023 C 
ENDROOT
BRANCH   1   2
ATOM      2  C   UNL A   1      31.395  28.877  26.085  1.00  0.00     0.023 C 
BRANCH   2   3
ATOM      3  C   UNL A   1      31.976  27.843  27.110  1.00  0.00     0.116 C 
BRANCH   3   4
ATOM      4  N   UNL A   1      31.523  26.348  27.046  1.00  0.00    -0.356 N 
ATOM      5  C   UNL A   1      31.208  25.181  26.409  1.00  0.00     0.229 C 
ATOM      6  O   UNL A   1      31.076  24.300  27.299  1.00  0.00    -0.275 OA
ATOM      7  H   UNL A   1      31.391  26.120  27.996  1.00  0.00     0.163 HD
BRANCH   5   8
ATOM      8  C   UNL A   1      30.916  24.577  24.923  1.00  0.00     0.146 C 
ATOM      9  C   UNL A   1      31.502  25.306  23.668  1.00  0.00     0.096 C 
ATOM     10  C   UNL A   1      31.556  24.272  22.519  1.00  0.00     0.272 C 
ATOM     11  N   UNL A   1      31.580  22.941  23.132  1.00  0.00    -0.330 N 
ATOM     12  C   UNL A   1      30.876  23.099  24.437  1.00  0.00     0.276 C 
ATOM     13  H   UNL A   1      31.064  22.215  22.634  1.00  0.00     0.348 HD
BRANCH   9  14
ATOM     14  C   UNL A   1      31.101  26.680  23.134  1.00  0.00     0.004 A 
ATOM     15  C   UNL A   1      31.902  27.732  22.653  1.00  0.00     0.122 A 
ATOM     16  C   UNL A   1      31.312  28.995  22.400  1.00  0.00     0.047 A 
ATOM     17  C   UNL A   1      29.972  29.266  22.665  1.00  0.00     0.004 A 
ATOM     18  C   UNL A   1      29.732  26.999  23.393  1.00  0.00     0.008 A 
ATOM     19  C   UNL A   1      29.180  28.263  23.184  1.00  0.00     0.001 A 
BRANCH  15  20
ATOM     20  O   UNL A   1      33.258  27.841  22.534  1.00  0.00    -0.496 OA
ATOM     21  C   UNL A   1      33.964  28.886  23.159  1.00  0.00     0.278 C 
ENDBRANCH  15  20
ENDBRANCH   9  14
BRANCH  11  22
ATOM     22  C   UNL A   1      32.913  22.262  23.027  1.00  0.00     0.299 C 
BRANCH  22  23
ATOM     23  C   UNL A   1      33.069  20.996  23.848  1.00  0.00     0.013 A 
ATOM     24  C   UNL A   1      32.387  19.773  23.652  1.00  0.00     0.060 A 
ATOM     25  C   UNL A   1      34.133  21.000  24.722  1.00  0.00    -0.038 A 
ATOM     26  C   UNL A   1      32.991  18.610  24.110  1.00  0.00     0.166 A 
ATOM     27  C   UNL A   1      34.903  19.847  24.695  1.00  0.00     0.054 A 
ATOM     28  C   UNL A   1      34.353  22.190  25.616  1.00  0.00     0.045 C 
ATOM     29  C   UNL A   1      34.292  18.653  24.493  1.00  0.00     0.166 A 
ATOM     30  O   UNL A   1      32.526  17.333  24.183  1.00  0.00    -0.454 OA
ATOM     31  O   UNL A   1      34.851  17.448  24.755  1.00  0.00    -0.454 OA
ATOM     32  C   UNL A   1      33.640  16.687  24.868  1.00  0.00     0.468 C 
ENDBRANCH  22  23
ENDBRANCH  11  22
ENDBRANCH   5   8
ENDBRANCH   3   4
ENDBRANCH   2   3
ENDBRANCH   1   2
BRANCH   1  33
ATOM     33  C   UNL A   1      32.969  30.746  26.845  1.00  0.00     0.116 C 
BRANCH  33  34
ATOM     34  N   UNL A   1      33.066  32.137  27.322  1.00  0.00    -0.352 N 
ATOM     35  C   UNL A   1      34.090  32.854  27.935  1.00  0.00     0.251 C 
ATOM     36  H   UNL A   1      32.246  32.662  27.179  1.00  0.00     0.163 HD
ATOM     37  O   UNL A   1      33.912  34.001  28.284  1.00  0.00    -0.269 OA
BRANCH  35  38
ATOM     38  C   UNL A   1      35.382  32.181  28.214  1.00  0.00     0.039 A 
ATOM     39  C   UNL A   1      36.550  32.925  28.400  1.00  0.00     0.014 A 
ATOM     40  C   UNL A   1      35.408  30.808  28.384  1.00  0.00     0.014 A 
ATOM     41  C   UNL A   1      37.691  32.291  28.910  1.00  0.00     0.010 A 
ATOM     42  C   UNL A   1      36.448  30.236  29.089  1.00  0.00     0.010 A 
ATOM     43  C   UNL A   1      37.623  30.956  29.342  1.00  0.00    -0.014 A 
BRANCH  43  44
ATOM     44  C   UNL A   1      38.752  30.248  30.010  1.00  0.00     0.031 A 
ATOM     45  C   UNL A   1      39.103  30.610  31.438  1.00  0.00     0.074 A 
ATOM     46  C   UNL A   1      39.524  29.386  29.316  1.00  0.00     0.049 A 
ATOM     47  N   UNL A   1      40.157  30.290  32.140  1.00  0.00    -0.248 NA
ATOM     48  C   UNL A   1      38.183  31.523  32.140  1.00  0.00     0.031 C 
ATOM     49  C   UNL A   1      39.339  29.014  27.909  1.00  0.00     0.029 A 
ATOM     50  N   UNL A   1      40.632  28.668  29.695  1.00  0.00    -0.354 N 
ATOM     51  C   UNL A   1      40.049  31.007  33.329  1.00  0.00     0.074 A 
ATOM     52  C   UNL A   1      38.889  31.857  33.207  1.00  0.00     0.031 C 
ATOM     53  C   UNL A   1      40.260  28.099  27.565  1.00  0.00     0.029 A 
ATOM     54  C   UNL A   1      41.143  27.863  28.701  1.00  0.00     0.049 A 
ATOM     55  H   UNL A   1      41.024  28.724  30.597  1.00  0.00     0.167 HD
ATOM     56  C   UNL A   1      40.813  30.927  34.445  1.00  0.00     0.034 A 
ATOM     57  C   UNL A   1      42.209  27.036  28.705  1.00  0.00     0.034 A 
ATOM     58  C   UNL A   1      41.908  30.003  34.579  1.00  0.00     0.049 A 
ATOM     59  C   UNL A   1      43.020  26.930  29.976  1.00  0.00     0.074 A 
ATOM     60  C   UNL A   1      42.689  29.748  35.689  1.00  0.00     0.029 A 
ATOM     61  N   UNL A   1      42.362  29.167  33.566  1.00  0.00    -0.354 N 
ATOM     62  N   UNL A   1      42.860  27.565  31.115  1.00  0.00    -0.248 NA
ATOM     63  C   UNL A   1      44.147  25.989  29.965  1.00  0.00     0.031 C 
ATOM     64  C   UNL A   1      43.658  28.806  35.330  1.00  0.00     0.029 A 
ATOM     65  C   UNL A   1      43.432  28.416  34.018  1.00  0.00     0.049 A 
ATOM     66  H   UNL A   1      41.979  29.116  32.661  1.00  0.00     0.167 HD
ATOM     67  C   UNL A   1      43.850  27.079  31.962  1.00  0.00     0.074 A 
ATOM     68  C   UNL A   1      44.582  26.078  31.212  1.00  0.00     0.031 C 
ATOM     69  C   UNL A   1      44.140  27.427  33.243  1.00  0.00     0.034 A 
BRANCH  56  70
ATOM     70  C   UNL A   1      40.481  31.847  35.597  1.00  0.00     0.023 A 
ATOM     71  C   UNL A   1      39.403  31.594  36.464  1.00  0.00     0.031 A 
ATOM     72  C   UNL A   1      41.242  33.007  35.823  1.00  0.00     0.131 A 
ATOM     73  C   UNL A   1      39.065  32.524  37.458  1.00  0.00     0.055 A 
ATOM     74  C   UNL A   1      40.955  33.884  36.871  1.00  0.00     0.041 A 
ATOM     75  F   UNL A   1      42.271  33.318  35.018  1.00  0.00    -0.206 F 
ATOM     76  C   UNL A   1      39.852  33.654  37.687  1.00  0.00     0.022 A 
BRANCH  73  77
ATOM     77  S   UNL A   1      37.501  32.306  38.350  1.00  0.00     0.124 S 
ATOM     78  O   UNL A   1      37.277  30.870  38.201  1.00  0.00    -0.237 OA
ATOM     79  O   UNL A   1      37.836  32.765  39.692  1.00  0.00    -0.237 OA
ATOM     80  O   UNL A   1      36.566  33.155  37.614  1.00  0.00    -0.744 OA
ENDBRANCH  73  77
ENDBRANCH  56  70
BRANCH  57  81
ATOM     81  C   UNL A   1      42.579  26.244  27.494  1.00  0.00     0.023 A 
ATOM     82  C   UNL A   1      42.144  24.917  27.337  1.00  0.00     0.031 A 
ATOM     83  C   UNL A   1      43.422  26.775  26.501  1.00  0.00     0.131 A 
ATOM     84  C   UNL A   1      42.600  24.148  26.254  1.00  0.00     0.055 A 
ATOM     85  C   UNL A   1      43.822  26.027  25.391  1.00  0.00     0.041 A 
ATOM     86  F   UNL A   1      43.868  28.038  26.593  1.00  0.00    -0.206 F 
ATOM     87  C   UNL A   1      43.425  24.699  25.272  1.00  0.00     0.022 A 
BRANCH  84  88
ATOM     88  S   UNL A   1      42.192  22.381  26.210  1.00  0.00     0.124 S 
ATOM     89  O   UNL A   1      40.735  22.414  26.149  1.00  0.00    -0.237 OA
ATOM     90  O   UNL A   1      42.875  21.943  24.998  1.00  0.00    -0.237 OA
ATOM     91  O   UNL A   1      42.754  21.872  27.459  1.00  0.00    -0.744 OA
ENDBRANCH  84  88
ENDBRANCH  57  81
BRANCH  69  92
ATOM     92  C   UNL A   1      45.271  26.690  33.911  1.00  0.00     0.023 A 
ATOM     93  C   UNL A   1      45.066  25.453  34.544  1.00  0.00     0.031 A 
ATOM     94  C   UNL A   1      46.569  27.230  33.910  1.00  0.00     0.131 A 
ATOM     95  C   UNL A   1      46.130  24.826  35.205  1.00  0.00     0.055 A 
ATOM     96  C   UNL A   1      47.639  26.567  34.509  1.00  0.00     0.041 A 
ATOM     97  F   UNL A   1      46.819  28.410  33.318  1.00  0.00    -0.206 F 
ATOM     98  C   UNL A   1      47.419  25.364  35.174  1.00  0.00     0.022 A 
BRANCH  95  99
ATOM     99  S   UNL A   1      45.782  23.345  36.191  1.00  0.00     0.124 S 
ATOM    100  O   UNL A   1      45.550  23.913  37.515  1.00  0.00    -0.237 OA
ATOM    101  O   UNL A   1      44.610  22.792  35.521  1.00  0.00    -0.237 OA
ATOM    102  O   UNL A   1      47.004  22.553  36.061  1.00  0.00    -0.744 OA
ENDBRANCH  95  99
ENDBRANCH  69  92
ENDBRANCH  43  44
ENDBRANCH  35  38
ENDBRANCH  33  34
ENDBRANCH   1  33
TORSDOF 18
ENDMDL
