MODEL 1
REMARK VINA RESULT:     -11.3      0.000      0.000
REMARK SMILES CNS(=O)(=O)c1cc(C(=O)NCCCCNC(=O)c2ccc(-c3c4nc(c(-c5cc(S(=O)(=O)[O-])ccc5F)c5ccc([nH]5)c(-c5cc(S(=O)(=O)[O-])ccc5F)c5nc(c(-c6cc(S(=O)(=O)[O-])ccc6F)c6ccc3[nH]6)C=C5)C=C4)cc2)ccc1N(C)C
REMARK SMILES IDX 14 1 13 2 12 3 11 4 9 5 10 6 8 8 6 9 7 10 84 11 83 12 82 13
REMARK SMILES IDX 3 14 4 15 5 16 2 17 1 18 85 20 86 21 87 22 15 23 16 24 17 25
REMARK SMILES IDX 18 27 19 28 20 29 81 30 21 31 80 32 22 33 23 34 24 35 74 36
REMARK SMILES IDX 25 37 79 38 73 39 75 40 26 41 78 42 72 43 71 44 27 46 59 47
REMARK SMILES IDX 39 48 58 49 40 50 43 51 57 52 76 53 41 54 42 55 56 57 77 58
REMARK SMILES IDX 44 59 28 60 29 61 37 62 30 63 36 64 38 65 35 66 31 67 32 68
REMARK SMILES IDX 33 69 34 70 60 71 61 72 69 73 62 74 68 75 70 76 67 77 63 78
REMARK SMILES IDX 64 79 65 80 66 81 45 82 46 83 54 84 47 85 53 86 55 87 52 88
REMARK SMILES IDX 48 89 49 90 50 91 51 92
REMARK H PARENT 11 7 2 19 16 26 75 45 43 56
REMARK Flexibility Score: inf
ROOT
ATOM      1  C   UNL A   1      31.443  31.543  26.511  1.00  0.00     0.023 C 
ENDROOT
BRANCH   1   2
ATOM      2  C   UNL A   1      31.524  30.068  26.128  1.00  0.00     0.023 C 
BRANCH   2   3
ATOM      3  C   UNL A   1      32.309  29.738  24.864  1.00  0.00     0.116 C 
BRANCH   3   4
ATOM      4  N   UNL A   1      31.498  29.681  23.659  1.00  0.00    -0.352 N 
ATOM      5  C   UNL A   1      30.849  28.624  23.065  1.00  0.00     0.251 C 
ATOM      6  O   UNL A   1      30.248  28.802  22.008  1.00  0.00    -0.269 OA
ATOM      7  H   UNL A   1      31.398  30.540  23.190  1.00  0.00     0.163 HD
BRANCH   5   8
ATOM      8  C   UNL A   1      30.895  27.258  23.645  1.00  0.00     0.041 A 
ATOM      9  C   UNL A   1      32.004  25.061  23.753  1.00  0.00     0.106 A 
ATOM     10  C   UNL A   1      31.862  26.364  23.194  1.00  0.00     0.037 A 
ATOM     11  C   UNL A   1      31.275  24.695  24.904  1.00  0.00     0.056 A 
ATOM     12  C   UNL A   1      30.186  25.564  25.190  1.00  0.00     0.028 A 
ATOM     13  C   UNL A   1      29.971  26.795  24.560  1.00  0.00     0.016 A 
BRANCH   9  14
ATOM     14  S   UNL A   1      33.041  24.021  22.738  1.00  0.00     0.242 S 
ATOM     15  O   UNL A   1      34.139  23.415  23.451  1.00  0.00    -0.207 OA
ATOM     16  O   UNL A   1      33.253  24.701  21.477  1.00  0.00    -0.207 OA
BRANCH  14  17
ATOM     17  N   UNL A   1      32.004  22.722  22.407  1.00  0.00    -0.214 NA
ATOM     18  C   UNL A   1      32.323  21.434  23.023  1.00  0.00     0.120 C 
ATOM     19  H   UNL A   1      31.071  22.988  22.722  1.00  0.00     0.141 HD
ENDBRANCH  14  17
ENDBRANCH   9  14
BRANCH  11  20
ATOM     20  N   UNL A   1      31.522  23.677  25.822  1.00  0.00    -0.377 N 
ATOM     21  C   UNL A   1      32.810  23.634  26.528  1.00  0.00     0.143 C 
ATOM     22  C   UNL A   1      30.645  22.555  26.115  1.00  0.00     0.143 C 
ENDBRANCH  11  20
ENDBRANCH   5   8
ENDBRANCH   3   4
ENDBRANCH   2   3
ENDBRANCH   1   2
BRANCH   1  23
ATOM     23  C   UNL A   1      32.739  32.184  26.992  1.00  0.00     0.116 C 
BRANCH  23  24
ATOM     24  N   UNL A   1      32.569  33.542  27.485  1.00  0.00    -0.352 N 
ATOM     25  C   UNL A   1      33.273  34.225  28.450  1.00  0.00     0.251 C 
ATOM     26  H   UNL A   1      31.839  34.051  27.063  1.00  0.00     0.163 HD
ATOM     27  O   UNL A   1      32.896  35.344  28.787  1.00  0.00    -0.269 OA
BRANCH  25  28
ATOM     28  C   UNL A   1      34.449  33.605  29.104  1.00  0.00     0.039 A 
ATOM     29  C   UNL A   1      35.707  34.189  28.921  1.00  0.00     0.014 A 
ATOM     30  C   UNL A   1      34.324  32.460  29.892  1.00  0.00     0.014 A 
ATOM     31  C   UNL A   1      36.822  33.665  29.583  1.00  0.00     0.010 A 
ATOM     32  C   UNL A   1      35.417  31.992  30.617  1.00  0.00     0.010 A 
ATOM     33  C   UNL A   1      36.681  32.583  30.466  1.00  0.00    -0.014 A 
BRANCH  33  34
ATOM     34  C   UNL A   1      37.845  32.029  31.211  1.00  0.00     0.031 A 
ATOM     35  C   UNL A   1      38.679  30.940  30.590  1.00  0.00     0.074 A 
ATOM     36  C   UNL A   1      38.110  32.452  32.464  1.00  0.00     0.049 A 
ATOM     37  N   UNL A   1      39.667  30.253  31.105  1.00  0.00    -0.248 NA
ATOM     38  C   UNL A   1      38.330  30.549  29.217  1.00  0.00     0.031 C 
ATOM     39  C   UNL A   1      37.351  33.470  33.193  1.00  0.00     0.029 A 
ATOM     40  N   UNL A   1      39.086  32.069  33.351  1.00  0.00    -0.354 N 
ATOM     41  C   UNL A   1      40.039  29.334  30.129  1.00  0.00     0.074 A 
ATOM     42  C   UNL A   1      39.126  29.510  29.020  1.00  0.00     0.031 C 
ATOM     43  C   UNL A   1      37.903  33.648  34.404  1.00  0.00     0.029 A 
ATOM     44  C   UNL A   1      39.027  32.728  34.559  1.00  0.00     0.049 A 
ATOM     45  H   UNL A   1      39.765  31.388  33.144  1.00  0.00     0.167 HD
ATOM     46  C   UNL A   1      41.065  28.445  30.143  1.00  0.00     0.034 A 
ATOM     47  C   UNL A   1      39.784  32.599  35.666  1.00  0.00     0.034 A 
ATOM     48  C   UNL A   1      41.981  28.298  31.247  1.00  0.00     0.049 A 
ATOM     49  C   UNL A   1      40.917  31.601  35.662  1.00  0.00     0.074 A 
ATOM     50  C   UNL A   1      43.083  27.467  31.350  1.00  0.00     0.029 A 
ATOM     51  N   UNL A   1      41.903  29.001  32.444  1.00  0.00    -0.354 N 
ATOM     52  N   UNL A   1      41.284  30.770  34.714  1.00  0.00    -0.248 NA
ATOM     53  C   UNL A   1      41.747  31.538  36.872  1.00  0.00     0.031 C 
ATOM     54  C   UNL A   1      43.634  27.623  32.628  1.00  0.00     0.029 A 
ATOM     55  C   UNL A   1      42.923  28.606  33.296  1.00  0.00     0.049 A 
ATOM     56  H   UNL A   1      41.222  29.679  32.656  1.00  0.00     0.167 HD
ATOM     57  C   UNL A   1      42.409  30.111  35.202  1.00  0.00     0.074 A 
ATOM     58  C   UNL A   1      42.667  30.651  36.521  1.00  0.00     0.031 C 
ATOM     59  C   UNL A   1      43.166  29.153  34.610  1.00  0.00     0.034 A 
BRANCH  46  60
ATOM     60  C   UNL A   1      41.224  27.552  28.934  1.00  0.00     0.023 A 
ATOM     61  C   UNL A   1      42.237  27.772  27.983  1.00  0.00     0.031 A 
ATOM     62  C   UNL A   1      40.329  26.493  28.705  1.00  0.00     0.131 A 
ATOM     63  C   UNL A   1      42.275  27.006  26.808  1.00  0.00     0.055 A 
ATOM     64  C   UNL A   1      40.428  25.675  27.577  1.00  0.00     0.041 A 
ATOM     65  F   UNL A   1      39.329  26.244  29.566  1.00  0.00    -0.206 F 
ATOM     66  C   UNL A   1      41.394  25.941  26.611  1.00  0.00     0.022 A 
BRANCH  63  67
ATOM     67  S   UNL A   1      43.389  27.525  25.475  1.00  0.00     0.124 S 
ATOM     68  O   UNL A   1      44.177  26.312  25.262  1.00  0.00    -0.237 OA
ATOM     69  O   UNL A   1      42.462  27.880  24.407  1.00  0.00    -0.237 OA
ATOM     70  O   UNL A   1      44.126  28.642  26.059  1.00  0.00    -0.744 OA
ENDBRANCH  63  67
ENDBRANCH  46  60
BRANCH  47  71
ATOM     71  C   UNL A   1      39.507  33.427  36.876  1.00  0.00     0.023 A 
ATOM     72  C   UNL A   1      38.846  32.883  37.988  1.00  0.00     0.031 A 
ATOM     73  C   UNL A   1      39.858  34.789  36.918  1.00  0.00     0.131 A 
ATOM     74  C   UNL A   1      38.511  33.704  39.076  1.00  0.00     0.055 A 
ATOM     75  C   UNL A   1      39.568  35.590  38.024  1.00  0.00     0.041 A 
ATOM     76  F   UNL A   1      40.496  35.358  35.884  1.00  0.00    -0.206 F 
ATOM     77  C   UNL A   1      38.879  35.052  39.107  1.00  0.00     0.022 A 
BRANCH  74  78
ATOM     78  S   UNL A   1      37.508  33.005  40.416  1.00  0.00     0.124 S 
ATOM     79  O   UNL A   1      38.194  31.744  40.673  1.00  0.00    -0.237 OA
ATOM     80  O   UNL A   1      37.632  34.027  41.450  1.00  0.00    -0.237 OA
ATOM     81  O   UNL A   1      36.180  32.885  39.819  1.00  0.00    -0.744 OA
ENDBRANCH  74  78
ENDBRANCH  47  71
BRANCH  59  82
ATOM     82  C   UNL A   1      44.381  28.672  35.368  1.00  0.00     0.023 A 
ATOM     83  C   UNL A   1      44.298  27.667  36.346  1.00  0.00     0.031 A 
ATOM     84  C   UNL A   1      45.641  29.242  35.109  1.00  0.00     0.131 A 
ATOM     85  C   UNL A   1      45.443  27.302  37.071  1.00  0.00     0.055 A 
ATOM     86  C   UNL A   1      46.787  28.832  35.790  1.00  0.00     0.041 A 
ATOM     87  F   UNL A   1      45.777  30.207  34.185  1.00  0.00    -0.206 F 
ATOM     88  C   UNL A   1      46.690  27.866  36.787  1.00  0.00     0.022 A 
BRANCH  85  89
ATOM     89  S   UNL A   1      45.267  26.144  38.456  1.00  0.00     0.124 S 
ATOM     90  O   UNL A   1      43.951  26.497  38.981  1.00  0.00    -0.237 OA
ATOM     91  O   UNL A   1      45.361  24.848  37.792  1.00  0.00    -0.237 OA
ATOM     92  O   UNL A   1      46.392  26.476  39.327  1.00  0.00    -0.744 OA
ENDBRANCH  85  89
ENDBRANCH  59  82
ENDBRANCH  33  34
ENDBRANCH  25  28
ENDBRANCH  23  24
ENDBRANCH   1  23
TORSDOF 17
ENDMDL
MODEL 2
REMARK VINA RESULT:     -11.1      5.643     11.737
REMARK SMILES CNS(=O)(=O)c1cc(C(=O)NCCCCNC(=O)c2ccc(-c3c4nc(c(-c5cc(S(=O)(=O)[O-])ccc5F)c5ccc([nH]5)c(-c5cc(S(=O)(=O)[O-])ccc5F)c5nc(c(-c6cc(S(=O)(=O)[O-])ccc6F)c6ccc3[nH]6)C=C5)C=C4)cc2)ccc1N(C)C
REMARK SMILES IDX 14 1 13 2 12 3 11 4 9 5 10 6 8 8 6 9 7 10 84 11 83 12 82 13
REMARK SMILES IDX 3 14 4 15 5 16 2 17 1 18 85 20 86 21 87 22 15 23 16 24 17 25
REMARK SMILES IDX 18 27 19 28 20 29 81 30 21 31 80 32 22 33 23 34 24 35 74 36
REMARK SMILES IDX 25 37 79 38 73 39 75 40 26 41 78 42 72 43 71 44 27 46 59 47
REMARK SMILES IDX 39 48 58 49 40 50 43 51 57 52 76 53 41 54 42 55 56 57 77 58
REMARK SMILES IDX 44 59 28 60 29 61 37 62 30 63 36 64 38 65 35 66 31 67 32 68
REMARK SMILES IDX 33 69 34 70 60 71 61 72 69 73 62 74 68 75 70 76 67 77 63 78
REMARK SMILES IDX 64 79 65 80 66 81 45 82 46 83 54 84 47 85 53 86 55 87 52 88
REMARK SMILES IDX 48 89 49 90 50 91 51 92
REMARK H PARENT 11 7 2 19 16 26 75 45 43 56
REMARK Flexibility Score: inf
ROOT
ATOM      1  C   UNL A   1      38.154  19.956  24.737  1.00  0.00     0.023 C 
ENDROOT
BRANCH   1   2
ATOM      2  C   UNL A   1      36.845  19.214  24.993  1.00  0.00     0.023 C 
BRANCH   2   3
ATOM      3  C   UNL A   1      35.577  20.060  25.001  1.00  0.00     0.116 C 
BRANCH   3   4
ATOM      4  N   UNL A   1      34.358  19.302  25.232  1.00  0.00    -0.352 N 
ATOM      5  C   UNL A   1      33.040  19.646  25.044  1.00  0.00     0.251 C 
ATOM      6  O   UNL A   1      32.159  18.847  25.354  1.00  0.00    -0.269 OA
ATOM      7  H   UNL A   1      34.500  18.393  25.583  1.00  0.00     0.163 HD
BRANCH   5   8
ATOM      8  C   UNL A   1      32.652  20.978  24.518  1.00  0.00     0.041 A 
ATOM      9  C   UNL A   1      32.036  23.318  24.982  1.00  0.00     0.106 A 
ATOM     10  C   UNL A   1      32.353  21.999  25.417  1.00  0.00     0.037 A 
ATOM     11  C   UNL A   1      32.182  23.677  23.625  1.00  0.00     0.056 A 
ATOM     12  C   UNL A   1      32.298  22.561  22.750  1.00  0.00     0.028 A 
ATOM     13  C   UNL A   1      32.491  21.242  23.173  1.00  0.00     0.016 A 
BRANCH   9  14
ATOM     14  S   UNL A   1      31.331  24.292  26.302  1.00  0.00     0.242 S 
ATOM     15  O   UNL A   1      31.420  23.670  27.600  1.00  0.00    -0.207 OA
ATOM     16  O   UNL A   1      30.084  24.853  25.824  1.00  0.00    -0.207 OA
BRANCH  14  17
ATOM     17  N   UNL A   1      32.425  25.585  26.394  1.00  0.00    -0.214 NA
ATOM     18  C   UNL A   1      31.872  26.938  26.347  1.00  0.00     0.120 C 
ATOM     19  H   UNL A   1      32.933  25.493  27.274  1.00  0.00     0.141 HD
ENDBRANCH  14  17
ENDBRANCH   9  14
BRANCH  11  20
ATOM     20  N   UNL A   1      32.311  24.940  23.052  1.00  0.00    -0.377 N 
ATOM     21  C   UNL A   1      33.651  25.483  22.789  1.00  0.00     0.143 C 
ATOM     22  C   UNL A   1      31.226  25.857  22.746  1.00  0.00     0.143 C 
ENDBRANCH  11  20
ENDBRANCH   5   8
ENDBRANCH   3   4
ENDBRANCH   2   3
ENDBRANCH   1   2
BRANCH   1  23
ATOM     23  C   UNL A   1      39.063  20.150  25.944  1.00  0.00     0.116 C 
BRANCH  23  24
ATOM     24  N   UNL A   1      40.222  19.270  25.949  1.00  0.00    -0.352 N 
ATOM     25  C   UNL A   1      41.555  19.568  26.108  1.00  0.00     0.251 C 
ATOM     26  H   UNL A   1      40.020  18.316  25.818  1.00  0.00     0.163 HD
ATOM     27  O   UNL A   1      42.388  18.676  25.977  1.00  0.00    -0.269 OA
BRANCH  25  28
ATOM     28  C   UNL A   1      41.987  20.956  26.396  1.00  0.00     0.039 A 
ATOM     29  C   UNL A   1      42.436  21.269  27.683  1.00  0.00     0.014 A 
ATOM     30  C   UNL A   1      41.954  21.947  25.413  1.00  0.00     0.014 A 
ATOM     31  C   UNL A   1      42.916  22.553  27.962  1.00  0.00     0.010 A 
ATOM     32  C   UNL A   1      42.511  23.198  25.668  1.00  0.00     0.010 A 
ATOM     33  C   UNL A   1      42.991  23.520  26.947  1.00  0.00    -0.014 A 
BRANCH  33  34
ATOM     34  C   UNL A   1      43.530  24.883  27.208  1.00  0.00     0.031 A 
ATOM     35  C   UNL A   1      42.624  25.951  27.762  1.00  0.00     0.074 A 
ATOM     36  C   UNL A   1      44.805  25.179  26.887  1.00  0.00     0.049 A 
ATOM     37  N   UNL A   1      42.863  27.221  27.965  1.00  0.00    -0.248 NA
ATOM     38  C   UNL A   1      41.253  25.539  28.097  1.00  0.00     0.031 C 
ATOM     39  C   UNL A   1      45.771  24.245  26.305  1.00  0.00     0.029 A 
ATOM     40  N   UNL A   1      45.507  26.355  26.994  1.00  0.00    -0.354 N 
ATOM     41  C   UNL A   1      41.669  27.763  28.429  1.00  0.00     0.074 A 
ATOM     42  C   UNL A   1      40.691  26.696  28.411  1.00  0.00     0.031 C 
ATOM     43  C   UNL A   1      46.944  24.876  26.129  1.00  0.00     0.029 A 
ATOM     44  C   UNL A   1      46.805  26.270  26.542  1.00  0.00     0.049 A 
ATOM     45  H   UNL A   1      45.118  27.182  27.360  1.00  0.00     0.167 HD
ATOM     46  C   UNL A   1      41.415  29.026  28.856  1.00  0.00     0.034 A 
ATOM     47  C   UNL A   1      47.768  27.208  26.462  1.00  0.00     0.034 A 
ATOM     48  C   UNL A   1      42.407  30.073  28.890  1.00  0.00     0.049 A 
ATOM     49  C   UNL A   1      47.464  28.608  26.939  1.00  0.00     0.074 A 
ATOM     50  C   UNL A   1      42.275  31.372  29.349  1.00  0.00     0.029 A 
ATOM     51  N   UNL A   1      43.717  29.942  28.447  1.00  0.00    -0.354 N 
ATOM     52  N   UNL A   1      46.342  29.094  27.416  1.00  0.00    -0.248 NA
ATOM     53  C   UNL A   1      48.564  29.580  26.881  1.00  0.00     0.031 C 
ATOM     54  C   UNL A   1      43.485  32.042  29.128  1.00  0.00     0.029 A 
ATOM     55  C   UNL A   1      44.396  31.140  28.601  1.00  0.00     0.049 A 
ATOM     56  H   UNL A   1      44.106  29.117  28.076  1.00  0.00     0.167 HD
ATOM     57  C   UNL A   1      46.612  30.418  27.748  1.00  0.00     0.074 A 
ATOM     58  C   UNL A   1      48.006  30.650  27.429  1.00  0.00     0.031 C 
ATOM     59  C   UNL A   1      45.786  31.357  28.277  1.00  0.00     0.034 A 
BRANCH  46  60
ATOM     60  C   UNL A   1      40.003  29.338  29.296  1.00  0.00     0.023 A 
ATOM     61  C   UNL A   1      39.647  29.383  30.656  1.00  0.00     0.031 A 
ATOM     62  C   UNL A   1      38.990  29.554  28.346  1.00  0.00     0.131 A 
ATOM     63  C   UNL A   1      38.303  29.546  31.024  1.00  0.00     0.055 A 
ATOM     64  C   UNL A   1      37.670  29.807  28.721  1.00  0.00     0.041 A 
ATOM     65  F   UNL A   1      39.263  29.505  27.032  1.00  0.00    -0.206 F 
ATOM     66  C   UNL A   1      37.315  29.786  30.068  1.00  0.00     0.022 A 
BRANCH  63  67
ATOM     67  S   UNL A   1      37.845  29.281  32.759  1.00  0.00     0.124 S 
ATOM     68  O   UNL A   1      38.968  29.904  33.458  1.00  0.00    -0.237 OA
ATOM     69  O   UNL A   1      36.566  29.974  32.858  1.00  0.00    -0.237 OA
ATOM     70  O   UNL A   1      37.778  27.827  32.878  1.00  0.00    -0.744 OA
ENDBRANCH  63  67
ENDBRANCH  46  60
BRANCH  47  71
ATOM     71  C   UNL A   1      49.112  26.870  25.909  1.00  0.00     0.023 A 
ATOM     72  C   UNL A   1      49.499  27.309  24.633  1.00  0.00     0.031 A 
ATOM     73  C   UNL A   1      50.011  26.064  26.630  1.00  0.00     0.131 A 
ATOM     74  C   UNL A   1      50.730  26.900  24.095  1.00  0.00     0.055 A 
ATOM     75  C   UNL A   1      51.256  25.702  26.112  1.00  0.00     0.041 A 
ATOM     76  F   UNL A   1      49.693  25.623  27.857  1.00  0.00    -0.206 F 
ATOM     77  C   UNL A   1      51.616  26.110  24.831  1.00  0.00     0.022 A 
BRANCH  74  78
ATOM     78  S   UNL A   1      51.119  27.345  22.380  1.00  0.00     0.124 S 
ATOM     79  O   UNL A   1      51.062  28.801  22.431  1.00  0.00    -0.237 OA
ATOM     80  O   UNL A   1      52.444  26.759  22.209  1.00  0.00    -0.237 OA
ATOM     81  O   UNL A   1      50.053  26.704  21.613  1.00  0.00    -0.744 OA
ENDBRANCH  74  78
ENDBRANCH  47  71
BRANCH  59  82
ATOM     82  C   UNL A   1      46.392  32.702  28.597  1.00  0.00     0.023 A 
ATOM     83  C   UNL A   1      46.394  33.757  27.669  1.00  0.00     0.031 A 
ATOM     84  C   UNL A   1      46.985  32.924  29.853  1.00  0.00     0.131 A 
ATOM     85  C   UNL A   1      47.029  34.967  27.988  1.00  0.00     0.055 A 
ATOM     86  C   UNL A   1      47.561  34.150  30.188  1.00  0.00     0.041 A 
ATOM     87  F   UNL A   1      47.012  31.951  30.777  1.00  0.00    -0.206 F 
ATOM     88  C   UNL A   1      47.597  35.176  29.247  1.00  0.00     0.022 A 
BRANCH  85  89
ATOM     89  S   UNL A   1      47.184  36.237  26.702  1.00  0.00     0.124 S 
ATOM     90  O   UNL A   1      46.564  35.583  25.554  1.00  0.00    -0.237 OA
ATOM     91  O   UNL A   1      46.442  37.355  27.276  1.00  0.00    -0.237 OA
ATOM     92  O   UNL A   1      48.627  36.443  26.594  1.00  0.00    -0.744 OA
ENDBRANCH  85  89
ENDBRANCH  59  82
ENDBRANCH  33  34
ENDBRANCH  25  28
ENDBRANCH  23  24
ENDBRANCH   1  23
TORSDOF 17
ENDMDL
MODEL 3
REMARK VINA RESULT:     -11.1      1.853      2.322
REMARK SMILES CNS(=O)(=O)c1cc(C(=O)NCCCCNC(=O)c2ccc(-c3c4nc(c(-c5cc(S(=O)(=O)[O-])ccc5F)c5ccc([nH]5)c(-c5cc(S(=O)(=O)[O-])ccc5F)c5nc(c(-c6cc(S(=O)(=O)[O-])ccc6F)c6ccc3[nH]6)C=C5)C=C4)cc2)ccc1N(C)C
REMARK SMILES IDX 14 1 13 2 12 3 11 4 9 5 10 6 8 8 6 9 7 10 84 11 83 12 82 13
REMARK SMILES IDX 3 14 4 15 5 16 2 17 1 18 85 20 86 21 87 22 15 23 16 24 17 25
REMARK SMILES IDX 18 27 19 28 20 29 81 30 21 31 80 32 22 33 23 34 24 35 74 36
REMARK SMILES IDX 25 37 79 38 73 39 75 40 26 41 78 42 72 43 71 44 27 46 59 47
REMARK SMILES IDX 39 48 58 49 40 50 43 51 57 52 76 53 41 54 42 55 56 57 77 58
REMARK SMILES IDX 44 59 28 60 29 61 37 62 30 63 36 64 38 65 35 66 31 67 32 68
REMARK SMILES IDX 33 69 34 70 60 71 61 72 69 73 62 74 68 75 70 76 67 77 63 78
REMARK SMILES IDX 64 79 65 80 66 81 45 82 46 83 54 84 47 85 53 86 55 87 52 88
REMARK SMILES IDX 48 89 49 90 50 91 51 92
REMARK H PARENT 11 7 2 19 16 26 75 45 43 56
REMARK Flexibility Score: inf
ROOT
ATOM      1  C   UNL A   1      31.544  32.564  26.700  1.00  0.00     0.023 C 
ENDROOT
BRANCH   1   2
ATOM      2  C   UNL A   1      31.359  31.060  26.521  1.00  0.00     0.023 C 
BRANCH   2   3
ATOM      3  C   UNL A   1      32.360  30.359  25.610  1.00  0.00     0.116 C 
BRANCH   3   4
ATOM      4  N   UNL A   1      33.572  29.923  26.284  1.00  0.00    -0.352 N 
ATOM      5  C   UNL A   1      34.147  28.677  26.377  1.00  0.00     0.251 C 
ATOM      6  O   UNL A   1      35.167  28.532  27.047  1.00  0.00    -0.269 OA
ATOM      7  H   UNL A   1      34.062  30.637  26.751  1.00  0.00     0.163 HD
BRANCH   5   8
ATOM      8  C   UNL A   1      33.538  27.490  25.728  1.00  0.00     0.041 A 
ATOM      9  C   UNL A   1      33.177  26.176  23.675  1.00  0.00     0.106 A 
ATOM     10  C   UNL A   1      33.680  27.324  24.352  1.00  0.00     0.037 A 
ATOM     11  C   UNL A   1      32.666  25.083  24.406  1.00  0.00     0.056 A 
ATOM     12  C   UNL A   1      32.375  25.391  25.764  1.00  0.00     0.028 A 
ATOM     13  C   UNL A   1      32.763  26.572  26.407  1.00  0.00     0.016 A 
BRANCH   9  14
ATOM     14  S   UNL A   1      33.158  26.414  21.906  1.00  0.00     0.242 S 
ATOM     15  O   UNL A   1      33.455  25.221  21.151  1.00  0.00    -0.207 OA
ATOM     16  O   UNL A   1      33.825  27.667  21.619  1.00  0.00    -0.207 OA
BRANCH  14  17
ATOM     17  N   UNL A   1      31.508  26.680  21.614  1.00  0.00    -0.214 NA
ATOM     18  C   UNL A   1      30.866  27.774  22.341  1.00  0.00     0.120 C 
ATOM     19  H   UNL A   1      31.401  26.870  20.618  1.00  0.00     0.141 HD
ENDBRANCH  14  17
ENDBRANCH   9  14
BRANCH  11  20
ATOM     20  N   UNL A   1      32.493  23.757  24.013  1.00  0.00    -0.377 N 
ATOM     21  C   UNL A   1      33.595  22.801  24.186  1.00  0.00     0.143 C 
ATOM     22  C   UNL A   1      31.325  23.206  23.346  1.00  0.00     0.143 C 
ENDBRANCH  11  20
ENDBRANCH   5   8
ENDBRANCH   3   4
ENDBRANCH   2   3
ENDBRANCH   1   2
BRANCH   1  23
ATOM     23  C   UNL A   1      32.823  33.004  27.402  1.00  0.00     0.116 C 
BRANCH  23  24
ATOM     24  N   UNL A   1      32.786  34.381  27.871  1.00  0.00    -0.352 N 
ATOM     25  C   UNL A   1      33.551  35.007  28.828  1.00  0.00     0.251 C 
ATOM     26  H   UNL A   1      32.111  34.951  27.438  1.00  0.00     0.163 HD
ATOM     27  O   UNL A   1      33.285  36.163  29.145  1.00  0.00    -0.269 OA
BRANCH  25  28
ATOM     28  C   UNL A   1      34.659  34.286  29.497  1.00  0.00     0.039 A 
ATOM     29  C   UNL A   1      35.958  34.435  29.001  1.00  0.00     0.014 A 
ATOM     30  C   UNL A   1      34.430  33.468  30.605  1.00  0.00     0.014 A 
ATOM     31  C   UNL A   1      37.031  33.822  29.656  1.00  0.00     0.010 A 
ATOM     32  C   UNL A   1      35.506  32.929  31.306  1.00  0.00     0.010 A 
ATOM     33  C   UNL A   1      36.819  33.092  30.836  1.00  0.00    -0.014 A 
BRANCH  33  34
ATOM     34  C   UNL A   1      37.947  32.459  31.573  1.00  0.00     0.031 A 
ATOM     35  C   UNL A   1      38.724  31.340  30.932  1.00  0.00     0.074 A 
ATOM     36  C   UNL A   1      38.228  32.839  32.836  1.00  0.00     0.049 A 
ATOM     37  N   UNL A   1      39.670  30.589  31.435  1.00  0.00    -0.248 NA
ATOM     38  C   UNL A   1      38.361  30.999  29.549  1.00  0.00     0.031 C 
ATOM     39  C   UNL A   1      37.522  33.882  33.584  1.00  0.00     0.029 A 
ATOM     40  N   UNL A   1      39.177  32.385  33.719  1.00  0.00    -0.354 N 
ATOM     41  C   UNL A   1      39.997  29.673  30.441  1.00  0.00     0.074 A 
ATOM     42  C   UNL A   1      39.101  29.923  29.332  1.00  0.00     0.031 C 
ATOM     43  C   UNL A   1      38.076  34.002  34.802  1.00  0.00     0.029 A 
ATOM     44  C   UNL A   1      39.147  33.019  34.941  1.00  0.00     0.049 A 
ATOM     45  H   UNL A   1      39.819  31.672  33.499  1.00  0.00     0.167 HD
ATOM     46  C   UNL A   1      40.972  28.729  30.439  1.00  0.00     0.034 A 
ATOM     47  C   UNL A   1      39.891  32.825  36.047  1.00  0.00     0.034 A 
ATOM     48  C   UNL A   1      41.873  28.508  31.543  1.00  0.00     0.049 A 
ATOM     49  C   UNL A   1      40.968  31.767  36.026  1.00  0.00     0.074 A 
ATOM     50  C   UNL A   1      42.928  27.617  31.632  1.00  0.00     0.029 A 
ATOM     51  N   UNL A   1      41.828  29.188  32.755  1.00  0.00    -0.354 N 
ATOM     52  N   UNL A   1      41.293  30.938  35.062  1.00  0.00    -0.248 NA
ATOM     53  C   UNL A   1      41.786  31.632  37.238  1.00  0.00     0.031 C 
ATOM     54  C   UNL A   1      43.480  27.714  32.915  1.00  0.00     0.029 A 
ATOM     55  C   UNL A   1      42.820  28.720  33.602  1.00  0.00     0.049 A 
ATOM     56  H   UNL A   1      41.183  29.897  32.979  1.00  0.00     0.167 HD
ATOM     57  C   UNL A   1      42.379  30.208  35.539  1.00  0.00     0.074 A 
ATOM     58  C   UNL A   1      42.658  30.704  36.871  1.00  0.00     0.031 C 
ATOM     59  C   UNL A   1      43.086  29.223  34.929  1.00  0.00     0.034 A 
BRANCH  46  60
ATOM     60  C   UNL A   1      41.089  27.856  29.211  1.00  0.00     0.023 A 
ATOM     61  C   UNL A   1      42.089  28.070  28.246  1.00  0.00     0.031 A 
ATOM     62  C   UNL A   1      40.166  26.821  28.979  1.00  0.00     0.131 A 
ATOM     63  C   UNL A   1      42.089  27.326  27.057  1.00  0.00     0.055 A 
ATOM     64  C   UNL A   1      40.226  26.023  27.835  1.00  0.00     0.041 A 
ATOM     65  F   UNL A   1      39.176  26.579  29.854  1.00  0.00    -0.206 F 
ATOM     66  C   UNL A   1      41.180  26.285  26.856  1.00  0.00     0.022 A 
BRANCH  63  67
ATOM     67  S   UNL A   1      43.190  27.844  25.712  1.00  0.00     0.124 S 
ATOM     68  O   UNL A   1      43.551  29.197  26.133  1.00  0.00    -0.237 OA
ATOM     69  O   UNL A   1      44.255  26.850  25.774  1.00  0.00    -0.237 OA
ATOM     70  O   UNL A   1      42.340  27.775  24.527  1.00  0.00    -0.744 OA
ENDBRANCH  63  67
ENDBRANCH  46  60
BRANCH  47  71
ATOM     71  C   UNL A   1      39.653  33.640  37.274  1.00  0.00     0.023 A 
ATOM     72  C   UNL A   1      40.405  34.798  37.528  1.00  0.00     0.031 A 
ATOM     73  C   UNL A   1      38.701  33.248  38.232  1.00  0.00     0.131 A 
ATOM     74  C   UNL A   1      40.230  35.497  38.734  1.00  0.00     0.055 A 
ATOM     75  C   UNL A   1      38.495  33.975  39.406  1.00  0.00     0.041 A 
ATOM     76  F   UNL A   1      37.951  32.153  38.036  1.00  0.00    -0.206 F 
ATOM     77  C   UNL A   1      39.271  35.100  39.669  1.00  0.00     0.022 A 
BRANCH  74  78
ATOM     78  S   UNL A   1      41.339  36.885  39.101  1.00  0.00     0.124 S 
ATOM     79  O   UNL A   1      42.065  37.026  37.845  1.00  0.00    -0.237 OA
ATOM     80  O   UNL A   1      40.393  37.949  39.421  1.00  0.00    -0.237 OA
ATOM     81  O   UNL A   1      42.130  36.398  40.229  1.00  0.00    -0.744 OA
ENDBRANCH  74  78
ENDBRANCH  47  71
BRANCH  59  82
ATOM     82  C   UNL A   1      44.268  28.661  35.681  1.00  0.00     0.023 A 
ATOM     83  C   UNL A   1      44.131  27.615  36.610  1.00  0.00     0.031 A 
ATOM     84  C   UNL A   1      45.554  29.192  35.467  1.00  0.00     0.131 A 
ATOM     85  C   UNL A   1      45.249  27.173  37.334  1.00  0.00     0.055 A 
ATOM     86  C   UNL A   1      46.672  28.706  36.144  1.00  0.00     0.041 A 
ATOM     87  F   UNL A   1      45.742  30.192  34.591  1.00  0.00    -0.206 F 
ATOM     88  C   UNL A   1      46.521  27.699  37.094  1.00  0.00     0.022 A 
BRANCH  85  89
ATOM     89  S   UNL A   1      45.005  25.959  38.660  1.00  0.00     0.124 S 
ATOM     90  O   UNL A   1      43.830  26.490  39.345  1.00  0.00    -0.237 OA
ATOM     91  O   UNL A   1      44.804  24.720  37.916  1.00  0.00    -0.237 OA
ATOM     92  O   UNL A   1      46.251  26.029  39.422  1.00  0.00    -0.744 OA
ENDBRANCH  85  89
ENDBRANCH  59  82
ENDBRANCH  33  34
ENDBRANCH  25  28
ENDBRANCH  23  24
ENDBRANCH   1  23
TORSDOF 17
ENDMDL
