MODEL 1
REMARK VINA RESULT:     -13.2      0.000      0.000
REMARK SMILES CC1=CC[C@](C(=O)NCCCCNC(=O)c2ccc(-c3c4nc(c(-c5cc(S(=O)(=O)[O-])ccc5F)c5ccc([nH]5)c(-c5cc(S(=O)(=O)[O-])ccc5F)c5nc(c(-c6cc(S(=O)(=O)[O-])ccc6F)c6ccc3[nH]6)C=C5)C=C4)cc2)(C(=O)N/N=C/C2=C([O-])CC(C)(C)CC2=O)C[C@@H]1c1ccccc1
REMARK SMILES IDX 10 1 9 2 8 3 6 4 7 5 5 7 1 8 2 9 3 10 95 11 4 12 94 13 96 14
REMARK SMILES IDX 97 15 101 16 98 17 100 18 99 19 79 20 80 21 81 22 82 24
REMARK SMILES IDX 83 25 84 26 85 27 92 28 86 29 87 30 91 31 93 32 88 33 89 34
REMARK SMILES IDX 90 35 11 36 12 37 13 38 14 39 15 41 16 42 17 43 78 44 18 45
REMARK SMILES IDX 77 46 19 47 20 48 21 49 71 50 22 51 76 52 70 53 72 54 23 55
REMARK SMILES IDX 75 56 69 57 68 58 24 60 56 61 36 62 55 63 37 64 40 65 54 66
REMARK SMILES IDX 73 67 38 68 39 69 53 71 74 72 41 73 25 74 26 75 34 76 27 77
REMARK SMILES IDX 33 78 35 79 32 80 28 81 29 82 30 83 31 84 57 85 58 86 66 87
REMARK SMILES IDX 59 88 65 89 67 90 64 91 60 92 61 93 62 94 63 95 42 96 43 97
REMARK SMILES IDX 51 98 44 99 50 100 52 101 49 102 45 103 46 104 47 105 48 106
REMARK H PARENT 8 6 81 23 13 40 72 59 40 70
REMARK Flexibility Score: inf
ROOT
ATOM      1  C   UNL A   1      31.863  29.439  26.174  1.00  0.00     0.023 C 
ENDROOT
BRANCH   1   2
ATOM      2  C   UNL A   1      31.957  28.346  27.240  1.00  0.00     0.116 C 
BRANCH   2   3
ATOM      3  N   UNL A   1      30.843  27.428  27.124  1.00  0.00    -0.355 N 
ATOM      4  C   UNL A   1      30.674  26.239  26.500  1.00  0.00     0.236 C 
ATOM      5  O   UNL A   1      29.593  25.685  26.735  1.00  0.00    -0.274 OA
ATOM      6  H   UNL A   1      30.038  27.733  27.602  1.00  0.00     0.163 HD
BRANCH   4   7
ATOM      7  C   UNL A   1      31.749  25.523  25.659  1.00  0.00     0.133 C 
ATOM      8  C   UNL A   1      35.961  24.083  25.144  1.00  0.00     0.040 C 
ATOM      9  C   UNL A   1      34.542  24.543  25.340  1.00  0.00    -0.070 C 
ATOM     10  C   UNL A   1      33.800  24.082  26.362  1.00  0.00    -0.026 C 
ATOM     11  C   UNL A   1      34.015  25.590  24.370  1.00  0.00     0.046 C 
ATOM     12  C   UNL A   1      32.400  24.530  26.671  1.00  0.00     0.054 C 
ATOM     13  C   UNL A   1      32.854  26.397  25.016  1.00  0.00     0.040 C 
BRANCH  11  14
ATOM     14  C   UNL A   1      33.661  25.076  22.976  1.00  0.00    -0.041 A 
ATOM     15  C   UNL A   1      33.255  25.996  21.994  1.00  0.00     0.004 A 
ATOM     16  C   UNL A   1      33.661  23.713  22.639  1.00  0.00     0.004 A 
ATOM     17  C   UNL A   1      32.820  25.568  20.739  1.00  0.00     0.000 A 
ATOM     18  C   UNL A   1      33.238  23.284  21.377  1.00  0.00     0.000 A 
ATOM     19  C   UNL A   1      32.808  24.211  20.432  1.00  0.00     0.000 A 
ENDBRANCH  11  14
BRANCH   7  20
ATOM     20  C   UNL A   1      30.989  24.737  24.552  1.00  0.00     0.256 C 
ATOM     21  O   UNL A   1      31.019  23.500  24.492  1.00  0.00    -0.272 OA
ATOM     22  N   UNL A   1      30.237  25.393  23.591  1.00  0.00    -0.246 N 
ATOM     23  H   UNL A   1      29.656  24.823  23.037  1.00  0.00     0.193 HD
BRANCH  22  24
ATOM     24  N   UNL A   1      30.199  26.731  23.316  1.00  0.00    -0.181 NA
ATOM     25  C   UNL A   1      29.014  27.236  23.162  1.00  0.00     0.144 C 
BRANCH  25  26
ATOM     26  C   UNL A   1      28.787  28.678  22.886  1.00  0.00     0.026 C 
ATOM     27  C   UNL A   1      29.699  29.427  22.239  1.00  0.00    -0.119 C 
ATOM     28  C   UNL A   1      27.488  29.294  23.246  1.00  0.00     0.164 C 
ATOM     29  O   UNL A   1      30.953  28.966  21.879  1.00  0.00    -0.875 OA
ATOM     30  C   UNL A   1      29.432  30.864  21.856  1.00  0.00     0.026 C 
ATOM     31  C   UNL A   1      27.342  30.803  23.253  1.00  0.00     0.087 C 
ATOM     32  O   UNL A   1      26.542  28.570  23.559  1.00  0.00    -0.294 OA
ATOM     33  C   UNL A   1      28.615  31.605  22.929  1.00  0.00    -0.025 C 
ATOM     34  C   UNL A   1      29.478  31.819  24.193  1.00  0.00     0.012 C 
ATOM     35  C   UNL A   1      28.184  32.994  22.417  1.00  0.00     0.012 C 
ENDBRANCH  25  26
ENDBRANCH  22  24
ENDBRANCH   7  20
ENDBRANCH   4   7
ENDBRANCH   2   3
ENDBRANCH   1   2
BRANCH   1  36
ATOM     36  C   UNL A   1      31.704  30.824  26.807  1.00  0.00     0.023 C 
BRANCH  36  37
ATOM     37  C   UNL A   1      33.013  31.592  26.889  1.00  0.00     0.116 C 
BRANCH  37  38
ATOM     38  N   UNL A   1      32.784  32.977  27.268  1.00  0.00    -0.352 N 
ATOM     39  C   UNL A   1      33.282  33.735  28.302  1.00  0.00     0.251 C 
ATOM     40  H   UNL A   1      32.162  33.459  26.677  1.00  0.00     0.163 HD
ATOM     41  O   UNL A   1      32.696  34.782  28.579  1.00  0.00    -0.269 OA
BRANCH  39  42
ATOM     42  C   UNL A   1      34.468  33.322  29.097  1.00  0.00     0.039 A 
ATOM     43  C   UNL A   1      35.707  33.915  28.825  1.00  0.00     0.014 A 
ATOM     44  C   UNL A   1      34.411  32.303  30.045  1.00  0.00     0.014 A 
ATOM     45  C   UNL A   1      36.857  33.505  29.516  1.00  0.00     0.010 A 
ATOM     46  C   UNL A   1      35.515  32.006  30.836  1.00  0.00     0.010 A 
ATOM     47  C   UNL A   1      36.768  32.560  30.550  1.00  0.00    -0.014 A 
BRANCH  47  48
ATOM     48  C   UNL A   1      37.963  32.054  31.284  1.00  0.00     0.031 A 
ATOM     49  C   UNL A   1      38.837  30.996  30.644  1.00  0.00     0.074 A 
ATOM     50  C   UNL A   1      38.222  32.468  32.539  1.00  0.00     0.049 A 
ATOM     51  N   UNL A   1      39.801  30.281  31.167  1.00  0.00    -0.248 NA
ATOM     52  C   UNL A   1      38.539  30.655  29.243  1.00  0.00     0.031 C 
ATOM     53  C   UNL A   1      37.434  33.449  33.290  1.00  0.00     0.029 A 
ATOM     54  N   UNL A   1      39.217  32.107  33.413  1.00  0.00    -0.354 N 
ATOM     55  C   UNL A   1      40.178  29.372  30.180  1.00  0.00     0.074 A 
ATOM     56  C   UNL A   1      39.290  29.580  29.059  1.00  0.00     0.031 C 
ATOM     57  C   UNL A   1      37.995  33.635  34.496  1.00  0.00     0.029 A 
ATOM     58  C   UNL A   1      39.147  32.749  34.629  1.00  0.00     0.049 A 
ATOM     59  H   UNL A   1      39.915  31.450  33.193  1.00  0.00     0.167 HD
ATOM     60  C   UNL A   1      41.190  28.469  30.195  1.00  0.00     0.034 A 
ATOM     61  C   UNL A   1      39.914  32.628  35.730  1.00  0.00     0.034 A 
ATOM     62  C   UNL A   1      42.113  28.328  31.293  1.00  0.00     0.049 A 
ATOM     63  C   UNL A   1      41.064  31.652  35.708  1.00  0.00     0.074 A 
ATOM     64  C   UNL A   1      43.227  27.513  31.387  1.00  0.00     0.029 A 
ATOM     65  N   UNL A   1      42.037  29.035  32.488  1.00  0.00    -0.354 N 
ATOM     66  N   UNL A   1      41.427  30.823  34.757  1.00  0.00    -0.248 NA
ATOM     67  C   UNL A   1      41.913  31.606  36.905  1.00  0.00     0.031 C 
ATOM     68  C   UNL A   1      43.791  27.686  32.657  1.00  0.00     0.029 A 
ATOM     69  C   UNL A   1      43.072  28.662  33.330  1.00  0.00     0.049 A 
ATOM     70  H   UNL A   1      41.346  29.703  32.705  1.00  0.00     0.167 HD
ATOM     71  C   UNL A   1      42.565  30.178  35.232  1.00  0.00     0.074 A 
ATOM     72  C   UNL A   1      42.835  30.727  36.545  1.00  0.00     0.031 C 
ATOM     73  C   UNL A   1      43.321  29.218  34.638  1.00  0.00     0.034 A 
BRANCH  60  74
ATOM     74  C   UNL A   1      41.338  27.561  28.992  1.00  0.00     0.023 A 
ATOM     75  C   UNL A   1      42.340  27.765  28.026  1.00  0.00     0.031 A 
ATOM     76  C   UNL A   1      40.442  26.497  28.787  1.00  0.00     0.131 A 
ATOM     77  C   UNL A   1      42.362  26.986  26.859  1.00  0.00     0.055 A 
ATOM     78  C   UNL A   1      40.527  25.664  27.669  1.00  0.00     0.041 A 
ATOM     79  F   UNL A   1      39.454  26.257  29.663  1.00  0.00    -0.206 F 
ATOM     80  C   UNL A   1      41.480  25.919  26.686  1.00  0.00     0.022 A 
BRANCH  77  81
ATOM     81  S   UNL A   1      43.450  27.493  25.499  1.00  0.00     0.124 S 
ATOM     82  O   UNL A   1      42.481  27.950  24.504  1.00  0.00    -0.237 OA
ATOM     83  O   UNL A   1      44.265  28.535  26.120  1.00  0.00    -0.237 OA
ATOM     84  O   UNL A   1      44.161  26.270  25.152  1.00  0.00    -0.744 OA
ENDBRANCH  77  81
ENDBRANCH  60  74
BRANCH  61  85
ATOM     85  C   UNL A   1      39.628  33.447  36.942  1.00  0.00     0.023 A 
ATOM     86  C   UNL A   1      38.959  32.892  38.044  1.00  0.00     0.031 A 
ATOM     87  C   UNL A   1      39.998  34.801  37.008  1.00  0.00     0.131 A 
ATOM     88  C   UNL A   1      38.641  33.698  39.149  1.00  0.00     0.055 A 
ATOM     89  C   UNL A   1      39.723  35.587  38.130  1.00  0.00     0.041 A 
ATOM     90  F   UNL A   1      40.649  35.379  35.986  1.00  0.00    -0.206 F 
ATOM     91  C   UNL A   1      39.030  35.037  39.205  1.00  0.00     0.022 A 
BRANCH  88  92
ATOM     92  S   UNL A   1      37.645  32.984  40.485  1.00  0.00     0.124 S 
ATOM     93  O   UNL A   1      38.292  31.692  40.682  1.00  0.00    -0.237 OA
ATOM     94  O   UNL A   1      37.827  33.962  41.554  1.00  0.00    -0.237 OA
ATOM     95  O   UNL A   1      36.300  32.930  39.916  1.00  0.00    -0.744 OA
ENDBRANCH  88  92
ENDBRANCH  61  85
BRANCH  73  96
ATOM     96  C   UNL A   1      44.538  28.744  35.391  1.00  0.00     0.023 A 
ATOM     97  C   UNL A   1      44.461  27.712  36.342  1.00  0.00     0.031 A 
ATOM     98  C   UNL A   1      45.788  29.342  35.159  1.00  0.00     0.131 A 
ATOM     99  C   UNL A   1      45.604  27.349  37.070  1.00  0.00     0.055 A 
ATOM    100  C   UNL A   1      46.934  28.935  35.842  1.00  0.00     0.041 A 
ATOM    101  F   UNL A   1      45.917  30.332  34.262  1.00  0.00    -0.206 F 
ATOM    102  C   UNL A   1      46.843  27.942  36.814  1.00  0.00     0.022 A 
BRANCH  99 103
ATOM    103  S   UNL A   1      45.430  26.154  38.423  1.00  0.00     0.124 S 
ATOM    104  O   UNL A   1      45.123  24.923  37.703  1.00  0.00    -0.237 OA
ATOM    105  O   UNL A   1      46.742  26.211  39.059  1.00  0.00    -0.237 OA
ATOM    106  O   UNL A   1      44.331  26.697  39.219  1.00  0.00    -0.744 OA
ENDBRANCH  99 103
ENDBRANCH  73  96
ENDBRANCH  47  48
ENDBRANCH  39  42
ENDBRANCH  37  38
ENDBRANCH  36  37
ENDBRANCH   1  36
TORSDOF 18
ENDMDL
MODEL 2
REMARK VINA RESULT:     -13.0      2.629      7.726
REMARK SMILES CC1=CC[C@](C(=O)NCCCCNC(=O)c2ccc(-c3c4nc(c(-c5cc(S(=O)(=O)[O-])ccc5F)c5ccc([nH]5)c(-c5cc(S(=O)(=O)[O-])ccc5F)c5nc(c(-c6cc(S(=O)(=O)[O-])ccc6F)c6ccc3[nH]6)C=C5)C=C4)cc2)(C(=O)N/N=C/C2=C([O-])CC(C)(C)CC2=O)C[C@@H]1c1ccccc1
REMARK SMILES IDX 10 1 9 2 8 3 6 4 7 5 5 7 1 8 2 9 3 10 95 11 4 12 94 13 96 14
REMARK SMILES IDX 97 15 101 16 98 17 100 18 99 19 79 20 80 21 81 22 82 24
REMARK SMILES IDX 83 25 84 26 85 27 92 28 86 29 87 30 91 31 93 32 88 33 89 34
REMARK SMILES IDX 90 35 11 36 12 37 13 38 14 39 15 41 16 42 17 43 78 44 18 45
REMARK SMILES IDX 77 46 19 47 20 48 21 49 71 50 22 51 76 52 70 53 72 54 23 55
REMARK SMILES IDX 75 56 69 57 68 58 24 60 56 61 36 62 55 63 37 64 40 65 54 66
REMARK SMILES IDX 73 67 38 68 39 69 53 71 74 72 41 73 25 74 26 75 34 76 27 77
REMARK SMILES IDX 33 78 35 79 32 80 28 81 29 82 30 83 31 84 57 85 58 86 66 87
REMARK SMILES IDX 59 88 65 89 67 90 64 91 60 92 61 93 62 94 63 95 42 96 43 97
REMARK SMILES IDX 51 98 44 99 50 100 52 101 49 102 45 103 46 104 47 105 48 106
REMARK H PARENT 8 6 81 23 13 40 72 59 40 70
REMARK Flexibility Score: inf
ROOT
ATOM      1  C   UNL A   1      31.571  29.372  27.313  1.00  0.00     0.023 C 
ENDROOT
BRANCH   1   2
ATOM      2  C   UNL A   1      31.991  27.906  27.427  1.00  0.00     0.116 C 
BRANCH   2   3
ATOM      3  N   UNL A   1      30.856  27.035  27.207  1.00  0.00    -0.355 N 
ATOM      4  C   UNL A   1      30.671  25.907  26.481  1.00  0.00     0.236 C 
ATOM      5  O   UNL A   1      29.568  25.368  26.642  1.00  0.00    -0.274 OA
ATOM      6  H   UNL A   1      30.047  27.323  27.688  1.00  0.00     0.163 HD
BRANCH   4   7
ATOM      7  C   UNL A   1      31.748  25.231  25.611  1.00  0.00     0.133 C 
ATOM      8  C   UNL A   1      35.947  23.765  25.061  1.00  0.00     0.040 C 
ATOM      9  C   UNL A   1      34.532  24.233  25.267  1.00  0.00    -0.070 C 
ATOM     10  C   UNL A   1      33.769  23.718  26.247  1.00  0.00    -0.026 C 
ATOM     11  C   UNL A   1      34.033  25.347  24.360  1.00  0.00     0.046 C 
ATOM     12  C   UNL A   1      32.370  24.165  26.565  1.00  0.00     0.054 C 
ATOM     13  C   UNL A   1      32.874  26.129  25.041  1.00  0.00     0.040 C 
BRANCH  11  14
ATOM     14  C   UNL A   1      33.693  24.930  22.931  1.00  0.00    -0.041 A 
ATOM     15  C   UNL A   1      33.280  25.912  22.015  1.00  0.00     0.004 A 
ATOM     16  C   UNL A   1      33.712  23.594  22.497  1.00  0.00     0.004 A 
ATOM     17  C   UNL A   1      32.856  25.569  20.730  1.00  0.00     0.000 A 
ATOM     18  C   UNL A   1      33.301  23.251  21.206  1.00  0.00     0.000 A 
ATOM     19  C   UNL A   1      32.863  24.238  20.327  1.00  0.00     0.000 A 
ENDBRANCH  11  14
BRANCH   7  20
ATOM     20  C   UNL A   1      30.994  24.529  24.445  1.00  0.00     0.256 C 
ATOM     21  O   UNL A   1      31.008  23.299  24.305  1.00  0.00    -0.272 OA
ATOM     22  N   UNL A   1      30.264  25.257  23.518  1.00  0.00    -0.246 N 
ATOM     23  H   UNL A   1      29.683  24.732  22.921  1.00  0.00     0.193 HD
BRANCH  22  24
ATOM     24  N   UNL A   1      30.248  26.610  23.330  1.00  0.00    -0.181 NA
ATOM     25  C   UNL A   1      29.072  27.157  23.312  1.00  0.00     0.144 C 
BRANCH  25  26
ATOM     26  C   UNL A   1      28.871  28.620  23.145  1.00  0.00     0.026 C 
ATOM     27  C   UNL A   1      27.660  29.189  23.282  1.00  0.00    -0.119 C 
ATOM     28  C   UNL A   1      30.045  29.494  22.913  1.00  0.00     0.164 C 
ATOM     29  O   UNL A   1      26.493  28.469  23.473  1.00  0.00    -0.875 OA
ATOM     30  C   UNL A   1      27.463  30.685  23.224  1.00  0.00     0.026 C 
ATOM     31  C   UNL A   1      29.843  30.923  22.447  1.00  0.00     0.087 C 
ATOM     32  O   UNL A   1      31.178  29.043  23.082  1.00  0.00    -0.294 OA
ATOM     33  C   UNL A   1      28.387  31.348  22.187  1.00  0.00    -0.025 C 
ATOM     34  C   UNL A   1      27.937  30.963  20.759  1.00  0.00     0.012 C 
ATOM     35  C   UNL A   1      28.313  32.884  22.301  1.00  0.00     0.012 C 
ENDBRANCH  25  26
ENDBRANCH  22  24
ENDBRANCH   7  20
ENDBRANCH   4   7
ENDBRANCH   2   3
ENDBRANCH   1   2
BRANCH   1  36
ATOM     36  C   UNL A   1      32.340  30.089  26.201  1.00  0.00     0.023 C 
BRANCH  36  37
ATOM     37  C   UNL A   1      33.766  30.440  26.598  1.00  0.00     0.116 C 
BRANCH  37  38
ATOM     38  N   UNL A   1      33.805  31.672  27.370  1.00  0.00    -0.352 N 
ATOM     39  C   UNL A   1      34.577  32.052  28.443  1.00  0.00     0.251 C 
ATOM     40  H   UNL A   1      33.165  32.357  27.071  1.00  0.00     0.163 HD
ATOM     41  O   UNL A   1      34.204  33.022  29.103  1.00  0.00    -0.269 OA
BRANCH  39  42
ATOM     42  C   UNL A   1      35.813  31.325  28.837  1.00  0.00     0.039 A 
ATOM     43  C   UNL A   1      35.696  30.073  29.453  1.00  0.00     0.014 A 
ATOM     44  C   UNL A   1      37.081  31.882  28.696  1.00  0.00     0.014 A 
ATOM     45  C   UNL A   1      36.839  29.388  29.891  1.00  0.00     0.010 A 
ATOM     46  C   UNL A   1      38.220  31.139  28.988  1.00  0.00     0.010 A 
ATOM     47  C   UNL A   1      38.118  29.906  29.640  1.00  0.00    -0.014 A 
BRANCH  47  48
ATOM     48  C   UNL A   1      39.364  29.244  30.125  1.00  0.00     0.031 A 
ATOM     49  C   UNL A   1      40.059  29.777  31.360  1.00  0.00     0.074 A 
ATOM     50  C   UNL A   1      39.919  28.234  29.428  1.00  0.00     0.049 A 
ATOM     51  N   UNL A   1      41.238  29.487  31.846  1.00  0.00    -0.248 NA
ATOM     52  C   UNL A   1      39.350  30.827  32.112  1.00  0.00     0.031 C 
ATOM     53  C   UNL A   1      39.378  27.654  28.196  1.00  0.00     0.029 A 
ATOM     54  N   UNL A   1      41.070  27.520  29.649  1.00  0.00    -0.354 N 
ATOM     55  C   UNL A   1      41.434  30.356  32.917  1.00  0.00     0.074 A 
ATOM     56  C   UNL A   1      40.282  31.230  32.961  1.00  0.00     0.031 C 
ATOM     57  C   UNL A   1      40.178  26.654  27.791  1.00  0.00     0.029 A 
ATOM     58  C   UNL A   1      41.316  26.555  28.699  1.00  0.00     0.049 A 
ATOM     59  H   UNL A   1      41.665  27.682  30.416  1.00  0.00     0.167 HD
ATOM     60  C   UNL A   1      42.461  30.404  33.801  1.00  0.00     0.034 A 
ATOM     61  C   UNL A   1      42.348  25.700  28.565  1.00  0.00     0.034 A 
ATOM     62  C   UNL A   1      43.564  29.474  33.788  1.00  0.00     0.049 A 
ATOM     63  C   UNL A   1      43.457  25.735  29.586  1.00  0.00     0.074 A 
ATOM     64  C   UNL A   1      44.614  29.367  34.681  1.00  0.00     0.029 A 
ATOM     65  N   UNL A   1      43.749  28.479  32.835  1.00  0.00    -0.354 N 
ATOM     66  N   UNL A   1      43.612  26.542  30.611  1.00  0.00    -0.248 NA
ATOM     67  C   UNL A   1      44.524  24.738  29.438  1.00  0.00     0.031 C 
ATOM     68  C   UNL A   1      45.463  28.344  34.240  1.00  0.00     0.029 A 
ATOM     69  C   UNL A   1      44.905  27.766  33.110  1.00  0.00     0.049 A 
ATOM     70  H   UNL A   1      43.147  28.306  32.075  1.00  0.00     0.167 HD
ATOM     71  C   UNL A   1      44.779  26.128  31.246  1.00  0.00     0.074 A 
ATOM     72  C   UNL A   1      45.277  24.991  30.498  1.00  0.00     0.031 C 
ATOM     73  C   UNL A   1      45.387  26.639  32.348  1.00  0.00     0.034 A 
BRANCH  60  74
ATOM     74  C   UNL A   1      42.440  31.500  34.845  1.00  0.00     0.023 A 
ATOM     75  C   UNL A   1      41.488  31.524  35.880  1.00  0.00     0.031 A 
ATOM     76  C   UNL A   1      43.363  32.560  34.783  1.00  0.00     0.131 A 
ATOM     77  C   UNL A   1      41.417  32.625  36.746  1.00  0.00     0.055 A 
ATOM     78  C   UNL A   1      43.348  33.608  35.708  1.00  0.00     0.041 A 
ATOM     79  F   UNL A   1      44.287  32.606  33.812  1.00  0.00    -0.206 F 
ATOM     80  C   UNL A   1      42.357  33.655  36.685  1.00  0.00     0.022 A 
BRANCH  77  81
ATOM     81  S   UNL A   1      39.981  32.773  37.844  1.00  0.00     0.124 S 
ATOM     82  O   UNL A   1      39.105  31.724  37.323  1.00  0.00    -0.237 OA
ATOM     83  O   UNL A   1      40.564  32.520  39.160  1.00  0.00    -0.237 OA
ATOM     84  O   UNL A   1      39.513  34.135  37.620  1.00  0.00    -0.744 OA
ENDBRANCH  77  81
ENDBRANCH  60  74
BRANCH  61  85
ATOM     85  C   UNL A   1      42.386  24.736  27.428  1.00  0.00     0.023 A 
ATOM     86  C   UNL A   1      41.631  23.554  27.461  1.00  0.00     0.031 A 
ATOM     87  C   UNL A   1      43.196  24.970  26.303  1.00  0.00     0.131 A 
ATOM     88  C   UNL A   1      41.731  22.628  26.411  1.00  0.00     0.055 A 
ATOM     89  C   UNL A   1      43.255  24.069  25.237  1.00  0.00     0.041 A 
ATOM     90  F   UNL A   1      43.931  26.089  26.216  1.00  0.00    -0.206 F 
ATOM     91  C   UNL A   1      42.528  22.883  25.294  1.00  0.00     0.022 A 
BRANCH  88  92
ATOM     92  S   UNL A   1      40.857  21.046  26.562  1.00  0.00     0.124 S 
ATOM     93  O   UNL A   1      41.750  20.142  25.847  1.00  0.00    -0.237 OA
ATOM     94  O   UNL A   1      40.793  20.873  28.010  1.00  0.00    -0.237 OA
ATOM     95  O   UNL A   1      39.574  21.303  25.910  1.00  0.00    -0.744 OA
ENDBRANCH  88  92
ENDBRANCH  61  85
BRANCH  73  96
ATOM     96  C   UNL A   1      46.629  25.934  32.831  1.00  0.00     0.023 A 
ATOM     97  C   UNL A   1      46.564  24.853  33.726  1.00  0.00     0.031 A 
ATOM     98  C   UNL A   1      47.896  26.362  32.396  1.00  0.00     0.131 A 
ATOM     99  C   UNL A   1      47.748  24.271  34.202  1.00  0.00     0.055 A 
ATOM    100  C   UNL A   1      49.067  25.739  32.826  1.00  0.00     0.041 A 
ATOM    101  F   UNL A   1      48.014  27.390  31.542  1.00  0.00    -0.206 F 
ATOM    102  C   UNL A   1      48.998  24.696  33.746  1.00  0.00     0.022 A 
BRANCH  99 103
ATOM    103  S   UNL A   1      47.635  23.010  35.501  1.00  0.00     0.124 S 
ATOM    104  O   UNL A   1      46.568  23.538  36.344  1.00  0.00    -0.237 OA
ATOM    105  O   UNL A   1      47.311  21.808  34.741  1.00  0.00    -0.237 OA
ATOM    106  O   UNL A   1      48.965  23.021  36.106  1.00  0.00    -0.744 OA
ENDBRANCH  99 103
ENDBRANCH  73  96
ENDBRANCH  47  48
ENDBRANCH  39  42
ENDBRANCH  37  38
ENDBRANCH  36  37
ENDBRANCH   1  36
TORSDOF 18
ENDMDL
MODEL 3
REMARK VINA RESULT:     -12.8      2.108      2.524
REMARK SMILES CC1=CC[C@](C(=O)NCCCCNC(=O)c2ccc(-c3c4nc(c(-c5cc(S(=O)(=O)[O-])ccc5F)c5ccc([nH]5)c(-c5cc(S(=O)(=O)[O-])ccc5F)c5nc(c(-c6cc(S(=O)(=O)[O-])ccc6F)c6ccc3[nH]6)C=C5)C=C4)cc2)(C(=O)N/N=C/C2=C([O-])CC(C)(C)CC2=O)C[C@@H]1c1ccccc1
REMARK SMILES IDX 10 1 9 2 8 3 6 4 7 5 5 7 1 8 2 9 3 10 95 11 4 12 94 13 96 14
REMARK SMILES IDX 97 15 101 16 98 17 100 18 99 19 79 20 80 21 81 22 82 24
REMARK SMILES IDX 83 25 84 26 85 27 92 28 86 29 87 30 91 31 93 32 88 33 89 34
REMARK SMILES IDX 90 35 11 36 12 37 13 38 14 39 15 41 16 42 17 43 78 44 18 45
REMARK SMILES IDX 77 46 19 47 20 48 21 49 71 50 22 51 76 52 70 53 72 54 23 55
REMARK SMILES IDX 75 56 69 57 68 58 24 60 56 61 36 62 55 63 37 64 40 65 54 66
REMARK SMILES IDX 73 67 38 68 39 69 53 71 74 72 41 73 25 74 26 75 34 76 27 77
REMARK SMILES IDX 33 78 35 79 32 80 28 81 29 82 30 83 31 84 57 85 58 86 66 87
REMARK SMILES IDX 59 88 65 89 67 90 64 91 60 92 61 93 62 94 63 95 42 96 43 97
REMARK SMILES IDX 51 98 44 99 50 100 52 101 49 102 45 103 46 104 47 105 48 106
REMARK H PARENT 8 6 81 23 13 40 72 59 40 70
REMARK Flexibility Score: inf
ROOT
ATOM      1  C   UNL A   1      33.756  29.163  25.802  1.00  0.00     0.023 C 
ENDROOT
BRANCH   1   2
ATOM      2  C   UNL A   1      33.459  27.705  25.446  1.00  0.00     0.116 C 
BRANCH   2   3
ATOM      3  N   UNL A   1      32.186  27.297  26.001  1.00  0.00    -0.355 N 
ATOM      4  C   UNL A   1      31.599  26.094  26.207  1.00  0.00     0.236 C 
ATOM      5  O   UNL A   1      30.530  26.144  26.829  1.00  0.00    -0.274 OA
ATOM      6  H   UNL A   1      31.628  28.054  26.290  1.00  0.00     0.163 HD
BRANCH   4   7
ATOM      7  C   UNL A   1      32.221  24.734  25.836  1.00  0.00     0.133 C 
ATOM      8  C   UNL A   1      35.572  21.775  26.152  1.00  0.00     0.040 C 
ATOM      9  C   UNL A   1      34.439  22.762  26.077  1.00  0.00    -0.070 C 
ATOM     10  C   UNL A   1      33.766  23.129  27.182  1.00  0.00    -0.026 C 
ATOM     11  C   UNL A   1      34.134  23.363  24.713  1.00  0.00     0.046 C 
ATOM     12  C   UNL A   1      32.665  24.150  27.213  1.00  0.00     0.054 C 
ATOM     13  C   UNL A   1      33.430  24.740  24.868  1.00  0.00     0.040 C 
BRANCH  11  14
ATOM     14  C   UNL A   1      33.404  22.442  23.738  1.00  0.00    -0.041 A 
ATOM     15  C   UNL A   1      33.008  22.951  22.489  1.00  0.00     0.004 A 
ATOM     16  C   UNL A   1      33.050  21.119  24.050  1.00  0.00     0.004 A 
ATOM     17  C   UNL A   1      32.246  22.184  21.605  1.00  0.00     0.000 A 
ATOM     18  C   UNL A   1      32.299  20.347  23.160  1.00  0.00     0.000 A 
ATOM     19  C   UNL A   1      31.889  20.883  21.943  1.00  0.00     0.000 A 
ENDBRANCH  11  14
BRANCH   7  20
ATOM     20  C   UNL A   1      31.071  23.873  25.236  1.00  0.00     0.256 C 
ATOM     21  O   UNL A   1      30.924  22.681  25.536  1.00  0.00    -0.272 OA
ATOM     22  N   UNL A   1      30.156  24.415  24.347  1.00  0.00    -0.246 N 
ATOM     23  H   UNL A   1      29.368  23.858  24.150  1.00  0.00     0.193 HD
BRANCH  22  24
ATOM     24  N   UNL A   1      30.208  25.623  23.711  1.00  0.00    -0.181 NA
ATOM     25  C   UNL A   1      29.168  26.382  23.867  1.00  0.00     0.144 C 
BRANCH  25  26
ATOM     26  C   UNL A   1      29.069  27.738  23.269  1.00  0.00     0.026 C 
ATOM     27  C   UNL A   1      30.134  28.350  22.720  1.00  0.00    -0.119 C 
ATOM     28  C   UNL A   1      27.747  28.403  23.188  1.00  0.00     0.164 C 
ATOM     29  O   UNL A   1      31.418  27.836  22.762  1.00  0.00    -0.875 OA
ATOM     30  C   UNL A   1      30.020  29.679  22.012  1.00  0.00     0.026 C 
ATOM     31  C   UNL A   1      27.663  29.883  22.865  1.00  0.00     0.087 C 
ATOM     32  O   UNL A   1      26.726  27.749  23.406  1.00  0.00    -0.294 OA
ATOM     33  C   UNL A   1      29.007  30.613  22.698  1.00  0.00    -0.025 C 
ATOM     34  C   UNL A   1      29.563  31.082  24.062  1.00  0.00     0.012 C 
ATOM     35  C   UNL A   1      28.762  31.869  21.838  1.00  0.00     0.012 C 
ENDBRANCH  25  26
ENDBRANCH  22  24
ENDBRANCH   7  20
ENDBRANCH   4   7
ENDBRANCH   2   3
ENDBRANCH   1   2
BRANCH   1  36
ATOM     36  C   UNL A   1      32.549  30.062  25.523  1.00  0.00     0.023 C 
BRANCH  36  37
ATOM     37  C   UNL A   1      31.944  30.651  26.788  1.00  0.00     0.116 C 
BRANCH  37  38
ATOM     38  N   UNL A   1      32.052  32.101  26.793  1.00  0.00    -0.352 N 
ATOM     39  C   UNL A   1      32.906  32.950  27.457  1.00  0.00     0.251 C 
ATOM     40  H   UNL A   1      31.397  32.557  26.217  1.00  0.00     0.163 HD
ATOM     41  O   UNL A   1      32.591  34.139  27.530  1.00  0.00    -0.269 OA
BRANCH  39  42
ATOM     42  C   UNL A   1      34.161  32.481  28.101  1.00  0.00     0.039 A 
ATOM     43  C   UNL A   1      34.239  31.158  28.553  1.00  0.00     0.014 A 
ATOM     44  C   UNL A   1      35.234  33.333  28.350  1.00  0.00     0.014 A 
ATOM     45  C   UNL A   1      35.385  30.701  29.217  1.00  0.00     0.010 A 
ATOM     46  C   UNL A   1      36.427  32.842  28.868  1.00  0.00     0.010 A 
ATOM     47  C   UNL A   1      36.505  31.534  29.360  1.00  0.00    -0.014 A 
BRANCH  47  48
ATOM     48  C   UNL A   1      37.731  31.116  30.099  1.00  0.00     0.031 A 
ATOM     49  C   UNL A   1      38.685  30.128  29.462  1.00  0.00     0.074 A 
ATOM     50  C   UNL A   1      37.952  31.545  31.357  1.00  0.00     0.049 A 
ATOM     51  N   UNL A   1      39.697  29.486  29.987  1.00  0.00    -0.248 NA
ATOM     52  C   UNL A   1      38.420  29.770  28.057  1.00  0.00     0.031 C 
ATOM     53  C   UNL A   1      37.090  32.461  32.106  1.00  0.00     0.029 A 
ATOM     54  N   UNL A   1      38.967  31.256  32.235  1.00  0.00    -0.354 N 
ATOM     55  C   UNL A   1      40.146  28.611  29.000  1.00  0.00     0.074 A 
ATOM     56  C   UNL A   1      39.250  28.755  27.874  1.00  0.00     0.031 C 
ATOM     57  C   UNL A   1      37.629  32.685  33.316  1.00  0.00     0.029 A 
ATOM     58  C   UNL A   1      38.843  31.887  33.452  1.00  0.00     0.049 A 
ATOM     59  H   UNL A   1      39.714  30.653  32.016  1.00  0.00     0.167 HD
ATOM     60  C   UNL A   1      41.222  27.785  29.017  1.00  0.00     0.034 A 
ATOM     61  C   UNL A   1      39.612  31.820  34.557  1.00  0.00     0.034 A 
ATOM     62  C   UNL A   1      42.148  27.710  30.120  1.00  0.00     0.049 A 
ATOM     63  C   UNL A   1      40.832  30.933  34.539  1.00  0.00     0.074 A 
ATOM     64  C   UNL A   1      43.319  26.980  30.217  1.00  0.00     0.029 A 
ATOM     65  N   UNL A   1      42.013  28.405  31.316  1.00  0.00    -0.354 N 
ATOM     66  N   UNL A   1      41.260  30.136  33.587  1.00  0.00    -0.248 NA
ATOM     67  C   UNL A   1      41.676  30.946  35.740  1.00  0.00     0.031 C 
ATOM     68  C   UNL A   1      43.862  27.191  31.490  1.00  0.00     0.029 A 
ATOM     69  C   UNL A   1      43.068  28.108  32.162  1.00  0.00     0.049 A 
ATOM     70  H   UNL A   1      41.273  29.019  31.531  1.00  0.00     0.167 HD
ATOM     71  C   UNL A   1      42.441  29.576  34.066  1.00  0.00     0.074 A 
ATOM     72  C   UNL A   1      42.663  30.140  35.382  1.00  0.00     0.031 C 
ATOM     73  C   UNL A   1      43.269  28.677  33.473  1.00  0.00     0.034 A 
BRANCH  60  74
ATOM     74  C   UNL A   1      41.444  26.895  27.813  1.00  0.00     0.023 A 
ATOM     75  C   UNL A   1      40.992  25.563  27.779  1.00  0.00     0.031 A 
ATOM     76  C   UNL A   1      42.152  27.372  26.695  1.00  0.00     0.131 A 
ATOM     77  C   UNL A   1      41.334  24.731  26.702  1.00  0.00     0.055 A 
ATOM     78  C   UNL A   1      42.407  26.566  25.583  1.00  0.00     0.041 A 
ATOM     79  F   UNL A   1      42.624  28.628  26.670  1.00  0.00    -0.206 F 
ATOM     80  C   UNL A   1      42.015  25.230  25.590  1.00  0.00     0.022 A 
BRANCH  77  81
ATOM     81  S   UNL A   1      41.021  22.951  26.849  1.00  0.00     0.124 S 
ATOM     82  O   UNL A   1      41.624  22.654  28.148  1.00  0.00    -0.237 OA
ATOM     83  O   UNL A   1      39.562  22.882  26.795  1.00  0.00    -0.237 OA
ATOM     84  O   UNL A   1      41.715  22.381  25.702  1.00  0.00    -0.744 OA
ENDBRANCH  77  81
ENDBRANCH  60  74
BRANCH  61  85
ATOM     85  C   UNL A   1      39.260  32.611  35.770  1.00  0.00     0.023 A 
ATOM     86  C   UNL A   1      39.701  33.936  35.918  1.00  0.00     0.031 A 
ATOM     87  C   UNL A   1      38.498  32.049  36.809  1.00  0.00     0.131 A 
ATOM     88  C   UNL A   1      39.415  34.642  37.097  1.00  0.00     0.055 A 
ATOM     89  C   UNL A   1      38.174  32.773  37.960  1.00  0.00     0.041 A 
ATOM     90  F   UNL A   1      38.043  30.791  36.714  1.00  0.00    -0.206 F 
ATOM     91  C   UNL A   1      38.644  34.074  38.112  1.00  0.00     0.022 A 
BRANCH  88  92
ATOM     92  S   UNL A   1      40.130  36.294  37.314  1.00  0.00     0.124 S 
ATOM     93  O   UNL A   1      39.971  36.865  35.981  1.00  0.00    -0.237 OA
ATOM     94  O   UNL A   1      39.279  36.857  38.359  1.00  0.00    -0.237 OA
ATOM     95  O   UNL A   1      41.507  36.019  37.716  1.00  0.00    -0.744 OA
ENDBRANCH  88  92
ENDBRANCH  61  85
BRANCH  73  96
ATOM     96  C   UNL A   1      44.514  28.292  34.232  1.00  0.00     0.023 A 
ATOM     97  C   UNL A   1      44.541  27.180  35.090  1.00  0.00     0.031 A 
ATOM     98  C   UNL A   1      45.685  29.058  34.099  1.00  0.00     0.131 A 
ATOM     99  C   UNL A   1      45.700  26.898  35.829  1.00  0.00     0.055 A 
ATOM    100  C   UNL A   1      46.854  28.737  34.790  1.00  0.00     0.041 A 
ATOM    101  F   UNL A   1      45.713  30.131  33.292  1.00  0.00    -0.206 F 
ATOM    102  C   UNL A   1      46.861  27.660  35.672  1.00  0.00     0.022 A 
BRANCH  99 103
ATOM    103  S   UNL A   1      45.640  25.578  37.070  1.00  0.00     0.124 S 
ATOM    104  O   UNL A   1      45.446  24.392  36.242  1.00  0.00    -0.237 OA
ATOM    105  O   UNL A   1      46.942  25.698  37.717  1.00  0.00    -0.237 OA
ATOM    106  O   UNL A   1      44.497  25.944  37.905  1.00  0.00    -0.744 OA
ENDBRANCH  99 103
ENDBRANCH  73  96
ENDBRANCH  47  48
ENDBRANCH  39  42
ENDBRANCH  37  38
ENDBRANCH  36  37
ENDBRANCH   1  36
TORSDOF 18
ENDMDL
