MODEL 1
REMARK VINA RESULT:     -12.1      0.000      0.000
REMARK SMILES N#CCCn1cc(C(=O)NCCCCNC(=O)c2ccc(-c3c4nc(c(-c5cc(S(=O)(=O)[O-])ccc5F)c5ccc([nH]5)c(-c5cc(S(=O)(=O)[O-])ccc5F)c5nc(c(-c6cc(S(=O)(=O)[O-])ccc6F)c6ccc3[nH]6)C=C5)C=C4)cc2)c(-c2cccc([N+](=O)[O-])c2)n1
REMARK SMILES IDX 12 1 11 2 10 3 8 4 9 5 7 7 5 8 6 9 91 10 81 11 4 12 3 13
REMARK SMILES IDX 2 14 1 15 82 16 83 17 90 18 84 19 86 20 85 21 87 22 88 23
REMARK SMILES IDX 89 24 13 25 14 26 15 27 16 28 17 30 18 31 19 32 80 33 20 34
REMARK SMILES IDX 79 35 21 36 22 37 23 38 73 39 24 40 78 41 72 42 74 43 25 44
REMARK SMILES IDX 77 45 71 46 70 47 26 49 58 50 38 51 57 52 39 53 42 54 56 55
REMARK SMILES IDX 75 56 40 57 41 58 55 60 76 61 43 62 27 63 28 64 36 65 29 66
REMARK SMILES IDX 35 67 37 68 34 69 30 70 31 71 32 72 33 73 59 74 60 75 68 76
REMARK SMILES IDX 61 77 67 78 69 79 66 80 62 81 63 82 64 83 65 84 44 85 45 86
REMARK SMILES IDX 53 87 46 88 52 89 54 90 51 91 47 92 48 93 49 94 50 95
REMARK H PARENT 10 6 15 29 74 48 42 59
REMARK Flexibility Score: inf
ROOT
ATOM      1  C   UNL A   1      36.338  22.844  25.790  1.00  0.00     0.023 C 
ENDROOT
BRANCH   1   2
ATOM      2  C   UNL A   1      36.120  21.873  24.623  1.00  0.00     0.116 C 
BRANCH   2   3
ATOM      3  N   UNL A   1      35.557  22.539  23.466  1.00  0.00    -0.352 N 
ATOM      4  C   UNL A   1      34.304  23.031  23.196  1.00  0.00     0.255 C 
ATOM      5  O   UNL A   1      34.167  23.594  22.113  1.00  0.00    -0.269 OA
ATOM      6  H   UNL A   1      36.198  22.661  22.729  1.00  0.00     0.163 HD
BRANCH   4   7
ATOM      7  C   UNL A   1      33.208  22.911  24.153  1.00  0.00     0.085 A 
ATOM      8  N   UNL A   1      31.565  23.350  25.549  1.00  0.00    -0.270 N 
ATOM      9  C   UNL A   1      32.727  23.843  25.047  1.00  0.00     0.123 A 
ATOM     10  N   UNL A   1      31.391  22.047  25.272  1.00  0.00    -0.172 NA
ATOM     11  C   UNL A   1      32.399  21.752  24.428  1.00  0.00     0.105 A 
BRANCH   8  12
ATOM     12  C   UNL A   1      30.574  24.070  26.333  1.00  0.00     0.159 C 
BRANCH  12  13
ATOM     13  C   UNL A   1      30.581  25.594  26.164  1.00  0.00     0.144 C 
BRANCH  13  14
ATOM     14  C   UNL A   1      29.766  26.011  24.950  1.00  0.00     0.064 C 
ATOM     15  N   UNL A   1      29.090  26.357  23.943  1.00  0.00    -0.198 NA
ENDBRANCH  13  14
ENDBRANCH  12  13
ENDBRANCH   8  12
BRANCH  11  16
ATOM     16  C   UNL A   1      32.602  20.391  23.932  1.00  0.00     0.010 A 
ATOM     17  C   UNL A   1      32.227  20.087  22.612  1.00  0.00     0.011 A 
ATOM     18  C   UNL A   1      33.118  19.381  24.750  1.00  0.00     0.096 A 
ATOM     19  C   UNL A   1      32.296  18.782  22.126  1.00  0.00     0.008 A 
ATOM     20  C   UNL A   1      33.193  18.070  24.251  1.00  0.00     0.270 A 
ATOM     21  C   UNL A   1      32.771  17.766  22.948  1.00  0.00     0.085 A 
BRANCH  20  22
ATOM     22  N   UNL A   1      33.721  16.992  25.097  1.00  0.00     0.062 N 
ATOM     23  O   UNL A   1      34.919  16.695  24.971  1.00  0.00    -0.258 OA
ATOM     24  O   UNL A   1      32.951  16.465  25.911  1.00  0.00    -0.258 OA
ENDBRANCH  20  22
ENDBRANCH  11  16
ENDBRANCH   4   7
ENDBRANCH   2   3
ENDBRANCH   1   2
BRANCH   1  25
ATOM     25  C   UNL A   1      37.376  23.948  25.542  1.00  0.00     0.023 C 
BRANCH  25  26
ATOM     26  C   UNL A   1      38.449  24.080  26.617  1.00  0.00     0.116 C 
BRANCH  26  27
ATOM     27  N   UNL A   1      39.798  24.235  26.066  1.00  0.00    -0.352 N 
ATOM     28  C   UNL A   1      40.602  25.364  26.072  1.00  0.00     0.251 C 
ATOM     29  H   UNL A   1      40.181  23.436  25.636  1.00  0.00     0.163 HD
ATOM     30  O   UNL A   1      41.504  25.492  25.254  1.00  0.00    -0.269 OA
BRANCH  28  31
ATOM     31  C   UNL A   1      40.353  26.393  27.097  1.00  0.00     0.039 A 
ATOM     32  C   UNL A   1      40.041  26.084  28.424  1.00  0.00     0.014 A 
ATOM     33  C   UNL A   1      40.498  27.712  26.690  1.00  0.00     0.014 A 
ATOM     34  C   UNL A   1      39.967  27.120  29.358  1.00  0.00     0.010 A 
ATOM     35  C   UNL A   1      40.615  28.697  27.630  1.00  0.00     0.010 A 
ATOM     36  C   UNL A   1      40.271  28.425  28.951  1.00  0.00    -0.014 A 
BRANCH  36  37
ATOM     37  C   UNL A   1      40.301  29.556  29.873  1.00  0.00     0.031 A 
ATOM     38  C   UNL A   1      38.997  30.231  30.118  1.00  0.00     0.074 A 
ATOM     39  C   UNL A   1      41.367  29.743  30.685  1.00  0.00     0.049 A 
ATOM     40  N   UNL A   1      38.684  31.460  29.871  1.00  0.00    -0.248 NA
ATOM     41  C   UNL A   1      37.856  29.423  30.579  1.00  0.00     0.031 C 
ATOM     42  C   UNL A   1      42.590  28.931  30.769  1.00  0.00     0.029 A 
ATOM     43  N   UNL A   1      41.508  30.589  31.738  1.00  0.00    -0.354 N 
ATOM     44  C   UNL A   1      37.386  31.645  30.346  1.00  0.00     0.074 A 
ATOM     45  C   UNL A   1      36.869  30.322  30.574  1.00  0.00     0.031 C 
ATOM     46  C   UNL A   1      43.188  29.137  31.960  1.00  0.00     0.029 A 
ATOM     47  C   UNL A   1      42.500  30.217  32.643  1.00  0.00     0.049 A 
ATOM     48  H   UNL A   1      40.955  31.395  31.853  1.00  0.00     0.167 HD
ATOM     49  C   UNL A   1      36.933  32.881  30.708  1.00  0.00     0.034 A 
ATOM     50  C   UNL A   1      42.715  30.725  33.886  1.00  0.00     0.034 A 
ATOM     51  C   UNL A   1      37.867  33.903  30.285  1.00  0.00     0.049 A 
ATOM     52  C   UNL A   1      42.064  32.062  33.906  1.00  0.00     0.074 A 
ATOM     53  C   UNL A   1      38.367  34.308  29.063  1.00  0.00     0.029 A 
ATOM     54  N   UNL A   1      38.734  34.412  31.230  1.00  0.00    -0.354 N 
ATOM     55  N   UNL A   1      42.449  33.051  33.142  1.00  0.00    -0.248 NA
ATOM     56  C   UNL A   1      40.683  32.148  34.364  1.00  0.00     0.031 C 
ATOM     57  C   UNL A   1      39.748  34.564  29.308  1.00  0.00     0.029 A 
ATOM     58  C   UNL A   1      39.989  34.403  30.675  1.00  0.00     0.049 A 
ATOM     59  H   UNL A   1      38.496  34.725  32.133  1.00  0.00     0.167 HD
ATOM     60  C   UNL A   1      41.276  33.616  32.662  1.00  0.00     0.074 A 
ATOM     61  C   UNL A   1      40.224  33.094  33.537  1.00  0.00     0.031 C 
ATOM     62  C   UNL A   1      41.216  34.202  31.427  1.00  0.00     0.034 A 
BRANCH  49  63
ATOM     63  C   UNL A   1      35.852  33.198  31.725  1.00  0.00     0.023 A 
ATOM     64  C   UNL A   1      34.746  33.944  31.264  1.00  0.00     0.031 A 
ATOM     65  C   UNL A   1      35.954  33.069  33.126  1.00  0.00     0.131 A 
ATOM     66  C   UNL A   1      33.902  34.627  32.155  1.00  0.00     0.055 A 
ATOM     67  C   UNL A   1      35.066  33.692  34.012  1.00  0.00     0.041 A 
ATOM     68  F   UNL A   1      36.951  32.412  33.725  1.00  0.00    -0.206 F 
ATOM     69  C   UNL A   1      34.057  34.510  33.531  1.00  0.00     0.022 A 
BRANCH  66  70
ATOM     70  S   UNL A   1      32.730  35.829  31.473  1.00  0.00     0.124 S 
ATOM     71  O   UNL A   1      32.456  35.261  30.158  1.00  0.00    -0.237 OA
ATOM     72  O   UNL A   1      31.641  35.768  32.442  1.00  0.00    -0.237 OA
ATOM     73  O   UNL A   1      33.491  37.076  31.467  1.00  0.00    -0.744 OA
ENDBRANCH  66  70
ENDBRANCH  49  63
BRANCH  50  74
ATOM     74  C   UNL A   1      43.193  29.980  35.087  1.00  0.00     0.023 A 
ATOM     75  C   UNL A   1      42.604  28.784  35.548  1.00  0.00     0.031 A 
ATOM     76  C   UNL A   1      44.412  30.356  35.703  1.00  0.00     0.131 A 
ATOM     77  C   UNL A   1      43.221  28.035  36.582  1.00  0.00     0.055 A 
ATOM     78  C   UNL A   1      45.010  29.619  36.730  1.00  0.00     0.041 A 
ATOM     79  F   UNL A   1      45.111  31.417  35.271  1.00  0.00    -0.206 F 
ATOM     80  C   UNL A   1      44.419  28.449  37.169  1.00  0.00     0.022 A 
BRANCH  77  81
ATOM     81  S   UNL A   1      42.516  26.440  37.120  1.00  0.00     0.124 S 
ATOM     82  O   UNL A   1      43.172  26.227  38.405  1.00  0.00    -0.237 OA
ATOM     83  O   UNL A   1      41.087  26.726  37.161  1.00  0.00    -0.237 OA
ATOM     84  O   UNL A   1      42.921  25.512  36.063  1.00  0.00    -0.744 OA
ENDBRANCH  77  81
ENDBRANCH  50  74
BRANCH  62  85
ATOM     85  C   UNL A   1      42.508  34.453  30.671  1.00  0.00     0.023 A 
ATOM     86  C   UNL A   1      42.934  33.720  29.539  1.00  0.00     0.031 A 
ATOM     87  C   UNL A   1      43.237  35.607  31.010  1.00  0.00     0.131 A 
ATOM     88  C   UNL A   1      44.051  34.154  28.797  1.00  0.00     0.055 A 
ATOM     89  C   UNL A   1      44.326  36.046  30.259  1.00  0.00     0.041 A 
ATOM     90  F   UNL A   1      42.863  36.365  32.054  1.00  0.00    -0.206 F 
ATOM     91  C   UNL A   1      44.739  35.320  29.150  1.00  0.00     0.022 A 
BRANCH  88  92
ATOM     92  S   UNL A   1      44.631  33.209  27.349  1.00  0.00     0.124 S 
ATOM     93  O   UNL A   1      44.053  31.886  27.555  1.00  0.00    -0.237 OA
ATOM     94  O   UNL A   1      44.093  33.978  26.230  1.00  0.00    -0.237 OA
ATOM     95  O   UNL A   1      46.089  33.259  27.472  1.00  0.00    -0.744 OA
ENDBRANCH  88  92
ENDBRANCH  62  85
ENDBRANCH  36  37
ENDBRANCH  28  31
ENDBRANCH  26  27
ENDBRANCH  25  26
ENDBRANCH   1  25
TORSDOF 19
ENDMDL
MODEL 2
REMARK VINA RESULT:     -12.0      4.603     10.221
REMARK SMILES N#CCCn1cc(C(=O)NCCCCNC(=O)c2ccc(-c3c4nc(c(-c5cc(S(=O)(=O)[O-])ccc5F)c5ccc([nH]5)c(-c5cc(S(=O)(=O)[O-])ccc5F)c5nc(c(-c6cc(S(=O)(=O)[O-])ccc6F)c6ccc3[nH]6)C=C5)C=C4)cc2)c(-c2cccc([N+](=O)[O-])c2)n1
REMARK SMILES IDX 12 1 11 2 10 3 8 4 9 5 7 7 5 8 6 9 91 10 81 11 4 12 3 13
REMARK SMILES IDX 2 14 1 15 82 16 83 17 90 18 84 19 86 20 85 21 87 22 88 23
REMARK SMILES IDX 89 24 13 25 14 26 15 27 16 28 17 30 18 31 19 32 80 33 20 34
REMARK SMILES IDX 79 35 21 36 22 37 23 38 73 39 24 40 78 41 72 42 74 43 25 44
REMARK SMILES IDX 77 45 71 46 70 47 26 49 58 50 38 51 57 52 39 53 42 54 56 55
REMARK SMILES IDX 75 56 40 57 41 58 55 60 76 61 43 62 27 63 28 64 36 65 29 66
REMARK SMILES IDX 35 67 37 68 34 69 30 70 31 71 32 72 33 73 59 74 60 75 68 76
REMARK SMILES IDX 61 77 67 78 69 79 66 80 62 81 63 82 64 83 65 84 44 85 45 86
REMARK SMILES IDX 53 87 46 88 52 89 54 90 51 91 47 92 48 93 49 94 50 95
REMARK H PARENT 10 6 15 29 74 48 42 59
REMARK Flexibility Score: inf
ROOT
ATOM      1  C   UNL A   1      33.478  29.523  27.230  1.00  0.00     0.023 C 
ENDROOT
BRANCH   1   2
ATOM      2  C   UNL A   1      32.722  30.003  25.985  1.00  0.00     0.116 C 
BRANCH   2   3
ATOM      3  N   UNL A   1      33.246  29.406  24.773  1.00  0.00    -0.352 N 
ATOM      4  C   UNL A   1      32.640  28.866  23.666  1.00  0.00     0.255 C 
ATOM      5  O   UNL A   1      33.390  28.480  22.773  1.00  0.00    -0.269 OA
ATOM      6  H   UNL A   1      34.230  29.381  24.738  1.00  0.00     0.163 HD
BRANCH   4   7
ATOM      7  C   UNL A   1      31.187  28.781  23.551  1.00  0.00     0.085 A 
ATOM      8  N   UNL A   1      29.069  29.225  23.150  1.00  0.00    -0.270 N 
ATOM      9  C   UNL A   1      30.258  29.796  23.478  1.00  0.00     0.123 A 
ATOM     10  N   UNL A   1      29.081  27.888  23.279  1.00  0.00    -0.172 NA
ATOM     11  C   UNL A   1      30.370  27.594  23.542  1.00  0.00     0.105 A 
BRANCH   8  12
ATOM     12  C   UNL A   1      27.859  29.907  22.722  1.00  0.00     0.159 C 
BRANCH  12  13
ATOM     13  C   UNL A   1      28.032  30.884  21.552  1.00  0.00     0.144 C 
BRANCH  13  14
ATOM     14  C   UNL A   1      28.193  32.310  22.051  1.00  0.00     0.064 C 
ATOM     15  N   UNL A   1      28.326  33.494  22.465  1.00  0.00    -0.198 NA
ENDBRANCH  13  14
ENDBRANCH  12  13
ENDBRANCH   8  12
BRANCH  11  16
ATOM     16  C   UNL A   1      30.798  26.222  23.814  1.00  0.00     0.010 A 
ATOM     17  C   UNL A   1      31.415  25.487  22.787  1.00  0.00     0.011 A 
ATOM     18  C   UNL A   1      30.568  25.613  25.052  1.00  0.00     0.096 A 
ATOM     19  C   UNL A   1      31.740  24.142  22.959  1.00  0.00     0.008 A 
ATOM     20  C   UNL A   1      30.907  24.261  25.222  1.00  0.00     0.270 A 
ATOM     21  C   UNL A   1      31.478  23.520  24.175  1.00  0.00     0.085 A 
BRANCH  20  22
ATOM     22  N   UNL A   1      30.664  23.600  26.510  1.00  0.00     0.062 N 
ATOM     23  O   UNL A   1      31.413  22.663  26.827  1.00  0.00    -0.258 OA
ATOM     24  O   UNL A   1      29.748  24.034  27.221  1.00  0.00    -0.258 OA
ENDBRANCH  20  22
ENDBRANCH  11  16
ENDBRANCH   4   7
ENDBRANCH   2   3
ENDBRANCH   1   2
BRANCH   1  25
ATOM     25  C   UNL A   1      34.806  28.801  26.956  1.00  0.00     0.023 C 
BRANCH  25  26
ATOM     26  C   UNL A   1      36.030  29.430  27.613  1.00  0.00     0.116 C 
BRANCH  26  27
ATOM     27  N   UNL A   1      35.735  30.038  28.914  1.00  0.00    -0.352 N 
ATOM     28  C   UNL A   1      36.364  29.812  30.128  1.00  0.00     0.251 C 
ATOM     29  H   UNL A   1      34.996  30.689  28.926  1.00  0.00     0.163 HD
ATOM     30  O   UNL A   1      35.789  30.054  31.182  1.00  0.00    -0.269 OA
BRANCH  28  31
ATOM     31  C   UNL A   1      37.741  29.290  30.115  1.00  0.00     0.039 A 
ATOM     32  C   UNL A   1      38.089  28.047  30.653  1.00  0.00     0.014 A 
ATOM     33  C   UNL A   1      38.691  30.080  29.482  1.00  0.00     0.014 A 
ATOM     34  C   UNL A   1      39.388  27.571  30.464  1.00  0.00     0.010 A 
ATOM     35  C   UNL A   1      39.894  29.536  29.133  1.00  0.00     0.010 A 
ATOM     36  C   UNL A   1      40.281  28.319  29.687  1.00  0.00    -0.014 A 
BRANCH  36  37
ATOM     37  C   UNL A   1      41.630  27.862  29.368  1.00  0.00     0.031 A 
ATOM     38  C   UNL A   1      41.721  26.646  28.515  1.00  0.00     0.074 A 
ATOM     39  C   UNL A   1      42.688  28.685  29.557  1.00  0.00     0.049 A 
ATOM     40  N   UNL A   1      42.262  25.511  28.811  1.00  0.00    -0.248 NA
ATOM     41  C   UNL A   1      41.022  26.635  27.219  1.00  0.00     0.031 C 
ATOM     42  C   UNL A   1      42.681  30.055  30.089  1.00  0.00     0.029 A 
ATOM     43  N   UNL A   1      43.973  28.541  29.142  1.00  0.00    -0.354 N 
ATOM     44  C   UNL A   1      42.174  24.715  27.669  1.00  0.00     0.074 A 
ATOM     45  C   UNL A   1      41.231  25.381  26.811  1.00  0.00     0.031 C 
ATOM     46  C   UNL A   1      43.807  30.693  29.709  1.00  0.00     0.029 A 
ATOM     47  C   UNL A   1      44.687  29.735  29.067  1.00  0.00     0.049 A 
ATOM     48  H   UNL A   1      44.366  27.668  28.913  1.00  0.00     0.167 HD
ATOM     49  C   UNL A   1      43.049  23.691  27.449  1.00  0.00     0.034 A 
ATOM     50  C   UNL A   1      45.896  29.937  28.478  1.00  0.00     0.034 A 
ATOM     51  C   UNL A   1      43.832  23.434  28.639  1.00  0.00     0.049 A 
ATOM     52  C   UNL A   1      46.545  28.601  28.393  1.00  0.00     0.074 A 
ATOM     53  C   UNL A   1      43.528  23.061  29.934  1.00  0.00     0.029 A 
ATOM     54  N   UNL A   1      45.111  23.950  28.690  1.00  0.00    -0.354 N 
ATOM     55  N   UNL A   1      46.874  27.903  29.448  1.00  0.00    -0.248 NA
ATOM     56  C   UNL A   1      46.347  27.816  27.181  1.00  0.00     0.031 C 
ATOM     57  C   UNL A   1      44.398  23.845  30.747  1.00  0.00     0.029 A 
ATOM     58  C   UNL A   1      45.249  24.570  29.908  1.00  0.00     0.049 A 
ATOM     59  H   UNL A   1      45.796  23.885  27.986  1.00  0.00     0.167 HD
ATOM     60  C   UNL A   1      46.486  26.603  29.159  1.00  0.00     0.074 A 
ATOM     61  C   UNL A   1      46.275  26.590  27.710  1.00  0.00     0.031 C 
ATOM     62  C   UNL A   1      46.073  25.743  30.141  1.00  0.00     0.034 A 
BRANCH  49  63
ATOM     63  C   UNL A   1      43.476  23.124  26.108  1.00  0.00     0.023 A 
ATOM     64  C   UNL A   1      43.480  21.718  25.985  1.00  0.00     0.031 A 
ATOM     65  C   UNL A   1      44.124  23.824  25.069  1.00  0.00     0.131 A 
ATOM     66  C   UNL A   1      44.210  21.074  24.972  1.00  0.00     0.055 A 
ATOM     67  C   UNL A   1      44.791  23.180  24.020  1.00  0.00     0.041 A 
ATOM     68  F   UNL A   1      44.228  25.156  25.045  1.00  0.00    -0.206 F 
ATOM     69  C   UNL A   1      44.872  21.797  23.988  1.00  0.00     0.022 A 
BRANCH  66  70
ATOM     70  S   UNL A   1      44.441  19.281  25.092  1.00  0.00     0.124 S 
ATOM     71  O   UNL A   1      44.183  18.858  23.721  1.00  0.00    -0.237 OA
ATOM     72  O   UNL A   1      45.823  19.187  25.548  1.00  0.00    -0.237 OA
ATOM     73  O   UNL A   1      43.432  18.876  26.070  1.00  0.00    -0.744 OA
ENDBRANCH  66  70
ENDBRANCH  49  63
BRANCH  50  74
ATOM     74  C   UNL A   1      46.347  31.162  27.754  1.00  0.00     0.023 A 
ATOM     75  C   UNL A   1      45.533  31.875  26.850  1.00  0.00     0.031 A 
ATOM     76  C   UNL A   1      47.570  31.777  28.115  1.00  0.00     0.131 A 
ATOM     77  C   UNL A   1      45.958  33.128  26.339  1.00  0.00     0.055 A 
ATOM     78  C   UNL A   1      47.989  33.007  27.601  1.00  0.00     0.041 A 
ATOM     79  F   UNL A   1      48.371  31.237  29.048  1.00  0.00    -0.206 F 
ATOM     80  C   UNL A   1      47.180  33.693  26.715  1.00  0.00     0.022 A 
BRANCH  77  81
ATOM     81  S   UNL A   1      44.872  34.101  25.242  1.00  0.00     0.124 S 
ATOM     82  O   UNL A   1      43.933  33.094  24.762  1.00  0.00    -0.237 OA
ATOM     83  O   UNL A   1      44.336  35.111  26.146  1.00  0.00    -0.237 OA
ATOM     84  O   UNL A   1      45.789  34.619  24.225  1.00  0.00    -0.744 OA
ENDBRANCH  77  81
ENDBRANCH  50  74
BRANCH  62  85
ATOM     85  C   UNL A   1      46.273  26.137  31.593  1.00  0.00     0.023 A 
ATOM     86  C   UNL A   1      45.268  26.685  32.425  1.00  0.00     0.031 A 
ATOM     87  C   UNL A   1      47.486  25.765  32.199  1.00  0.00     0.131 A 
ATOM     88  C   UNL A   1      45.502  26.838  33.806  1.00  0.00     0.055 A 
ATOM     89  C   UNL A   1      47.704  25.895  33.569  1.00  0.00     0.041 A 
ATOM     90  F   UNL A   1      48.468  25.209  31.470  1.00  0.00    -0.206 F 
ATOM     91  C   UNL A   1      46.713  26.435  34.379  1.00  0.00     0.022 A 
BRANCH  88  92
ATOM     92  S   UNL A   1      44.228  27.564  34.890  1.00  0.00     0.124 S 
ATOM     93  O   UNL A   1      44.961  27.880  36.110  1.00  0.00    -0.237 OA
ATOM     94  O   UNL A   1      43.758  28.706  34.110  1.00  0.00    -0.237 OA
ATOM     95  O   UNL A   1      43.248  26.485  35.032  1.00  0.00    -0.744 OA
ENDBRANCH  88  92
ENDBRANCH  62  85
ENDBRANCH  36  37
ENDBRANCH  28  31
ENDBRANCH  26  27
ENDBRANCH  25  26
ENDBRANCH   1  25
TORSDOF 19
ENDMDL
MODEL 3
REMARK VINA RESULT:     -12.0      1.493      3.469
REMARK SMILES N#CCCn1cc(C(=O)NCCCCNC(=O)c2ccc(-c3c4nc(c(-c5cc(S(=O)(=O)[O-])ccc5F)c5ccc([nH]5)c(-c5cc(S(=O)(=O)[O-])ccc5F)c5nc(c(-c6cc(S(=O)(=O)[O-])ccc6F)c6ccc3[nH]6)C=C5)C=C4)cc2)c(-c2cccc([N+](=O)[O-])c2)n1
REMARK SMILES IDX 12 1 11 2 10 3 8 4 9 5 7 7 5 8 6 9 91 10 81 11 4 12 3 13
REMARK SMILES IDX 2 14 1 15 82 16 83 17 90 18 84 19 86 20 85 21 87 22 88 23
REMARK SMILES IDX 89 24 13 25 14 26 15 27 16 28 17 30 18 31 19 32 80 33 20 34
REMARK SMILES IDX 79 35 21 36 22 37 23 38 73 39 24 40 78 41 72 42 74 43 25 44
REMARK SMILES IDX 77 45 71 46 70 47 26 49 58 50 38 51 57 52 39 53 42 54 56 55
REMARK SMILES IDX 75 56 40 57 41 58 55 60 76 61 43 62 27 63 28 64 36 65 29 66
REMARK SMILES IDX 35 67 37 68 34 69 30 70 31 71 32 72 33 73 59 74 60 75 68 76
REMARK SMILES IDX 61 77 67 78 69 79 66 80 62 81 63 82 64 83 65 84 44 85 45 86
REMARK SMILES IDX 53 87 46 88 52 89 54 90 51 91 47 92 48 93 49 94 50 95
REMARK H PARENT 10 6 15 29 74 48 42 59
REMARK Flexibility Score: inf
ROOT
ATOM      1  C   UNL A   1      37.778  23.062  25.206  1.00  0.00     0.023 C 
ENDROOT
BRANCH   1   2
ATOM      2  C   UNL A   1      36.566  22.190  24.853  1.00  0.00     0.116 C 
BRANCH   2   3
ATOM      3  N   UNL A   1      35.625  22.106  25.952  1.00  0.00    -0.352 N 
ATOM      4  C   UNL A   1      34.435  21.440  26.107  1.00  0.00     0.255 C 
ATOM      5  O   UNL A   1      33.897  21.543  27.207  1.00  0.00    -0.269 OA
ATOM      6  H   UNL A   1      35.891  22.631  26.742  1.00  0.00     0.163 HD
BRANCH   4   7
ATOM      7  C   UNL A   1      33.858  20.638  25.032  1.00  0.00     0.085 A 
ATOM      8  N   UNL A   1      33.175  18.962  23.780  1.00  0.00    -0.270 N 
ATOM      9  C   UNL A   1      34.115  19.328  24.690  1.00  0.00     0.123 A 
ATOM     10  N   UNL A   1      32.495  20.011  23.285  1.00  0.00    -0.172 NA
ATOM     11  C   UNL A   1      32.912  21.054  24.030  1.00  0.00     0.105 A 
BRANCH   8  12
ATOM     12  C   UNL A   1      32.884  17.617  23.313  1.00  0.00     0.159 C 
BRANCH  12  13
ATOM     13  C   UNL A   1      33.995  16.585  23.544  1.00  0.00     0.144 C 
BRANCH  13  14
ATOM     14  C   UNL A   1      33.600  15.591  24.624  1.00  0.00     0.064 C 
ATOM     15  N   UNL A   1      33.272  14.766  25.520  1.00  0.00    -0.198 NA
ENDBRANCH  13  14
ENDBRANCH  12  13
ENDBRANCH   8  12
BRANCH  11  16
ATOM     16  C   UNL A   1      32.445  22.414  23.762  1.00  0.00     0.010 A 
ATOM     17  C   UNL A   1      31.292  22.878  24.419  1.00  0.00     0.011 A 
ATOM     18  C   UNL A   1      33.092  23.244  22.839  1.00  0.00     0.096 A 
ATOM     19  C   UNL A   1      30.744  24.124  24.117  1.00  0.00     0.008 A 
ATOM     20  C   UNL A   1      32.538  24.501  22.547  1.00  0.00     0.270 A 
ATOM     21  C   UNL A   1      31.359  24.937  23.171  1.00  0.00     0.085 A 
BRANCH  20  22
ATOM     22  N   UNL A   1      33.194  25.383  21.573  1.00  0.00     0.062 N 
ATOM     23  O   UNL A   1      34.028  26.195  22.001  1.00  0.00    -0.258 OA
ATOM     24  O   UNL A   1      32.904  25.243  20.377  1.00  0.00    -0.258 OA
ENDBRANCH  20  22
ENDBRANCH  11  16
ENDBRANCH   4   7
ENDBRANCH   2   3
ENDBRANCH   1   2
BRANCH   1  25
ATOM     25  C   UNL A   1      37.757  23.681  26.611  1.00  0.00     0.023 C 
BRANCH  25  26
ATOM     26  C   UNL A   1      38.707  24.857  26.813  1.00  0.00     0.116 C 
BRANCH  26  27
ATOM     27  N   UNL A   1      39.989  24.683  26.126  1.00  0.00    -0.352 N 
ATOM     28  C   UNL A   1      40.979  25.629  25.907  1.00  0.00     0.251 C 
ATOM     29  H   UNL A   1      40.170  23.781  25.774  1.00  0.00     0.163 HD
ATOM     30  O   UNL A   1      41.789  25.484  24.999  1.00  0.00    -0.269 OA
BRANCH  28  31
ATOM     31  C   UNL A   1      41.039  26.797  26.802  1.00  0.00     0.039 A 
ATOM     32  C   UNL A   1      40.781  28.101  26.368  1.00  0.00     0.014 A 
ATOM     33  C   UNL A   1      41.317  26.534  28.136  1.00  0.00     0.014 A 
ATOM     34  C   UNL A   1      40.717  29.125  27.316  1.00  0.00     0.010 A 
ATOM     35  C   UNL A   1      41.065  27.492  29.077  1.00  0.00     0.010 A 
ATOM     36  C   UNL A   1      40.845  28.806  28.673  1.00  0.00    -0.014 A 
BRANCH  36  37
ATOM     37  C   UNL A   1      40.709  29.796  29.737  1.00  0.00     0.031 A 
ATOM     38  C   UNL A   1      39.360  30.406  29.891  1.00  0.00     0.074 A 
ATOM     39  C   UNL A   1      41.650  29.885  30.706  1.00  0.00     0.049 A 
ATOM     40  N   UNL A   1      39.038  31.651  29.775  1.00  0.00    -0.248 NA
ATOM     41  C   UNL A   1      38.199  29.520  30.075  1.00  0.00     0.031 C 
ATOM     42  C   UNL A   1      42.880  29.091  30.844  1.00  0.00     0.029 A 
ATOM     43  N   UNL A   1      41.617  30.575  31.874  1.00  0.00    -0.354 N 
ATOM     44  C   UNL A   1      37.682  31.745  30.088  1.00  0.00     0.074 A 
ATOM     45  C   UNL A   1      37.189  30.393  30.059  1.00  0.00     0.031 C 
ATOM     46  C   UNL A   1      43.306  29.137  32.123  1.00  0.00     0.029 A 
ATOM     47  C   UNL A   1      42.493  30.097  32.847  1.00  0.00     0.049 A 
ATOM     48  H   UNL A   1      41.025  31.347  32.022  1.00  0.00     0.167 HD
ATOM     49  C   UNL A   1      37.139  32.909  30.552  1.00  0.00     0.034 A 
ATOM     50  C   UNL A   1      42.521  30.427  34.166  1.00  0.00     0.034 A 
ATOM     51  C   UNL A   1      38.083  33.996  30.405  1.00  0.00     0.049 A 
ATOM     52  C   UNL A   1      41.824  31.736  34.280  1.00  0.00     0.074 A 
ATOM     53  C   UNL A   1      38.727  34.579  29.331  1.00  0.00     0.029 A 
ATOM     54  N   UNL A   1      38.796  34.382  31.522  1.00  0.00    -0.354 N 
ATOM     55  N   UNL A   1      42.271  32.830  33.720  1.00  0.00    -0.248 NA
ATOM     56  C   UNL A   1      40.392  31.732  34.552  1.00  0.00     0.031 C 
ATOM     57  C   UNL A   1      40.052  34.822  29.796  1.00  0.00     0.029 A 
ATOM     58  C   UNL A   1      40.114  34.474  31.149  1.00  0.00     0.049 A 
ATOM     59  H   UNL A   1      38.429  34.560  32.418  1.00  0.00     0.167 HD
ATOM     60  C   UNL A   1      41.152  33.436  33.166  1.00  0.00     0.074 A 
ATOM     61  C   UNL A   1      40.013  32.777  33.808  1.00  0.00     0.031 C 
ATOM     62  C   UNL A   1      41.236  34.190  32.027  1.00  0.00     0.034 A 
BRANCH  49  63
ATOM     63  C   UNL A   1      35.921  33.058  31.444  1.00  0.00     0.023 A 
ATOM     64  C   UNL A   1      34.924  33.958  31.011  1.00  0.00     0.031 A 
ATOM     65  C   UNL A   1      35.797  32.613  32.776  1.00  0.00     0.131 A 
ATOM     66  C   UNL A   1      33.970  34.477  31.901  1.00  0.00     0.055 A 
ATOM     67  C   UNL A   1      34.800  33.079  33.643  1.00  0.00     0.041 A 
ATOM     68  F   UNL A   1      36.669  31.778  33.348  1.00  0.00    -0.206 F 
ATOM     69  C   UNL A   1      33.903  34.047  33.220  1.00  0.00     0.022 A 
BRANCH  66  70
ATOM     70  S   UNL A   1      32.955  35.873  31.349  1.00  0.00     0.124 S 
ATOM     71  O   UNL A   1      31.736  35.677  32.125  1.00  0.00    -0.237 OA
ATOM     72  O   UNL A   1      33.784  37.013  31.726  1.00  0.00    -0.237 OA
ATOM     73  O   UNL A   1      32.822  35.646  29.911  1.00  0.00    -0.744 OA
ENDBRANCH  66  70
ENDBRANCH  49  63
BRANCH  50  74
ATOM     74  C   UNL A   1      42.862  29.529  35.307  1.00  0.00     0.023 A 
ATOM     75  C   UNL A   1      42.183  28.323  35.579  1.00  0.00     0.031 A 
ATOM     76  C   UNL A   1      44.040  29.767  36.057  1.00  0.00     0.131 A 
ATOM     77  C   UNL A   1      42.675  27.431  36.565  1.00  0.00     0.055 A 
ATOM     78  C   UNL A   1      44.514  28.890  37.035  1.00  0.00     0.041 A 
ATOM     79  F   UNL A   1      44.820  30.831  35.806  1.00  0.00    -0.206 F 
ATOM     80  C   UNL A   1      43.836  27.711  37.289  1.00  0.00     0.022 A 
BRANCH  77  81
ATOM     81  S   UNL A   1      41.856  25.827  36.858  1.00  0.00     0.124 S 
ATOM     82  O   UNL A   1      42.931  25.030  37.440  1.00  0.00    -0.237 OA
ATOM     83  O   UNL A   1      40.762  26.191  37.751  1.00  0.00    -0.237 OA
ATOM     84  O   UNL A   1      41.437  25.407  35.520  1.00  0.00    -0.744 OA
ENDBRANCH  77  81
ENDBRANCH  50  74
BRANCH  62  85
ATOM     85  C   UNL A   1      42.607  34.569  31.498  1.00  0.00     0.023 A 
ATOM     86  C   UNL A   1      43.245  33.951  30.396  1.00  0.00     0.031 A 
ATOM     87  C   UNL A   1      43.201  35.730  32.024  1.00  0.00     0.131 A 
ATOM     88  C   UNL A   1      44.429  34.502  29.866  1.00  0.00     0.055 A 
ATOM     89  C   UNL A   1      44.359  36.285  31.482  1.00  0.00     0.041 A 
ATOM     90  F   UNL A   1      42.628  36.383  33.049  1.00  0.00    -0.206 F 
ATOM     91  C   UNL A   1      44.980  35.671  30.401  1.00  0.00     0.022 A 
BRANCH  88  92
ATOM     92  S   UNL A   1      45.278  33.705  28.463  1.00  0.00     0.124 S 
ATOM     93  O   UNL A   1      46.315  32.905  29.103  1.00  0.00    -0.237 OA
ATOM     94  O   UNL A   1      44.200  32.961  27.818  1.00  0.00    -0.237 OA
ATOM     95  O   UNL A   1      45.781  34.839  27.683  1.00  0.00    -0.744 OA
ENDBRANCH  88  92
ENDBRANCH  62  85
ENDBRANCH  36  37
ENDBRANCH  28  31
ENDBRANCH  26  27
ENDBRANCH  25  26
ENDBRANCH   1  25
TORSDOF 19
ENDMDL
