MODEL 1
REMARK VINA RESULT:     -11.5      0.000      0.000
REMARK SMILES Cc1cc(C)n([C@@H](C(=O)NCCCCNC(=O)c2ccc(-c3c4nc(c(-c5cc(S(=O)(=O)[O-])ccc5F)c5ccc([nH]5)c(-c5cc(S(=O)(=O)[O-])ccc5F)c5nc(c(-c6cc(S(=O)(=O)[O-])ccc6F)c6ccc3[nH]6)C=C5)C=C4)cc2)C(C)C)n1
REMARK SMILES IDX 13 1 12 2 11 3 10 4 8 5 9 6 7 8 6 9 1 10 2 11 3 12 84 13
REMARK SMILES IDX 4 14 5 15 81 16 82 17 83 18 14 19 15 20 16 21 17 23 18 24
REMARK SMILES IDX 19 25 80 26 20 27 79 28 21 29 22 30 23 31 73 32 24 33 78 34
REMARK SMILES IDX 72 35 74 36 25 37 77 38 71 39 70 40 26 42 58 43 38 44 57 45
REMARK SMILES IDX 39 46 42 47 56 48 75 49 40 50 41 51 55 53 76 54 43 55 27 56
REMARK SMILES IDX 28 57 36 58 29 59 35 60 37 61 34 62 30 63 31 64 32 65 33 66
REMARK SMILES IDX 59 67 60 68 68 69 61 70 67 71 69 72 66 73 62 74 63 75 64 76
REMARK SMILES IDX 65 77 44 78 45 79 53 80 46 81 52 82 54 83 51 84 47 85 48 86
REMARK SMILES IDX 49 87 50 88
REMARK H PARENT 10 7 15 22 74 41 42 52
REMARK Flexibility Score: inf
ROOT
ATOM      1  C   UNL A   1      31.301  31.676  26.651  1.00  0.00     0.023 C 
ENDROOT
BRANCH   1   2
ATOM      2  C   UNL A   1      31.456  30.443  25.748  1.00  0.00     0.023 C 
BRANCH   2   3
ATOM      3  C   UNL A   1      32.848  29.793  25.715  1.00  0.00     0.116 C 
BRANCH   3   4
ATOM      4  N   UNL A   1      33.349  29.647  24.356  1.00  0.00    -0.354 N 
ATOM      5  C   UNL A   1      33.178  28.617  23.470  1.00  0.00     0.245 C 
ATOM      6  O   UNL A   1      33.848  28.650  22.434  1.00  0.00    -0.273 OA
ATOM      7  H   UNL A   1      33.889  30.401  24.025  1.00  0.00     0.163 HD
BRANCH   5   8
ATOM      8  C   UNL A   1      32.186  27.483  23.769  1.00  0.00     0.199 C 
BRANCH   8   9
ATOM      9  N   UNL A   1      32.873  26.189  23.685  1.00  0.00    -0.257 N 
ATOM     10  C   UNL A   1      33.236  23.193  21.820  1.00  0.00     0.069 C 
ATOM     11  C   UNL A   1      33.309  24.299  22.804  1.00  0.00     0.060 A 
ATOM     12  C   UNL A   1      33.935  24.304  24.065  1.00  0.00     0.048 A 
ATOM     13  N   UNL A   1      32.715  25.466  22.550  1.00  0.00    -0.177 NA
ATOM     14  C   UNL A   1      33.648  25.536  24.619  1.00  0.00     0.037 A 
ATOM     15  C   UNL A   1      34.019  26.074  25.951  1.00  0.00     0.066 C 
ENDBRANCH   8   9
BRANCH   8  16
ATOM     16  C   UNL A   1      30.896  27.522  22.896  1.00  0.00     0.017 C 
ATOM     17  C   UNL A   1      29.668  27.032  23.681  1.00  0.00     0.010 C 
ATOM     18  C   UNL A   1      30.585  28.931  22.369  1.00  0.00     0.010 C 
ENDBRANCH   8  16
ENDBRANCH   5   8
ENDBRANCH   3   4
ENDBRANCH   2   3
ENDBRANCH   1   2
BRANCH   1  19
ATOM     19  C   UNL A   1      32.613  32.302  27.090  1.00  0.00     0.116 C 
BRANCH  19  20
ATOM     20  N   UNL A   1      32.511  33.742  27.346  1.00  0.00    -0.352 N 
ATOM     21  C   UNL A   1      33.130  34.475  28.354  1.00  0.00     0.251 C 
ATOM     22  H   UNL A   1      31.935  34.253  26.731  1.00  0.00     0.163 HD
ATOM     23  O   UNL A   1      32.681  35.547  28.722  1.00  0.00    -0.269 OA
BRANCH  21  24
ATOM     24  C   UNL A   1      34.367  33.920  28.939  1.00  0.00     0.039 A 
ATOM     25  C   UNL A   1      34.406  33.191  30.133  1.00  0.00     0.014 A 
ATOM     26  C   UNL A   1      35.518  34.118  28.191  1.00  0.00     0.014 A 
ATOM     27  C   UNL A   1      35.620  32.618  30.523  1.00  0.00     0.010 A 
ATOM     28  C   UNL A   1      36.609  33.343  28.428  1.00  0.00     0.010 A 
ATOM     29  C   UNL A   1      36.716  32.702  29.653  1.00  0.00    -0.014 A 
BRANCH  29  30
ATOM     30  C   UNL A   1      38.011  32.083  29.899  1.00  0.00     0.031 A 
ATOM     31  C   UNL A   1      38.107  30.676  29.424  1.00  0.00     0.074 A 
ATOM     32  C   UNL A   1      39.089  32.853  30.186  1.00  0.00     0.049 A 
ATOM     33  N   UNL A   1      38.260  29.608  30.131  1.00  0.00    -0.248 NA
ATOM     34  C   UNL A   1      37.816  30.402  28.005  1.00  0.00     0.031 C 
ATOM     35  C   UNL A   1      39.150  34.317  30.332  1.00  0.00     0.029 A 
ATOM     36  N   UNL A   1      40.399  32.509  30.271  1.00  0.00    -0.354 N 
ATOM     37  C   UNL A   1      38.348  28.558  29.220  1.00  0.00     0.074 A 
ATOM     38  C   UNL A   1      37.812  29.067  27.990  1.00  0.00     0.031 C 
ATOM     39  C   UNL A   1      40.434  34.737  30.250  1.00  0.00     0.029 A 
ATOM     40  C   UNL A   1      41.301  33.574  30.209  1.00  0.00     0.049 A 
ATOM     41  H   UNL A   1      40.694  31.575  30.370  1.00  0.00     0.167 HD
ATOM     42  C   UNL A   1      39.108  27.457  29.483  1.00  0.00     0.034 A 
ATOM     43  C   UNL A   1      42.661  33.502  30.110  1.00  0.00     0.034 A 
ATOM     44  C   UNL A   1      39.473  27.420  30.883  1.00  0.00     0.049 A 
ATOM     45  C   UNL A   1      43.028  32.130  30.549  1.00  0.00     0.074 A 
ATOM     46  C   UNL A   1      38.760  27.367  32.066  1.00  0.00     0.029 A 
ATOM     47  N   UNL A   1      40.727  27.876  31.232  1.00  0.00    -0.354 N 
ATOM     48  N   UNL A   1      42.825  31.699  31.768  1.00  0.00    -0.248 NA
ATOM     49  C   UNL A   1      43.098  31.089  29.533  1.00  0.00     0.031 C 
ATOM     50  C   UNL A   1      39.435  28.274  32.937  1.00  0.00     0.029 A 
ATOM     51  C   UNL A   1      40.578  28.746  32.286  1.00  0.00     0.049 A 
ATOM     52  H   UNL A   1      41.577  27.624  30.801  1.00  0.00     0.167 HD
ATOM     53  C   UNL A   1      42.310  30.419  31.619  1.00  0.00     0.074 A 
ATOM     54  C   UNL A   1      42.582  30.064  30.224  1.00  0.00     0.031 C 
ATOM     55  C   UNL A   1      41.441  29.890  32.534  1.00  0.00     0.034 A 
BRANCH  42  56
ATOM     56  C   UNL A   1      39.836  26.621  28.448  1.00  0.00     0.023 A 
ATOM     57  C   UNL A   1      40.986  27.189  27.864  1.00  0.00     0.031 A 
ATOM     58  C   UNL A   1      39.347  25.455  27.813  1.00  0.00     0.131 A 
ATOM     59  C   UNL A   1      41.519  26.683  26.666  1.00  0.00     0.055 A 
ATOM     60  C   UNL A   1      39.921  24.917  26.657  1.00  0.00     0.041 A 
ATOM     61  F   UNL A   1      38.242  24.816  28.208  1.00  0.00    -0.206 F 
ATOM     62  C   UNL A   1      40.992  25.551  26.055  1.00  0.00     0.022 A 
BRANCH  59  63
ATOM     63  S   UNL A   1      42.799  27.647  25.822  1.00  0.00     0.124 S 
ATOM     64  O   UNL A   1      42.012  28.386  24.840  1.00  0.00    -0.237 OA
ATOM     65  O   UNL A   1      43.358  28.427  26.921  1.00  0.00    -0.237 OA
ATOM     66  O   UNL A   1      43.683  26.623  25.271  1.00  0.00    -0.744 OA
ENDBRANCH  59  63
ENDBRANCH  42  56
BRANCH  43  67
ATOM     67  C   UNL A   1      43.566  34.397  29.321  1.00  0.00     0.023 A 
ATOM     68  C   UNL A   1      44.153  34.047  28.081  1.00  0.00     0.031 A 
ATOM     69  C   UNL A   1      43.678  35.755  29.703  1.00  0.00     0.131 A 
ATOM     70  C   UNL A   1      44.818  35.031  27.297  1.00  0.00     0.055 A 
ATOM     71  C   UNL A   1      44.327  36.718  28.924  1.00  0.00     0.041 A 
ATOM     72  F   UNL A   1      43.082  36.210  30.816  1.00  0.00    -0.206 F 
ATOM     73  C   UNL A   1      44.896  36.361  27.714  1.00  0.00     0.022 A 
BRANCH  70  74
ATOM     74  S   UNL A   1      45.550  34.614  25.673  1.00  0.00     0.124 S 
ATOM     75  O   UNL A   1      44.385  34.606  24.796  1.00  0.00    -0.237 OA
ATOM     76  O   UNL A   1      46.506  35.697  25.472  1.00  0.00    -0.237 OA
ATOM     77  O   UNL A   1      46.156  33.300  25.895  1.00  0.00    -0.744 OA
ENDBRANCH  70  74
ENDBRANCH  43  67
BRANCH  55  78
ATOM     78  C   UNL A   1      41.208  30.651  33.831  1.00  0.00     0.023 A 
ATOM     79  C   UNL A   1      40.123  31.527  34.082  1.00  0.00     0.031 A 
ATOM     80  C   UNL A   1      42.059  30.355  34.910  1.00  0.00     0.131 A 
ATOM     81  C   UNL A   1      39.931  32.069  35.371  1.00  0.00     0.055 A 
ATOM     82  C   UNL A   1      41.852  30.873  36.187  1.00  0.00     0.041 A 
ATOM     83  F   UNL A   1      43.091  29.510  34.747  1.00  0.00    -0.206 F 
ATOM     84  C   UNL A   1      40.790  31.736  36.422  1.00  0.00     0.022 A 
BRANCH  81  85
ATOM     85  S   UNL A   1      38.564  33.233  35.706  1.00  0.00     0.124 S 
ATOM     86  O   UNL A   1      37.371  32.416  35.526  1.00  0.00    -0.237 OA
ATOM     87  O   UNL A   1      38.842  33.666  37.074  1.00  0.00    -0.237 OA
ATOM     88  O   UNL A   1      38.747  34.275  34.693  1.00  0.00    -0.744 OA
ENDBRANCH  81  85
ENDBRANCH  55  78
ENDBRANCH  29  30
ENDBRANCH  21  24
ENDBRANCH  19  20
ENDBRANCH   1  19
TORSDOF 16
ENDMDL
MODEL 2
REMARK VINA RESULT:     -11.0      4.308      5.629
REMARK SMILES Cc1cc(C)n([C@@H](C(=O)NCCCCNC(=O)c2ccc(-c3c4nc(c(-c5cc(S(=O)(=O)[O-])ccc5F)c5ccc([nH]5)c(-c5cc(S(=O)(=O)[O-])ccc5F)c5nc(c(-c6cc(S(=O)(=O)[O-])ccc6F)c6ccc3[nH]6)C=C5)C=C4)cc2)C(C)C)n1
REMARK SMILES IDX 13 1 12 2 11 3 10 4 8 5 9 6 7 8 6 9 1 10 2 11 3 12 84 13
REMARK SMILES IDX 4 14 5 15 81 16 82 17 83 18 14 19 15 20 16 21 17 23 18 24
REMARK SMILES IDX 19 25 80 26 20 27 79 28 21 29 22 30 23 31 73 32 24 33 78 34
REMARK SMILES IDX 72 35 74 36 25 37 77 38 71 39 70 40 26 42 58 43 38 44 57 45
REMARK SMILES IDX 39 46 42 47 56 48 75 49 40 50 41 51 55 53 76 54 43 55 27 56
REMARK SMILES IDX 28 57 36 58 29 59 35 60 37 61 34 62 30 63 31 64 32 65 33 66
REMARK SMILES IDX 59 67 60 68 68 69 61 70 67 71 69 72 66 73 62 74 63 75 64 76
REMARK SMILES IDX 65 77 44 78 45 79 53 80 46 81 52 82 54 83 51 84 47 85 48 86
REMARK SMILES IDX 49 87 50 88
REMARK H PARENT 10 7 15 22 74 41 42 52
REMARK Flexibility Score: inf
ROOT
ATOM      1  C   UNL A   1      34.451  30.655  27.256  1.00  0.00     0.023 C 
ENDROOT
BRANCH   1   2
ATOM      2  C   UNL A   1      33.385  29.579  27.000  1.00  0.00     0.023 C 
BRANCH   2   3
ATOM      3  C   UNL A   1      32.414  29.843  25.840  1.00  0.00     0.116 C 
BRANCH   3   4
ATOM      4  N   UNL A   1      33.071  29.737  24.545  1.00  0.00    -0.354 N 
ATOM      5  C   UNL A   1      33.019  28.727  23.622  1.00  0.00     0.245 C 
ATOM      6  O   UNL A   1      33.804  28.793  22.671  1.00  0.00    -0.273 OA
ATOM      7  H   UNL A   1      33.635  30.505  24.297  1.00  0.00     0.163 HD
BRANCH   5   8
ATOM      8  C   UNL A   1      32.016  27.575  23.777  1.00  0.00     0.199 C 
BRANCH   8   9
ATOM      9  N   UNL A   1      32.718  26.289  23.678  1.00  0.00    -0.257 N 
ATOM     10  C   UNL A   1      33.224  23.385  21.705  1.00  0.00     0.069 C 
ATOM     11  C   UNL A   1      33.225  24.444  22.741  1.00  0.00     0.060 A 
ATOM     12  C   UNL A   1      33.770  24.395  24.039  1.00  0.00     0.048 A 
ATOM     13  N   UNL A   1      32.638  25.619  22.504  1.00  0.00    -0.177 NA
ATOM     14  C   UNL A   1      33.438  25.599  24.628  1.00  0.00     0.037 A 
ATOM     15  C   UNL A   1      33.720  26.078  26.005  1.00  0.00     0.066 C 
ENDBRANCH   8   9
BRANCH   8  16
ATOM     16  C   UNL A   1      30.800  27.656  22.806  1.00  0.00     0.017 C 
ATOM     17  C   UNL A   1      29.520  27.104  23.455  1.00  0.00     0.010 C 
ATOM     18  C   UNL A   1      30.511  29.093  22.346  1.00  0.00     0.010 C 
ENDBRANCH   8  16
ENDBRANCH   5   8
ENDBRANCH   3   4
ENDBRANCH   2   3
ENDBRANCH   1   2
BRANCH   1  19
ATOM     19  C   UNL A   1      35.726  30.135  27.897  1.00  0.00     0.116 C 
BRANCH  19  20
ATOM     20  N   UNL A   1      35.731  30.254  29.358  1.00  0.00    -0.352 N 
ATOM     21  C   UNL A   1      36.570  29.611  30.264  1.00  0.00     0.251 C 
ATOM     22  H   UNL A   1      35.060  30.862  29.746  1.00  0.00     0.163 HD
ATOM     23  O   UNL A   1      36.244  29.462  31.429  1.00  0.00    -0.269 OA
BRANCH  21  24
ATOM     24  C   UNL A   1      37.879  29.144  29.767  1.00  0.00     0.039 A 
ATOM     25  C   UNL A   1      38.549  29.713  28.679  1.00  0.00     0.014 A 
ATOM     26  C   UNL A   1      38.456  28.112  30.494  1.00  0.00     0.014 A 
ATOM     27  C   UNL A   1      39.836  29.258  28.377  1.00  0.00     0.010 A 
ATOM     28  C   UNL A   1      39.788  27.872  30.369  1.00  0.00     0.010 A 
ATOM     29  C   UNL A   1      40.444  28.335  29.239  1.00  0.00    -0.014 A 
BRANCH  29  30
ATOM     30  C   UNL A   1      41.805  27.841  29.087  1.00  0.00     0.031 A 
ATOM     31  C   UNL A   1      41.909  26.598  28.277  1.00  0.00     0.074 A 
ATOM     32  C   UNL A   1      42.856  28.655  29.351  1.00  0.00     0.049 A 
ATOM     33  N   UNL A   1      42.286  25.426  28.664  1.00  0.00    -0.248 NA
ATOM     34  C   UNL A   1      41.353  26.612  26.911  1.00  0.00     0.031 C 
ATOM     35  C   UNL A   1      42.835  30.046  29.834  1.00  0.00     0.029 A 
ATOM     36  N   UNL A   1      44.178  28.465  29.110  1.00  0.00    -0.354 N 
ATOM     37  C   UNL A   1      42.265  24.624  27.526  1.00  0.00     0.074 A 
ATOM     38  C   UNL A   1      41.449  25.324  26.574  1.00  0.00     0.031 C 
ATOM     39  C   UNL A   1      44.037  30.629  29.623  1.00  0.00     0.029 A 
ATOM     40  C   UNL A   1      44.965  29.619  29.144  1.00  0.00     0.049 A 
ATOM     41  H   UNL A   1      44.558  27.576  28.924  1.00  0.00     0.167 HD
ATOM     42  C   UNL A   1      43.144  23.595  27.370  1.00  0.00     0.034 A 
ATOM     43  C   UNL A   1      46.276  29.739  28.784  1.00  0.00     0.034 A 
ATOM     44  C   UNL A   1      43.793  23.292  28.630  1.00  0.00     0.049 A 
ATOM     45  C   UNL A   1      46.830  28.359  28.804  1.00  0.00     0.074 A 
ATOM     46  C   UNL A   1      43.345  22.891  29.874  1.00  0.00     0.029 A 
ATOM     47  N   UNL A   1      45.053  23.811  28.843  1.00  0.00    -0.354 N 
ATOM     48  N   UNL A   1      46.916  27.647  29.898  1.00  0.00    -0.248 NA
ATOM     49  C   UNL A   1      46.768  27.587  27.570  1.00  0.00     0.031 C 
ATOM     50  C   UNL A   1      44.113  23.658  30.800  1.00  0.00     0.029 A 
ATOM     51  C   UNL A   1      45.058  24.399  30.086  1.00  0.00     0.049 A 
ATOM     52  H   UNL A   1      45.812  23.767  28.217  1.00  0.00     0.167 HD
ATOM     53  C   UNL A   1      46.482  26.378  29.540  1.00  0.00     0.074 A 
ATOM     54  C   UNL A   1      46.486  26.379  28.075  1.00  0.00     0.031 C 
ATOM     55  C   UNL A   1      45.863  25.557  30.442  1.00  0.00     0.034 A 
BRANCH  42  56
ATOM     56  C   UNL A   1      43.706  23.105  26.049  1.00  0.00     0.023 A 
ATOM     57  C   UNL A   1      43.550  21.735  25.759  1.00  0.00     0.031 A 
ATOM     58  C   UNL A   1      44.595  23.807  25.202  1.00  0.00     0.131 A 
ATOM     59  C   UNL A   1      44.326  21.108  24.769  1.00  0.00     0.055 A 
ATOM     60  C   UNL A   1      45.316  23.191  24.173  1.00  0.00     0.041 A 
ATOM     61  F   UNL A   1      44.892  25.100  25.363  1.00  0.00    -0.206 F 
ATOM     62  C   UNL A   1      45.212  21.827  23.974  1.00  0.00     0.022 A 
BRANCH  59  63
ATOM     63  S   UNL A   1      44.290  19.301  24.667  1.00  0.00     0.124 S 
ATOM     64  O   UNL A   1      45.273  18.929  25.680  1.00  0.00    -0.237 OA
ATOM     65  O   UNL A   1      42.895  19.012  24.984  1.00  0.00    -0.237 OA
ATOM     66  O   UNL A   1      44.685  19.032  23.287  1.00  0.00    -0.744 OA
ENDBRANCH  59  63
ENDBRANCH  42  56
BRANCH  43  67
ATOM     67  C   UNL A   1      46.927  30.891  28.084  1.00  0.00     0.023 A 
ATOM     68  C   UNL A   1      46.241  31.822  27.268  1.00  0.00     0.031 A 
ATOM     69  C   UNL A   1      48.262  31.222  28.419  1.00  0.00     0.131 A 
ATOM     70  C   UNL A   1      46.892  33.006  26.822  1.00  0.00     0.055 A 
ATOM     71  C   UNL A   1      48.894  32.389  27.983  1.00  0.00     0.041 A 
ATOM     72  F   UNL A   1      48.973  30.452  29.258  1.00  0.00    -0.206 F 
ATOM     73  C   UNL A   1      48.210  33.291  27.186  1.00  0.00     0.022 A 
BRANCH  70  74
ATOM     74  S   UNL A   1      46.015  34.244  25.800  1.00  0.00     0.124 S 
ATOM     75  O   UNL A   1      44.997  33.439  25.135  1.00  0.00    -0.237 OA
ATOM     76  O   UNL A   1      45.540  35.196  26.799  1.00  0.00    -0.237 OA
ATOM     77  O   UNL A   1      47.059  34.762  24.914  1.00  0.00    -0.744 OA
ENDBRANCH  70  74
ENDBRANCH  43  67
BRANCH  55  78
ATOM     78  C   UNL A   1      45.845  25.976  31.905  1.00  0.00     0.023 A 
ATOM     79  C   UNL A   1      44.729  26.525  32.584  1.00  0.00     0.031 A 
ATOM     80  C   UNL A   1      46.979  25.665  32.675  1.00  0.00     0.131 A 
ATOM     81  C   UNL A   1      44.784  26.746  33.978  1.00  0.00     0.055 A 
ATOM     82  C   UNL A   1      47.021  25.863  34.054  1.00  0.00     0.041 A 
ATOM     83  F   UNL A   1      48.061  25.117  32.097  1.00  0.00    -0.206 F 
ATOM     84  C   UNL A   1      45.925  26.407  34.711  1.00  0.00     0.022 A 
BRANCH  81  85
ATOM     85  S   UNL A   1      43.374  27.492  34.867  1.00  0.00     0.124 S 
ATOM     86  O   UNL A   1      42.259  26.615  34.531  1.00  0.00    -0.237 OA
ATOM     87  O   UNL A   1      43.820  27.456  36.258  1.00  0.00    -0.237 OA
ATOM     88  O   UNL A   1      43.284  28.837  34.295  1.00  0.00    -0.744 OA
ENDBRANCH  81  85
ENDBRANCH  55  78
ENDBRANCH  29  30
ENDBRANCH  21  24
ENDBRANCH  19  20
ENDBRANCH   1  19
TORSDOF 16
ENDMDL
MODEL 3
REMARK VINA RESULT:     -11.0      4.778      9.845
REMARK SMILES Cc1cc(C)n([C@@H](C(=O)NCCCCNC(=O)c2ccc(-c3c4nc(c(-c5cc(S(=O)(=O)[O-])ccc5F)c5ccc([nH]5)c(-c5cc(S(=O)(=O)[O-])ccc5F)c5nc(c(-c6cc(S(=O)(=O)[O-])ccc6F)c6ccc3[nH]6)C=C5)C=C4)cc2)C(C)C)n1
REMARK SMILES IDX 13 1 12 2 11 3 10 4 8 5 9 6 7 8 6 9 1 10 2 11 3 12 84 13
REMARK SMILES IDX 4 14 5 15 81 16 82 17 83 18 14 19 15 20 16 21 17 23 18 24
REMARK SMILES IDX 19 25 80 26 20 27 79 28 21 29 22 30 23 31 73 32 24 33 78 34
REMARK SMILES IDX 72 35 74 36 25 37 77 38 71 39 70 40 26 42 58 43 38 44 57 45
REMARK SMILES IDX 39 46 42 47 56 48 75 49 40 50 41 51 55 53 76 54 43 55 27 56
REMARK SMILES IDX 28 57 36 58 29 59 35 60 37 61 34 62 30 63 31 64 32 65 33 66
REMARK SMILES IDX 59 67 60 68 68 69 61 70 67 71 69 72 66 73 62 74 63 75 64 76
REMARK SMILES IDX 65 77 44 78 45 79 53 80 46 81 52 82 54 83 51 84 47 85 48 86
REMARK SMILES IDX 49 87 50 88
REMARK H PARENT 10 7 15 22 74 41 42 52
REMARK Flexibility Score: inf
ROOT
ATOM      1  C   UNL A   1      38.419  20.324  24.696  1.00  0.00     0.023 C 
ENDROOT
BRANCH   1   2
ATOM      2  C   UNL A   1      37.035  20.978  24.824  1.00  0.00     0.023 C 
BRANCH   2   3
ATOM      3  C   UNL A   1      37.017  22.499  25.038  1.00  0.00     0.116 C 
BRANCH   3   4
ATOM      4  N   UNL A   1      36.372  23.197  23.936  1.00  0.00    -0.354 N 
ATOM      5  C   UNL A   1      35.063  23.571  23.788  1.00  0.00     0.245 C 
ATOM      6  O   UNL A   1      34.723  24.001  22.681  1.00  0.00    -0.273 OA
ATOM      7  H   UNL A   1      36.964  23.435  23.186  1.00  0.00     0.163 HD
BRANCH   5   8
ATOM      8  C   UNL A   1      34.079  23.460  24.961  1.00  0.00     0.199 C 
BRANCH   8   9
ATOM      9  N   UNL A   1      33.700  22.055  25.158  1.00  0.00    -0.257 N 
ATOM     10  C   UNL A   1      32.523  19.103  23.583  1.00  0.00     0.069 C 
ATOM     11  C   UNL A   1      33.004  20.146  24.519  1.00  0.00     0.060 A 
ATOM     12  C   UNL A   1      33.032  20.109  25.927  1.00  0.00     0.048 A 
ATOM     13  N   UNL A   1      33.466  21.307  24.053  1.00  0.00    -0.177 NA
ATOM     14  C   UNL A   1      33.490  21.350  26.323  1.00  0.00     0.037 A 
ATOM     15  C   UNL A   1      33.682  21.884  27.694  1.00  0.00     0.066 C 
ENDBRANCH   8   9
BRANCH   8  16
ATOM     16  C   UNL A   1      32.837  24.392  24.840  1.00  0.00     0.017 C 
ATOM     17  C   UNL A   1      31.601  23.625  24.342  1.00  0.00     0.010 C 
ATOM     18  C   UNL A   1      32.469  25.059  26.175  1.00  0.00     0.010 C 
ENDBRANCH   8  16
ENDBRANCH   5   8
ENDBRANCH   3   4
ENDBRANCH   2   3
ENDBRANCH   1   2
BRANCH   1  19
ATOM     19  C   UNL A   1      38.795  19.419  25.856  1.00  0.00     0.116 C 
BRANCH  19  20
ATOM     20  N   UNL A   1      40.135  18.837  25.727  1.00  0.00    -0.352 N 
ATOM     21  C   UNL A   1      41.361  19.490  25.822  1.00  0.00     0.251 C 
ATOM     22  H   UNL A   1      40.173  17.868  25.553  1.00  0.00     0.163 HD
ATOM     23  O   UNL A   1      42.365  19.021  25.314  1.00  0.00    -0.269 OA
BRANCH  21  24
ATOM     24  C   UNL A   1      41.404  20.753  26.584  1.00  0.00     0.039 A 
ATOM     25  C   UNL A   1      41.187  20.840  27.963  1.00  0.00     0.014 A 
ATOM     26  C   UNL A   1      41.735  21.880  25.846  1.00  0.00     0.014 A 
ATOM     27  C   UNL A   1      41.370  22.076  28.589  1.00  0.00     0.010 A 
ATOM     28  C   UNL A   1      42.171  22.995  26.490  1.00  0.00     0.010 A 
ATOM     29  C   UNL A   1      41.867  23.148  27.834  1.00  0.00    -0.014 A 
BRANCH  29  30
ATOM     30  C   UNL A   1      42.177  24.462  28.377  1.00  0.00     0.031 A 
ATOM     31  C   UNL A   1      41.092  25.463  28.192  1.00  0.00     0.074 A 
ATOM     32  C   UNL A   1      43.188  24.608  29.269  1.00  0.00     0.049 A 
ATOM     33  N   UNL A   1      41.117  26.538  27.478  1.00  0.00    -0.248 NA
ATOM     34  C   UNL A   1      39.753  25.140  28.717  1.00  0.00     0.031 C 
ATOM     35  C   UNL A   1      44.106  23.578  29.783  1.00  0.00     0.029 A 
ATOM     36  N   UNL A   1      43.528  25.684  30.022  1.00  0.00    -0.354 N 
ATOM     37  C   UNL A   1      39.885  27.156  27.680  1.00  0.00     0.074 A 
ATOM     38  C   UNL A   1      39.025  26.140  28.217  1.00  0.00     0.031 C 
ATOM     39  C   UNL A   1      44.717  24.020  30.906  1.00  0.00     0.029 A 
ATOM     40  C   UNL A   1      44.367  25.414  31.106  1.00  0.00     0.049 A 
ATOM     41  H   UNL A   1      43.207  26.592  29.820  1.00  0.00     0.167 HD
ATOM     42  C   UNL A   1      39.763  28.514  27.649  1.00  0.00     0.034 A 
ATOM     43  C   UNL A   1      44.728  26.270  32.107  1.00  0.00     0.034 A 
ATOM     44  C   UNL A   1      40.947  29.113  27.069  1.00  0.00     0.049 A 
ATOM     45  C   UNL A   1      44.459  27.638  31.589  1.00  0.00     0.074 A 
ATOM     46  C   UNL A   1      41.578  29.014  25.844  1.00  0.00     0.029 A 
ATOM     47  N   UNL A   1      41.898  29.617  27.931  1.00  0.00    -0.354 N 
ATOM     48  N   UNL A   1      45.093  28.142  30.562  1.00  0.00    -0.248 NA
ATOM     49  C   UNL A   1      43.145  28.212  31.842  1.00  0.00     0.031 C 
ATOM     50  C   UNL A   1      42.969  28.956  26.155  1.00  0.00     0.029 A 
ATOM     51  C   UNL A   1      43.122  29.133  27.534  1.00  0.00     0.049 A 
ATOM     52  H   UNL A   1      41.730  30.217  28.695  1.00  0.00     0.167 HD
ATOM     53  C   UNL A   1      44.113  28.758  29.796  1.00  0.00     0.074 A 
ATOM     54  C   UNL A   1      42.946  28.843  30.678  1.00  0.00     0.031 C 
ATOM     55  C   UNL A   1      44.228  28.857  28.437  1.00  0.00     0.034 A 
BRANCH  42  56
ATOM     56  C   UNL A   1      38.775  29.329  28.461  1.00  0.00     0.023 A 
ATOM     57  C   UNL A   1      38.975  29.368  29.855  1.00  0.00     0.031 A 
ATOM     58  C   UNL A   1      37.531  29.833  28.012  1.00  0.00     0.131 A 
ATOM     59  C   UNL A   1      37.948  29.772  30.726  1.00  0.00     0.055 A 
ATOM     60  C   UNL A   1      36.537  30.297  28.880  1.00  0.00     0.041 A 
ATOM     61  F   UNL A   1      37.161  29.830  26.728  1.00  0.00    -0.206 F 
ATOM     62  C   UNL A   1      36.727  30.235  30.247  1.00  0.00     0.022 A 
BRANCH  59  63
ATOM     63  S   UNL A   1      38.174  29.504  32.502  1.00  0.00     0.124 S 
ATOM     64  O   UNL A   1      39.629  29.487  32.614  1.00  0.00    -0.237 OA
ATOM     65  O   UNL A   1      37.497  30.666  33.068  1.00  0.00    -0.237 OA
ATOM     66  O   UNL A   1      37.515  28.222  32.737  1.00  0.00    -0.744 OA
ENDBRANCH  59  63
ENDBRANCH  42  56
BRANCH  43  67
ATOM     67  C   UNL A   1      44.918  25.949  33.557  1.00  0.00     0.023 A 
ATOM     68  C   UNL A   1      43.955  26.199  34.564  1.00  0.00     0.031 A 
ATOM     69  C   UNL A   1      46.021  25.146  33.935  1.00  0.00     0.131 A 
ATOM     70  C   UNL A   1      44.126  25.665  35.871  1.00  0.00     0.055 A 
ATOM     71  C   UNL A   1      46.180  24.620  35.220  1.00  0.00     0.041 A 
ATOM     72  F   UNL A   1      46.946  24.777  33.034  1.00  0.00    -0.206 F 
ATOM     73  C   UNL A   1      45.230  24.873  36.194  1.00  0.00     0.022 A 
BRANCH  70  74
ATOM     74  S   UNL A   1      42.877  25.940  37.180  1.00  0.00     0.124 S 
ATOM     75  O   UNL A   1      41.899  24.895  36.904  1.00  0.00    -0.237 OA
ATOM     76  O   UNL A   1      43.662  25.790  38.400  1.00  0.00    -0.237 OA
ATOM     77  O   UNL A   1      42.404  27.302  36.924  1.00  0.00    -0.744 OA
ENDBRANCH  70  74
ENDBRANCH  43  67
BRANCH  55  78
ATOM     78  C   UNL A   1      45.551  28.464  27.795  1.00  0.00     0.023 A 
ATOM     79  C   UNL A   1      45.875  27.171  27.315  1.00  0.00     0.031 A 
ATOM     80  C   UNL A   1      46.468  29.497  27.533  1.00  0.00     0.131 A 
ATOM     81  C   UNL A   1      47.079  26.956  26.610  1.00  0.00     0.055 A 
ATOM     82  C   UNL A   1      47.644  29.286  26.816  1.00  0.00     0.041 A 
ATOM     83  F   UNL A   1      46.208  30.752  27.936  1.00  0.00    -0.206 F 
ATOM     84  C   UNL A   1      47.957  28.014  26.355  1.00  0.00     0.022 A 
BRANCH  81  85
ATOM     85  S   UNL A   1      47.537  25.290  26.019  1.00  0.00     0.124 S 
ATOM     86  O   UNL A   1      48.637  24.909  26.898  1.00  0.00    -0.237 OA
ATOM     87  O   UNL A   1      46.295  24.539  26.187  1.00  0.00    -0.237 OA
ATOM     88  O   UNL A   1      47.923  25.517  24.625  1.00  0.00    -0.744 OA
ENDBRANCH  81  85
ENDBRANCH  55  78
ENDBRANCH  29  30
ENDBRANCH  21  24
ENDBRANCH  19  20
ENDBRANCH   1  19
TORSDOF 16
ENDMDL
