MODEL 1
REMARK VINA RESULT:     -13.9      0.000      0.000
REMARK SMILES Cc1cc(C(=O)NCCCCNC(=O)c2ccc(-c3c4nc(c(-c5cc(S(=O)(=O)[O-])ccc5F)c5ccc([nH]5)c(-c5cc(S(=O)(=O)[O-])ccc5F)c5nc(c(-c6cc(S(=O)(=O)[O-])ccc6F)c6ccc3[nH]6)C=C5)C=C4)cc2)ccc1NS(=O)(=O)c1ccc2c(c1)CCC2
REMARK SMILES IDX 9 1 8 2 7 3 5 4 6 5 4 7 1 8 2 9 3 10 80 11 79 12 78 13 81 14
REMARK SMILES IDX 82 16 83 17 84 18 85 19 86 20 90 21 87 22 89 23 88 24 91 25
REMARK SMILES IDX 93 26 92 27 10 28 11 29 12 30 13 31 14 33 15 34 16 35 77 36
REMARK SMILES IDX 17 37 76 38 18 39 19 40 20 41 70 42 21 43 75 44 69 45 71 46
REMARK SMILES IDX 22 47 74 48 68 49 67 50 23 52 55 53 35 54 54 55 36 56 39 57
REMARK SMILES IDX 53 58 72 59 37 60 38 61 52 63 73 64 40 65 24 66 25 67 33 68
REMARK SMILES IDX 26 69 32 70 34 71 31 72 27 73 28 74 29 75 30 76 56 77 57 78
REMARK SMILES IDX 65 79 58 80 64 81 66 82 63 83 59 84 60 85 61 86 62 87 41 88
REMARK SMILES IDX 42 89 50 90 43 91 49 92 51 93 48 94 44 95 45 96 46 97 47 98
REMARK H PARENT 7 6 81 15 12 32 71 51 39 62
REMARK Flexibility Score: inf
ROOT
ATOM      1  C   UNL A   1      36.903  21.417  24.679  1.00  0.00     0.023 C 
ENDROOT
BRANCH   1   2
ATOM      2  C   UNL A   1      35.692  21.705  25.579  1.00  0.00     0.116 C 
BRANCH   2   3
ATOM      3  N   UNL A   1      34.859  20.539  25.865  1.00  0.00    -0.352 N 
ATOM      4  C   UNL A   1      33.582  20.200  25.475  1.00  0.00     0.251 C 
ATOM      5  O   UNL A   1      33.079  19.164  25.906  1.00  0.00    -0.269 OA
ATOM      6  H   UNL A   1      35.292  19.871  26.444  1.00  0.00     0.163 HD
BRANCH   4   7
ATOM      7  C   UNL A   1      32.750  21.107  24.644  1.00  0.00     0.040 A 
ATOM      8  C   UNL A   1      31.043  24.451  25.188  1.00  0.00     0.046 C 
ATOM      9  C   UNL A   1      31.671  23.281  24.482  1.00  0.00    -0.026 A 
ATOM     10  C   UNL A   1      32.226  22.251  25.256  1.00  0.00     0.019 A 
ATOM     11  C   UNL A   1      31.735  23.178  23.084  1.00  0.00     0.052 A 
ATOM     12  C   UNL A   1      31.953  21.923  22.514  1.00  0.00     0.028 A 
ATOM     13  C   UNL A   1      32.473  20.884  23.297  1.00  0.00     0.016 A 
BRANCH  11  14
ATOM     14  N   UNL A   1      31.830  24.399  22.351  1.00  0.00    -0.279 N 
ATOM     15  H   UNL A   1      30.999  24.693  21.912  1.00  0.00     0.180 HD
BRANCH  14  16
ATOM     16  S   UNL A   1      33.144  25.396  22.136  1.00  0.00     0.261 S 
ATOM     17  O   UNL A   1      34.310  24.714  22.658  1.00  0.00    -0.201 OA
ATOM     18  O   UNL A   1      33.080  25.790  20.742  1.00  0.00    -0.201 OA
BRANCH  16  19
ATOM     19  C   UNL A   1      32.936  26.889  23.083  1.00  0.00     0.088 A 
ATOM     20  C   UNL A   1      31.874  27.784  22.868  1.00  0.00     0.022 A 
ATOM     21  C   UNL A   1      33.769  27.020  24.205  1.00  0.00     0.026 A 
ATOM     22  C   UNL A   1      31.480  28.645  23.894  1.00  0.00     0.005 A 
ATOM     23  C   UNL A   1      33.399  27.920  25.182  1.00  0.00    -0.043 A 
ATOM     24  C   UNL A   1      32.214  28.646  25.064  1.00  0.00    -0.045 A 
ATOM     25  C   UNL A   1      34.077  28.252  26.474  1.00  0.00     0.036 C 
ATOM     26  C   UNL A   1      31.901  29.364  26.340  1.00  0.00     0.036 C 
ATOM     27  C   UNL A   1      32.873  28.682  27.315  1.00  0.00     0.010 C 
ENDBRANCH  16  19
ENDBRANCH  14  16
ENDBRANCH  11  14
ENDBRANCH   4   7
ENDBRANCH   2   3
ENDBRANCH   1   2
BRANCH   1  28
ATOM     28  C   UNL A   1      38.269  21.379  25.365  1.00  0.00     0.023 C 
BRANCH  28  29
ATOM     29  C   UNL A   1      38.714  22.702  25.988  1.00  0.00     0.116 C 
BRANCH  29  30
ATOM     30  N   UNL A   1      40.093  22.713  26.468  1.00  0.00    -0.352 N 
ATOM     31  C   UNL A   1      40.838  23.784  26.946  1.00  0.00     0.251 C 
ATOM     32  H   UNL A   1      40.557  21.844  26.453  1.00  0.00     0.163 HD
ATOM     33  O   UNL A   1      42.020  23.669  27.226  1.00  0.00    -0.269 OA
BRANCH  31  34
ATOM     34  C   UNL A   1      40.142  25.069  27.185  1.00  0.00     0.039 A 
ATOM     35  C   UNL A   1      40.484  26.162  26.380  1.00  0.00     0.014 A 
ATOM     36  C   UNL A   1      39.368  25.242  28.328  1.00  0.00     0.014 A 
ATOM     37  C   UNL A   1      40.254  27.451  26.855  1.00  0.00     0.010 A 
ATOM     38  C   UNL A   1      39.242  26.513  28.849  1.00  0.00     0.010 A 
ATOM     39  C   UNL A   1      39.749  27.611  28.145  1.00  0.00    -0.014 A 
BRANCH  39  40
ATOM     40  C   UNL A   1      39.907  28.842  28.917  1.00  0.00     0.031 A 
ATOM     41  C   UNL A   1      38.885  29.907  28.886  1.00  0.00     0.074 A 
ATOM     42  C   UNL A   1      40.963  28.950  29.752  1.00  0.00     0.049 A 
ATOM     43  N   UNL A   1      39.079  31.125  29.266  1.00  0.00    -0.248 NA
ATOM     44  C   UNL A   1      37.548  29.685  28.352  1.00  0.00     0.031 C 
ATOM     45  C   UNL A   1      41.160  29.901  30.843  1.00  0.00     0.029 A 
ATOM     46  N   UNL A   1      42.197  28.336  29.628  1.00  0.00    -0.354 N 
ATOM     47  C   UNL A   1      37.853  31.750  29.323  1.00  0.00     0.074 A 
ATOM     48  C   UNL A   1      36.953  30.840  28.658  1.00  0.00     0.031 C 
ATOM     49  C   UNL A   1      42.473  29.972  31.126  1.00  0.00     0.029 A 
ATOM     50  C   UNL A   1      43.173  29.210  30.104  1.00  0.00     0.049 A 
ATOM     51  H   UNL A   1      42.358  27.434  29.266  1.00  0.00     0.167 HD
ATOM     52  C   UNL A   1      37.720  32.892  30.061  1.00  0.00     0.034 A 
ATOM     53  C   UNL A   1      44.115  29.735  29.260  1.00  0.00     0.034 A 
ATOM     54  C   UNL A   1      39.022  33.370  30.539  1.00  0.00     0.049 A 
ATOM     55  C   UNL A   1      44.079  31.251  29.179  1.00  0.00     0.074 A 
ATOM     56  C   UNL A   1      39.659  33.311  31.768  1.00  0.00     0.029 A 
ATOM     57  N   UNL A   1      39.987  33.774  29.619  1.00  0.00    -0.354 N 
ATOM     58  N   UNL A   1      43.050  31.983  29.505  1.00  0.00    -0.248 NA
ATOM     59  C   UNL A   1      45.200  32.049  28.694  1.00  0.00     0.031 C 
ATOM     60  C   UNL A   1      41.033  33.609  31.567  1.00  0.00     0.029 A 
ATOM     61  C   UNL A   1      41.225  33.886  30.224  1.00  0.00     0.049 A 
ATOM     62  H   UNL A   1      39.811  33.955  28.668  1.00  0.00     0.167 HD
ATOM     63  C   UNL A   1      43.327  33.304  29.259  1.00  0.00     0.074 A 
ATOM     64  C   UNL A   1      44.699  33.294  28.778  1.00  0.00     0.031 C 
ATOM     65  C   UNL A   1      42.397  34.288  29.454  1.00  0.00     0.034 A 
BRANCH  52  66
ATOM     66  C   UNL A   1      36.398  33.389  30.627  1.00  0.00     0.023 A 
ATOM     67  C   UNL A   1      35.507  34.087  29.782  1.00  0.00     0.031 A 
ATOM     68  C   UNL A   1      35.983  33.297  31.970  1.00  0.00     0.131 A 
ATOM     69  C   UNL A   1      34.367  34.745  30.284  1.00  0.00     0.055 A 
ATOM     70  C   UNL A   1      34.881  33.996  32.484  1.00  0.00     0.041 A 
ATOM     71  F   UNL A   1      36.579  32.477  32.842  1.00  0.00    -0.206 F 
ATOM     72  C   UNL A   1      34.075  34.741  31.644  1.00  0.00     0.022 A 
BRANCH  69  73
ATOM     73  S   UNL A   1      33.265  35.616  29.136  1.00  0.00     0.124 S 
ATOM     74  O   UNL A   1      32.562  34.515  28.485  1.00  0.00    -0.237 OA
ATOM     75  O   UNL A   1      32.475  36.446  30.038  1.00  0.00    -0.237 OA
ATOM     76  O   UNL A   1      34.188  36.352  28.273  1.00  0.00    -0.744 OA
ENDBRANCH  69  73
ENDBRANCH  52  66
BRANCH  53  77
ATOM     77  C   UNL A   1      44.467  28.848  28.109  1.00  0.00     0.023 A 
ATOM     78  C   UNL A   1      45.332  27.758  28.346  1.00  0.00     0.031 A 
ATOM     79  C   UNL A   1      43.737  28.849  26.912  1.00  0.00     0.131 A 
ATOM     80  C   UNL A   1      45.331  26.653  27.482  1.00  0.00     0.055 A 
ATOM     81  C   UNL A   1      43.791  27.770  26.018  1.00  0.00     0.041 A 
ATOM     82  F   UNL A   1      42.874  29.837  26.636  1.00  0.00    -0.206 F 
ATOM     83  C   UNL A   1      44.563  26.650  26.320  1.00  0.00     0.022 A 
BRANCH  80  84
ATOM     84  S   UNL A   1      46.163  25.133  28.017  1.00  0.00     0.124 S 
ATOM     85  O   UNL A   1      47.241  25.665  28.843  1.00  0.00    -0.237 OA
ATOM     86  O   UNL A   1      45.100  24.420  28.728  1.00  0.00    -0.237 OA
ATOM     87  O   UNL A   1      46.578  24.508  26.767  1.00  0.00    -0.744 OA
ENDBRANCH  80  84
ENDBRANCH  53  77
BRANCH  65  88
ATOM     88  C   UNL A   1      42.522  35.733  29.009  1.00  0.00     0.023 A 
ATOM     89  C   UNL A   1      43.284  36.694  29.691  1.00  0.00     0.031 A 
ATOM     90  C   UNL A   1      41.929  36.174  27.798  1.00  0.00     0.131 A 
ATOM     91  C   UNL A   1      43.370  38.022  29.230  1.00  0.00     0.055 A 
ATOM     92  C   UNL A   1      42.083  37.471  27.299  1.00  0.00     0.041 A 
ATOM     93  F   UNL A   1      41.182  35.360  27.040  1.00  0.00    -0.206 F 
ATOM     94  C   UNL A   1      42.795  38.412  28.023  1.00  0.00     0.022 A 
BRANCH  91  95
ATOM     95  S   UNL A   1      44.201  39.245  30.277  1.00  0.00     0.124 S 
ATOM     96  O   UNL A   1      44.687  38.418  31.378  1.00  0.00    -0.237 OA
ATOM     97  O   UNL A   1      45.226  39.777  29.385  1.00  0.00    -0.237 OA
ATOM     98  O   UNL A   1      43.136  40.181  30.629  1.00  0.00    -0.744 OA
ENDBRANCH  91  95
ENDBRANCH  65  88
ENDBRANCH  39  40
ENDBRANCH  31  34
ENDBRANCH  29  30
ENDBRANCH  28  29
ENDBRANCH   1  28
TORSDOF 17
ENDMDL
MODEL 2
REMARK VINA RESULT:     -13.0      2.760      4.125
REMARK SMILES Cc1cc(C(=O)NCCCCNC(=O)c2ccc(-c3c4nc(c(-c5cc(S(=O)(=O)[O-])ccc5F)c5ccc([nH]5)c(-c5cc(S(=O)(=O)[O-])ccc5F)c5nc(c(-c6cc(S(=O)(=O)[O-])ccc6F)c6ccc3[nH]6)C=C5)C=C4)cc2)ccc1NS(=O)(=O)c1ccc2c(c1)CCC2
REMARK SMILES IDX 9 1 8 2 7 3 5 4 6 5 4 7 1 8 2 9 3 10 80 11 79 12 78 13 81 14
REMARK SMILES IDX 82 16 83 17 84 18 85 19 86 20 90 21 87 22 89 23 88 24 91 25
REMARK SMILES IDX 93 26 92 27 10 28 11 29 12 30 13 31 14 33 15 34 16 35 77 36
REMARK SMILES IDX 17 37 76 38 18 39 19 40 20 41 70 42 21 43 75 44 69 45 71 46
REMARK SMILES IDX 22 47 74 48 68 49 67 50 23 52 55 53 35 54 54 55 36 56 39 57
REMARK SMILES IDX 53 58 72 59 37 60 38 61 52 63 73 64 40 65 24 66 25 67 33 68
REMARK SMILES IDX 26 69 32 70 34 71 31 72 27 73 28 74 29 75 30 76 56 77 57 78
REMARK SMILES IDX 65 79 58 80 64 81 66 82 63 83 59 84 60 85 61 86 62 87 41 88
REMARK SMILES IDX 42 89 50 90 43 91 49 92 51 93 48 94 44 95 45 96 46 97 47 98
REMARK H PARENT 7 6 81 15 12 32 71 51 39 62
REMARK Flexibility Score: inf
ROOT
ATOM      1  C   UNL A   1      38.084  24.060  26.491  1.00  0.00     0.023 C 
ENDROOT
BRANCH   1   2
ATOM      2  C   UNL A   1      36.893  23.450  25.738  1.00  0.00     0.116 C 
BRANCH   2   3
ATOM      3  N   UNL A   1      37.088  23.328  24.294  1.00  0.00    -0.352 N 
ATOM      4  C   UNL A   1      36.230  22.979  23.274  1.00  0.00     0.251 C 
ATOM      5  O   UNL A   1      36.665  22.899  22.127  1.00  0.00    -0.269 OA
ATOM      6  H   UNL A   1      38.003  23.535  23.996  1.00  0.00     0.163 HD
BRANCH   4   7
ATOM      7  C   UNL A   1      34.823  22.583  23.536  1.00  0.00     0.040 A 
ATOM      8  C   UNL A   1      33.114  20.026  25.757  1.00  0.00     0.046 C 
ATOM      9  C   UNL A   1      33.319  21.247  24.903  1.00  0.00    -0.026 A 
ATOM     10  C   UNL A   1      34.602  21.503  24.397  1.00  0.00     0.019 A 
ATOM     11  C   UNL A   1      32.286  22.147  24.597  1.00  0.00     0.052 A 
ATOM     12  C   UNL A   1      32.444  23.002  23.506  1.00  0.00     0.028 A 
ATOM     13  C   UNL A   1      33.722  23.228  22.977  1.00  0.00     0.016 A 
BRANCH  11  14
ATOM     14  N   UNL A   1      31.260  22.306  25.576  1.00  0.00    -0.279 N 
ATOM     15  H   UNL A   1      30.475  21.721  25.463  1.00  0.00     0.180 HD
BRANCH  14  16
ATOM     16  S   UNL A   1      31.199  23.339  26.879  1.00  0.00     0.261 S 
ATOM     17  O   UNL A   1      29.811  23.678  27.113  1.00  0.00    -0.201 OA
ATOM     18  O   UNL A   1      31.983  22.679  27.905  1.00  0.00    -0.201 OA
BRANCH  16  19
ATOM     19  C   UNL A   1      32.055  24.851  26.495  1.00  0.00     0.088 A 
ATOM     20  C   UNL A   1      33.453  24.923  26.368  1.00  0.00     0.022 A 
ATOM     21  C   UNL A   1      31.245  25.932  26.114  1.00  0.00     0.026 A 
ATOM     22  C   UNL A   1      34.026  25.956  25.625  1.00  0.00     0.005 A 
ATOM     23  C   UNL A   1      31.837  26.975  25.434  1.00  0.00    -0.043 A 
ATOM     24  C   UNL A   1      33.193  26.930  25.111  1.00  0.00    -0.045 A 
ATOM     25  C   UNL A   1      31.223  28.230  24.899  1.00  0.00     0.036 C 
ATOM     26  C   UNL A   1      33.552  28.040  24.172  1.00  0.00     0.036 C 
ATOM     27  C   UNL A   1      32.162  28.517  23.725  1.00  0.00     0.010 C 
ENDBRANCH  16  19
ENDBRANCH  14  16
ENDBRANCH  11  14
ENDBRANCH   4   7
ENDBRANCH   2   3
ENDBRANCH   1   2
BRANCH   1  28
ATOM     28  C   UNL A   1      39.455  23.442  26.213  1.00  0.00     0.023 C 
BRANCH  28  29
ATOM     29  C   UNL A   1      39.747  22.152  26.978  1.00  0.00     0.116 C 
BRANCH  29  30
ATOM     30  N   UNL A   1      40.607  21.207  26.269  1.00  0.00    -0.352 N 
ATOM     31  C   UNL A   1      41.988  21.236  26.117  1.00  0.00     0.251 C 
ATOM     32  H   UNL A   1      40.147  20.449  25.842  1.00  0.00     0.163 HD
ATOM     33  O   UNL A   1      42.573  20.430  25.413  1.00  0.00    -0.269 OA
BRANCH  31  34
ATOM     34  C   UNL A   1      42.758  22.232  26.899  1.00  0.00     0.039 A 
ATOM     35  C   UNL A   1      42.630  22.215  28.293  1.00  0.00     0.014 A 
ATOM     36  C   UNL A   1      43.382  23.295  26.254  1.00  0.00     0.014 A 
ATOM     37  C   UNL A   1      42.908  23.375  29.011  1.00  0.00     0.010 A 
ATOM     38  C   UNL A   1      43.550  24.475  26.947  1.00  0.00     0.010 A 
ATOM     39  C   UNL A   1      43.245  24.534  28.312  1.00  0.00    -0.014 A 
BRANCH  39  40
ATOM     40  C   UNL A   1      43.095  25.875  28.872  1.00  0.00     0.031 A 
ATOM     41  C   UNL A   1      41.890  26.689  28.611  1.00  0.00     0.074 A 
ATOM     42  C   UNL A   1      44.035  26.327  29.730  1.00  0.00     0.049 A 
ATOM     43  N   UNL A   1      41.811  27.964  28.789  1.00  0.00    -0.248 NA
ATOM     44  C   UNL A   1      40.672  26.115  28.055  1.00  0.00     0.031 C 
ATOM     45  C   UNL A   1      43.951  27.455  30.654  1.00  0.00     0.029 A 
ATOM     46  N   UNL A   1      45.371  25.969  29.774  1.00  0.00    -0.354 N 
ATOM     47  C   UNL A   1      40.485  28.323  28.678  1.00  0.00     0.074 A 
ATOM     48  C   UNL A   1      39.839  27.155  28.131  1.00  0.00     0.031 C 
ATOM     49  C   UNL A   1      45.196  27.839  30.987  1.00  0.00     0.029 A 
ATOM     50  C   UNL A   1      46.115  27.089  30.145  1.00  0.00     0.049 A 
ATOM     51  H   UNL A   1      45.735  25.075  29.578  1.00  0.00     0.167 HD
ATOM     52  C   UNL A   1      40.071  29.514  29.204  1.00  0.00     0.034 A 
ATOM     53  C   UNL A   1      47.003  27.659  29.273  1.00  0.00     0.034 A 
ATOM     54  C   UNL A   1      41.209  30.319  29.660  1.00  0.00     0.049 A 
ATOM     55  C   UNL A   1      46.678  29.104  28.936  1.00  0.00     0.074 A 
ATOM     56  C   UNL A   1      41.740  30.584  30.913  1.00  0.00     0.029 A 
ATOM     57  N   UNL A   1      42.150  30.766  28.736  1.00  0.00    -0.354 N 
ATOM     58  N   UNL A   1      45.502  29.650  29.081  1.00  0.00    -0.248 NA
ATOM     59  C   UNL A   1      47.659  30.032  28.381  1.00  0.00     0.031 C 
ATOM     60  C   UNL A   1      43.042  31.123  30.734  1.00  0.00     0.029 A 
ATOM     61  C   UNL A   1      43.288  31.223  29.375  1.00  0.00     0.049 A 
ATOM     62  H   UNL A   1      42.023  30.757  27.760  1.00  0.00     0.167 HD
ATOM     63  C   UNL A   1      45.536  30.945  28.630  1.00  0.00     0.074 A 
ATOM     64  C   UNL A   1      46.919  31.144  28.228  1.00  0.00     0.031 C 
ATOM     65  C   UNL A   1      44.418  31.734  28.609  1.00  0.00     0.034 A 
BRANCH  52  66
ATOM     66  C   UNL A   1      38.634  29.809  29.611  1.00  0.00     0.023 A 
ATOM     67  C   UNL A   1      37.997  30.961  29.099  1.00  0.00     0.031 A 
ATOM     68  C   UNL A   1      37.867  29.077  30.537  1.00  0.00     0.131 A 
ATOM     69  C   UNL A   1      36.750  31.401  29.586  1.00  0.00     0.055 A 
ATOM     70  C   UNL A   1      36.652  29.539  31.066  1.00  0.00     0.041 A 
ATOM     71  F   UNL A   1      38.214  27.847  30.933  1.00  0.00    -0.206 F 
ATOM     72  C   UNL A   1      36.095  30.717  30.604  1.00  0.00     0.022 A 
BRANCH  69  73
ATOM     73  S   UNL A   1      35.992  32.887  28.875  1.00  0.00     0.124 S 
ATOM     74  O   UNL A   1      37.132  33.790  28.754  1.00  0.00    -0.237 OA
ATOM     75  O   UNL A   1      35.432  32.380  27.627  1.00  0.00    -0.237 OA
ATOM     76  O   UNL A   1      35.003  33.277  29.880  1.00  0.00    -0.744 OA
ENDBRANCH  69  73
ENDBRANCH  52  66
BRANCH  53  77
ATOM     77  C   UNL A   1      47.617  26.697  28.307  1.00  0.00     0.023 A 
ATOM     78  C   UNL A   1      47.258  26.798  26.946  1.00  0.00     0.031 A 
ATOM     79  C   UNL A   1      48.754  25.941  28.624  1.00  0.00     0.131 A 
ATOM     80  C   UNL A   1      48.102  26.285  25.951  1.00  0.00     0.055 A 
ATOM     81  C   UNL A   1      49.559  25.374  27.627  1.00  0.00     0.041 A 
ATOM     82  F   UNL A   1      49.171  25.829  29.893  1.00  0.00    -0.206 F 
ATOM     83  C   UNL A   1      49.254  25.575  26.282  1.00  0.00     0.022 A 
BRANCH  80  84
ATOM     84  S   UNL A   1      47.800  26.759  24.226  1.00  0.00     0.124 S 
ATOM     85  O   UNL A   1      48.061  25.505  23.529  1.00  0.00    -0.237 OA
ATOM     86  O   UNL A   1      46.403  27.199  24.256  1.00  0.00    -0.237 OA
ATOM     87  O   UNL A   1      48.764  27.825  23.987  1.00  0.00    -0.744 OA
ENDBRANCH  80  84
ENDBRANCH  53  77
BRANCH  65  88
ATOM     88  C   UNL A   1      44.296  33.087  27.933  1.00  0.00     0.023 A 
ATOM     89  C   UNL A   1      44.412  34.309  28.612  1.00  0.00     0.031 A 
ATOM     90  C   UNL A   1      44.141  33.185  26.526  1.00  0.00     0.131 A 
ATOM     91  C   UNL A   1      44.295  35.538  27.933  1.00  0.00     0.055 A 
ATOM     92  C   UNL A   1      44.107  34.404  25.843  1.00  0.00     0.041 A 
ATOM     93  F   UNL A   1      44.026  32.098  25.751  1.00  0.00    -0.206 F 
ATOM     94  C   UNL A   1      44.168  35.595  26.548  1.00  0.00     0.022 A 
BRANCH  91  95
ATOM     95  S   UNL A   1      44.251  37.062  28.912  1.00  0.00     0.124 S 
ATOM     96  O   UNL A   1      44.194  36.542  30.276  1.00  0.00    -0.237 OA
ATOM     97  O   UNL A   1      45.501  37.713  28.535  1.00  0.00    -0.237 OA
ATOM     98  O   UNL A   1      43.037  37.733  28.455  1.00  0.00    -0.744 OA
ENDBRANCH  91  95
ENDBRANCH  65  88
ENDBRANCH  39  40
ENDBRANCH  31  34
ENDBRANCH  29  30
ENDBRANCH  28  29
ENDBRANCH   1  28
TORSDOF 17
ENDMDL
MODEL 3
REMARK VINA RESULT:     -12.9      2.515      3.695
REMARK SMILES Cc1cc(C(=O)NCCCCNC(=O)c2ccc(-c3c4nc(c(-c5cc(S(=O)(=O)[O-])ccc5F)c5ccc([nH]5)c(-c5cc(S(=O)(=O)[O-])ccc5F)c5nc(c(-c6cc(S(=O)(=O)[O-])ccc6F)c6ccc3[nH]6)C=C5)C=C4)cc2)ccc1NS(=O)(=O)c1ccc2c(c1)CCC2
REMARK SMILES IDX 9 1 8 2 7 3 5 4 6 5 4 7 1 8 2 9 3 10 80 11 79 12 78 13 81 14
REMARK SMILES IDX 82 16 83 17 84 18 85 19 86 20 90 21 87 22 89 23 88 24 91 25
REMARK SMILES IDX 93 26 92 27 10 28 11 29 12 30 13 31 14 33 15 34 16 35 77 36
REMARK SMILES IDX 17 37 76 38 18 39 19 40 20 41 70 42 21 43 75 44 69 45 71 46
REMARK SMILES IDX 22 47 74 48 68 49 67 50 23 52 55 53 35 54 54 55 36 56 39 57
REMARK SMILES IDX 53 58 72 59 37 60 38 61 52 63 73 64 40 65 24 66 25 67 33 68
REMARK SMILES IDX 26 69 32 70 34 71 31 72 27 73 28 74 29 75 30 76 56 77 57 78
REMARK SMILES IDX 65 79 58 80 64 81 66 82 63 83 59 84 60 85 61 86 62 87 41 88
REMARK SMILES IDX 42 89 50 90 43 91 49 92 51 93 48 94 44 95 45 96 46 97 47 98
REMARK H PARENT 7 6 81 15 12 32 71 51 39 62
REMARK Flexibility Score: inf
ROOT
ATOM      1  C   UNL A   1      37.644  23.350  25.322  1.00  0.00     0.023 C 
ENDROOT
BRANCH   1   2
ATOM      2  C   UNL A   1      36.190  23.688  25.684  1.00  0.00     0.116 C 
BRANCH   2   3
ATOM      3  N   UNL A   1      35.572  22.763  26.632  1.00  0.00    -0.352 N 
ATOM      4  C   UNL A   1      34.330  22.167  26.663  1.00  0.00     0.251 C 
ATOM      5  O   UNL A   1      34.031  21.455  27.620  1.00  0.00    -0.269 OA
ATOM      6  H   UNL A   1      36.152  22.521  27.390  1.00  0.00     0.163 HD
BRANCH   4   7
ATOM      7  C   UNL A   1      33.300  22.452  25.633  1.00  0.00     0.040 A 
ATOM      8  C   UNL A   1      30.512  24.995  25.242  1.00  0.00     0.046 C 
ATOM      9  C   UNL A   1      31.553  23.970  24.885  1.00  0.00    -0.026 A 
ATOM     10  C   UNL A   1      32.371  23.462  25.904  1.00  0.00     0.019 A 
ATOM     11  C   UNL A   1      31.748  23.505  23.575  1.00  0.00     0.052 A 
ATOM     12  C   UNL A   1      32.425  22.300  23.386  1.00  0.00     0.028 A 
ATOM     13  C   UNL A   1      33.214  21.774  24.418  1.00  0.00     0.016 A 
BRANCH  11  14
ATOM     14  N   UNL A   1      31.470  24.423  22.518  1.00  0.00    -0.279 N 
ATOM     15  H   UNL A   1      30.585  24.324  22.096  1.00  0.00     0.180 HD
BRANCH  14  16
ATOM     16  S   UNL A   1      32.427  25.633  21.896  1.00  0.00     0.261 S 
ATOM     17  O   UNL A   1      33.797  25.163  21.901  1.00  0.00    -0.201 OA
ATOM     18  O   UNL A   1      31.779  26.012  20.656  1.00  0.00    -0.201 OA
BRANCH  16  19
ATOM     19  C   UNL A   1      32.356  27.065  22.951  1.00  0.00     0.088 A 
ATOM     20  C   UNL A   1      31.279  27.967  22.938  1.00  0.00     0.022 A 
ATOM     21  C   UNL A   1      33.335  27.133  23.955  1.00  0.00     0.026 A 
ATOM     22  C   UNL A   1      31.031  28.763  24.057  1.00  0.00     0.005 A 
ATOM     23  C   UNL A   1      33.105  27.971  25.026  1.00  0.00    -0.043 A 
ATOM     24  C   UNL A   1      31.919  28.697  25.114  1.00  0.00    -0.045 A 
ATOM     25  C   UNL A   1      33.955  28.227  26.230  1.00  0.00     0.036 C 
ATOM     26  C   UNL A   1      31.785  29.336  26.462  1.00  0.00     0.036 C 
ATOM     27  C   UNL A   1      32.878  28.601  27.252  1.00  0.00     0.010 C 
ENDBRANCH  16  19
ENDBRANCH  14  16
ENDBRANCH  11  14
ENDBRANCH   4   7
ENDBRANCH   2   3
ENDBRANCH   1   2
BRANCH   1  28
ATOM     28  C   UNL A   1      38.314  22.251  26.148  1.00  0.00     0.023 C 
BRANCH  28  29
ATOM     29  C   UNL A   1      39.815  22.439  26.372  1.00  0.00     0.116 C 
BRANCH  29  30
ATOM     30  N   UNL A   1      40.635  21.299  25.968  1.00  0.00    -0.352 N 
ATOM     31  C   UNL A   1      42.005  21.119  26.116  1.00  0.00     0.251 C 
ATOM     32  H   UNL A   1      40.152  20.559  25.534  1.00  0.00     0.163 HD
ATOM     33  O   UNL A   1      42.580  20.153  25.643  1.00  0.00    -0.269 OA
BRANCH  31  34
ATOM     34  C   UNL A   1      42.755  22.098  26.938  1.00  0.00     0.039 A 
ATOM     35  C   UNL A   1      42.569  22.072  28.325  1.00  0.00     0.014 A 
ATOM     36  C   UNL A   1      43.419  23.157  26.329  1.00  0.00     0.014 A 
ATOM     37  C   UNL A   1      42.832  23.221  29.065  1.00  0.00     0.010 A 
ATOM     38  C   UNL A   1      43.574  24.330  27.039  1.00  0.00     0.010 A 
ATOM     39  C   UNL A   1      43.213  24.382  28.390  1.00  0.00    -0.014 A 
BRANCH  39  40
ATOM     40  C   UNL A   1      43.058  25.720  28.955  1.00  0.00     0.031 A 
ATOM     41  C   UNL A   1      41.837  26.518  28.721  1.00  0.00     0.074 A 
ATOM     42  C   UNL A   1      44.011  26.183  29.792  1.00  0.00     0.049 A 
ATOM     43  N   UNL A   1      41.744  27.792  28.903  1.00  0.00    -0.248 NA
ATOM     44  C   UNL A   1      40.614  25.928  28.192  1.00  0.00     0.031 C 
ATOM     45  C   UNL A   1      43.932  27.309  30.719  1.00  0.00     0.029 A 
ATOM     46  N   UNL A   1      45.352  25.843  29.807  1.00  0.00    -0.354 N 
ATOM     47  C   UNL A   1      40.413  28.134  28.821  1.00  0.00     0.074 A 
ATOM     48  C   UNL A   1      39.770  26.958  28.287  1.00  0.00     0.031 C 
ATOM     49  C   UNL A   1      45.179  27.709  31.025  1.00  0.00     0.029 A 
ATOM     50  C   UNL A   1      46.089  26.973  30.162  1.00  0.00     0.049 A 
ATOM     51  H   UNL A   1      45.723  24.955  29.601  1.00  0.00     0.167 HD
ATOM     52  C   UNL A   1      39.994  29.318  29.359  1.00  0.00     0.034 A 
ATOM     53  C   UNL A   1      46.950  27.555  29.272  1.00  0.00     0.034 A 
ATOM     54  C   UNL A   1      41.131  30.138  29.790  1.00  0.00     0.049 A 
ATOM     55  C   UNL A   1      46.599  28.996  28.944  1.00  0.00     0.074 A 
ATOM     56  C   UNL A   1      41.686  30.408  31.031  1.00  0.00     0.029 A 
ATOM     57  N   UNL A   1      42.046  30.598  28.846  1.00  0.00    -0.354 N 
ATOM     58  N   UNL A   1      45.419  29.526  29.116  1.00  0.00    -0.248 NA
ATOM     59  C   UNL A   1      47.555  29.937  28.368  1.00  0.00     0.031 C 
ATOM     60  C   UNL A   1      42.976  30.965  30.825  1.00  0.00     0.029 A 
ATOM     61  C   UNL A   1      43.191  31.069  29.460  1.00  0.00     0.049 A 
ATOM     62  H   UNL A   1      41.897  30.588  27.873  1.00  0.00     0.167 HD
ATOM     63  C   UNL A   1      45.426  30.822  28.666  1.00  0.00     0.074 A 
ATOM     64  C   UNL A   1      46.796  31.039  28.233  1.00  0.00     0.031 C 
ATOM     65  C   UNL A   1      44.298  31.597  28.670  1.00  0.00     0.034 A 
BRANCH  52  66
ATOM     66  C   UNL A   1      38.563  29.594  29.797  1.00  0.00     0.023 A 
ATOM     67  C   UNL A   1      37.832  30.619  29.156  1.00  0.00     0.031 A 
ATOM     68  C   UNL A   1      37.887  28.971  30.864  1.00  0.00     0.131 A 
ATOM     69  C   UNL A   1      36.585  31.060  29.641  1.00  0.00     0.055 A 
ATOM     70  C   UNL A   1      36.673  29.441  31.385  1.00  0.00     0.041 A 
ATOM     71  F   UNL A   1      38.329  27.836  31.418  1.00  0.00    -0.206 F 
ATOM     72  C   UNL A   1      36.022  30.504  30.785  1.00  0.00     0.022 A 
BRANCH  69  73
ATOM     73  S   UNL A   1      35.703  32.377  28.761  1.00  0.00     0.124 S 
ATOM     74  O   UNL A   1      36.740  33.392  28.602  1.00  0.00    -0.237 OA
ATOM     75  O   UNL A   1      35.269  31.698  27.546  1.00  0.00    -0.237 OA
ATOM     76  O   UNL A   1      34.626  32.739  29.682  1.00  0.00    -0.744 OA
ENDBRANCH  69  73
ENDBRANCH  52  66
BRANCH  53  77
ATOM     77  C   UNL A   1      47.555  26.603  28.292  1.00  0.00     0.023 A 
ATOM     78  C   UNL A   1      47.227  26.751  26.927  1.00  0.00     0.031 A 
ATOM     79  C   UNL A   1      48.663  25.804  28.610  1.00  0.00     0.131 A 
ATOM     80  C   UNL A   1      48.076  26.242  25.935  1.00  0.00     0.055 A 
ATOM     81  C   UNL A   1      49.471  25.241  27.613  1.00  0.00     0.041 A 
ATOM     82  F   UNL A   1      49.050  25.645  29.883  1.00  0.00    -0.206 F 
ATOM     83  C   UNL A   1      49.200  25.488  26.269  1.00  0.00     0.022 A 
BRANCH  80  84
ATOM     84  S   UNL A   1      47.823  26.772  24.219  1.00  0.00     0.124 S 
ATOM     85  O   UNL A   1      46.432  27.209  24.250  1.00  0.00    -0.237 OA
ATOM     86  O   UNL A   1      48.826  27.827  24.059  1.00  0.00    -0.237 OA
ATOM     87  O   UNL A   1      48.086  25.566  23.442  1.00  0.00    -0.744 OA
ENDBRANCH  80  84
ENDBRANCH  53  77
BRANCH  65  88
ATOM     88  C   UNL A   1      44.143  32.948  27.999  1.00  0.00     0.023 A 
ATOM     89  C   UNL A   1      44.135  34.166  28.695  1.00  0.00     0.031 A 
ATOM     90  C   UNL A   1      44.084  33.055  26.586  1.00  0.00     0.131 A 
ATOM     91  C   UNL A   1      43.993  35.394  28.020  1.00  0.00     0.055 A 
ATOM     92  C   UNL A   1      44.025  34.279  25.912  1.00  0.00     0.041 A 
ATOM     93  F   UNL A   1      44.091  31.973  25.794  1.00  0.00    -0.206 F 
ATOM     94  C   UNL A   1      43.963  35.462  26.630  1.00  0.00     0.022 A 
BRANCH  91  95
ATOM     95  S   UNL A   1      43.785  36.900  29.007  1.00  0.00     0.124 S 
ATOM     96  O   UNL A   1      42.567  37.467  28.436  1.00  0.00    -0.237 OA
ATOM     97  O   UNL A   1      43.664  36.372  30.362  1.00  0.00    -0.237 OA
ATOM     98  O   UNL A   1      45.005  37.659  28.742  1.00  0.00    -0.744 OA
ENDBRANCH  91  95
ENDBRANCH  65  88
ENDBRANCH  39  40
ENDBRANCH  31  34
ENDBRANCH  29  30
ENDBRANCH  28  29
ENDBRANCH   1  28
TORSDOF 17
ENDMDL
