MODEL 1
REMARK VINA RESULT:     -11.3      0.000      0.000
REMARK SMILES C[C@@]([NH2+]Cc1ccccc1Br)(C(=O)NCCCCNC(=O)c1ccc(-c2c3nc(c(-c4cc(S(=O)(=O)[O-])ccc4F)c4ccc([nH]4)c(-c4cc(S(=O)(=O)[O-])ccc4F)c4nc(c(-c5cc(S(=O)(=O)[O-])ccc5F)c5ccc2[nH]5)C=C4)C=C3)cc1)C(F)(F)F
REMARK SMILES IDX 16 1 15 2 14 3 12 4 13 5 2 7 1 8 3 9 4 12 5 13 6 14 10 15
REMARK SMILES IDX 7 16 9 17 11 18 8 19 85 20 86 21 87 22 88 23 17 24 18 25
REMARK SMILES IDX 19 26 20 27 21 29 22 30 23 31 84 32 24 33 83 34 25 35 26 36
REMARK SMILES IDX 27 37 77 38 28 39 82 40 76 41 78 42 29 43 81 44 75 45 74 46
REMARK SMILES IDX 30 48 62 49 42 50 61 51 43 52 46 53 60 54 79 55 44 56 45 57
REMARK SMILES IDX 59 59 80 60 47 61 31 62 32 63 40 64 33 65 39 66 41 67 38 68
REMARK SMILES IDX 34 69 35 70 36 71 37 72 63 73 64 74 72 75 65 76 71 77 73 78
REMARK SMILES IDX 70 79 66 80 67 81 68 82 69 83 48 84 49 85 57 86 50 87 56 88
REMARK SMILES IDX 58 89 55 90 51 91 52 92 53 93 54 94
REMARK H PARENT 14 6 3 10 3 11 19 28 78 47 46 58
REMARK Flexibility Score: inf
ROOT
ATOM      1  C   UNL A   1      31.887  30.118  26.717  1.00  0.00     0.023 C 
ENDROOT
BRANCH   1   2
ATOM      2  C   UNL A   1      33.080  29.498  25.990  1.00  0.00     0.116 C 
BRANCH   2   3
ATOM      3  N   UNL A   1      32.906  29.578  24.552  1.00  0.00    -0.350 N 
ATOM      4  C   UNL A   1      32.684  28.609  23.616  1.00  0.00     0.290 C 
ATOM      5  O   UNL A   1      32.642  29.002  22.447  1.00  0.00    -0.267 OA
ATOM      6  H   UNL A   1      32.957  30.491  24.187  1.00  0.00     0.163 HD
BRANCH   4   7
ATOM      7  C   UNL A   1      32.452  27.130  23.997  1.00  0.00     0.268 C 
ATOM      8  C   UNL A   1      32.488  26.223  22.745  1.00  0.00     0.101 C 
BRANCH   7   9
ATOM      9  N   UNL A   1      33.568  26.620  24.878  1.00  0.00    -0.322 N 
ATOM     10  H   UNL A   1      33.217  26.603  25.836  1.00  0.00     0.347 HD
ATOM     11  H   UNL A   1      34.346  27.259  24.711  1.00  0.00     0.347 HD
BRANCH   9  12
ATOM     12  C   UNL A   1      34.106  25.288  24.582  1.00  0.00     0.299 C 
BRANCH  12  13
ATOM     13  C   UNL A   1      33.926  24.273  25.684  1.00  0.00     0.020 A 
ATOM     14  C   UNL A   1      32.645  24.120  26.245  1.00  0.00     0.011 A 
ATOM     15  C   UNL A   1      34.960  23.450  26.161  1.00  0.00     0.026 A 
ATOM     16  C   UNL A   1      32.383  23.114  27.176  1.00  0.00     0.001 A 
ATOM     17  C   UNL A   1      34.694  22.439  27.091  1.00  0.00     0.016 A 
ATOM     18  Br  UNL A   1      36.762  23.629  25.581  1.00  0.00    -0.050 Br
ATOM     19  C   UNL A   1      33.403  22.261  27.584  1.00  0.00     0.001 A 
ENDBRANCH  12  13
ENDBRANCH   9  12
ENDBRANCH   7   9
BRANCH   7  20
ATOM     20  C   UNL A   1      30.985  27.015  24.519  1.00  0.00     0.453 C 
ATOM     21  F   UNL A   1      30.210  28.037  24.078  1.00  0.00    -0.164 F 
ATOM     22  F   UNL A   1      30.416  25.877  24.025  1.00  0.00    -0.164 F 
ATOM     23  F   UNL A   1      30.851  26.963  25.856  1.00  0.00    -0.164 F 
ENDBRANCH   7  20
ENDBRANCH   4   7
ENDBRANCH   2   3
ENDBRANCH   1   2
BRANCH   1  24
ATOM     24  C   UNL A   1      31.828  31.646  26.639  1.00  0.00     0.023 C 
BRANCH  24  25
ATOM     25  C   UNL A   1      32.922  32.376  27.410  1.00  0.00     0.116 C 
BRANCH  25  26
ATOM     26  N   UNL A   1      32.587  33.765  27.687  1.00  0.00    -0.352 N 
ATOM     27  C   UNL A   1      33.129  34.607  28.628  1.00  0.00     0.251 C 
ATOM     28  H   UNL A   1      31.878  34.153  27.124  1.00  0.00     0.163 HD
ATOM     29  O   UNL A   1      32.626  35.709  28.823  1.00  0.00    -0.269 OA
BRANCH  27  30
ATOM     30  C   UNL A   1      34.292  34.158  29.423  1.00  0.00     0.039 A 
ATOM     31  C   UNL A   1      34.072  33.372  30.556  1.00  0.00     0.014 A 
ATOM     32  C   UNL A   1      35.593  34.488  29.033  1.00  0.00     0.014 A 
ATOM     33  C   UNL A   1      35.162  32.858  31.260  1.00  0.00     0.010 A 
ATOM     34  C   UNL A   1      36.677  33.918  29.695  1.00  0.00     0.010 A 
ATOM     35  C   UNL A   1      36.473  33.095  30.814  1.00  0.00    -0.014 A 
BRANCH  35  36
ATOM     36  C   UNL A   1      37.643  32.489  31.502  1.00  0.00     0.031 A 
ATOM     37  C   UNL A   1      38.390  31.353  30.856  1.00  0.00     0.074 A 
ATOM     38  C   UNL A   1      37.991  32.918  32.732  1.00  0.00     0.049 A 
ATOM     39  N   UNL A   1      39.381  30.640  31.326  1.00  0.00    -0.248 NA
ATOM     40  C   UNL A   1      37.940  30.947  29.516  1.00  0.00     0.031 C 
ATOM     41  C   UNL A   1      37.318  33.985  33.475  1.00  0.00     0.029 A 
ATOM     42  N   UNL A   1      38.988  32.504  33.579  1.00  0.00    -0.354 N 
ATOM     43  C   UNL A   1      39.663  29.692  30.350  1.00  0.00     0.074 A 
ATOM     44  C   UNL A   1      38.699  29.886  29.287  1.00  0.00     0.031 C 
ATOM     45  C   UNL A   1      37.937  34.157  34.655  1.00  0.00     0.029 A 
ATOM     46  C   UNL A   1      39.018  33.184  34.774  1.00  0.00     0.049 A 
ATOM     47  H   UNL A   1      39.623  31.786  33.352  1.00  0.00     0.167 HD
ATOM     48  C   UNL A   1      40.650  28.761  30.330  1.00  0.00     0.034 A 
ATOM     49  C   UNL A   1      39.818  33.033  35.849  1.00  0.00     0.034 A 
ATOM     50  C   UNL A   1      41.613  28.593  31.391  1.00  0.00     0.049 A 
ATOM     51  C   UNL A   1      40.894  31.977  35.813  1.00  0.00     0.074 A 
ATOM     52  C   UNL A   1      42.689  27.724  31.448  1.00  0.00     0.029 A 
ATOM     53  N   UNL A   1      41.613  29.301  32.586  1.00  0.00    -0.354 N 
ATOM     54  N   UNL A   1      41.182  31.123  34.857  1.00  0.00    -0.248 NA
ATOM     55  C   UNL A   1      41.758  31.870  36.996  1.00  0.00     0.031 C 
ATOM     56  C   UNL A   1      43.297  27.859  32.700  1.00  0.00     0.029 A 
ATOM     57  C   UNL A   1      42.651  28.866  33.398  1.00  0.00     0.049 A 
ATOM     58  H   UNL A   1      40.971  30.009  32.822  1.00  0.00     0.167 HD
ATOM     59  C   UNL A   1      42.283  30.403  35.313  1.00  0.00     0.074 A 
ATOM     60  C   UNL A   1      42.613  30.931  36.620  1.00  0.00     0.031 C 
ATOM     61  C   UNL A   1      42.964  29.398  34.703  1.00  0.00     0.034 A 
BRANCH  48  62
ATOM     62  C   UNL A   1      40.713  27.840  29.135  1.00  0.00     0.023 A 
ATOM     63  C   UNL A   1      41.653  28.026  28.106  1.00  0.00     0.031 A 
ATOM     64  C   UNL A   1      39.807  26.771  29.012  1.00  0.00     0.131 A 
ATOM     65  C   UNL A   1      41.616  27.209  26.966  1.00  0.00     0.055 A 
ATOM     66  C   UNL A   1      39.831  25.909  27.913  1.00  0.00     0.041 A 
ATOM     67  F   UNL A   1      38.874  26.554  29.951  1.00  0.00    -0.206 F 
ATOM     68  C   UNL A   1      40.728  26.134  26.874  1.00  0.00     0.022 A 
BRANCH  65  69
ATOM     69  S   UNL A   1      42.650  27.659  25.545  1.00  0.00     0.124 S 
ATOM     70  O   UNL A   1      42.523  26.473  24.702  1.00  0.00    -0.237 OA
ATOM     71  O   UNL A   1      41.999  28.867  25.053  1.00  0.00    -0.237 OA
ATOM     72  O   UNL A   1      43.973  27.857  26.133  1.00  0.00    -0.744 OA
ENDBRANCH  65  69
ENDBRANCH  48  62
BRANCH  49  73
ATOM     73  C   UNL A   1      39.638  33.891  37.056  1.00  0.00     0.023 A 
ATOM     74  C   UNL A   1      39.008  33.395  38.207  1.00  0.00     0.031 A 
ATOM     75  C   UNL A   1      40.049  35.237  37.058  1.00  0.00     0.131 A 
ATOM     76  C   UNL A   1      38.758  34.250  39.293  1.00  0.00     0.055 A 
ATOM     77  C   UNL A   1      39.848  36.068  38.160  1.00  0.00     0.041 A 
ATOM     78  F   UNL A   1      40.662  35.761  35.984  1.00  0.00    -0.206 F 
ATOM     79  C   UNL A   1      39.185  35.580  39.282  1.00  0.00     0.022 A 
BRANCH  76  80
ATOM     80  S   UNL A   1      37.782  33.620  40.685  1.00  0.00     0.124 S 
ATOM     81  O   UNL A   1      37.523  34.839  41.443  1.00  0.00    -0.237 OA
ATOM     82  O   UNL A   1      36.633  33.029  40.007  1.00  0.00    -0.237 OA
ATOM     83  O   UNL A   1      38.683  32.665  41.327  1.00  0.00    -0.744 OA
ENDBRANCH  76  80
ENDBRANCH  49  73
BRANCH  61  84
ATOM     84  C   UNL A   1      44.164  28.845  35.432  1.00  0.00     0.023 A 
ATOM     85  C   UNL A   1      44.051  27.797  36.361  1.00  0.00     0.031 A 
ATOM     86  C   UNL A   1      45.442  29.386  35.196  1.00  0.00     0.131 A 
ATOM     87  C   UNL A   1      45.185  27.361  37.063  1.00  0.00     0.055 A 
ATOM     88  C   UNL A   1      46.575  28.907  35.853  1.00  0.00     0.041 A 
ATOM     89  F   UNL A   1      45.607  30.390  34.320  1.00  0.00    -0.206 F 
ATOM     90  C   UNL A   1      46.449  27.898  36.803  1.00  0.00     0.022 A 
BRANCH  87  91
ATOM     91  S   UNL A   1      44.972  26.143  38.391  1.00  0.00     0.124 S 
ATOM     92  O   UNL A   1      46.140  26.399  39.228  1.00  0.00    -0.237 OA
ATOM     93  O   UNL A   1      43.684  26.523  38.960  1.00  0.00    -0.237 OA
ATOM     94  O   UNL A   1      44.985  24.862  37.686  1.00  0.00    -0.744 OA
ENDBRANCH  87  91
ENDBRANCH  61  84
ENDBRANCH  35  36
ENDBRANCH  27  30
ENDBRANCH  25  26
ENDBRANCH  24  25
ENDBRANCH   1  24
TORSDOF 18
ENDMDL
MODEL 2
REMARK VINA RESULT:     -11.2      2.889      8.579
REMARK SMILES C[C@@]([NH2+]Cc1ccccc1Br)(C(=O)NCCCCNC(=O)c1ccc(-c2c3nc(c(-c4cc(S(=O)(=O)[O-])ccc4F)c4ccc([nH]4)c(-c4cc(S(=O)(=O)[O-])ccc4F)c4nc(c(-c5cc(S(=O)(=O)[O-])ccc5F)c5ccc2[nH]5)C=C4)C=C3)cc1)C(F)(F)F
REMARK SMILES IDX 16 1 15 2 14 3 12 4 13 5 2 7 1 8 3 9 4 12 5 13 6 14 10 15
REMARK SMILES IDX 7 16 9 17 11 18 8 19 85 20 86 21 87 22 88 23 17 24 18 25
REMARK SMILES IDX 19 26 20 27 21 29 22 30 23 31 84 32 24 33 83 34 25 35 26 36
REMARK SMILES IDX 27 37 77 38 28 39 82 40 76 41 78 42 29 43 81 44 75 45 74 46
REMARK SMILES IDX 30 48 62 49 42 50 61 51 43 52 46 53 60 54 79 55 44 56 45 57
REMARK SMILES IDX 59 59 80 60 47 61 31 62 32 63 40 64 33 65 39 66 41 67 38 68
REMARK SMILES IDX 34 69 35 70 36 71 37 72 63 73 64 74 72 75 65 76 71 77 73 78
REMARK SMILES IDX 70 79 66 80 67 81 68 82 69 83 48 84 49 85 57 86 50 87 56 88
REMARK SMILES IDX 58 89 55 90 51 91 52 92 53 93 54 94
REMARK H PARENT 14 6 3 10 3 11 19 28 78 47 46 58
REMARK Flexibility Score: inf
ROOT
ATOM      1  C   UNL A   1      31.563  27.774  26.937  1.00  0.00     0.023 C 
ENDROOT
BRANCH   1   2
ATOM      2  C   UNL A   1      32.019  26.418  26.399  1.00  0.00     0.116 C 
BRANCH   2   3
ATOM      3  N   UNL A   1      31.202  25.347  26.938  1.00  0.00    -0.350 N 
ATOM      4  C   UNL A   1      31.168  24.011  26.658  1.00  0.00     0.290 C 
ATOM      5  O   UNL A   1      30.302  23.367  27.256  1.00  0.00    -0.267 OA
ATOM      6  H   UNL A   1      30.559  25.635  27.627  1.00  0.00     0.163 HD
BRANCH   4   7
ATOM      7  C   UNL A   1      32.177  23.342  25.699  1.00  0.00     0.268 C 
ATOM      8  C   UNL A   1      31.750  21.893  25.367  1.00  0.00     0.101 C 
BRANCH   7   9
ATOM      9  N   UNL A   1      32.206  24.054  24.367  1.00  0.00    -0.322 N 
ATOM     10  H   UNL A   1      32.868  23.559  23.770  1.00  0.00     0.347 HD
ATOM     11  H   UNL A   1      32.457  25.017  24.591  1.00  0.00     0.347 HD
BRANCH   9  12
ATOM     12  C   UNL A   1      30.941  24.158  23.631  1.00  0.00     0.299 C 
BRANCH  12  13
ATOM     13  C   UNL A   1      30.518  25.567  23.294  1.00  0.00     0.020 A 
ATOM     14  C   UNL A   1      29.329  26.058  23.865  1.00  0.00     0.011 A 
ATOM     15  C   UNL A   1      31.260  26.427  22.467  1.00  0.00     0.026 A 
ATOM     16  C   UNL A   1      28.948  27.390  23.697  1.00  0.00     0.001 A 
ATOM     17  C   UNL A   1      30.878  27.764  22.305  1.00  0.00     0.016 A 
ATOM     18  Br  UNL A   1      32.818  25.860  21.537  1.00  0.00    -0.050 Br
ATOM     19  C   UNL A   1      29.734  28.247  22.934  1.00  0.00     0.001 A 
ENDBRANCH  12  13
ENDBRANCH   9  12
ENDBRANCH   7   9
BRANCH   7  20
ATOM     20  C   UNL A   1      33.519  23.182  26.482  1.00  0.00     0.453 C 
ATOM     21  F   UNL A   1      33.309  22.902  27.792  1.00  0.00    -0.164 F 
ATOM     22  F   UNL A   1      34.212  22.119  25.981  1.00  0.00    -0.164 F 
ATOM     23  F   UNL A   1      34.347  24.240  26.429  1.00  0.00    -0.164 F 
ENDBRANCH   7  20
ENDBRANCH   4   7
ENDBRANCH   2   3
ENDBRANCH   1   2
BRANCH   1  24
ATOM     24  C   UNL A   1      31.825  28.948  25.990  1.00  0.00     0.023 C 
BRANCH  24  25
ATOM     25  C   UNL A   1      33.152  29.667  26.204  1.00  0.00     0.116 C 
BRANCH  25  26
ATOM     26  N   UNL A   1      32.983  31.043  26.645  1.00  0.00    -0.352 N 
ATOM     27  C   UNL A   1      33.771  31.773  27.502  1.00  0.00     0.251 C 
ATOM     28  H   UNL A   1      32.200  31.515  26.279  1.00  0.00     0.163 HD
ATOM     29  O   UNL A   1      33.400  32.880  27.880  1.00  0.00    -0.269 OA
BRANCH  27  30
ATOM     30  C   UNL A   1      35.042  31.197  27.990  1.00  0.00     0.039 A 
ATOM     31  C   UNL A   1      36.177  32.010  28.036  1.00  0.00     0.014 A 
ATOM     32  C   UNL A   1      35.105  29.871  28.426  1.00  0.00     0.014 A 
ATOM     33  C   UNL A   1      37.360  31.512  28.586  1.00  0.00     0.010 A 
ATOM     34  C   UNL A   1      36.263  29.400  29.036  1.00  0.00     0.010 A 
ATOM     35  C   UNL A   1      37.403  30.215  29.125  1.00  0.00    -0.014 A 
BRANCH  35  36
ATOM     36  C   UNL A   1      38.627  29.695  29.789  1.00  0.00     0.031 A 
ATOM     37  C   UNL A   1      39.027  30.216  31.143  1.00  0.00     0.074 A 
ATOM     38  C   UNL A   1      39.409  28.806  29.145  1.00  0.00     0.049 A 
ATOM     39  N   UNL A   1      40.096  29.951  31.849  1.00  0.00    -0.248 NA
ATOM     40  C   UNL A   1      38.117  31.186  31.770  1.00  0.00     0.031 C 
ATOM     41  C   UNL A   1      39.145  28.260  27.812  1.00  0.00     0.029 A 
ATOM     42  N   UNL A   1      40.590  28.214  29.516  1.00  0.00    -0.354 N 
ATOM     43  C   UNL A   1      39.997  30.732  32.995  1.00  0.00     0.074 A 
ATOM     44  C   UNL A   1      38.792  31.523  32.860  1.00  0.00     0.031 C 
ATOM     45  C   UNL A   1      40.122  27.395  27.490  1.00  0.00     0.029 A 
ATOM     46  C   UNL A   1      41.104  27.360  28.568  1.00  0.00     0.049 A 
ATOM     47  H   UNL A   1      41.029  28.386  30.381  1.00  0.00     0.167 HD
ATOM     48  C   UNL A   1      40.823  30.769  34.071  1.00  0.00     0.034 A 
ATOM     49  C   UNL A   1      42.244  26.640  28.563  1.00  0.00     0.034 A 
ATOM     50  C   UNL A   1      42.011  29.961  34.196  1.00  0.00     0.049 A 
ATOM     51  C   UNL A   1      43.157  26.714  29.762  1.00  0.00     0.074 A 
ATOM     52  C   UNL A   1      42.885  29.873  35.267  1.00  0.00     0.029 A 
ATOM     53  N   UNL A   1      42.500  29.105  33.217  1.00  0.00    -0.354 N 
ATOM     54  N   UNL A   1      43.020  27.418  30.862  1.00  0.00    -0.248 NA
ATOM     55  C   UNL A   1      44.372  25.890  29.721  1.00  0.00     0.031 C 
ATOM     56  C   UNL A   1      43.934  29.020  34.909  1.00  0.00     0.029 A 
ATOM     57  C   UNL A   1      43.678  28.512  33.646  1.00  0.00     0.049 A 
ATOM     58  H   UNL A   1      42.072  28.943  32.346  1.00  0.00     0.167 HD
ATOM     59  C   UNL A   1      44.116  27.092  31.657  1.00  0.00     0.074 A 
ATOM     60  C   UNL A   1      44.893  26.121  30.917  1.00  0.00     0.031 C 
ATOM     61  C   UNL A   1      44.447  27.551  32.892  1.00  0.00     0.034 A 
BRANCH  48  62
ATOM     62  C   UNL A   1      40.478  31.735  35.179  1.00  0.00     0.023 A 
ATOM     63  C   UNL A   1      39.515  31.426  36.157  1.00  0.00     0.031 A 
ATOM     64  C   UNL A   1      41.105  32.992  35.249  1.00  0.00     0.131 A 
ATOM     65  C   UNL A   1      39.152  32.388  37.112  1.00  0.00     0.055 A 
ATOM     66  C   UNL A   1      40.799  33.913  36.253  1.00  0.00     0.041 A 
ATOM     67  F   UNL A   1      42.017  33.352  34.333  1.00  0.00    -0.206 F 
ATOM     68  C   UNL A   1      39.806  33.620  37.183  1.00  0.00     0.022 A 
BRANCH  65  69
ATOM     69  S   UNL A   1      37.714  32.059  38.168  1.00  0.00     0.124 S 
ATOM     70  O   UNL A   1      36.774  33.078  37.710  1.00  0.00    -0.237 OA
ATOM     71  O   UNL A   1      37.382  30.681  37.828  1.00  0.00    -0.237 OA
ATOM     72  O   UNL A   1      38.230  32.261  39.521  1.00  0.00    -0.744 OA
ENDBRANCH  65  69
ENDBRANCH  48  62
BRANCH  49  73
ATOM     73  C   UNL A   1      42.600  25.790  27.390  1.00  0.00     0.023 A 
ATOM     74  C   UNL A   1      42.167  24.458  27.307  1.00  0.00     0.031 A 
ATOM     75  C   UNL A   1      43.420  26.282  26.359  1.00  0.00     0.131 A 
ATOM     76  C   UNL A   1      42.598  23.646  26.245  1.00  0.00     0.055 A 
ATOM     77  C   UNL A   1      43.801  25.487  25.277  1.00  0.00     0.041 A 
ATOM     78  F   UNL A   1      43.858  27.551  26.386  1.00  0.00    -0.206 F 
ATOM     79  C   UNL A   1      43.402  24.155  25.223  1.00  0.00     0.022 A 
BRANCH  76  80
ATOM     80  S   UNL A   1      42.167  21.885  26.270  1.00  0.00     0.124 S 
ATOM     81  O   UNL A   1      40.748  21.921  25.930  1.00  0.00    -0.237 OA
ATOM     82  O   UNL A   1      43.058  21.340  25.251  1.00  0.00    -0.237 OA
ATOM     83  O   UNL A   1      42.470  21.480  27.641  1.00  0.00    -0.744 OA
ENDBRANCH  76  80
ENDBRANCH  49  73
BRANCH  61  84
ATOM     84  C   UNL A   1      45.681  26.962  33.532  1.00  0.00     0.023 A 
ATOM     85  C   UNL A   1      45.641  25.753  34.248  1.00  0.00     0.031 A 
ATOM     86  C   UNL A   1      46.915  27.631  33.431  1.00  0.00     0.131 A 
ATOM     87  C   UNL A   1      46.798  25.278  34.882  1.00  0.00     0.055 A 
ATOM     88  C   UNL A   1      48.075  27.122  34.013  1.00  0.00     0.041 A 
ATOM     89  F   UNL A   1      47.010  28.790  32.762  1.00  0.00    -0.206 F 
ATOM     90  C   UNL A   1      48.020  25.947  34.755  1.00  0.00     0.022 A 
BRANCH  87  91
ATOM     91  S   UNL A   1      46.669  23.821  35.955  1.00  0.00     0.124 S 
ATOM     92  O   UNL A   1      47.906  23.900  36.725  1.00  0.00    -0.237 OA
ATOM     93  O   UNL A   1      45.439  24.085  36.693  1.00  0.00    -0.237 OA
ATOM     94  O   UNL A   1      46.597  22.706  35.012  1.00  0.00    -0.744 OA
ENDBRANCH  87  91
ENDBRANCH  61  84
ENDBRANCH  35  36
ENDBRANCH  27  30
ENDBRANCH  25  26
ENDBRANCH  24  25
ENDBRANCH   1  24
TORSDOF 18
ENDMDL
MODEL 3
REMARK VINA RESULT:     -11.2      2.812      3.925
REMARK SMILES C[C@@]([NH2+]Cc1ccccc1Br)(C(=O)NCCCCNC(=O)c1ccc(-c2c3nc(c(-c4cc(S(=O)(=O)[O-])ccc4F)c4ccc([nH]4)c(-c4cc(S(=O)(=O)[O-])ccc4F)c4nc(c(-c5cc(S(=O)(=O)[O-])ccc5F)c5ccc2[nH]5)C=C4)C=C3)cc1)C(F)(F)F
REMARK SMILES IDX 16 1 15 2 14 3 12 4 13 5 2 7 1 8 3 9 4 12 5 13 6 14 10 15
REMARK SMILES IDX 7 16 9 17 11 18 8 19 85 20 86 21 87 22 88 23 17 24 18 25
REMARK SMILES IDX 19 26 20 27 21 29 22 30 23 31 84 32 24 33 83 34 25 35 26 36
REMARK SMILES IDX 27 37 77 38 28 39 82 40 76 41 78 42 29 43 81 44 75 45 74 46
REMARK SMILES IDX 30 48 62 49 42 50 61 51 43 52 46 53 60 54 79 55 44 56 45 57
REMARK SMILES IDX 59 59 80 60 47 61 31 62 32 63 40 64 33 65 39 66 41 67 38 68
REMARK SMILES IDX 34 69 35 70 36 71 37 72 63 73 64 74 72 75 65 76 71 77 73 78
REMARK SMILES IDX 70 79 66 80 67 81 68 82 69 83 48 84 49 85 57 86 50 87 56 88
REMARK SMILES IDX 58 89 55 90 51 91 52 92 53 93 54 94
REMARK H PARENT 14 6 3 10 3 11 19 28 78 47 46 58
REMARK Flexibility Score: inf
ROOT
ATOM      1  C   UNL A   1      31.879  27.659  26.846  1.00  0.00     0.023 C 
ENDROOT
BRANCH   1   2
ATOM      2  C   UNL A   1      32.268  26.252  26.392  1.00  0.00     0.116 C 
BRANCH   2   3
ATOM      3  N   UNL A   1      31.367  25.262  26.949  1.00  0.00    -0.350 N 
ATOM      4  C   UNL A   1      31.246  23.921  26.718  1.00  0.00     0.290 C 
ATOM      5  O   UNL A   1      30.324  23.362  27.317  1.00  0.00    -0.267 OA
ATOM      6  H   UNL A   1      30.729  25.619  27.610  1.00  0.00     0.163 HD
BRANCH   4   7
ATOM      7  C   UNL A   1      32.229  23.148  25.811  1.00  0.00     0.268 C 
ATOM      8  C   UNL A   1      31.680  21.742  25.472  1.00  0.00     0.101 C 
BRANCH   7   9
ATOM      9  N   UNL A   1      32.384  23.837  24.476  1.00  0.00    -0.322 N 
ATOM     10  H   UNL A   1      33.138  23.368  23.976  1.00  0.00     0.347 HD
ATOM     11  H   UNL A   1      32.557  24.816  24.706  1.00  0.00     0.347 HD
BRANCH   9  12
ATOM     12  C   UNL A   1      31.215  23.861  23.590  1.00  0.00     0.299 C 
BRANCH  12  13
ATOM     13  C   UNL A   1      30.682  25.239  23.281  1.00  0.00     0.020 A 
ATOM     14  C   UNL A   1      29.504  25.656  23.928  1.00  0.00     0.011 A 
ATOM     15  C   UNL A   1      31.313  26.141  22.408  1.00  0.00     0.026 A 
ATOM     16  C   UNL A   1      29.029  26.961  23.785  1.00  0.00     0.001 A 
ATOM     17  C   UNL A   1      30.838  27.450  22.271  1.00  0.00     0.016 A 
ATOM     18  Br  UNL A   1      32.841  25.670  21.379  1.00  0.00    -0.050 Br
ATOM     19  C   UNL A   1      29.707  27.863  22.973  1.00  0.00     0.001 A 
ENDBRANCH  12  13
ENDBRANCH   9  12
ENDBRANCH   7   9
BRANCH   7  20
ATOM     20  C   UNL A   1      33.514  22.871  26.655  1.00  0.00     0.453 C 
ATOM     21  F   UNL A   1      33.226  22.696  27.969  1.00  0.00    -0.164 F 
ATOM     22  F   UNL A   1      34.084  21.703  26.240  1.00  0.00    -0.164 F 
ATOM     23  F   UNL A   1      34.468  23.815  26.578  1.00  0.00    -0.164 F 
ENDBRANCH   7  20
ENDBRANCH   4   7
ENDBRANCH   2   3
ENDBRANCH   1   2
BRANCH   1  24
ATOM     24  C   UNL A   1      31.772  28.680  25.710  1.00  0.00     0.023 C 
BRANCH  24  25
ATOM     25  C   UNL A   1      32.889  29.716  25.665  1.00  0.00     0.116 C 
BRANCH  25  26
ATOM     26  N   UNL A   1      32.463  31.027  26.129  1.00  0.00    -0.352 N 
ATOM     27  C   UNL A   1      33.037  31.828  27.087  1.00  0.00     0.251 C 
ATOM     28  H   UNL A   1      31.654  31.389  25.699  1.00  0.00     0.163 HD
ATOM     29  O   UNL A   1      32.461  32.845  27.459  1.00  0.00    -0.269 OA
BRANCH  27  30
ATOM     30  C   UNL A   1      34.330  31.432  27.686  1.00  0.00     0.039 A 
ATOM     31  C   UNL A   1      35.325  32.400  27.842  1.00  0.00     0.014 A 
ATOM     32  C   UNL A   1      34.546  30.120  28.117  1.00  0.00     0.014 A 
ATOM     33  C   UNL A   1      36.514  32.066  28.495  1.00  0.00     0.010 A 
ATOM     34  C   UNL A   1      35.701  29.809  28.829  1.00  0.00     0.010 A 
ATOM     35  C   UNL A   1      36.696  30.779  29.028  1.00  0.00    -0.014 A 
BRANCH  35  36
ATOM     36  C   UNL A   1      37.918  30.429  29.797  1.00  0.00     0.031 A 
ATOM     37  C   UNL A   1      38.909  29.448  29.229  1.00  0.00     0.074 A 
ATOM     38  C   UNL A   1      38.102  30.942  31.030  1.00  0.00     0.049 A 
ATOM     39  N   UNL A   1      39.989  28.952  29.775  1.00  0.00    -0.248 NA
ATOM     40  C   UNL A   1      38.628  28.934  27.880  1.00  0.00     0.031 C 
ATOM     41  C   UNL A   1      37.191  31.872  31.701  1.00  0.00     0.029 A 
ATOM     42  N   UNL A   1      39.108  30.749  31.943  1.00  0.00    -0.354 N 
ATOM     43  C   UNL A   1      40.509  28.058  28.846  1.00  0.00     0.074 A 
ATOM     44  C   UNL A   1      39.591  28.038  27.727  1.00  0.00     0.031 C 
ATOM     45  C   UNL A   1      37.693  32.185  32.907  1.00  0.00     0.029 A 
ATOM     46  C   UNL A   1      38.933  31.446  33.116  1.00  0.00     0.049 A 
ATOM     47  H   UNL A   1      39.883  30.165  31.774  1.00  0.00     0.167 HD
ATOM     48  C   UNL A   1      41.657  27.338  28.910  1.00  0.00     0.034 A 
ATOM     49  C   UNL A   1      39.681  31.476  34.237  1.00  0.00     0.034 A 
ATOM     50  C   UNL A   1      42.569  27.384  30.027  1.00  0.00     0.049 A 
ATOM     51  C   UNL A   1      40.942  30.651  34.293  1.00  0.00     0.074 A 
ATOM     52  C   UNL A   1      43.788  26.744  30.171  1.00  0.00     0.029 A 
ATOM     53  N   UNL A   1      42.360  28.103  31.198  1.00  0.00    -0.354 N 
ATOM     54  N   UNL A   1      41.447  29.851  33.383  1.00  0.00    -0.248 NA
ATOM     55  C   UNL A   1      41.738  30.740  35.525  1.00  0.00     0.031 C 
ATOM     56  C   UNL A   1      44.282  27.021  31.450  1.00  0.00     0.029 A 
ATOM     57  C   UNL A   1      43.412  27.896  32.078  1.00  0.00     0.049 A 
ATOM     58  H   UNL A   1      41.580  28.676  31.375  1.00  0.00     0.167 HD
ATOM     59  C   UNL A   1      42.638  29.370  33.921  1.00  0.00     0.074 A 
ATOM     60  C   UNL A   1      42.781  29.979  35.226  1.00  0.00     0.031 C 
ATOM     61  C   UNL A   1      43.536  28.505  33.382  1.00  0.00     0.034 A 
BRANCH  48  62
ATOM     62  C   UNL A   1      41.970  26.423  27.751  1.00  0.00     0.023 A 
ATOM     63  C   UNL A   1      41.535  25.086  27.724  1.00  0.00     0.031 A 
ATOM     64  C   UNL A   1      42.732  26.887  26.664  1.00  0.00     0.131 A 
ATOM     65  C   UNL A   1      41.928  24.241  26.676  1.00  0.00     0.055 A 
ATOM     66  C   UNL A   1      43.050  26.062  25.582  1.00  0.00     0.041 A 
ATOM     67  F   UNL A   1      43.193  28.147  26.641  1.00  0.00    -0.206 F 
ATOM     68  C   UNL A   1      42.662  24.727  25.591  1.00  0.00     0.022 A 
BRANCH  65  69
ATOM     69  S   UNL A   1      41.590  22.465  26.823  1.00  0.00     0.124 S 
ATOM     70  O   UNL A   1      40.148  22.459  27.054  1.00  0.00    -0.237 OA
ATOM     71  O   UNL A   1      42.034  21.952  25.533  1.00  0.00    -0.237 OA
ATOM     72  O   UNL A   1      42.399  22.056  27.970  1.00  0.00    -0.744 OA
ENDBRANCH  65  69
ENDBRANCH  48  62
BRANCH  49  73
ATOM     73  C   UNL A   1      39.266  32.307  35.405  1.00  0.00     0.023 A 
ATOM     74  C   UNL A   1      39.703  33.634  35.538  1.00  0.00     0.031 A 
ATOM     75  C   UNL A   1      38.466  31.771  36.430  1.00  0.00     0.131 A 
ATOM     76  C   UNL A   1      39.384  34.364  36.695  1.00  0.00     0.055 A 
ATOM     77  C   UNL A   1      38.105  32.519  37.551  1.00  0.00     0.041 A 
ATOM     78  F   UNL A   1      38.016  30.509  36.350  1.00  0.00    -0.206 F 
ATOM     79  C   UNL A   1      38.578  33.820  37.696  1.00  0.00     0.022 A 
BRANCH  76  80
ATOM     80  S   UNL A   1      40.118  36.008  36.912  1.00  0.00     0.124 S 
ATOM     81  O   UNL A   1      39.383  36.512  38.067  1.00  0.00    -0.237 OA
ATOM     82  O   UNL A   1      41.524  35.685  37.135  1.00  0.00    -0.237 OA
ATOM     83  O   UNL A   1      39.829  36.679  35.646  1.00  0.00    -0.744 OA
ENDBRANCH  76  80
ENDBRANCH  49  73
BRANCH  61  84
ATOM     84  C   UNL A   1      44.776  28.213  34.192  1.00  0.00     0.023 A 
ATOM     85  C   UNL A   1      44.836  27.139  35.096  1.00  0.00     0.031 A 
ATOM     86  C   UNL A   1      45.912  29.033  34.061  1.00  0.00     0.131 A 
ATOM     87  C   UNL A   1      45.985  26.947  35.877  1.00  0.00     0.055 A 
ATOM     88  C   UNL A   1      47.074  28.800  34.796  1.00  0.00     0.041 A 
ATOM     89  F   UNL A   1      45.909  30.074  33.214  1.00  0.00    -0.206 F 
ATOM     90  C   UNL A   1      47.112  27.760  35.720  1.00  0.00     0.022 A 
BRANCH  87  91
ATOM     91  S   UNL A   1      45.959  25.673  37.168  1.00  0.00     0.124 S 
ATOM     92  O   UNL A   1      47.025  26.120  38.058  1.00  0.00    -0.237 OA
ATOM     93  O   UNL A   1      44.602  25.786  37.691  1.00  0.00    -0.237 OA
ATOM     94  O   UNL A   1      46.239  24.438  36.437  1.00  0.00    -0.744 OA
ENDBRANCH  87  91
ENDBRANCH  61  84
ENDBRANCH  35  36
ENDBRANCH  27  30
ENDBRANCH  25  26
ENDBRANCH  24  25
ENDBRANCH   1  24
TORSDOF 18
ENDMDL
