MODEL 1
REMARK VINA RESULT:     -11.7      0.000      0.000
REMARK SMILES O=C(NCCCCNC(=O)c1ccc(-c2c3nc(c(-c4cc(S(=O)(=O)[O-])ccc4F)c4ccc([nH]4)c(-c4cc(S(=O)(=O)[O-])ccc4F)c4nc(c(-c5cc(S(=O)(=O)[O-])ccc5F)c5ccc2[nH]5)C=C4)C=C3)cc1)c1ccc(/[NH+]=C2\S[C@@H](Cc3ccc(F)cc3)C(=O)N2Cc2ccccc2)cc1
REMARK SMILES IDX 5 1 4 2 3 3 1 4 2 5 74 7 75 8 101 9 76 10 100 11 77 12 78 13
REMARK SMILES IDX 79 14 80 16 92 17 81 18 90 19 91 20 93 21 94 22 95 23 99 24
REMARK SMILES IDX 96 25 98 26 97 27 82 28 83 29 84 30 89 31 85 32 88 33 86 34
REMARK SMILES IDX 87 35 6 36 7 37 8 38 9 39 10 41 11 42 12 43 73 44 13 45
REMARK SMILES IDX 72 46 14 47 15 48 16 49 66 50 17 51 71 52 65 53 67 54 18 55
REMARK SMILES IDX 70 56 64 57 63 58 19 60 51 61 31 62 50 63 32 64 35 65 49 66
REMARK SMILES IDX 68 67 33 68 34 69 48 71 69 72 36 73 20 74 21 75 29 76 22 77
REMARK SMILES IDX 28 78 30 79 27 80 23 81 24 82 25 83 26 84 52 85 53 86 61 87
REMARK SMILES IDX 54 88 60 89 62 90 59 91 55 92 56 93 57 94 58 95 37 96 38 97
REMARK SMILES IDX 46 98 39 99 45 100 47 101 44 102 40 103 41 104 42 105 43 106
REMARK H PARENT 3 6 78 15 8 40 67 59 35 70
REMARK Flexibility Score: inf
ROOT
ATOM      1  C   UNL A   1      36.421  32.116  31.609  1.00  0.00     0.023 C 
ENDROOT
BRANCH   1   2
ATOM      2  C   UNL A   1      35.107  32.105  30.834  1.00  0.00     0.116 C 
BRANCH   2   3
ATOM      3  N   UNL A   1      35.097  33.054  29.732  1.00  0.00    -0.352 N 
ATOM      4  O   UNL A   1      35.193  33.739  27.579  1.00  0.00    -0.269 OA
ATOM      5  C   UNL A   1      35.030  32.823  28.380  1.00  0.00     0.251 C 
ATOM      6  H   UNL A   1      35.147  34.002  29.994  1.00  0.00     0.163 HD
BRANCH   5   7
ATOM      7  C   UNL A   1      34.774  31.458  27.879  1.00  0.00     0.040 A 
ATOM      8  C   UNL A   1      35.822  30.551  27.731  1.00  0.00     0.018 A 
ATOM      9  C   UNL A   1      33.462  31.074  27.581  1.00  0.00     0.018 A 
ATOM     10  C   UNL A   1      35.572  29.303  27.169  1.00  0.00     0.052 A 
ATOM     11  C   UNL A   1      33.213  29.803  27.053  1.00  0.00     0.052 A 
ATOM     12  C   UNL A   1      34.274  28.928  26.803  1.00  0.00     0.125 A 
BRANCH  12  13
ATOM     13  N   UNL A   1      34.099  27.643  26.283  1.00  0.00    -0.235 N 
ATOM     14  C   UNL A   1      33.255  27.388  25.342  1.00  0.00     0.320 C 
ATOM     15  H   UNL A   1      34.641  26.907  26.648  1.00  0.00     0.313 HD
ATOM     16  S   UNL A   1      32.054  28.448  24.660  1.00  0.00    -0.022 SA
ATOM     17  N   UNL A   1      33.236  26.172  24.713  1.00  0.00    -0.186 N 
ATOM     18  C   UNL A   1      31.211  27.077  23.804  1.00  0.00     0.178 C 
ATOM     19  C   UNL A   1      32.245  25.961  23.777  1.00  0.00     0.324 C 
ATOM     20  O   UNL A   1      32.162  24.964  23.067  1.00  0.00    -0.245 OA
BRANCH  17  21
ATOM     21  C   UNL A   1      34.262  25.164  24.955  1.00  0.00     0.283 C 
BRANCH  21  22
ATOM     22  C   UNL A   1      33.850  24.145  25.999  1.00  0.00    -0.006 A 
ATOM     23  C   UNL A   1      32.511  24.007  26.387  1.00  0.00     0.008 A 
ATOM     24  C   UNL A   1      34.806  23.303  26.589  1.00  0.00     0.008 A 
ATOM     25  C   UNL A   1      32.143  23.052  27.340  1.00  0.00     0.000 A 
ATOM     26  C   UNL A   1      34.435  22.330  27.518  1.00  0.00     0.000 A 
ATOM     27  C   UNL A   1      33.102  22.207  27.897  1.00  0.00     0.000 A 
ENDBRANCH  21  22
ENDBRANCH  17  21
BRANCH  18  28
ATOM     28  C   UNL A   1      30.712  27.517  22.427  1.00  0.00     0.063 C 
BRANCH  28  29
ATOM     29  C   UNL A   1      29.744  28.682  22.453  1.00  0.00    -0.046 A 
ATOM     30  C   UNL A   1      28.487  28.532  23.064  1.00  0.00     0.007 A 
ATOM     31  C   UNL A   1      30.064  29.912  21.854  1.00  0.00     0.007 A 
ATOM     32  C   UNL A   1      27.582  29.594  23.097  1.00  0.00     0.039 A 
ATOM     33  C   UNL A   1      29.159  30.975  21.895  1.00  0.00     0.039 A 
ATOM     34  C   UNL A   1      27.929  30.808  22.517  1.00  0.00     0.123 A 
ATOM     35  F   UNL A   1      27.063  31.829  22.555  1.00  0.00    -0.207 F 
ENDBRANCH  28  29
ENDBRANCH  18  28
ENDBRANCH  12  13
ENDBRANCH   5   7
ENDBRANCH   2   3
ENDBRANCH   1   2
BRANCH   1  36
ATOM     36  C   UNL A   1      36.288  31.948  33.121  1.00  0.00     0.023 C 
BRANCH  36  37
ATOM     37  C   UNL A   1      37.486  31.318  33.823  1.00  0.00     0.116 C 
BRANCH  37  38
ATOM     38  N   UNL A   1      37.670  29.913  33.495  1.00  0.00    -0.352 N 
ATOM     39  C   UNL A   1      38.571  29.329  32.634  1.00  0.00     0.251 C 
ATOM     40  H   UNL A   1      37.062  29.290  33.954  1.00  0.00     0.163 HD
ATOM     41  O   UNL A   1      38.490  28.128  32.396  1.00  0.00    -0.269 OA
BRANCH  39  42
ATOM     42  C   UNL A   1      39.602  30.157  31.969  1.00  0.00     0.039 A 
ATOM     43  C   UNL A   1      40.625  30.712  32.744  1.00  0.00     0.014 A 
ATOM     44  C   UNL A   1      39.578  30.367  30.587  1.00  0.00     0.014 A 
ATOM     45  C   UNL A   1      41.665  31.408  32.123  1.00  0.00     0.010 A 
ATOM     46  C   UNL A   1      40.654  30.997  29.963  1.00  0.00     0.010 A 
ATOM     47  C   UNL A   1      41.712  31.518  30.724  1.00  0.00    -0.014 A 
BRANCH  47  48
ATOM     48  C   UNL A   1      42.862  32.167  30.037  1.00  0.00     0.031 A 
ATOM     49  C   UNL A   1      44.116  31.383  29.760  1.00  0.00     0.074 A 
ATOM     50  C   UNL A   1      42.804  33.479  29.730  1.00  0.00     0.049 A 
ATOM     51  N   UNL A   1      45.255  31.789  29.261  1.00  0.00    -0.248 NA
ATOM     52  C   UNL A   1      44.093  29.957  30.121  1.00  0.00     0.031 C 
ATOM     53  C   UNL A   1      41.660  34.357  29.986  1.00  0.00     0.029 A 
ATOM     54  N   UNL A   1      43.731  34.306  29.147  1.00  0.00    -0.354 N 
ATOM     55  C   UNL A   1      46.089  30.677  29.262  1.00  0.00     0.074 A 
ATOM     56  C   UNL A   1      45.340  29.594  29.865  1.00  0.00     0.031 C 
ATOM     57  C   UNL A   1      41.946  35.592  29.545  1.00  0.00     0.029 A 
ATOM     58  C   UNL A   1      43.307  35.610  29.018  1.00  0.00     0.049 A 
ATOM     59  H   UNL A   1      44.617  33.996  28.849  1.00  0.00     0.167 HD
ATOM     60  C   UNL A   1      47.354  30.562  28.783  1.00  0.00     0.034 A 
ATOM     61  C   UNL A   1      43.946  36.697  28.543  1.00  0.00     0.034 A 
ATOM     62  C   UNL A   1      48.081  31.646  28.170  1.00  0.00     0.049 A 
ATOM     63  C   UNL A   1      45.357  36.550  28.035  1.00  0.00     0.074 A 
ATOM     64  C   UNL A   1      49.344  31.625  27.601  1.00  0.00     0.029 A 
ATOM     65  N   UNL A   1      47.616  32.950  28.048  1.00  0.00    -0.354 N 
ATOM     66  N   UNL A   1      46.116  35.478  27.999  1.00  0.00    -0.248 NA
ATOM     67  C   UNL A   1      45.995  37.756  27.493  1.00  0.00     0.031 C 
ATOM     68  C   UNL A   1      49.666  32.925  27.195  1.00  0.00     0.029 A 
ATOM     69  C   UNL A   1      48.577  33.745  27.442  1.00  0.00     0.049 A 
ATOM     70  H   UNL A   1      46.733  33.264  28.351  1.00  0.00     0.167 HD
ATOM     71  C   UNL A   1      47.309  35.878  27.403  1.00  0.00     0.074 A 
ATOM     72  C   UNL A   1      47.162  37.283  27.083  1.00  0.00     0.031 C 
ATOM     73  C   UNL A   1      48.423  35.149  27.139  1.00  0.00     0.034 A 
BRANCH  60  74
ATOM     74  C   UNL A   1      48.031  29.220  28.929  1.00  0.00     0.023 A 
ATOM     75  C   UNL A   1      47.929  28.230  27.937  1.00  0.00     0.031 A 
ATOM     76  C   UNL A   1      48.768  28.917  30.088  1.00  0.00     0.131 A 
ATOM     77  C   UNL A   1      48.485  26.960  28.154  1.00  0.00     0.055 A 
ATOM     78  C   UNL A   1      49.389  27.678  30.261  1.00  0.00     0.041 A 
ATOM     79  F   UNL A   1      48.885  29.814  31.079  1.00  0.00    -0.206 F 
ATOM     80  C   UNL A   1      49.236  26.685  29.297  1.00  0.00     0.022 A 
BRANCH  77  81
ATOM     81  S   UNL A   1      48.090  25.631  26.984  1.00  0.00     0.124 S 
ATOM     82  O   UNL A   1      46.669  25.417  27.251  1.00  0.00    -0.237 OA
ATOM     83  O   UNL A   1      48.412  26.237  25.697  1.00  0.00    -0.237 OA
ATOM     84  O   UNL A   1      48.967  24.538  27.397  1.00  0.00    -0.744 OA
ENDBRANCH  77  81
ENDBRANCH  60  74
BRANCH  61  85
ATOM     85  C   UNL A   1      43.272  38.027  28.536  1.00  0.00     0.023 A 
ATOM     86  C   UNL A   1      43.468  38.942  29.584  1.00  0.00     0.031 A 
ATOM     87  C   UNL A   1      42.385  38.384  27.505  1.00  0.00     0.131 A 
ATOM     88  C   UNL A   1      42.748  40.147  29.603  1.00  0.00     0.055 A 
ATOM     89  C   UNL A   1      41.711  39.608  27.503  1.00  0.00     0.041 A 
ATOM     90  F   UNL A   1      42.167  37.550  26.476  1.00  0.00    -0.206 F 
ATOM     91  C   UNL A   1      41.881  40.492  28.564  1.00  0.00     0.022 A 
BRANCH  88  92
ATOM     92  S   UNL A   1      42.899  41.224  31.055  1.00  0.00     0.124 S 
ATOM     93  O   UNL A   1      41.825  42.184  30.826  1.00  0.00    -0.237 OA
ATOM     94  O   UNL A   1      42.695  40.283  32.152  1.00  0.00    -0.237 OA
ATOM     95  O   UNL A   1      44.253  41.761  30.941  1.00  0.00    -0.744 OA
ENDBRANCH  88  92
ENDBRANCH  61  85
BRANCH  73  96
ATOM     96  C   UNL A   1      49.551  35.856  26.429  1.00  0.00     0.023 A 
ATOM     97  C   UNL A   1      50.471  36.663  27.121  1.00  0.00     0.031 A 
ATOM     98  C   UNL A   1      49.696  35.731  25.037  1.00  0.00     0.131 A 
ATOM     99  C   UNL A   1      51.462  37.357  26.412  1.00  0.00     0.055 A 
ATOM    100  C   UNL A   1      50.720  36.377  24.343  1.00  0.00     0.041 A 
ATOM    101  F   UNL A   1      48.844  34.974  24.326  1.00  0.00    -0.206 F 
ATOM    102  C   UNL A   1      51.603  37.206  25.029  1.00  0.00     0.022 A 
BRANCH  99 103
ATOM    103  S   UNL A   1      52.516  38.530  27.308  1.00  0.00     0.124 S 
ATOM    104  O   UNL A   1      53.357  39.060  26.240  1.00  0.00    -0.237 OA
ATOM    105  O   UNL A   1      51.540  39.458  27.871  1.00  0.00    -0.237 OA
ATOM    106  O   UNL A   1      53.209  37.692  28.285  1.00  0.00    -0.744 OA
ENDBRANCH  99 103
ENDBRANCH  73  96
ENDBRANCH  47  48
ENDBRANCH  39  42
ENDBRANCH  37  38
ENDBRANCH  36  37
ENDBRANCH   1  36
TORSDOF 19
ENDMDL
MODEL 2
REMARK VINA RESULT:     -11.5      6.379     10.737
REMARK SMILES O=C(NCCCCNC(=O)c1ccc(-c2c3nc(c(-c4cc(S(=O)(=O)[O-])ccc4F)c4ccc([nH]4)c(-c4cc(S(=O)(=O)[O-])ccc4F)c4nc(c(-c5cc(S(=O)(=O)[O-])ccc5F)c5ccc2[nH]5)C=C4)C=C3)cc1)c1ccc(/[NH+]=C2\S[C@@H](Cc3ccc(F)cc3)C(=O)N2Cc2ccccc2)cc1
REMARK SMILES IDX 5 1 4 2 3 3 1 4 2 5 74 7 75 8 101 9 76 10 100 11 77 12 78 13
REMARK SMILES IDX 79 14 80 16 92 17 81 18 90 19 91 20 93 21 94 22 95 23 99 24
REMARK SMILES IDX 96 25 98 26 97 27 82 28 83 29 84 30 89 31 85 32 88 33 86 34
REMARK SMILES IDX 87 35 6 36 7 37 8 38 9 39 10 41 11 42 12 43 73 44 13 45
REMARK SMILES IDX 72 46 14 47 15 48 16 49 66 50 17 51 71 52 65 53 67 54 18 55
REMARK SMILES IDX 70 56 64 57 63 58 19 60 51 61 31 62 50 63 32 64 35 65 49 66
REMARK SMILES IDX 68 67 33 68 34 69 48 71 69 72 36 73 20 74 21 75 29 76 22 77
REMARK SMILES IDX 28 78 30 79 27 80 23 81 24 82 25 83 26 84 52 85 53 86 61 87
REMARK SMILES IDX 54 88 60 89 62 90 59 91 55 92 56 93 57 94 58 95 37 96 38 97
REMARK SMILES IDX 46 98 39 99 45 100 47 101 44 102 40 103 41 104 42 105 43 106
REMARK H PARENT 3 6 78 15 8 40 67 59 35 70
REMARK Flexibility Score: inf
ROOT
ATOM      1  C   UNL A   1      43.616  23.332  26.143  1.00  0.00     0.023 C 
ENDROOT
BRANCH   1   2
ATOM      2  C   UNL A   1      42.565  22.447  25.479  1.00  0.00     0.116 C 
BRANCH   2   3
ATOM      3  N   UNL A   1      42.172  21.321  26.313  1.00  0.00    -0.352 N 
ATOM      4  O   UNL A   1      40.838  20.122  27.690  1.00  0.00    -0.269 OA
ATOM      5  C   UNL A   1      40.954  21.037  26.880  1.00  0.00     0.251 C 
ATOM      6  H   UNL A   1      42.884  20.667  26.498  1.00  0.00     0.163 HD
BRANCH   5   7
ATOM      7  C   UNL A   1      39.772  21.847  26.526  1.00  0.00     0.040 A 
ATOM      8  C   UNL A   1      39.598  23.120  27.068  1.00  0.00     0.018 A 
ATOM      9  C   UNL A   1      38.838  21.336  25.618  1.00  0.00     0.018 A 
ATOM     10  C   UNL A   1      38.432  23.827  26.795  1.00  0.00     0.052 A 
ATOM     11  C   UNL A   1      37.686  22.069  25.318  1.00  0.00     0.052 A 
ATOM     12  C   UNL A   1      37.456  23.299  25.941  1.00  0.00     0.125 A 
BRANCH  12  13
ATOM     13  N   UNL A   1      36.332  24.088  25.686  1.00  0.00    -0.235 N 
ATOM     14  C   UNL A   1      35.174  23.579  25.437  1.00  0.00     0.320 C 
ATOM     15  H   UNL A   1      36.428  25.068  25.697  1.00  0.00     0.313 HD
ATOM     16  S   UNL A   1      34.771  21.905  25.169  1.00  0.00    -0.022 SA
ATOM     17  N   UNL A   1      34.049  24.358  25.383  1.00  0.00    -0.186 N 
ATOM     18  C   UNL A   1      33.113  22.321  24.536  1.00  0.00     0.178 C 
ATOM     19  C   UNL A   1      32.868  23.740  25.029  1.00  0.00     0.324 C 
ATOM     20  O   UNL A   1      31.770  24.287  25.034  1.00  0.00    -0.245 OA
BRANCH  17  21
ATOM     21  C   UNL A   1      34.072  25.767  25.760  1.00  0.00     0.283 C 
BRANCH  21  22
ATOM     22  C   UNL A   1      33.818  26.694  24.587  1.00  0.00    -0.006 A 
ATOM     23  C   UNL A   1      33.834  26.216  23.271  1.00  0.00     0.008 A 
ATOM     24  C   UNL A   1      33.545  28.054  24.801  1.00  0.00     0.008 A 
ATOM     25  C   UNL A   1      33.583  27.079  22.200  1.00  0.00     0.000 A 
ATOM     26  C   UNL A   1      33.265  28.910  23.735  1.00  0.00     0.000 A 
ATOM     27  C   UNL A   1      33.288  28.422  22.432  1.00  0.00     0.000 A 
ENDBRANCH  21  22
ENDBRANCH  17  21
BRANCH  18  28
ATOM     28  C   UNL A   1      32.078  21.297  25.003  1.00  0.00     0.063 C 
BRANCH  28  29
ATOM     29  C   UNL A   1      32.382  19.868  24.602  1.00  0.00    -0.046 A 
ATOM     30  C   UNL A   1      32.703  18.920  25.588  1.00  0.00     0.007 A 
ATOM     31  C   UNL A   1      32.376  19.470  23.255  1.00  0.00     0.007 A 
ATOM     32  C   UNL A   1      32.987  17.599  25.238  1.00  0.00     0.039 A 
ATOM     33  C   UNL A   1      32.654  18.146  22.908  1.00  0.00     0.039 A 
ATOM     34  C   UNL A   1      32.954  17.223  23.901  1.00  0.00     0.123 A 
ATOM     35  F   UNL A   1      33.219  15.953  23.566  1.00  0.00    -0.207 F 
ENDBRANCH  28  29
ENDBRANCH  18  28
ENDBRANCH  12  13
ENDBRANCH   5   7
ENDBRANCH   2   3
ENDBRANCH   1   2
BRANCH   1  36
ATOM     36  C   UNL A   1      44.913  23.506  25.357  1.00  0.00     0.023 C 
BRANCH  36  37
ATOM     37  C   UNL A   1      45.926  24.474  25.960  1.00  0.00     0.116 C 
BRANCH  37  38
ATOM     38  N   UNL A   1      46.420  25.454  25.007  1.00  0.00    -0.352 N 
ATOM     39  C   UNL A   1      46.128  26.795  24.905  1.00  0.00     0.251 C 
ATOM     40  H   UNL A   1      47.056  25.110  24.339  1.00  0.00     0.163 HD
ATOM     41  O   UNL A   1      46.556  27.437  23.950  1.00  0.00    -0.269 OA
BRANCH  39  42
ATOM     42  C   UNL A   1      45.267  27.445  25.918  1.00  0.00     0.039 A 
ATOM     43  C   UNL A   1      44.293  26.679  26.566  1.00  0.00     0.014 A 
ATOM     44  C   UNL A   1      45.430  28.793  26.248  1.00  0.00     0.014 A 
ATOM     45  C   UNL A   1      43.541  27.243  27.600  1.00  0.00     0.010 A 
ATOM     46  C   UNL A   1      44.732  29.332  27.327  1.00  0.00     0.010 A 
ATOM     47  C   UNL A   1      43.785  28.561  28.019  1.00  0.00    -0.014 A 
BRANCH  47  48
ATOM     48  C   UNL A   1      43.066  29.149  29.181  1.00  0.00     0.031 A 
ATOM     49  C   UNL A   1      43.759  29.277  30.511  1.00  0.00     0.074 A 
ATOM     50  C   UNL A   1      41.769  29.498  29.059  1.00  0.00     0.049 A 
ATOM     51  N   UNL A   1      43.278  29.671  31.662  1.00  0.00    -0.248 NA
ATOM     52  C   UNL A   1      45.174  28.877  30.555  1.00  0.00     0.031 C 
ATOM     53  C   UNL A   1      40.975  29.383  27.835  1.00  0.00     0.029 A 
ATOM     54  N   UNL A   1      40.887  30.009  29.978  1.00  0.00    -0.354 N 
ATOM     55  C   UNL A   1      44.324  29.554  32.571  1.00  0.00     0.074 A 
ATOM     56  C   UNL A   1      45.447  28.997  31.845  1.00  0.00     0.031 C 
ATOM     57  C   UNL A   1      39.731  29.829  28.073  1.00  0.00     0.029 A 
ATOM     58  C   UNL A   1      39.622  30.218  29.475  1.00  0.00     0.049 A 
ATOM     59  H   UNL A   1      41.135  30.208  30.910  1.00  0.00     0.167 HD
ATOM     60  C   UNL A   1      44.353  29.901  33.882  1.00  0.00     0.034 A 
ATOM     61  C   UNL A   1      38.500  30.658  30.079  1.00  0.00     0.034 A 
ATOM     62  C   UNL A   1      43.231  30.470  34.588  1.00  0.00     0.049 A 
ATOM     63  C   UNL A   1      38.551  31.019  31.541  1.00  0.00     0.074 A 
ATOM     64  C   UNL A   1      43.169  30.909  35.900  1.00  0.00     0.029 A 
ATOM     65  N   UNL A   1      41.969  30.675  34.044  1.00  0.00    -0.354 N 
ATOM     66  N   UNL A   1      39.563  30.948  32.375  1.00  0.00    -0.248 NA
ATOM     67  C   UNL A   1      37.312  31.529  32.141  1.00  0.00     0.031 C 
ATOM     68  C   UNL A   1      41.858  31.319  36.166  1.00  0.00     0.029 A 
ATOM     69  C   UNL A   1      41.117  31.206  35.000  1.00  0.00     0.049 A 
ATOM     70  H   UNL A   1      41.717  30.472  33.114  1.00  0.00     0.167 HD
ATOM     71  C   UNL A   1      39.088  31.433  33.590  1.00  0.00     0.074 A 
ATOM     72  C   UNL A   1      37.705  31.808  33.375  1.00  0.00     0.031 C 
ATOM     73  C   UNL A   1      39.736  31.563  34.776  1.00  0.00     0.034 A 
BRANCH  60  74
ATOM     74  C   UNL A   1      45.637  29.649  34.637  1.00  0.00     0.023 A 
ATOM     75  C   UNL A   1      45.861  28.446  35.330  1.00  0.00     0.031 A 
ATOM     76  C   UNL A   1      46.641  30.632  34.685  1.00  0.00     0.131 A 
ATOM     77  C   UNL A   1      47.020  28.289  36.105  1.00  0.00     0.055 A 
ATOM     78  C   UNL A   1      47.830  30.436  35.391  1.00  0.00     0.041 A 
ATOM     79  F   UNL A   1      46.477  31.808  34.059  1.00  0.00    -0.206 F 
ATOM     80  C   UNL A   1      48.018  29.264  36.119  1.00  0.00     0.022 A 
BRANCH  77  81
ATOM     81  S   UNL A   1      47.138  26.851  37.205  1.00  0.00     0.124 S 
ATOM     82  O   UNL A   1      48.585  26.684  37.316  1.00  0.00    -0.237 OA
ATOM     83  O   UNL A   1      46.455  27.316  38.406  1.00  0.00    -0.237 OA
ATOM     84  O   UNL A   1      46.450  25.796  36.465  1.00  0.00    -0.744 OA
ENDBRANCH  77  81
ENDBRANCH  60  74
BRANCH  61  85
ATOM     85  C   UNL A   1      37.225  30.772  29.314  1.00  0.00     0.023 A 
ATOM     86  C   UNL A   1      36.637  32.024  29.073  1.00  0.00     0.031 A 
ATOM     87  C   UNL A   1      36.551  29.627  28.854  1.00  0.00     0.131 A 
ATOM     88  C   UNL A   1      35.388  32.100  28.436  1.00  0.00     0.055 A 
ATOM     89  C   UNL A   1      35.335  29.711  28.173  1.00  0.00     0.041 A 
ATOM     90  F   UNL A   1      37.073  28.406  29.052  1.00  0.00    -0.206 F 
ATOM     91  C   UNL A   1      34.739  30.953  27.973  1.00  0.00     0.022 A 
BRANCH  88  92
ATOM     92  S   UNL A   1      34.582  33.718  28.294  1.00  0.00     0.124 S 
ATOM     93  O   UNL A   1      35.329  34.327  27.199  1.00  0.00    -0.237 OA
ATOM     94  O   UNL A   1      33.203  33.344  28.002  1.00  0.00    -0.237 OA
ATOM     95  O   UNL A   1      34.797  34.321  29.608  1.00  0.00    -0.744 OA
ENDBRANCH  88  92
ENDBRANCH  61  85
BRANCH  73  96
ATOM     96  C   UNL A   1      38.961  32.178  35.916  1.00  0.00     0.023 A 
ATOM     97  C   UNL A   1      38.390  31.391  36.931  1.00  0.00     0.031 A 
ATOM     98  C   UNL A   1      38.781  33.570  35.976  1.00  0.00     0.131 A 
ATOM     99  C   UNL A   1      37.619  31.998  37.934  1.00  0.00     0.055 A 
ATOM    100  C   UNL A   1      38.063  34.174  37.009  1.00  0.00     0.041 A 
ATOM    101  F   UNL A   1      39.304  34.369  35.032  1.00  0.00    -0.206 F 
ATOM    102  C   UNL A   1      37.466  33.386  37.988  1.00  0.00     0.022 A 
BRANCH  99 103
ATOM    103  S   UNL A   1      36.745  30.941  39.121  1.00  0.00     0.124 S 
ATOM    104  O   UNL A   1      35.482  31.654  39.289  1.00  0.00    -0.237 OA
ATOM    105  O   UNL A   1      36.670  29.669  38.410  1.00  0.00    -0.237 OA
ATOM    106  O   UNL A   1      37.619  30.946  40.293  1.00  0.00    -0.744 OA
ENDBRANCH  99 103
ENDBRANCH  73  96
ENDBRANCH  47  48
ENDBRANCH  39  42
ENDBRANCH  37  38
ENDBRANCH  36  37
ENDBRANCH   1  36
TORSDOF 19
ENDMDL
MODEL 3
REMARK VINA RESULT:     -11.2      7.688     15.013
REMARK SMILES O=C(NCCCCNC(=O)c1ccc(-c2c3nc(c(-c4cc(S(=O)(=O)[O-])ccc4F)c4ccc([nH]4)c(-c4cc(S(=O)(=O)[O-])ccc4F)c4nc(c(-c5cc(S(=O)(=O)[O-])ccc5F)c5ccc2[nH]5)C=C4)C=C3)cc1)c1ccc(/[NH+]=C2\S[C@@H](Cc3ccc(F)cc3)C(=O)N2Cc2ccccc2)cc1
REMARK SMILES IDX 5 1 4 2 3 3 1 4 2 5 74 7 75 8 101 9 76 10 100 11 77 12 78 13
REMARK SMILES IDX 79 14 80 16 92 17 81 18 90 19 91 20 93 21 94 22 95 23 99 24
REMARK SMILES IDX 96 25 98 26 97 27 82 28 83 29 84 30 89 31 85 32 88 33 86 34
REMARK SMILES IDX 87 35 6 36 7 37 8 38 9 39 10 41 11 42 12 43 73 44 13 45
REMARK SMILES IDX 72 46 14 47 15 48 16 49 66 50 17 51 71 52 65 53 67 54 18 55
REMARK SMILES IDX 70 56 64 57 63 58 19 60 51 61 31 62 50 63 32 64 35 65 49 66
REMARK SMILES IDX 68 67 33 68 34 69 48 71 69 72 36 73 20 74 21 75 29 76 22 77
REMARK SMILES IDX 28 78 30 79 27 80 23 81 24 82 25 83 26 84 52 85 53 86 61 87
REMARK SMILES IDX 54 88 60 89 62 90 59 91 55 92 56 93 57 94 58 95 37 96 38 97
REMARK SMILES IDX 46 98 39 99 45 100 47 101 44 102 40 103 41 104 42 105 43 106
REMARK H PARENT 3 6 78 15 8 40 67 59 35 70
REMARK Flexibility Score: inf
ROOT
ATOM      1  C   UNL A   1      50.882  23.884  32.336  1.00  0.00     0.023 C 
ENDROOT
BRANCH   1   2
ATOM      2  C   UNL A   1      52.250  23.610  32.954  1.00  0.00     0.116 C 
BRANCH   2   3
ATOM      3  N   UNL A   1      52.897  22.438  32.384  1.00  0.00    -0.352 N 
ATOM      4  O   UNL A   1      53.602  20.291  32.294  1.00  0.00    -0.269 OA
ATOM      5  C   UNL A   1      52.865  21.131  32.803  1.00  0.00     0.251 C 
ATOM      6  H   UNL A   1      53.438  22.607  31.579  1.00  0.00     0.163 HD
BRANCH   5   7
ATOM      7  C   UNL A   1      51.948  20.729  33.888  1.00  0.00     0.040 A 
ATOM      8  C   UNL A   1      50.642  20.337  33.600  1.00  0.00     0.018 A 
ATOM      9  C   UNL A   1      52.411  20.719  35.208  1.00  0.00     0.018 A 
ATOM     10  C   UNL A   1      49.767  20.052  34.644  1.00  0.00     0.052 A 
ATOM     11  C   UNL A   1      51.537  20.394  36.250  1.00  0.00     0.052 A 
ATOM     12  C   UNL A   1      50.198  20.103  35.975  1.00  0.00     0.125 A 
BRANCH  12  13
ATOM     13  N   UNL A   1      49.270  19.766  36.963  1.00  0.00    -0.235 N 
ATOM     14  C   UNL A   1      48.425  20.616  37.437  1.00  0.00     0.320 C 
ATOM     15  H   UNL A   1      49.261  18.844  37.310  1.00  0.00     0.313 HD
ATOM     16  S   UNL A   1      48.351  22.332  37.146  1.00  0.00    -0.022 SA
ATOM     17  N   UNL A   1      47.401  20.224  38.257  1.00  0.00    -0.186 N 
ATOM     18  C   UNL A   1      47.172  22.596  38.511  1.00  0.00     0.178 C 
ATOM     19  C   UNL A   1      46.596  21.213  38.781  1.00  0.00     0.324 C 
ATOM     20  O   UNL A   1      45.588  21.007  39.448  1.00  0.00    -0.245 OA
BRANCH  17  21
ATOM     21  C   UNL A   1      47.114  18.816  38.507  1.00  0.00     0.283 C 
BRANCH  21  22
ATOM     22  C   UNL A   1      47.374  18.410  39.945  1.00  0.00    -0.006 A 
ATOM     23  C   UNL A   1      48.556  18.779  40.599  1.00  0.00     0.008 A 
ATOM     24  C   UNL A   1      46.421  17.664  40.657  1.00  0.00     0.008 A 
ATOM     25  C   UNL A   1      48.776  18.411  41.930  1.00  0.00     0.000 A 
ATOM     26  C   UNL A   1      46.626  17.322  41.994  1.00  0.00     0.000 A 
ATOM     27  C   UNL A   1      47.807  17.692  42.630  1.00  0.00     0.000 A 
ENDBRANCH  21  22
ENDBRANCH  17  21
BRANCH  18  28
ATOM     28  C   UNL A   1      46.135  23.657  38.141  1.00  0.00     0.063 C 
BRANCH  28  29
ATOM     29  C   UNL A   1      45.455  23.431  36.806  1.00  0.00    -0.046 A 
ATOM     30  C   UNL A   1      44.103  23.779  36.644  1.00  0.00     0.007 A 
ATOM     31  C   UNL A   1      46.141  22.855  35.724  1.00  0.00     0.007 A 
ATOM     32  C   UNL A   1      43.459  23.578  35.422  1.00  0.00     0.039 A 
ATOM     33  C   UNL A   1      45.497  22.662  34.500  1.00  0.00     0.039 A 
ATOM     34  C   UNL A   1      44.164  23.027  34.360  1.00  0.00     0.123 A 
ATOM     35  F   UNL A   1      43.548  22.841  33.184  1.00  0.00    -0.207 F 
ENDBRANCH  28  29
ENDBRANCH  18  28
ENDBRANCH  12  13
ENDBRANCH   5   7
ENDBRANCH   2   3
ENDBRANCH   1   2
BRANCH   1  36
ATOM     36  C   UNL A   1      49.703  23.804  33.303  1.00  0.00     0.023 C 
BRANCH  36  37
ATOM     37  C   UNL A   1      48.984  25.121  33.578  1.00  0.00     0.116 C 
BRANCH  37  38
ATOM     38  N   UNL A   1      49.245  25.650  34.907  1.00  0.00    -0.352 N 
ATOM     39  C   UNL A   1      48.543  26.592  35.625  1.00  0.00     0.251 C 
ATOM     40  H   UNL A   1      50.038  25.282  35.360  1.00  0.00     0.163 HD
ATOM     41  O   UNL A   1      48.993  27.000  36.691  1.00  0.00    -0.269 OA
BRANCH  39  42
ATOM     42  C   UNL A   1      47.276  27.137  35.089  1.00  0.00     0.039 A 
ATOM     43  C   UNL A   1      47.308  28.339  34.374  1.00  0.00     0.014 A 
ATOM     44  C   UNL A   1      46.065  26.461  35.266  1.00  0.00     0.014 A 
ATOM     45  C   UNL A   1      46.143  28.817  33.769  1.00  0.00     0.010 A 
ATOM     46  C   UNL A   1      44.922  26.901  34.602  1.00  0.00     0.010 A 
ATOM     47  C   UNL A   1      44.950  28.080  33.840  1.00  0.00    -0.014 A 
BRANCH  47  48
ATOM     48  C   UNL A   1      43.724  28.520  33.121  1.00  0.00     0.031 A 
ATOM     49  C   UNL A   1      43.501  28.110  31.690  1.00  0.00     0.074 A 
ATOM     50  C   UNL A   1      42.851  29.346  33.731  1.00  0.00     0.049 A 
ATOM     51  N   UNL A   1      42.550  28.465  30.865  1.00  0.00    -0.248 NA
ATOM     52  C   UNL A   1      44.499  27.202  31.103  1.00  0.00     0.031 C 
ATOM     53  C   UNL A   1      42.978  29.849  35.100  1.00  0.00     0.029 A 
ATOM     54  N   UNL A   1      41.691  29.921  33.276  1.00  0.00    -0.354 N 
ATOM     55  C   UNL A   1      42.841  27.839  29.658  1.00  0.00     0.074 A 
ATOM     56  C   UNL A   1      44.089  27.129  29.846  1.00  0.00     0.031 C 
ATOM     57  C   UNL A   1      41.928  30.638  35.379  1.00  0.00     0.029 A 
ATOM     58  C   UNL A   1      41.078  30.739  34.198  1.00  0.00     0.049 A 
ATOM     59  H   UNL A   1      41.330  29.763  32.373  1.00  0.00     0.167 HD
ATOM     60  C   UNL A   1      42.123  27.837  28.506  1.00  0.00     0.034 A 
ATOM     61  C   UNL A   1      39.966  31.495  34.099  1.00  0.00     0.034 A 
ATOM     62  C   UNL A   1      40.873  28.537  28.338  1.00  0.00     0.049 A 
ATOM     63  C   UNL A   1      39.195  31.492  32.803  1.00  0.00     0.074 A 
ATOM     64  C   UNL A   1      40.037  28.556  27.235  1.00  0.00     0.029 A 
ATOM     65  N   UNL A   1      40.279  29.348  29.297  1.00  0.00    -0.354 N 
ATOM     66  N   UNL A   1      39.459  30.855  31.685  1.00  0.00    -0.248 NA
ATOM     67  C   UNL A   1      37.971  32.302  32.760  1.00  0.00     0.031 C 
ATOM     68  C   UNL A   1      38.973  29.426  27.503  1.00  0.00     0.029 A 
ATOM     69  C   UNL A   1      39.105  29.893  28.801  1.00  0.00     0.049 A 
ATOM     70  H   UNL A   1      40.640  29.512  30.199  1.00  0.00     0.167 HD
ATOM     71  C   UNL A   1      38.416  31.166  30.817  1.00  0.00     0.074 A 
ATOM     72  C   UNL A   1      37.513  32.032  31.546  1.00  0.00     0.031 C 
ATOM     73  C   UNL A   1      38.219  30.767  29.535  1.00  0.00     0.034 A 
BRANCH  60  74
ATOM     74  C   UNL A   1      42.693  27.071  27.336  1.00  0.00     0.023 A 
ATOM     75  C   UNL A   1      42.370  25.722  27.110  1.00  0.00     0.031 A 
ATOM     76  C   UNL A   1      43.590  27.690  26.447  1.00  0.00     0.131 A 
ATOM     77  C   UNL A   1      42.999  25.015  26.074  1.00  0.00     0.055 A 
ATOM     78  C   UNL A   1      44.149  27.003  25.368  1.00  0.00     0.041 A 
ATOM     79  F   UNL A   1      43.951  28.972  26.623  1.00  0.00    -0.206 F 
ATOM     80  C   UNL A   1      43.866  25.653  25.185  1.00  0.00     0.022 A 
BRANCH  77  81
ATOM     81  S   UNL A   1      42.774  23.217  25.993  1.00  0.00     0.124 S 
ATOM     82  O   UNL A   1      43.767  22.753  26.959  1.00  0.00    -0.237 OA
ATOM     83  O   UNL A   1      41.379  23.055  26.384  1.00  0.00    -0.237 OA
ATOM     84  O   UNL A   1      43.073  22.896  24.599  1.00  0.00    -0.744 OA
ENDBRANCH  77  81
ENDBRANCH  60  74
BRANCH  61  85
ATOM     85  C   UNL A   1      39.515  32.331  35.248  1.00  0.00     0.023 A 
ATOM     86  C   UNL A   1      38.783  31.768  36.307  1.00  0.00     0.031 A 
ATOM     87  C   UNL A   1      39.767  33.713  35.281  1.00  0.00     0.131 A 
ATOM     88  C   UNL A   1      38.286  32.592  37.328  1.00  0.00     0.055 A 
ATOM     89  C   UNL A   1      39.316  34.520  36.328  1.00  0.00     0.041 A 
ATOM     90  F   UNL A   1      40.468  34.300  34.298  1.00  0.00    -0.206 F 
ATOM     91  C   UNL A   1      38.558  33.962  37.354  1.00  0.00     0.022 A 
BRANCH  88  92
ATOM     92  S   UNL A   1      37.204  31.859  38.586  1.00  0.00     0.124 S 
ATOM     93  O   UNL A   1      37.052  30.496  38.088  1.00  0.00    -0.237 OA
ATOM     94  O   UNL A   1      38.000  32.015  39.798  1.00  0.00    -0.237 OA
ATOM     95  O   UNL A   1      36.000  32.686  38.523  1.00  0.00    -0.744 OA
ENDBRANCH  88  92
ENDBRANCH  61  85
BRANCH  73  96
ATOM     96  C   UNL A   1      36.952  31.232  28.860  1.00  0.00     0.023 A 
ATOM     97  C   UNL A   1      35.967  30.326  28.430  1.00  0.00     0.031 A 
ATOM     98  C   UNL A   1      36.737  32.602  28.631  1.00  0.00     0.131 A 
ATOM     99  C   UNL A   1      34.837  30.798  27.745  1.00  0.00     0.055 A 
ATOM    100  C   UNL A   1      35.584  33.070  28.001  1.00  0.00     0.041 A 
ATOM    101  F   UNL A   1      37.647  33.511  29.020  1.00  0.00    -0.206 F 
ATOM    102  C   UNL A   1      34.631  32.165  27.543  1.00  0.00     0.022 A 
BRANCH  99 103
ATOM    103  S   UNL A   1      33.677  29.592  27.043  1.00  0.00     0.124 S 
ATOM    104  O   UNL A   1      32.403  30.041  27.595  1.00  0.00    -0.237 OA
ATOM    105  O   UNL A   1      33.855  29.787  25.608  1.00  0.00    -0.237 OA
ATOM    106  O   UNL A   1      34.160  28.312  27.558  1.00  0.00    -0.744 OA
ENDBRANCH  99 103
ENDBRANCH  73  96
ENDBRANCH  47  48
ENDBRANCH  39  42
ENDBRANCH  37  38
ENDBRANCH  36  37
ENDBRANCH   1  36
TORSDOF 19
ENDMDL
