MODEL 1
REMARK VINA RESULT:     -12.2      0.000      0.000
REMARK SMILES C[C@H](C(=O)NCCCCNC(=O)c1ccc(-c2c3nc(c(-c4cc(S(=O)(=O)[O-])ccc4F)c4ccc([nH]4)c(-c4cc(S(=O)(=O)[O-])ccc4F)c4nc(c(-c5cc(S(=O)(=O)[O-])ccc5F)c5ccc2[nH]5)C=C4)C=C3)cc1)c1ccc(C[C@@H]2CCC[C@H]2O)cc1
REMARK SMILES IDX 7 1 6 2 5 3 3 4 4 5 2 7 1 8 76 9 77 10 88 11 78 12 87 13
REMARK SMILES IDX 79 14 80 15 81 16 82 17 85 18 83 19 84 20 86 21 8 23 9 24
REMARK SMILES IDX 10 25 11 26 12 28 13 29 14 30 75 31 15 32 74 33 16 34 17 35
REMARK SMILES IDX 18 36 68 37 19 38 73 39 67 40 69 41 20 42 72 43 66 44 65 45
REMARK SMILES IDX 21 47 53 48 33 49 52 50 34 51 37 52 51 53 70 54 35 55 36 56
REMARK SMILES IDX 50 58 71 59 38 60 22 61 23 62 31 63 24 64 30 65 32 66 29 67
REMARK SMILES IDX 25 68 26 69 27 70 28 71 54 72 55 73 63 74 56 75 62 76 64 77
REMARK SMILES IDX 61 78 57 79 58 80 59 81 60 82 39 83 40 84 48 85 41 86 47 87
REMARK SMILES IDX 49 88 46 89 42 90 43 91 44 92 45 93
REMARK H PARENT 5 6 86 22 10 27 69 46 37 57
REMARK Flexibility Score: inf
ROOT
ATOM      1  C   UNL A   1      35.128  23.902  24.052  1.00  0.00     0.023 C 
ENDROOT
BRANCH   1   2
ATOM      2  C   UNL A   1      35.051  24.793  25.313  1.00  0.00     0.116 C 
BRANCH   2   3
ATOM      3  N   UNL A   1      33.989  25.783  25.151  1.00  0.00    -0.356 N 
ATOM      4  C   UNL A   1      32.634  25.780  25.322  1.00  0.00     0.227 C 
ATOM      5  O   UNL A   1      32.067  26.731  24.763  1.00  0.00    -0.274 OA
ATOM      6  H   UNL A   1      34.329  26.654  24.848  1.00  0.00     0.163 HD
BRANCH   4   7
ATOM      7  C   UNL A   1      31.825  24.812  26.243  1.00  0.00     0.105 C 
ATOM      8  C   UNL A   1      30.333  25.090  25.940  1.00  0.00     0.023 C 
BRANCH   7   9
ATOM      9  C   UNL A   1      32.115  23.300  26.214  1.00  0.00    -0.036 A 
ATOM     10  C   UNL A   1      32.898  22.608  27.148  1.00  0.00     0.005 A 
ATOM     11  C   UNL A   1      31.726  22.544  25.124  1.00  0.00     0.005 A 
ATOM     12  C   UNL A   1      33.303  21.272  26.926  1.00  0.00     0.004 A 
ATOM     13  C   UNL A   1      32.170  21.259  24.840  1.00  0.00     0.004 A 
ATOM     14  C   UNL A   1      33.006  20.612  25.730  1.00  0.00    -0.048 A 
BRANCH  14  15
ATOM     15  C   UNL A   1      33.532  19.251  25.360  1.00  0.00     0.041 C 
BRANCH  15  16
ATOM     16  C   UNL A   1      32.601  18.300  24.580  1.00  0.00     0.022 C 
ATOM     17  C   UNL A   1      32.432  16.933  25.247  1.00  0.00     0.007 C 
ATOM     18  C   UNL A   1      33.024  17.958  23.146  1.00  0.00     0.117 C 
ATOM     19  C   UNL A   1      33.329  15.954  24.491  1.00  0.00     0.003 C 
ATOM     20  C   UNL A   1      33.847  16.679  23.250  1.00  0.00     0.032 C 
BRANCH  18  21
ATOM     21  O   UNL A   1      31.857  17.688  22.361  1.00  0.00    -0.393 OA
ATOM     22  H   UNL A   1      31.876  18.231  21.557  1.00  0.00     0.210 HD
ENDBRANCH  18  21
ENDBRANCH  15  16
ENDBRANCH  14  15
ENDBRANCH   7   9
ENDBRANCH   4   7
ENDBRANCH   2   3
ENDBRANCH   1   2
BRANCH   1  23
ATOM     23  C   UNL A   1      35.619  22.483  24.209  1.00  0.00     0.023 C 
BRANCH  23  24
ATOM     24  C   UNL A   1      36.527  22.272  25.400  1.00  0.00     0.116 C 
BRANCH  24  25
ATOM     25  N   UNL A   1      37.507  21.197  25.246  1.00  0.00    -0.352 N 
ATOM     26  C   UNL A   1      38.795  21.138  25.749  1.00  0.00     0.251 C 
ATOM     27  H   UNL A   1      37.214  20.418  24.719  1.00  0.00     0.163 HD
ATOM     28  O   UNL A   1      39.525  20.193  25.513  1.00  0.00    -0.269 OA
BRANCH  26  29
ATOM     29  C   UNL A   1      39.268  22.300  26.531  1.00  0.00     0.039 A 
ATOM     30  C   UNL A   1      40.311  22.129  27.440  1.00  0.00     0.014 A 
ATOM     31  C   UNL A   1      38.822  23.572  26.175  1.00  0.00     0.014 A 
ATOM     32  C   UNL A   1      41.001  23.253  27.901  1.00  0.00     0.010 A 
ATOM     33  C   UNL A   1      39.598  24.666  26.518  1.00  0.00     0.010 A 
ATOM     34  C   UNL A   1      40.697  24.523  27.385  1.00  0.00    -0.014 A 
BRANCH  34  35
ATOM     35  C   UNL A   1      41.469  25.743  27.740  1.00  0.00     0.031 A 
ATOM     36  C   UNL A   1      40.783  26.814  28.547  1.00  0.00     0.074 A 
ATOM     37  C   UNL A   1      42.700  25.956  27.236  1.00  0.00     0.049 A 
ATOM     38  N   UNL A   1      41.130  28.057  28.748  1.00  0.00    -0.248 NA
ATOM     39  C   UNL A   1      39.484  26.447  29.132  1.00  0.00     0.031 C 
ATOM     40  C   UNL A   1      43.453  25.025  26.392  1.00  0.00     0.029 A 
ATOM     41  N   UNL A   1      43.532  27.045  27.344  1.00  0.00    -0.354 N 
ATOM     42  C   UNL A   1      40.059  28.635  29.423  1.00  0.00     0.074 A 
ATOM     43  C   UNL A   1      39.026  27.626  29.515  1.00  0.00     0.031 C 
ATOM     44  C   UNL A   1      44.642  25.571  26.082  1.00  0.00     0.029 A 
ATOM     45  C   UNL A   1      44.716  26.910  26.656  1.00  0.00     0.049 A 
ATOM     46  H   UNL A   1      43.300  27.847  27.865  1.00  0.00     0.167 HD
ATOM     47  C   UNL A   1      39.959  29.882  29.947  1.00  0.00     0.034 A 
ATOM     48  C   UNL A   1      45.736  27.777  26.495  1.00  0.00     0.034 A 
ATOM     49  C   UNL A   1      41.031  30.842  29.904  1.00  0.00     0.049 A 
ATOM     50  C   UNL A   1      45.638  29.138  27.137  1.00  0.00     0.074 A 
ATOM     51  C   UNL A   1      41.086  32.104  30.467  1.00  0.00     0.029 A 
ATOM     52  N   UNL A   1      42.251  30.635  29.268  1.00  0.00    -0.354 N 
ATOM     53  N   UNL A   1      44.635  29.667  27.799  1.00  0.00    -0.248 NA
ATOM     54  C   UNL A   1      46.811  30.014  27.018  1.00  0.00     0.031 C 
ATOM     55  C   UNL A   1      42.319  32.676  30.134  1.00  0.00     0.029 A 
ATOM     56  C   UNL A   1      43.061  31.748  29.419  1.00  0.00     0.049 A 
ATOM     57  H   UNL A   1      42.501  29.816  28.783  1.00  0.00     0.167 HD
ATOM     58  C   UNL A   1      45.069  30.925  28.205  1.00  0.00     0.074 A 
ATOM     59  C   UNL A   1      46.424  31.075  27.714  1.00  0.00     0.031 C 
ATOM     60  C   UNL A   1      44.412  31.869  28.926  1.00  0.00     0.034 A 
BRANCH  47  61
ATOM     61  C   UNL A   1      38.642  30.256  30.586  1.00  0.00     0.023 A 
ATOM     62  C   UNL A   1      37.612  30.871  29.850  1.00  0.00     0.031 A 
ATOM     63  C   UNL A   1      38.442  30.082  31.966  1.00  0.00     0.131 A 
ATOM     64  C   UNL A   1      36.497  31.403  30.512  1.00  0.00     0.055 A 
ATOM     65  C   UNL A   1      37.277  30.517  32.603  1.00  0.00     0.041 A 
ATOM     66  F   UNL A   1      39.391  29.517  32.730  1.00  0.00    -0.206 F 
ATOM     67  C   UNL A   1      36.307  31.206  31.880  1.00  0.00     0.022 A 
BRANCH  64  68
ATOM     68  S   UNL A   1      35.414  32.534  29.594  1.00  0.00     0.124 S 
ATOM     69  O   UNL A   1      34.319  32.723  30.542  1.00  0.00    -0.237 OA
ATOM     70  O   UNL A   1      36.276  33.689  29.376  1.00  0.00    -0.237 OA
ATOM     71  O   UNL A   1      35.067  31.776  28.394  1.00  0.00    -0.744 OA
ENDBRANCH  64  68
ENDBRANCH  47  61
BRANCH  48  72
ATOM     72  C   UNL A   1      46.936  27.389  25.699  1.00  0.00     0.023 A 
ATOM     73  C   UNL A   1      47.059  27.768  24.352  1.00  0.00     0.031 A 
ATOM     74  C   UNL A   1      47.969  26.626  26.267  1.00  0.00     0.131 A 
ATOM     75  C   UNL A   1      48.174  27.352  23.607  1.00  0.00     0.055 A 
ATOM     76  C   UNL A   1      49.097  26.250  25.534  1.00  0.00     0.041 A 
ATOM     77  F   UNL A   1      47.906  26.249  27.554  1.00  0.00    -0.206 F 
ATOM     78  C   UNL A   1      49.199  26.605  24.192  1.00  0.00     0.022 A 
BRANCH  75  79
ATOM     79  S   UNL A   1      48.242  27.761  21.841  1.00  0.00     0.124 S 
ATOM     80  O   UNL A   1      49.373  28.682  21.794  1.00  0.00    -0.237 OA
ATOM     81  O   UNL A   1      48.455  26.452  21.233  1.00  0.00    -0.237 OA
ATOM     82  O   UNL A   1      46.936  28.363  21.581  1.00  0.00    -0.744 OA
ENDBRANCH  75  79
ENDBRANCH  48  72
BRANCH  60  83
ATOM     83  C   UNL A   1      45.176  33.116  29.285  1.00  0.00     0.023 A 
ATOM     84  C   UNL A   1      45.231  34.226  28.428  1.00  0.00     0.031 A 
ATOM     85  C   UNL A   1      45.838  33.195  30.523  1.00  0.00     0.131 A 
ATOM     86  C   UNL A   1      45.965  35.361  28.805  1.00  0.00     0.055 A 
ATOM     87  C   UNL A   1      46.527  34.344  30.913  1.00  0.00     0.041 A 
ATOM     88  F   UNL A   1      45.814  32.161  31.377  1.00  0.00    -0.206 F 
ATOM     89  C   UNL A   1      46.600  35.432  30.049  1.00  0.00     0.022 A 
BRANCH  86  90
ATOM     90  S   UNL A   1      46.130  36.727  27.625  1.00  0.00     0.124 S 
ATOM     91  O   UNL A   1      45.119  37.665  28.103  1.00  0.00    -0.237 OA
ATOM     92  O   UNL A   1      47.518  37.137  27.811  1.00  0.00    -0.237 OA
ATOM     93  O   UNL A   1      45.837  36.103  26.335  1.00  0.00    -0.744 OA
ENDBRANCH  86  90
ENDBRANCH  60  83
ENDBRANCH  34  35
ENDBRANCH  26  29
ENDBRANCH  24  25
ENDBRANCH  23  24
ENDBRANCH   1  23
TORSDOF 18
ENDMDL
MODEL 2
REMARK VINA RESULT:     -12.2      5.914     10.328
REMARK SMILES C[C@H](C(=O)NCCCCNC(=O)c1ccc(-c2c3nc(c(-c4cc(S(=O)(=O)[O-])ccc4F)c4ccc([nH]4)c(-c4cc(S(=O)(=O)[O-])ccc4F)c4nc(c(-c5cc(S(=O)(=O)[O-])ccc5F)c5ccc2[nH]5)C=C4)C=C3)cc1)c1ccc(C[C@@H]2CCC[C@H]2O)cc1
REMARK SMILES IDX 7 1 6 2 5 3 3 4 4 5 2 7 1 8 76 9 77 10 88 11 78 12 87 13
REMARK SMILES IDX 79 14 80 15 81 16 82 17 85 18 83 19 84 20 86 21 8 23 9 24
REMARK SMILES IDX 10 25 11 26 12 28 13 29 14 30 75 31 15 32 74 33 16 34 17 35
REMARK SMILES IDX 18 36 68 37 19 38 73 39 67 40 69 41 20 42 72 43 66 44 65 45
REMARK SMILES IDX 21 47 53 48 33 49 52 50 34 51 37 52 51 53 70 54 35 55 36 56
REMARK SMILES IDX 50 58 71 59 38 60 22 61 23 62 31 63 24 64 30 65 32 66 29 67
REMARK SMILES IDX 25 68 26 69 27 70 28 71 54 72 55 73 63 74 56 75 62 76 64 77
REMARK SMILES IDX 61 78 57 79 58 80 59 81 60 82 39 83 40 84 48 85 41 86 47 87
REMARK SMILES IDX 49 88 46 89 42 90 43 91 44 92 45 93
REMARK H PARENT 5 6 86 22 10 27 69 46 37 57
REMARK Flexibility Score: inf
ROOT
ATOM      1  C   UNL A   1      33.890  35.825  30.090  1.00  0.00     0.023 C 
ENDROOT
BRANCH   1   2
ATOM      2  C   UNL A   1      32.989  35.853  31.345  1.00  0.00     0.116 C 
BRANCH   2   3
ATOM      3  N   UNL A   1      33.129  34.599  32.080  1.00  0.00    -0.356 N 
ATOM      4  C   UNL A   1      34.158  33.961  32.712  1.00  0.00     0.227 C 
ATOM      5  O   UNL A   1      33.932  32.761  32.930  1.00  0.00    -0.274 OA
ATOM      6  H   UNL A   1      32.286  34.095  32.130  1.00  0.00     0.163 HD
BRANCH   4   7
ATOM      7  C   UNL A   1      35.448  34.635  33.280  1.00  0.00     0.105 C 
ATOM      8  C   UNL A   1      35.712  33.957  34.645  1.00  0.00     0.023 C 
BRANCH   7   9
ATOM      9  C   UNL A   1      36.732  34.675  32.432  1.00  0.00    -0.036 A 
ATOM     10  C   UNL A   1      36.804  34.410  31.058  1.00  0.00     0.005 A 
ATOM     11  C   UNL A   1      37.961  34.828  33.048  1.00  0.00     0.005 A 
ATOM     12  C   UNL A   1      38.045  34.243  30.402  1.00  0.00     0.004 A 
ATOM     13  C   UNL A   1      39.193  34.594  32.450  1.00  0.00     0.004 A 
ATOM     14  C   UNL A   1      39.250  34.257  31.112  1.00  0.00    -0.048 A 
BRANCH  14  15
ATOM     15  C   UNL A   1      40.591  33.934  30.510  1.00  0.00     0.041 C 
BRANCH  15  16
ATOM     16  C   UNL A   1      41.479  32.897  31.229  1.00  0.00     0.022 C 
ATOM     17  C   UNL A   1      42.770  33.491  31.796  1.00  0.00     0.007 C 
ATOM     18  C   UNL A   1      41.961  31.712  30.384  1.00  0.00     0.117 C 
ATOM     19  C   UNL A   1      43.893  33.121  30.829  1.00  0.00     0.003 C 
ATOM     20  C   UNL A   1      43.316  32.127  29.822  1.00  0.00     0.032 C 
BRANCH  18  21
ATOM     21  O   UNL A   1      42.147  30.572  31.230  1.00  0.00    -0.393 OA
ATOM     22  H   UNL A   1      42.353  30.869  32.131  1.00  0.00     0.210 HD
ENDBRANCH  18  21
ENDBRANCH  15  16
ENDBRANCH  14  15
ENDBRANCH   7   9
ENDBRANCH   4   7
ENDBRANCH   2   3
ENDBRANCH   1   2
BRANCH   1  23
ATOM     23  C   UNL A   1      33.400  35.076  28.874  1.00  0.00     0.023 C 
BRANCH  23  24
ATOM     24  C   UNL A   1      34.014  33.704  28.704  1.00  0.00     0.116 C 
BRANCH  24  25
ATOM     25  N   UNL A   1      33.230  32.773  27.893  1.00  0.00    -0.352 N 
ATOM     26  C   UNL A   1      33.593  31.513  27.448  1.00  0.00     0.251 C 
ATOM     27  H   UNL A   1      32.332  33.081  27.629  1.00  0.00     0.163 HD
ATOM     28  O   UNL A   1      32.854  30.853  26.742  1.00  0.00    -0.269 OA
BRANCH  26  29
ATOM     29  C   UNL A   1      34.942  31.033  27.814  1.00  0.00     0.039 A 
ATOM     30  C   UNL A   1      35.917  31.959  28.184  1.00  0.00     0.014 A 
ATOM     31  C   UNL A   1      35.137  29.666  28.005  1.00  0.00     0.014 A 
ATOM     32  C   UNL A   1      37.049  31.515  28.872  1.00  0.00     0.010 A 
ATOM     33  C   UNL A   1      36.184  29.252  28.812  1.00  0.00     0.010 A 
ATOM     34  C   UNL A   1      37.154  30.169  29.256  1.00  0.00    -0.014 A 
BRANCH  34  35
ATOM     35  C   UNL A   1      38.270  29.654  30.092  1.00  0.00     0.031 A 
ATOM     36  C   UNL A   1      38.400  30.162  31.503  1.00  0.00     0.074 A 
ATOM     37  C   UNL A   1      39.227  28.865  29.563  1.00  0.00     0.049 A 
ATOM     38  N   UNL A   1      39.411  30.087  32.327  1.00  0.00    -0.248 NA
ATOM     39  C   UNL A   1      37.259  30.936  32.017  1.00  0.00     0.031 C 
ATOM     40  C   UNL A   1      39.250  28.351  28.191  1.00  0.00     0.029 A 
ATOM     41  N   UNL A   1      40.384  28.373  30.116  1.00  0.00    -0.354 N 
ATOM     42  C   UNL A   1      39.052  30.861  33.425  1.00  0.00     0.074 A 
ATOM     43  C   UNL A   1      37.771  31.459  33.117  1.00  0.00     0.031 C 
ATOM     44  C   UNL A   1      40.350  27.597  28.021  1.00  0.00     0.029 A 
ATOM     45  C   UNL A   1      41.138  27.618  29.248  1.00  0.00     0.049 A 
ATOM     46  H   UNL A   1      40.648  28.547  31.049  1.00  0.00     0.167 HD
ATOM     47  C   UNL A   1      39.713  31.031  34.597  1.00  0.00     0.034 A 
ATOM     48  C   UNL A   1      42.337  27.026  29.421  1.00  0.00     0.034 A 
ATOM     49  C   UNL A   1      40.953  30.366  34.906  1.00  0.00     0.049 A 
ATOM     50  C   UNL A   1      43.032  27.171  30.751  1.00  0.00     0.074 A 
ATOM     51  C   UNL A   1      41.678  30.389  36.082  1.00  0.00     0.029 A 
ATOM     52  N   UNL A   1      41.644  29.538  34.026  1.00  0.00    -0.354 N 
ATOM     53  N   UNL A   1      42.672  27.880  31.796  1.00  0.00    -0.248 NA
ATOM     54  C   UNL A   1      44.288  26.431  30.929  1.00  0.00     0.031 C 
ATOM     55  C   UNL A   1      42.829  29.613  35.900  1.00  0.00     0.029 A 
ATOM     56  C   UNL A   1      42.790  29.053  34.633  1.00  0.00     0.049 A 
ATOM     57  H   UNL A   1      41.359  29.329  33.108  1.00  0.00     0.167 HD
ATOM     58  C   UNL A   1      43.639  27.644  32.768  1.00  0.00     0.074 A 
ATOM     59  C   UNL A   1      44.597  26.726  32.184  1.00  0.00     0.031 C 
ATOM     60  C   UNL A   1      43.725  28.133  34.031  1.00  0.00     0.034 A 
BRANCH  47  61
ATOM     61  C   UNL A   1      39.103  31.982  35.600  1.00  0.00     0.023 A 
ATOM     62  C   UNL A   1      39.498  33.331  35.673  1.00  0.00     0.031 A 
ATOM     63  C   UNL A   1      38.183  31.520  36.556  1.00  0.00     0.131 A 
ATOM     64  C   UNL A   1      39.080  34.128  36.748  1.00  0.00     0.055 A 
ATOM     65  C   UNL A   1      37.684  32.351  37.562  1.00  0.00     0.041 A 
ATOM     66  F   UNL A   1      37.777  30.240  36.554  1.00  0.00    -0.206 F 
ATOM     67  C   UNL A   1      38.153  33.657  37.679  1.00  0.00     0.022 A 
BRANCH  64  68
ATOM     68  S   UNL A   1      39.929  35.707  37.026  1.00  0.00     0.124 S 
ATOM     69  O   UNL A   1      41.311  35.269  37.209  1.00  0.00    -0.237 OA
ATOM     70  O   UNL A   1      39.649  36.436  35.795  1.00  0.00    -0.237 OA
ATOM     71  O   UNL A   1      39.286  36.236  38.227  1.00  0.00    -0.744 OA
ENDBRANCH  64  68
ENDBRANCH  47  61
BRANCH  48  72
ATOM     72  C   UNL A   1      42.956  26.241  28.314  1.00  0.00     0.023 A 
ATOM     73  C   UNL A   1      43.986  26.788  27.532  1.00  0.00     0.031 A 
ATOM     74  C   UNL A   1      42.520  24.939  28.014  1.00  0.00     0.131 A 
ATOM     75  C   UNL A   1      44.522  26.051  26.464  1.00  0.00     0.055 A 
ATOM     76  C   UNL A   1      43.086  24.193  26.978  1.00  0.00     0.041 A 
ATOM     77  F   UNL A   1      41.547  24.366  28.740  1.00  0.00    -0.206 F 
ATOM     78  C   UNL A   1      44.086  24.753  26.190  1.00  0.00     0.022 A 
BRANCH  75  79
ATOM     79  S   UNL A   1      45.769  26.835  25.405  1.00  0.00     0.124 S 
ATOM     80  O   UNL A   1      46.697  27.378  26.392  1.00  0.00    -0.237 OA
ATOM     81  O   UNL A   1      46.255  25.705  24.620  1.00  0.00    -0.237 OA
ATOM     82  O   UNL A   1      45.002  27.828  24.655  1.00  0.00    -0.744 OA
ENDBRANCH  75  79
ENDBRANCH  48  72
BRANCH  60  83
ATOM     83  C   UNL A   1      44.857  27.629  34.888  1.00  0.00     0.023 A 
ATOM     84  C   UNL A   1      44.785  26.402  35.567  1.00  0.00     0.031 A 
ATOM     85  C   UNL A   1      46.037  28.386  34.999  1.00  0.00     0.131 A 
ATOM     86  C   UNL A   1      45.864  25.982  36.360  1.00  0.00     0.055 A 
ATOM     87  C   UNL A   1      47.124  27.940  35.751  1.00  0.00     0.041 A 
ATOM     88  F   UNL A   1      46.154  29.564  34.368  1.00  0.00    -0.206 F 
ATOM     89  C   UNL A   1      47.039  26.736  36.443  1.00  0.00     0.022 A 
BRANCH  86  90
ATOM     90  S   UNL A   1      45.694  24.460  37.331  1.00  0.00     0.124 S 
ATOM     91  O   UNL A   1      46.601  24.710  38.447  1.00  0.00    -0.237 OA
ATOM     92  O   UNL A   1      44.272  24.452  37.655  1.00  0.00    -0.237 OA
ATOM     93  O   UNL A   1      46.123  23.413  36.405  1.00  0.00    -0.744 OA
ENDBRANCH  86  90
ENDBRANCH  60  83
ENDBRANCH  34  35
ENDBRANCH  26  29
ENDBRANCH  24  25
ENDBRANCH  23  24
ENDBRANCH   1  23
TORSDOF 18
ENDMDL
MODEL 3
REMARK VINA RESULT:     -12.0      5.500     10.740
REMARK SMILES C[C@H](C(=O)NCCCCNC(=O)c1ccc(-c2c3nc(c(-c4cc(S(=O)(=O)[O-])ccc4F)c4ccc([nH]4)c(-c4cc(S(=O)(=O)[O-])ccc4F)c4nc(c(-c5cc(S(=O)(=O)[O-])ccc5F)c5ccc2[nH]5)C=C4)C=C3)cc1)c1ccc(C[C@@H]2CCC[C@H]2O)cc1
REMARK SMILES IDX 7 1 6 2 5 3 3 4 4 5 2 7 1 8 76 9 77 10 88 11 78 12 87 13
REMARK SMILES IDX 79 14 80 15 81 16 82 17 85 18 83 19 84 20 86 21 8 23 9 24
REMARK SMILES IDX 10 25 11 26 12 28 13 29 14 30 75 31 15 32 74 33 16 34 17 35
REMARK SMILES IDX 18 36 68 37 19 38 73 39 67 40 69 41 20 42 72 43 66 44 65 45
REMARK SMILES IDX 21 47 53 48 33 49 52 50 34 51 37 52 51 53 70 54 35 55 36 56
REMARK SMILES IDX 50 58 71 59 38 60 22 61 23 62 31 63 24 64 30 65 32 66 29 67
REMARK SMILES IDX 25 68 26 69 27 70 28 71 54 72 55 73 63 74 56 75 62 76 64 77
REMARK SMILES IDX 61 78 57 79 58 80 59 81 60 82 39 83 40 84 48 85 41 86 47 87
REMARK SMILES IDX 49 88 46 89 42 90 43 91 44 92 45 93
REMARK H PARENT 5 6 86 22 10 27 69 46 37 57
REMARK Flexibility Score: inf
ROOT
ATOM      1  C   UNL A   1      33.902  27.555  24.740  1.00  0.00     0.023 C 
ENDROOT
BRANCH   1   2
ATOM      2  C   UNL A   1      33.734  26.422  25.778  1.00  0.00     0.116 C 
BRANCH   2   3
ATOM      3  N   UNL A   1      33.902  25.127  25.124  1.00  0.00    -0.356 N 
ATOM      4  C   UNL A   1      33.059  24.127  24.733  1.00  0.00     0.227 C 
ATOM      5  O   UNL A   1      33.640  23.055  24.509  1.00  0.00    -0.274 OA
ATOM      6  H   UNL A   1      34.843  24.930  24.917  1.00  0.00     0.163 HD
BRANCH   4   7
ATOM      7  C   UNL A   1      31.536  24.277  24.421  1.00  0.00     0.105 C 
ATOM      8  C   UNL A   1      30.807  24.074  25.770  1.00  0.00     0.023 C 
BRANCH   7   9
ATOM      9  C   UNL A   1      31.017  25.537  23.704  1.00  0.00    -0.036 A 
ATOM     10  C   UNL A   1      31.435  25.980  22.443  1.00  0.00     0.005 A 
ATOM     11  C   UNL A   1      30.188  26.419  24.373  1.00  0.00     0.005 A 
ATOM     12  C   UNL A   1      31.084  27.260  21.956  1.00  0.00     0.004 A 
ATOM     13  C   UNL A   1      29.889  27.710  23.958  1.00  0.00     0.004 A 
ATOM     14  C   UNL A   1      30.371  28.167  22.746  1.00  0.00    -0.048 A 
BRANCH  14  15
ATOM     15  C   UNL A   1      30.095  29.595  22.357  1.00  0.00     0.041 C 
BRANCH  15  16
ATOM     16  C   UNL A   1      28.643  30.105  22.448  1.00  0.00     0.022 C 
ATOM     17  C   UNL A   1      28.052  30.502  21.093  1.00  0.00     0.007 C 
ATOM     18  C   UNL A   1      28.408  31.340  23.326  1.00  0.00     0.117 C 
ATOM     19  C   UNL A   1      28.110  32.027  21.012  1.00  0.00     0.003 C 
ATOM     20  C   UNL A   1      28.517  32.540  22.392  1.00  0.00     0.032 C 
BRANCH  18  21
ATOM     21  O   UNL A   1      27.080  31.295  23.860  1.00  0.00    -0.393 OA
ATOM     22  H   UNL A   1      26.812  32.187  24.133  1.00  0.00     0.210 HD
ENDBRANCH  18  21
ENDBRANCH  15  16
ENDBRANCH  14  15
ENDBRANCH   7   9
ENDBRANCH   4   7
ENDBRANCH   2   3
ENDBRANCH   1   2
BRANCH   1  23
ATOM     23  C   UNL A   1      33.163  28.851  24.971  1.00  0.00     0.023 C 
BRANCH  23  24
ATOM     24  C   UNL A   1      32.723  29.065  26.402  1.00  0.00     0.116 C 
BRANCH  24  25
ATOM     25  N   UNL A   1      32.292  30.426  26.719  1.00  0.00    -0.352 N 
ATOM     26  C   UNL A   1      33.042  31.455  27.263  1.00  0.00     0.251 C 
ATOM     27  H   UNL A   1      31.350  30.638  26.522  1.00  0.00     0.163 HD
ATOM     28  O   UNL A   1      32.546  32.537  27.513  1.00  0.00    -0.269 OA
BRANCH  26  29
ATOM     29  C   UNL A   1      34.455  31.161  27.585  1.00  0.00     0.039 A 
ATOM     30  C   UNL A   1      35.357  32.217  27.715  1.00  0.00     0.014 A 
ATOM     31  C   UNL A   1      34.797  29.868  27.977  1.00  0.00     0.014 A 
ATOM     32  C   UNL A   1      36.572  31.995  28.366  1.00  0.00     0.010 A 
ATOM     33  C   UNL A   1      35.934  29.688  28.747  1.00  0.00     0.010 A 
ATOM     34  C   UNL A   1      36.837  30.747  28.952  1.00  0.00    -0.014 A 
BRANCH  34  35
ATOM     35  C   UNL A   1      38.055  30.478  29.761  1.00  0.00     0.031 A 
ATOM     36  C   UNL A   1      39.103  29.559  29.192  1.00  0.00     0.074 A 
ATOM     37  C   UNL A   1      38.159  30.925  31.028  1.00  0.00     0.049 A 
ATOM     38  N   UNL A   1      40.099  28.959  29.787  1.00  0.00    -0.248 NA
ATOM     39  C   UNL A   1      38.947  29.206  27.771  1.00  0.00     0.031 C 
ATOM     40  C   UNL A   1      37.186  31.775  31.719  1.00  0.00     0.029 A 
ATOM     41  N   UNL A   1      39.131  30.705  31.974  1.00  0.00    -0.354 N 
ATOM     42  C   UNL A   1      40.642  28.106  28.831  1.00  0.00     0.074 A 
ATOM     43  C   UNL A   1      39.810  28.211  27.653  1.00  0.00     0.031 C 
ATOM     44  C   UNL A   1      37.623  32.023  32.966  1.00  0.00     0.029 A 
ATOM     45  C   UNL A   1      38.876  31.309  33.183  1.00  0.00     0.049 A 
ATOM     46  H   UNL A   1      39.935  30.164  31.801  1.00  0.00     0.167 HD
ATOM     47  C   UNL A   1      41.753  27.333  28.917  1.00  0.00     0.034 A 
ATOM     48  C   UNL A   1      39.568  31.274  34.340  1.00  0.00     0.034 A 
ATOM     49  C   UNL A   1      42.604  27.303  30.078  1.00  0.00     0.049 A 
ATOM     50  C   UNL A   1      40.835  30.460  34.402  1.00  0.00     0.074 A 
ATOM     51  C   UNL A   1      43.797  26.627  30.260  1.00  0.00     0.029 A 
ATOM     52  N   UNL A   1      42.354  27.998  31.257  1.00  0.00    -0.354 N 
ATOM     53  N   UNL A   1      41.360  29.680  33.485  1.00  0.00    -0.248 NA
ATOM     54  C   UNL A   1      41.608  30.527  35.649  1.00  0.00     0.031 C 
ATOM     55  C   UNL A   1      44.245  26.878  31.562  1.00  0.00     0.029 A 
ATOM     56  C   UNL A   1      43.367  27.760  32.172  1.00  0.00     0.049 A 
ATOM     57  H   UNL A   1      41.573  28.573  31.417  1.00  0.00     0.167 HD
ATOM     58  C   UNL A   1      42.542  29.191  34.031  1.00  0.00     0.074 A 
ATOM     59  C   UNL A   1      42.653  29.764  35.358  1.00  0.00     0.031 C 
ATOM     60  C   UNL A   1      43.458  28.351  33.485  1.00  0.00     0.034 A 
BRANCH  47  61
ATOM     61  C   UNL A   1      42.077  26.460  27.727  1.00  0.00     0.023 A 
ATOM     62  C   UNL A   1      41.602  25.139  27.629  1.00  0.00     0.031 A 
ATOM     63  C   UNL A   1      42.945  26.917  26.721  1.00  0.00     0.131 A 
ATOM     64  C   UNL A   1      42.096  24.287  26.631  1.00  0.00     0.055 A 
ATOM     65  C   UNL A   1      43.348  26.095  25.665  1.00  0.00     0.041 A 
ATOM     66  F   UNL A   1      43.448  28.161  26.763  1.00  0.00    -0.206 F 
ATOM     67  C   UNL A   1      42.944  24.763  25.630  1.00  0.00     0.022 A 
BRANCH  64  68
ATOM     68  S   UNL A   1      41.780  22.508  26.789  1.00  0.00     0.124 S 
ATOM     69  O   UNL A   1      42.211  22.017  25.482  1.00  0.00    -0.237 OA
ATOM     70  O   UNL A   1      42.622  22.137  27.919  1.00  0.00    -0.237 OA
ATOM     71  O   UNL A   1      40.340  22.436  27.030  1.00  0.00    -0.744 OA
ENDBRANCH  64  68
ENDBRANCH  47  61
BRANCH  48  72
ATOM     72  C   UNL A   1      39.085  32.031  35.531  1.00  0.00     0.023 A 
ATOM     73  C   UNL A   1      38.402  31.379  36.570  1.00  0.00     0.031 A 
ATOM     74  C   UNL A   1      39.286  33.417  35.641  1.00  0.00     0.131 A 
ATOM     75  C   UNL A   1      37.913  32.119  37.659  1.00  0.00     0.055 A 
ATOM     76  C   UNL A   1      38.836  34.142  36.746  1.00  0.00     0.041 A 
ATOM     77  F   UNL A   1      39.944  34.086  34.680  1.00  0.00    -0.206 F 
ATOM     78  C   UNL A   1      38.135  33.494  37.759  1.00  0.00     0.022 A 
BRANCH  75  79
ATOM     79  S   UNL A   1      36.936  31.261  38.925  1.00  0.00     0.124 S 
ATOM     80  O   UNL A   1      37.831  31.314  40.076  1.00  0.00    -0.237 OA
ATOM     81  O   UNL A   1      35.740  32.094  39.002  1.00  0.00    -0.237 OA
ATOM     82  O   UNL A   1      36.732  29.931  38.353  1.00  0.00    -0.744 OA
ENDBRANCH  75  79
ENDBRANCH  48  72
BRANCH  60  83
ATOM     83  C   UNL A   1      44.693  28.060  34.297  1.00  0.00     0.023 A 
ATOM     84  C   UNL A   1      44.767  26.964  35.171  1.00  0.00     0.031 A 
ATOM     85  C   UNL A   1      45.824  28.887  34.166  1.00  0.00     0.131 A 
ATOM     86  C   UNL A   1      45.938  26.742  35.911  1.00  0.00     0.055 A 
ATOM     87  C   UNL A   1      47.001  28.633  34.869  1.00  0.00     0.041 A 
ATOM     88  F   UNL A   1      45.803  29.945  33.342  1.00  0.00    -0.206 F 
ATOM     89  C   UNL A   1      47.061  27.561  35.754  1.00  0.00     0.022 A 
BRANCH  86  90
ATOM     90  S   UNL A   1      45.959  25.400  37.131  1.00  0.00     0.124 S 
ATOM     91  O   UNL A   1      45.677  26.114  38.372  1.00  0.00    -0.237 OA
ATOM     92  O   UNL A   1      44.901  24.520  36.647  1.00  0.00    -0.237 OA
ATOM     93  O   UNL A   1      47.313  24.858  37.020  1.00  0.00    -0.744 OA
ENDBRANCH  86  90
ENDBRANCH  60  83
ENDBRANCH  34  35
ENDBRANCH  26  29
ENDBRANCH  24  25
ENDBRANCH  23  24
ENDBRANCH   1  23
TORSDOF 18
ENDMDL
