MODEL 1
REMARK VINA RESULT:     -11.5      0.000      0.000
REMARK SMILES CCCc1cc(N2CCC(C(=O)NCCCCNC(=O)c3ccc(-c4c5nc(c(-c6cc(S(=O)(=O)[O-])ccc6F)c6ccc([nH]6)c(-c6cc(S(=O)(=O)[O-])ccc6F)c6nc(c(-c7cc(S(=O)(=O)[O-])ccc7F)c7ccc4[nH]7)C=C6)C=C5)cc3)CC2)nc(CC)n1
REMARK SMILES IDX 15 1 14 2 13 3 11 4 12 5 10 7 7 8 8 9 85 10 9 11 84 12 6 13
REMARK SMILES IDX 4 14 5 15 90 16 87 17 86 18 3 19 2 20 1 21 88 22 89 23 16 24
REMARK SMILES IDX 17 25 18 26 19 27 20 29 21 30 22 31 83 32 23 33 82 34 24 35
REMARK SMILES IDX 25 36 26 37 76 38 27 39 81 40 75 41 77 42 28 43 80 44 74 45
REMARK SMILES IDX 73 46 29 48 61 49 41 50 60 51 42 52 45 53 59 54 78 55 43 56
REMARK SMILES IDX 44 57 58 59 79 60 46 61 30 62 31 63 39 64 32 65 38 66 40 67
REMARK SMILES IDX 37 68 33 69 34 70 35 71 36 72 62 73 63 74 71 75 64 76 70 77
REMARK SMILES IDX 72 78 69 79 65 80 66 81 67 82 68 83 47 84 48 85 56 86 49 87
REMARK SMILES IDX 55 88 57 89 54 90 50 91 51 92 52 93 53 94
REMARK H PARENT 13 6 18 28 77 47 45 58
REMARK Flexibility Score: inf
ROOT
ATOM      1  C   UNL A   1      31.111  29.659  24.466  1.00  0.00     0.023 C 
ENDROOT
BRANCH   1   2
ATOM      2  C   UNL A   1      30.321  28.733  23.543  1.00  0.00     0.116 C 
BRANCH   2   3
ATOM      3  N   UNL A   1      31.184  28.006  22.620  1.00  0.00    -0.356 N 
ATOM      4  C   UNL A   1      31.686  26.741  22.687  1.00  0.00     0.223 C 
ATOM      5  O   UNL A   1      32.399  26.345  21.762  1.00  0.00    -0.275 OA
ATOM      6  H   UNL A   1      31.446  28.512  21.817  1.00  0.00     0.163 HD
BRANCH   4   7
ATOM      7  C   UNL A   1      31.367  25.818  23.856  1.00  0.00     0.082 C 
ATOM      8  N   UNL A   1      32.203  23.352  24.923  1.00  0.00    -0.356 N 
ATOM      9  C   UNL A   1      30.890  23.332  24.312  1.00  0.00     0.119 C 
ATOM     10  C   UNL A   1      32.547  24.511  25.718  1.00  0.00     0.119 C 
ATOM     11  C   UNL A   1      30.749  24.501  23.354  1.00  0.00     0.035 C 
ATOM     12  C   UNL A   1      32.584  25.722  24.797  1.00  0.00     0.035 C 
BRANCH   8  13
ATOM     13  C   UNL A   1      32.950  22.200  24.918  1.00  0.00     0.132 A 
ATOM     14  C   UNL A   1      33.160  19.868  24.593  1.00  0.00     0.046 A 
ATOM     15  C   UNL A   1      32.345  20.972  24.738  1.00  0.00     0.070 A 
ATOM     16  N   UNL A   1      34.495  19.953  24.750  1.00  0.00    -0.238 NA
ATOM     17  C   UNL A   1      35.003  21.172  25.008  1.00  0.00     0.130 A 
ATOM     18  N   UNL A   1      34.283  22.308  25.046  1.00  0.00    -0.216 NA
BRANCH  14  19
ATOM     19  C   UNL A   1      32.618  18.500  24.261  1.00  0.00     0.056 C 
BRANCH  19  20
ATOM     20  C   UNL A   1      33.563  17.306  24.462  1.00  0.00     0.003 C 
ATOM     21  C   UNL A   1      34.034  16.668  23.162  1.00  0.00     0.004 C 
ENDBRANCH  19  20
ENDBRANCH  14  19
BRANCH  17  22
ATOM     22  C   UNL A   1      36.481  21.269  25.278  1.00  0.00     0.074 C 
ATOM     23  C   UNL A   1      37.211  19.982  24.918  1.00  0.00     0.012 C 
ENDBRANCH  17  22
ENDBRANCH   8  13
ENDBRANCH   4   7
ENDBRANCH   2   3
ENDBRANCH   1   2
BRANCH   1  24
ATOM     24  C   UNL A   1      31.421  29.081  25.845  1.00  0.00     0.023 C 
BRANCH  24  25
ATOM     25  C   UNL A   1      32.573  29.749  26.585  1.00  0.00     0.116 C 
BRANCH  25  26
ATOM     26  N   UNL A   1      32.401  31.186  26.732  1.00  0.00    -0.352 N 
ATOM     27  C   UNL A   1      33.226  32.094  27.352  1.00  0.00     0.251 C 
ATOM     28  H   UNL A   1      31.582  31.559  26.332  1.00  0.00     0.163 HD
ATOM     29  O   UNL A   1      32.859  33.257  27.495  1.00  0.00    -0.269 OA
BRANCH  27  30
ATOM     30  C   UNL A   1      34.533  31.648  27.879  1.00  0.00     0.039 A 
ATOM     31  C   UNL A   1      35.570  32.577  27.988  1.00  0.00     0.014 A 
ATOM     32  C   UNL A   1      34.721  30.329  28.299  1.00  0.00     0.014 A 
ATOM     33  C   UNL A   1      36.773  32.201  28.588  1.00  0.00     0.010 A 
ATOM     34  C   UNL A   1      35.892  29.977  28.964  1.00  0.00     0.010 A 
ATOM     35  C   UNL A   1      36.929  30.909  29.118  1.00  0.00    -0.014 A 
BRANCH  35  36
ATOM     36  C   UNL A   1      38.167  30.514  29.841  1.00  0.00     0.031 A 
ATOM     37  C   UNL A   1      39.111  29.518  29.225  1.00  0.00     0.074 A 
ATOM     38  C   UNL A   1      38.396  30.988  31.081  1.00  0.00     0.049 A 
ATOM     39  N   UNL A   1      40.189  28.977  29.730  1.00  0.00    -0.248 NA
ATOM     40  C   UNL A   1      38.771  29.042  27.876  1.00  0.00     0.031 C 
ATOM     41  C   UNL A   1      37.525  31.916  31.806  1.00  0.00     0.029 A 
ATOM     42  N   UNL A   1      39.421  30.742  31.959  1.00  0.00    -0.354 N 
ATOM     43  C   UNL A   1      40.647  28.081  28.769  1.00  0.00     0.074 A 
ATOM     44  C   UNL A   1      39.691  28.110  27.682  1.00  0.00     0.031 C 
ATOM     45  C   UNL A   1      38.061  32.174  33.009  1.00  0.00     0.029 A 
ATOM     46  C   UNL A   1      39.290  31.400  33.160  1.00  0.00     0.049 A 
ATOM     47  H   UNL A   1      40.180  30.151  31.750  1.00  0.00     0.167 HD
ATOM     48  C   UNL A   1      41.773  27.323  28.782  1.00  0.00     0.034 A 
ATOM     49  C   UNL A   1      40.063  31.374  34.263  1.00  0.00     0.034 A 
ATOM     50  C   UNL A   1      42.722  27.320  29.870  1.00  0.00     0.049 A 
ATOM     51  C   UNL A   1      41.309  30.526  34.260  1.00  0.00     0.074 A 
ATOM     52  C   UNL A   1      43.929  26.648  29.960  1.00  0.00     0.029 A 
ATOM     53  N   UNL A   1      42.567  28.016  31.064  1.00  0.00    -0.354 N 
ATOM     54  N   UNL A   1      41.763  29.731  33.319  1.00  0.00    -0.248 NA
ATOM     55  C   UNL A   1      42.150  30.582  35.461  1.00  0.00     0.031 C 
ATOM     56  C   UNL A   1      44.470  26.885  31.230  1.00  0.00     0.029 A 
ATOM     57  C   UNL A   1      43.640  27.765  31.906  1.00  0.00     0.049 A 
ATOM     58  H   UNL A   1      41.806  28.601  31.279  1.00  0.00     0.167 HD
ATOM     59  C   UNL A   1      42.960  29.212  33.807  1.00  0.00     0.074 A 
ATOM     60  C   UNL A   1      43.160  29.795  35.118  1.00  0.00     0.031 C 
ATOM     61  C   UNL A   1      43.818  28.339  33.220  1.00  0.00     0.034 A 
BRANCH  48  62
ATOM     62  C   UNL A   1      42.011  26.418  27.596  1.00  0.00     0.023 A 
ATOM     63  C   UNL A   1      41.580  25.080  27.588  1.00  0.00     0.031 A 
ATOM     64  C   UNL A   1      42.724  26.882  26.476  1.00  0.00     0.131 A 
ATOM     65  C   UNL A   1      41.946  24.229  26.534  1.00  0.00     0.055 A 
ATOM     66  C   UNL A   1      43.007  26.055  25.387  1.00  0.00     0.041 A 
ATOM     67  F   UNL A   1      43.179  28.145  26.430  1.00  0.00    -0.206 F 
ATOM     68  C   UNL A   1      42.634  24.714  25.421  1.00  0.00     0.022 A 
BRANCH  65  69
ATOM     69  S   UNL A   1      41.655  22.448  26.720  1.00  0.00     0.124 S 
ATOM     70  O   UNL A   1      42.503  22.130  27.866  1.00  0.00    -0.237 OA
ATOM     71  O   UNL A   1      40.217  22.385  26.951  1.00  0.00    -0.237 OA
ATOM     72  O   UNL A   1      42.109  21.892  25.447  1.00  0.00    -0.744 OA
ENDBRANCH  65  69
ENDBRANCH  48  62
BRANCH  49  73
ATOM     73  C   UNL A   1      39.682  32.169  35.464  1.00  0.00     0.023 A 
ATOM     74  C   UNL A   1      38.824  31.639  36.440  1.00  0.00     0.031 A 
ATOM     75  C   UNL A   1      40.158  33.480  35.642  1.00  0.00     0.131 A 
ATOM     76  C   UNL A   1      38.442  32.428  37.536  1.00  0.00     0.055 A 
ATOM     77  C   UNL A   1      39.810  34.246  36.756  1.00  0.00     0.041 A 
ATOM     78  F   UNL A   1      40.988  34.028  34.741  1.00  0.00    -0.206 F 
ATOM     79  C   UNL A   1      38.938  33.723  37.707  1.00  0.00     0.022 A 
BRANCH  76  80
ATOM     80  S   UNL A   1      37.236  31.757  38.713  1.00  0.00     0.124 S 
ATOM     81  O   UNL A   1      37.032  30.410  38.195  1.00  0.00    -0.237 OA
ATOM     82  O   UNL A   1      37.958  31.857  39.977  1.00  0.00    -0.237 OA
ATOM     83  O   UNL A   1      36.093  32.658  38.580  1.00  0.00    -0.744 OA
ENDBRANCH  76  80
ENDBRANCH  49  73
BRANCH  61  84
ATOM     84  C   UNL A   1      45.073  27.997  33.984  1.00  0.00     0.023 A 
ATOM     85  C   UNL A   1      45.135  26.893  34.854  1.00  0.00     0.031 A 
ATOM     86  C   UNL A   1      46.222  28.795  33.845  1.00  0.00     0.131 A 
ATOM     87  C   UNL A   1      46.304  26.649  35.590  1.00  0.00     0.055 A 
ATOM     88  C   UNL A   1      47.401  28.514  34.536  1.00  0.00     0.041 A 
ATOM     89  F   UNL A   1      46.218  29.862  33.029  1.00  0.00    -0.206 F 
ATOM     90  C   UNL A   1      47.443  27.442  35.424  1.00  0.00     0.022 A 
BRANCH  87  91
ATOM     91  S   UNL A   1      46.292  25.328  36.833  1.00  0.00     0.124 S 
ATOM     92  O   UNL A   1      44.873  25.235  37.162  1.00  0.00    -0.237 OA
ATOM     93  O   UNL A   1      46.850  24.199  36.095  1.00  0.00    -0.237 OA
ATOM     94  O   UNL A   1      47.144  25.852  37.899  1.00  0.00    -0.744 OA
ENDBRANCH  87  91
ENDBRANCH  61  84
ENDBRANCH  35  36
ENDBRANCH  27  30
ENDBRANCH  25  26
ENDBRANCH  24  25
ENDBRANCH   1  24
TORSDOF 18
ENDMDL
MODEL 2
REMARK VINA RESULT:     -11.5      1.412      7.601
REMARK SMILES CCCc1cc(N2CCC(C(=O)NCCCCNC(=O)c3ccc(-c4c5nc(c(-c6cc(S(=O)(=O)[O-])ccc6F)c6ccc([nH]6)c(-c6cc(S(=O)(=O)[O-])ccc6F)c6nc(c(-c7cc(S(=O)(=O)[O-])ccc7F)c7ccc4[nH]7)C=C6)C=C5)cc3)CC2)nc(CC)n1
REMARK SMILES IDX 15 1 14 2 13 3 11 4 12 5 10 7 7 8 8 9 85 10 9 11 84 12 6 13
REMARK SMILES IDX 4 14 5 15 90 16 87 17 86 18 3 19 2 20 1 21 88 22 89 23 16 24
REMARK SMILES IDX 17 25 18 26 19 27 20 29 21 30 22 31 83 32 23 33 82 34 24 35
REMARK SMILES IDX 25 36 26 37 76 38 27 39 81 40 75 41 77 42 28 43 80 44 74 45
REMARK SMILES IDX 73 46 29 48 61 49 41 50 60 51 42 52 45 53 59 54 78 55 43 56
REMARK SMILES IDX 44 57 58 59 79 60 46 61 30 62 31 63 39 64 32 65 38 66 40 67
REMARK SMILES IDX 37 68 33 69 34 70 35 71 36 72 62 73 63 74 71 75 64 76 70 77
REMARK SMILES IDX 72 78 69 79 65 80 66 81 67 82 68 83 47 84 48 85 56 86 49 87
REMARK SMILES IDX 55 88 57 89 54 90 50 91 51 92 52 93 53 94
REMARK H PARENT 13 6 18 28 77 47 45 58
REMARK Flexibility Score: inf
ROOT
ATOM      1  C   UNL A   1      31.447  29.367  23.958  1.00  0.00     0.023 C 
ENDROOT
BRANCH   1   2
ATOM      2  C   UNL A   1      30.388  28.677  23.100  1.00  0.00     0.116 C 
BRANCH   2   3
ATOM      3  N   UNL A   1      30.975  27.773  22.119  1.00  0.00    -0.356 N 
ATOM      4  C   UNL A   1      31.408  26.487  22.247  1.00  0.00     0.223 C 
ATOM      5  O   UNL A   1      31.867  25.923  21.250  1.00  0.00    -0.275 OA
ATOM      6  H   UNL A   1      31.074  28.154  21.216  1.00  0.00     0.163 HD
BRANCH   4   7
ATOM      7  C   UNL A   1      31.315  25.743  23.573  1.00  0.00     0.082 C 
ATOM      8  N   UNL A   1      32.423  23.489  24.841  1.00  0.00    -0.356 N 
ATOM      9  C   UNL A   1      31.035  23.343  24.453  1.00  0.00     0.119 C 
ATOM     10  C   UNL A   1      32.825  24.764  25.396  1.00  0.00     0.119 C 
ATOM     11  C   UNL A   1      30.694  24.350  23.370  1.00  0.00     0.035 C 
ATOM     12  C   UNL A   1      32.663  25.822  24.316  1.00  0.00     0.035 C 
BRANCH   8  13
ATOM     13  C   UNL A   1      33.216  22.369  24.887  1.00  0.00     0.132 A 
ATOM     14  C   UNL A   1      33.487  20.026  25.048  1.00  0.00     0.046 A 
ATOM     15  C   UNL A   1      32.670  21.132  25.164  1.00  0.00     0.070 A 
ATOM     16  N   UNL A   1      34.805  20.149  24.803  1.00  0.00    -0.238 NA
ATOM     17  C   UNL A   1      35.281  21.395  24.627  1.00  0.00     0.130 A 
ATOM     18  N   UNL A   1      34.523  22.507  24.609  1.00  0.00    -0.216 NA
BRANCH  14  19
ATOM     19  C   UNL A   1      32.968  18.619  25.198  1.00  0.00     0.056 C 
BRANCH  19  20
ATOM     20  C   UNL A   1      33.208  17.657  24.024  1.00  0.00     0.003 C 
ATOM     21  C   UNL A   1      32.526  18.083  22.731  1.00  0.00     0.004 C 
ENDBRANCH  19  20
ENDBRANCH  14  19
BRANCH  17  22
ATOM     22  C   UNL A   1      36.767  21.556  24.444  1.00  0.00     0.074 C 
ATOM     23  C   UNL A   1      37.465  21.911  25.749  1.00  0.00     0.012 C 
ENDBRANCH  17  22
ENDBRANCH   8  13
ENDBRANCH   4   7
ENDBRANCH   2   3
ENDBRANCH   1   2
BRANCH   1  24
ATOM     24  C   UNL A   1      31.368  29.054  25.451  1.00  0.00     0.023 C 
BRANCH  24  25
ATOM     25  C   UNL A   1      32.487  29.649  26.298  1.00  0.00     0.116 C 
BRANCH  25  26
ATOM     26  N   UNL A   1      32.334  31.078  26.524  1.00  0.00    -0.352 N 
ATOM     27  C   UNL A   1      33.144  31.929  27.237  1.00  0.00     0.251 C 
ATOM     28  H   UNL A   1      31.542  31.492  26.110  1.00  0.00     0.163 HD
ATOM     29  O   UNL A   1      32.793  33.089  27.434  1.00  0.00    -0.269 OA
BRANCH  27  30
ATOM     30  C   UNL A   1      34.417  31.424  27.796  1.00  0.00     0.039 A 
ATOM     31  C   UNL A   1      35.452  32.329  28.042  1.00  0.00     0.014 A 
ATOM     32  C   UNL A   1      34.572  30.072  28.110  1.00  0.00     0.014 A 
ATOM     33  C   UNL A   1      36.617  31.888  28.675  1.00  0.00     0.010 A 
ATOM     34  C   UNL A   1      35.700  29.651  28.807  1.00  0.00     0.010 A 
ATOM     35  C   UNL A   1      36.734  30.554  29.100  1.00  0.00    -0.014 A 
BRANCH  35  36
ATOM     36  C   UNL A   1      37.925  30.084  29.853  1.00  0.00     0.031 A 
ATOM     37  C   UNL A   1      38.160  30.561  31.261  1.00  0.00     0.074 A 
ATOM     38  C   UNL A   1      38.833  29.298  29.244  1.00  0.00     0.049 A 
ATOM     39  N   UNL A   1      39.179  30.341  32.051  1.00  0.00    -0.248 NA
ATOM     40  C   UNL A   1      37.124  31.430  31.838  1.00  0.00     0.031 C 
ATOM     41  C   UNL A   1      38.744  28.815  27.864  1.00  0.00     0.029 A 
ATOM     42  N   UNL A   1      40.019  28.778  29.700  1.00  0.00    -0.354 N 
ATOM     43  C   UNL A   1      38.919  31.062  33.212  1.00  0.00     0.074 A 
ATOM     44  C   UNL A   1      37.676  31.772  32.992  1.00  0.00     0.031 C 
ATOM     45  C   UNL A   1      39.818  28.058  27.592  1.00  0.00     0.029 A 
ATOM     46  C   UNL A   1      40.693  28.033  28.760  1.00  0.00     0.049 A 
ATOM     47  H   UNL A   1      40.355  28.924  30.613  1.00  0.00     0.167 HD
ATOM     48  C   UNL A   1      39.637  31.108  34.362  1.00  0.00     0.034 A 
ATOM     49  C   UNL A   1      41.886  27.411  28.827  1.00  0.00     0.034 A 
ATOM     50  C   UNL A   1      40.866  30.380  34.567  1.00  0.00     0.049 A 
ATOM     51  C   UNL A   1      42.670  27.473  30.112  1.00  0.00     0.074 A 
ATOM     52  C   UNL A   1      41.639  30.295  35.713  1.00  0.00     0.029 A 
ATOM     53  N   UNL A   1      41.511  29.617  33.598  1.00  0.00    -0.354 N 
ATOM     54  N   UNL A   1      42.382  28.108  31.224  1.00  0.00    -0.248 NA
ATOM     55  C   UNL A   1      43.933  26.727  30.153  1.00  0.00     0.031 C 
ATOM     56  C   UNL A   1      42.780  29.538  35.418  1.00  0.00     0.029 A 
ATOM     57  C   UNL A   1      42.685  29.086  34.112  1.00  0.00     0.049 A 
ATOM     58  H   UNL A   1      41.181  29.476  32.683  1.00  0.00     0.167 HD
ATOM     59  C   UNL A   1      43.417  27.814  32.108  1.00  0.00     0.074 A 
ATOM     60  C   UNL A   1      44.327  26.935  31.401  1.00  0.00     0.031 C 
ATOM     61  C   UNL A   1      43.594  28.226  33.390  1.00  0.00     0.034 A 
BRANCH  48  62
ATOM     62  C   UNL A   1      39.118  31.999  35.467  1.00  0.00     0.023 A 
ATOM     63  C   UNL A   1      39.538  33.334  35.598  1.00  0.00     0.031 A 
ATOM     64  C   UNL A   1      38.230  31.494  36.433  1.00  0.00     0.131 A 
ATOM     65  C   UNL A   1      39.150  34.086  36.717  1.00  0.00     0.055 A 
ATOM     66  C   UNL A   1      37.774  32.277  37.496  1.00  0.00     0.041 A 
ATOM     67  F   UNL A   1      37.805  30.222  36.374  1.00  0.00    -0.206 F 
ATOM     68  C   UNL A   1      38.250  33.575  37.654  1.00  0.00     0.022 A 
BRANCH  65  69
ATOM     69  S   UNL A   1      39.970  35.676  37.017  1.00  0.00     0.124 S 
ATOM     70  O   UNL A   1      39.305  36.125  38.238  1.00  0.00    -0.237 OA
ATOM     71  O   UNL A   1      41.369  35.289  37.156  1.00  0.00    -0.237 OA
ATOM     72  O   UNL A   1      39.653  36.457  35.822  1.00  0.00    -0.744 OA
ENDBRANCH  65  69
ENDBRANCH  48  62
BRANCH  49  73
ATOM     73  C   UNL A   1      42.417  26.682  27.641  1.00  0.00     0.023 A 
ATOM     74  C   UNL A   1      42.321  25.285  27.547  1.00  0.00     0.031 A 
ATOM     75  C   UNL A   1      43.045  27.374  26.590  1.00  0.00     0.131 A 
ATOM     76  C   UNL A   1      42.874  24.620  26.441  1.00  0.00     0.055 A 
ATOM     77  C   UNL A   1      43.555  26.712  25.472  1.00  0.00     0.041 A 
ATOM     78  F   UNL A   1      43.153  28.711  26.629  1.00  0.00    -0.206 F 
ATOM     79  C   UNL A   1      43.479  25.324  25.398  1.00  0.00     0.022 A 
BRANCH  76  80
ATOM     80  S   UNL A   1      42.842  22.807  26.412  1.00  0.00     0.124 S 
ATOM     81  O   UNL A   1      44.154  22.477  26.954  1.00  0.00    -0.237 OA
ATOM     82  O   UNL A   1      41.699  22.510  27.271  1.00  0.00    -0.237 OA
ATOM     83  O   UNL A   1      42.652  22.492  24.998  1.00  0.00    -0.744 OA
ENDBRANCH  76  80
ENDBRANCH  49  73
BRANCH  61  84
ATOM     84  C   UNL A   1      44.803  27.693  34.118  1.00  0.00     0.023 A 
ATOM     85  C   UNL A   1      44.779  26.461  34.794  1.00  0.00     0.031 A 
ATOM     86  C   UNL A   1      45.995  28.438  34.141  1.00  0.00     0.131 A 
ATOM     87  C   UNL A   1      45.909  26.035  35.508  1.00  0.00     0.055 A 
ATOM     88  C   UNL A   1      47.135  27.982  34.805  1.00  0.00     0.041 A 
ATOM     89  F   UNL A   1      46.073  29.623  33.513  1.00  0.00    -0.206 F 
ATOM     90  C   UNL A   1      47.092  26.779  35.504  1.00  0.00     0.022 A 
BRANCH  87  91
ATOM     91  S   UNL A   1      45.788  24.530  36.515  1.00  0.00     0.124 S 
ATOM     92  O   UNL A   1      46.816  23.683  35.918  1.00  0.00    -0.237 OA
ATOM     93  O   UNL A   1      46.072  25.028  37.857  1.00  0.00    -0.237 OA
ATOM     94  O   UNL A   1      44.413  24.083  36.299  1.00  0.00    -0.744 OA
ENDBRANCH  87  91
ENDBRANCH  61  84
ENDBRANCH  35  36
ENDBRANCH  27  30
ENDBRANCH  25  26
ENDBRANCH  24  25
ENDBRANCH   1  24
TORSDOF 18
ENDMDL
MODEL 3
REMARK VINA RESULT:     -11.3      2.614      7.971
REMARK SMILES CCCc1cc(N2CCC(C(=O)NCCCCNC(=O)c3ccc(-c4c5nc(c(-c6cc(S(=O)(=O)[O-])ccc6F)c6ccc([nH]6)c(-c6cc(S(=O)(=O)[O-])ccc6F)c6nc(c(-c7cc(S(=O)(=O)[O-])ccc7F)c7ccc4[nH]7)C=C6)C=C5)cc3)CC2)nc(CC)n1
REMARK SMILES IDX 15 1 14 2 13 3 11 4 12 5 10 7 7 8 8 9 85 10 9 11 84 12 6 13
REMARK SMILES IDX 4 14 5 15 90 16 87 17 86 18 3 19 2 20 1 21 88 22 89 23 16 24
REMARK SMILES IDX 17 25 18 26 19 27 20 29 21 30 22 31 83 32 23 33 82 34 24 35
REMARK SMILES IDX 25 36 26 37 76 38 27 39 81 40 75 41 77 42 28 43 80 44 74 45
REMARK SMILES IDX 73 46 29 48 61 49 41 50 60 51 42 52 45 53 59 54 78 55 43 56
REMARK SMILES IDX 44 57 58 59 79 60 46 61 30 62 31 63 39 64 32 65 38 66 40 67
REMARK SMILES IDX 37 68 33 69 34 70 35 71 36 72 62 73 63 74 71 75 64 76 70 77
REMARK SMILES IDX 72 78 69 79 65 80 66 81 67 82 68 83 47 84 48 85 56 86 49 87
REMARK SMILES IDX 55 88 57 89 54 90 50 91 51 92 52 93 53 94
REMARK H PARENT 13 6 18 28 77 47 45 58
REMARK Flexibility Score: inf
ROOT
ATOM      1  C   UNL A   1      34.037  27.100  25.893  1.00  0.00     0.023 C 
ENDROOT
BRANCH   1   2
ATOM      2  C   UNL A   1      33.251  26.342  24.825  1.00  0.00     0.116 C 
BRANCH   2   3
ATOM      3  N   UNL A   1      32.454  27.232  23.991  1.00  0.00    -0.356 N 
ATOM      4  C   UNL A   1      31.683  26.968  22.898  1.00  0.00     0.223 C 
ATOM      5  O   UNL A   1      31.090  27.906  22.360  1.00  0.00    -0.275 OA
ATOM      6  H   UNL A   1      32.476  28.179  24.260  1.00  0.00     0.163 HD
BRANCH   4   7
ATOM      7  C   UNL A   1      31.528  25.553  22.355  1.00  0.00     0.082 C 
ATOM      8  N   UNL A   1      32.427  22.944  22.903  1.00  0.00    -0.356 N 
ATOM      9  C   UNL A   1      32.987  23.537  21.705  1.00  0.00     0.119 C 
ATOM     10  C   UNL A   1      31.022  23.174  23.162  1.00  0.00     0.119 C 
ATOM     11  C   UNL A   1      32.859  25.048  21.771  1.00  0.00     0.035 C 
ATOM     12  C   UNL A   1      30.823  24.664  23.398  1.00  0.00     0.035 C 
BRANCH   8  13
ATOM     13  C   UNL A   1      33.173  22.019  23.591  1.00  0.00     0.132 A 
ATOM     14  C   UNL A   1      35.041  21.435  24.917  1.00  0.00     0.046 A 
ATOM     15  C   UNL A   1      34.407  22.357  24.109  1.00  0.00     0.070 A 
ATOM     16  N   UNL A   1      34.544  20.196  25.094  1.00  0.00    -0.238 NA
ATOM     17  C   UNL A   1      33.378  19.913  24.486  1.00  0.00     0.130 A 
ATOM     18  N   UNL A   1      32.648  20.797  23.783  1.00  0.00    -0.216 NA
BRANCH  14  19
ATOM     19  C   UNL A   1      36.326  21.744  25.642  1.00  0.00     0.056 C 
BRANCH  19  20
ATOM     20  C   UNL A   1      37.182  22.893  25.089  1.00  0.00     0.003 C 
ATOM     21  C   UNL A   1      37.605  23.909  26.142  1.00  0.00     0.004 C 
ENDBRANCH  19  20
ENDBRANCH  14  19
BRANCH  17  22
ATOM     22  C   UNL A   1      32.857  18.504  24.598  1.00  0.00     0.074 C 
ATOM     23  C   UNL A   1      33.583  17.553  23.657  1.00  0.00     0.012 C 
ENDBRANCH  17  22
ENDBRANCH   8  13
ENDBRANCH   4   7
ENDBRANCH   2   3
ENDBRANCH   1   2
BRANCH   1  24
ATOM     24  C   UNL A   1      33.810  28.610  25.908  1.00  0.00     0.023 C 
BRANCH  24  25
ATOM     25  C   UNL A   1      33.330  29.180  27.237  1.00  0.00     0.116 C 
BRANCH  25  26
ATOM     26  N   UNL A   1      33.549  30.614  27.356  1.00  0.00    -0.352 N 
ATOM     27  C   UNL A   1      34.627  31.279  27.890  1.00  0.00     0.251 C 
ATOM     28  H   UNL A   1      32.828  31.185  27.007  1.00  0.00     0.163 HD
ATOM     29  O   UNL A   1      34.589  32.498  28.027  1.00  0.00    -0.269 OA
BRANCH  27  30
ATOM     30  C   UNL A   1      35.811  30.510  28.333  1.00  0.00     0.039 A 
ATOM     31  C   UNL A   1      36.945  30.487  27.518  1.00  0.00     0.014 A 
ATOM     32  C   UNL A   1      35.812  29.848  29.562  1.00  0.00     0.014 A 
ATOM     33  C   UNL A   1      38.108  29.862  27.972  1.00  0.00     0.010 A 
ATOM     34  C   UNL A   1      36.993  29.292  30.045  1.00  0.00     0.010 A 
ATOM     35  C   UNL A   1      38.154  29.295  29.256  1.00  0.00    -0.014 A 
BRANCH  35  36
ATOM     36  C   UNL A   1      39.407  28.704  29.796  1.00  0.00     0.031 A 
ATOM     37  C   UNL A   1      40.061  29.306  31.009  1.00  0.00     0.074 A 
ATOM     38  C   UNL A   1      39.996  27.681  29.147  1.00  0.00     0.049 A 
ATOM     39  N   UNL A   1      41.197  28.998  31.578  1.00  0.00    -0.248 NA
ATOM     40  C   UNL A   1      39.355  30.431  31.642  1.00  0.00     0.031 C 
ATOM     41  C   UNL A   1      39.487  27.047  27.928  1.00  0.00     0.029 A 
ATOM     42  N   UNL A   1      41.160  27.003  29.411  1.00  0.00    -0.354 N 
ATOM     43  C   UNL A   1      41.355  29.902  32.623  1.00  0.00     0.074 A 
ATOM     44  C   UNL A   1      40.226  30.807  32.565  1.00  0.00     0.031 C 
ATOM     45  C   UNL A   1      40.324  26.064  27.561  1.00  0.00     0.029 A 
ATOM     46  C   UNL A   1      41.449  26.023  28.490  1.00  0.00     0.049 A 
ATOM     47  H   UNL A   1      41.734  27.200  30.186  1.00  0.00     0.167 HD
ATOM     48  C   UNL A   1      42.337  29.958  33.557  1.00  0.00     0.034 A 
ATOM     49  C   UNL A   1      42.506  25.193  28.397  1.00  0.00     0.034 A 
ATOM     50  C   UNL A   1      43.446  29.036  33.607  1.00  0.00     0.049 A 
ATOM     51  C   UNL A   1      43.587  25.269  29.443  1.00  0.00     0.074 A 
ATOM     52  C   UNL A   1      44.459  28.954  34.548  1.00  0.00     0.029 A 
ATOM     53  N   UNL A   1      43.697  28.041  32.669  1.00  0.00    -0.354 N 
ATOM     54  N   UNL A   1      43.692  26.089  30.463  1.00  0.00    -0.248 NA
ATOM     55  C   UNL A   1      44.685  24.301  29.332  1.00  0.00     0.031 C 
ATOM     56  C   UNL A   1      45.354  27.955  34.144  1.00  0.00     0.029 A 
ATOM     57  C   UNL A   1      44.863  27.362  32.992  1.00  0.00     0.049 A 
ATOM     58  H   UNL A   1      43.130  27.847  31.889  1.00  0.00     0.167 HD
ATOM     59  C   UNL A   1      44.856  25.717  31.130  1.00  0.00     0.074 A 
ATOM     60  C   UNL A   1      45.408  24.591  30.404  1.00  0.00     0.031 C 
ATOM     61  C   UNL A   1      45.412  26.252  32.248  1.00  0.00     0.034 A 
BRANCH  48  62
ATOM     62  C   UNL A   1      42.260  31.072  34.576  1.00  0.00     0.023 A 
ATOM     63  C   UNL A   1      42.866  32.321  34.352  1.00  0.00     0.031 A 
ATOM     64  C   UNL A   1      41.618  30.867  35.810  1.00  0.00     0.131 A 
ATOM     65  C   UNL A   1      42.900  33.279  35.376  1.00  0.00     0.055 A 
ATOM     66  C   UNL A   1      41.576  31.859  36.792  1.00  0.00     0.041 A 
ATOM     67  F   UNL A   1      41.036  29.691  36.092  1.00  0.00    -0.206 F 
ATOM     68  C   UNL A   1      42.238  33.067  36.587  1.00  0.00     0.022 A 
BRANCH  65  69
ATOM     69  S   UNL A   1      43.966  34.732  35.166  1.00  0.00     0.124 S 
ATOM     70  O   UNL A   1      44.167  35.153  36.550  1.00  0.00    -0.237 OA
ATOM     71  O   UNL A   1      45.132  34.173  34.492  1.00  0.00    -0.237 OA
ATOM     72  O   UNL A   1      43.153  35.639  34.359  1.00  0.00    -0.744 OA
ENDBRANCH  65  69
ENDBRANCH  48  62
BRANCH  49  73
ATOM     73  C   UNL A   1      42.599  24.223  27.269  1.00  0.00     0.023 A 
ATOM     74  C   UNL A   1      41.951  22.980  27.328  1.00  0.00     0.031 A 
ATOM     75  C   UNL A   1      43.354  24.523  26.122  1.00  0.00     0.131 A 
ATOM     76  C   UNL A   1      42.096  22.066  26.273  1.00  0.00     0.055 A 
ATOM     77  C   UNL A   1      43.460  23.628  25.055  1.00  0.00     0.041 A 
ATOM     78  F   UNL A   1      43.984  25.702  26.013  1.00  0.00    -0.206 F 
ATOM     79  C   UNL A   1      42.836  22.386  25.132  1.00  0.00     0.022 A 
BRANCH  76  80
ATOM     80  S   UNL A   1      41.349  20.422  26.436  1.00  0.00     0.124 S 
ATOM     81  O   UNL A   1      39.945  20.704  26.161  1.00  0.00    -0.237 OA
ATOM     82  O   UNL A   1      42.063  19.661  25.416  1.00  0.00    -0.237 OA
ATOM     83  O   UNL A   1      41.652  20.045  27.815  1.00  0.00    -0.744 OA
ENDBRANCH  76  80
ENDBRANCH  49  73
BRANCH  61  84
ATOM     84  C   UNL A   1      46.666  25.593  32.769  1.00  0.00     0.023 A 
ATOM     85  C   UNL A   1      46.623  24.597  33.760  1.00  0.00     0.031 A 
ATOM     86  C   UNL A   1      47.923  25.978  32.271  1.00  0.00     0.131 A 
ATOM     87  C   UNL A   1      47.818  24.056  34.258  1.00  0.00     0.055 A 
ATOM     88  C   UNL A   1      49.105  25.396  32.729  1.00  0.00     0.041 A 
ATOM     89  F   UNL A   1      48.022  26.927  31.325  1.00  0.00    -0.206 F 
ATOM     90  C   UNL A   1      49.058  24.437  33.737  1.00  0.00     0.022 A 
BRANCH  87  91
ATOM     91  S   UNL A   1      47.737  22.905  35.658  1.00  0.00     0.124 S 
ATOM     92  O   UNL A   1      46.394  22.351  35.517  1.00  0.00    -0.237 OA
ATOM     93  O   UNL A   1      48.837  21.989  35.374  1.00  0.00    -0.237 OA
ATOM     94  O   UNL A   1      47.935  23.766  36.822  1.00  0.00    -0.744 OA
ENDBRANCH  87  91
ENDBRANCH  61  84
ENDBRANCH  35  36
ENDBRANCH  27  30
ENDBRANCH  25  26
ENDBRANCH  24  25
ENDBRANCH   1  24
TORSDOF 18
ENDMDL
