MODEL 1
REMARK VINA RESULT:     -10.9      0.000      0.000
REMARK SMILES O=C(NCCCCNC(=O)[C@H]1CC[C@@H](C(F)F)[NH2+]1)c1ccc(-c2c3nc(c(-c4cc(S(=O)(=O)[O-])ccc4F)c4ccc([nH]4)c(-c4cc(S(=O)(=O)[O-])ccc4F)c4nc(c(-c5cc(S(=O)(=O)[O-])ccc5F)c5ccc2[nH]5)C=C4)C=C3)cc1
REMARK SMILES IDX 4 1 3 2 1 3 2 4 19 6 20 7 81 8 21 9 80 10 22 11 23 12 24 13
REMARK SMILES IDX 74 14 25 15 79 16 73 17 75 18 26 19 78 20 72 21 71 22 27 24
REMARK SMILES IDX 59 25 39 26 58 27 40 28 43 29 57 30 76 31 41 32 42 33 56 35
REMARK SMILES IDX 77 36 44 37 28 38 29 39 37 40 30 41 36 42 38 43 35 44 31 45
REMARK SMILES IDX 32 46 33 47 34 48 60 49 61 50 69 51 62 52 68 53 70 54 67 55
REMARK SMILES IDX 63 56 64 57 65 58 66 59 45 60 46 61 54 62 47 63 53 64 55 65
REMARK SMILES IDX 52 66 48 67 49 68 50 69 51 70 5 71 6 72 7 73 8 74 9 75 10 77
REMARK SMILES IDX 11 78 12 79 18 80 13 81 14 82 15 85 16 86 17 87
REMARK H PARENT 3 5 75 23 43 34 8 76 18 83 18 84
REMARK Flexibility Score: inf
ROOT
ATOM      1  C   UNL A   1      33.889  33.828  28.400  1.00  0.00     0.116 C 
ENDROOT
BRANCH   1   2
ATOM      2  N   UNL A   1      33.112  32.869  27.626  1.00  0.00    -0.352 N 
ATOM      3  O   UNL A   1      32.766  30.899  26.554  1.00  0.00    -0.269 OA
ATOM      4  C   UNL A   1      33.489  31.593  27.260  1.00  0.00     0.251 C 
ATOM      5  H   UNL A   1      32.220  33.163  27.332  1.00  0.00     0.163 HD
BRANCH   4   6
ATOM      6  C   UNL A   1      34.811  31.105  27.703  1.00  0.00     0.039 A 
ATOM      7  C   UNL A   1      34.948  29.789  28.150  1.00  0.00     0.014 A 
ATOM      8  C   UNL A   1      35.877  32.003  27.793  1.00  0.00     0.014 A 
ATOM      9  C   UNL A   1      36.090  29.423  28.849  1.00  0.00     0.010 A 
ATOM     10  C   UNL A   1      37.061  31.601  28.417  1.00  0.00     0.010 A 
ATOM     11  C   UNL A   1      37.159  30.325  28.995  1.00  0.00    -0.014 A 
BRANCH  11  12
ATOM     12  C   UNL A   1      38.368  29.898  29.748  1.00  0.00     0.031 A 
ATOM     13  C   UNL A   1      38.625  30.386  31.148  1.00  0.00     0.074 A 
ATOM     14  C   UNL A   1      39.211  29.022  29.169  1.00  0.00     0.049 A 
ATOM     15  N   UNL A   1      39.626  30.111  31.947  1.00  0.00    -0.248 NA
ATOM     16  C   UNL A   1      37.637  31.308  31.724  1.00  0.00     0.031 C 
ATOM     17  C   UNL A   1      39.056  28.478  27.818  1.00  0.00     0.029 A 
ATOM     18  N   UNL A   1      40.344  28.416  29.644  1.00  0.00    -0.354 N 
ATOM     19  C   UNL A   1      39.406  30.847  33.107  1.00  0.00     0.074 A 
ATOM     20  C   UNL A   1      38.187  31.599  32.895  1.00  0.00     0.031 C 
ATOM     21  C   UNL A   1      40.022  27.576  27.595  1.00  0.00     0.029 A 
ATOM     22  C   UNL A   1      40.908  27.536  28.751  1.00  0.00     0.049 A 
ATOM     23  H   UNL A   1      40.718  28.593  30.537  1.00  0.00     0.167 HD
ATOM     24  C   UNL A   1      40.150  30.885  34.244  1.00  0.00     0.034 A 
ATOM     25  C   UNL A   1      42.027  26.794  28.840  1.00  0.00     0.034 A 
ATOM     26  C   UNL A   1      41.357  30.114  34.439  1.00  0.00     0.049 A 
ATOM     27  C   UNL A   1      42.851  26.878  30.092  1.00  0.00     0.074 A 
ATOM     28  C   UNL A   1      42.170  30.050  35.558  1.00  0.00     0.029 A 
ATOM     29  N   UNL A   1      41.932  29.278  33.488  1.00  0.00    -0.354 N 
ATOM     30  N   UNL A   1      42.633  27.586  31.176  1.00  0.00    -0.248 NA
ATOM     31  C   UNL A   1      44.074  26.069  30.130  1.00  0.00     0.031 C 
ATOM     32  C   UNL A   1      43.266  29.228  35.263  1.00  0.00     0.029 A 
ATOM     33  C   UNL A   1      43.102  28.721  33.984  1.00  0.00     0.049 A 
ATOM     34  H   UNL A   1      41.561  29.105  32.592  1.00  0.00     0.167 HD
ATOM     35  C   UNL A   1      43.693  27.302  32.030  1.00  0.00     0.074 A 
ATOM     36  C   UNL A   1      44.533  26.341  31.343  1.00  0.00     0.031 C 
ATOM     37  C   UNL A   1      43.948  27.791  33.271  1.00  0.00     0.034 A 
BRANCH  24  38
ATOM     38  C   UNL A   1      39.705  31.831  35.336  1.00  0.00     0.023 A 
ATOM     39  C   UNL A   1      38.964  31.392  36.448  1.00  0.00     0.031 A 
ATOM     40  C   UNL A   1      40.000  33.203  35.247  1.00  0.00     0.131 A 
ATOM     41  C   UNL A   1      38.480  32.322  37.382  1.00  0.00     0.055 A 
ATOM     42  C   UNL A   1      39.582  34.114  36.220  1.00  0.00     0.041 A 
ATOM     43  F   UNL A   1      40.687  33.689  34.200  1.00  0.00    -0.206 F 
ATOM     44  C   UNL A   1      38.803  33.678  37.288  1.00  0.00     0.022 A 
BRANCH  41  45
ATOM     45  S   UNL A   1      37.294  31.758  38.634  1.00  0.00     0.124 S 
ATOM     46  O   UNL A   1      36.195  32.703  38.451  1.00  0.00    -0.237 OA
ATOM     47  O   UNL A   1      37.031  30.384  38.221  1.00  0.00    -0.237 OA
ATOM     48  O   UNL A   1      38.026  31.904  39.891  1.00  0.00    -0.744 OA
ENDBRANCH  41  45
ENDBRANCH  24  38
BRANCH  25  49
ATOM     49  C   UNL A   1      42.444  25.945  27.692  1.00  0.00     0.023 A 
ATOM     50  C   UNL A   1      42.014  24.615  27.581  1.00  0.00     0.031 A 
ATOM     51  C   UNL A   1      43.268  26.463  26.677  1.00  0.00     0.131 A 
ATOM     52  C   UNL A   1      42.427  23.839  26.486  1.00  0.00     0.055 A 
ATOM     53  C   UNL A   1      43.639  25.703  25.569  1.00  0.00     0.041 A 
ATOM     54  F   UNL A   1      43.698  27.734  26.735  1.00  0.00    -0.206 F 
ATOM     55  C   UNL A   1      43.223  24.379  25.473  1.00  0.00     0.022 A 
BRANCH  52  56
ATOM     56  S   UNL A   1      41.940  22.094  26.426  1.00  0.00     0.124 S 
ATOM     57  O   UNL A   1      40.515  22.192  26.130  1.00  0.00    -0.237 OA
ATOM     58  O   UNL A   1      42.784  21.581  25.352  1.00  0.00    -0.237 OA
ATOM     59  O   UNL A   1      42.268  21.602  27.763  1.00  0.00    -0.744 OA
ENDBRANCH  52  56
ENDBRANCH  25  49
BRANCH  37  60
ATOM     60  C   UNL A   1      45.183  27.266  33.958  1.00  0.00     0.023 A 
ATOM     61  C   UNL A   1      45.137  26.123  34.775  1.00  0.00     0.031 A 
ATOM     62  C   UNL A   1      46.408  27.940  33.826  1.00  0.00     0.131 A 
ATOM     63  C   UNL A   1      46.283  25.721  35.477  1.00  0.00     0.055 A 
ATOM     64  C   UNL A   1      47.558  27.504  34.483  1.00  0.00     0.041 A 
ATOM     65  F   UNL A   1      46.504  29.040  33.061  1.00  0.00    -0.206 F 
ATOM     66  C   UNL A   1      47.497  26.398  35.325  1.00  0.00     0.022 A 
BRANCH  63  67
ATOM     67  S   UNL A   1      46.144  24.360  36.667  1.00  0.00     0.124 S 
ATOM     68  O   UNL A   1      47.537  23.956  36.829  1.00  0.00    -0.237 OA
ATOM     69  O   UNL A   1      45.530  25.012  37.818  1.00  0.00    -0.237 OA
ATOM     70  O   UNL A   1      45.294  23.389  35.979  1.00  0.00    -0.744 OA
ENDBRANCH  63  67
ENDBRANCH  37  60
ENDBRANCH  11  12
ENDBRANCH   4   6
ENDBRANCH   1   2
BRANCH   1  71
ATOM     71  C   UNL A   1      34.310  35.074  27.626  1.00  0.00     0.023 C 
BRANCH  71  72
ATOM     72  C   UNL A   1      34.210  36.389  28.398  1.00  0.00     0.023 C 
BRANCH  72  73
ATOM     73  C   UNL A   1      33.030  36.450  29.367  1.00  0.00     0.116 C 
BRANCH  73  74
ATOM     74  N   UNL A   1      33.278  37.329  30.494  1.00  0.00    -0.351 N 
ATOM     75  C   UNL A   1      33.576  37.073  31.799  1.00  0.00     0.278 C 
ATOM     76  H   UNL A   1      33.221  38.287  30.276  1.00  0.00     0.163 HD
ATOM     77  O   UNL A   1      33.872  38.045  32.505  1.00  0.00    -0.268 OA
BRANCH  75  78
ATOM     78  C   UNL A   1      33.451  35.684  32.452  1.00  0.00     0.273 C 
ATOM     79  C   UNL A   1      34.022  34.587  31.561  1.00  0.00     0.082 C 
ATOM     80  N   UNL A   1      34.129  35.572  33.753  1.00  0.00    -0.329 N 
ATOM     81  C   UNL A   1      35.213  34.041  32.325  1.00  0.00     0.078 C 
ATOM     82  C   UNL A   1      34.850  34.286  33.783  1.00  0.00     0.251 C 
ATOM     83  H   UNL A   1      33.442  35.600  34.506  1.00  0.00     0.347 HD
ATOM     84  H   UNL A   1      34.782  36.346  33.880  1.00  0.00     0.347 HD
BRANCH  82  85
ATOM     85  C   UNL A   1      36.093  34.270  34.685  1.00  0.00     0.399 C 
ATOM     86  F   UNL A   1      36.297  33.017  35.168  1.00  0.00    -0.204 F 
ATOM     87  F   UNL A   1      37.192  34.579  33.948  1.00  0.00    -0.204 F 
ENDBRANCH  82  85
ENDBRANCH  75  78
ENDBRANCH  73  74
ENDBRANCH  72  73
ENDBRANCH  71  72
ENDBRANCH   1  71
TORSDOF 15
ENDMDL
MODEL 2
REMARK VINA RESULT:     -10.5      6.861     12.643
REMARK SMILES O=C(NCCCCNC(=O)[C@H]1CC[C@@H](C(F)F)[NH2+]1)c1ccc(-c2c3nc(c(-c4cc(S(=O)(=O)[O-])ccc4F)c4ccc([nH]4)c(-c4cc(S(=O)(=O)[O-])ccc4F)c4nc(c(-c5cc(S(=O)(=O)[O-])ccc5F)c5ccc2[nH]5)C=C4)C=C3)cc1
REMARK SMILES IDX 4 1 3 2 1 3 2 4 19 6 20 7 81 8 21 9 80 10 22 11 23 12 24 13
REMARK SMILES IDX 74 14 25 15 79 16 73 17 75 18 26 19 78 20 72 21 71 22 27 24
REMARK SMILES IDX 59 25 39 26 58 27 40 28 43 29 57 30 76 31 41 32 42 33 56 35
REMARK SMILES IDX 77 36 44 37 28 38 29 39 37 40 30 41 36 42 38 43 35 44 31 45
REMARK SMILES IDX 32 46 33 47 34 48 60 49 61 50 69 51 62 52 68 53 70 54 67 55
REMARK SMILES IDX 63 56 64 57 65 58 66 59 45 60 46 61 54 62 47 63 53 64 55 65
REMARK SMILES IDX 52 66 48 67 49 68 50 69 51 70 5 71 6 72 7 73 8 74 9 75 10 77
REMARK SMILES IDX 11 78 12 79 18 80 13 81 14 82 15 85 16 86 17 87
REMARK H PARENT 3 5 75 23 43 34 8 76 18 83 18 84
REMARK Flexibility Score: inf
ROOT
ATOM      1  C   UNL A   1      37.128  21.899  25.329  1.00  0.00     0.116 C 
ENDROOT
BRANCH   1   2
ATOM      2  N   UNL A   1      38.111  20.834  25.480  1.00  0.00    -0.352 N 
ATOM      3  O   UNL A   1      40.115  19.964  26.097  1.00  0.00    -0.269 OA
ATOM      4  C   UNL A   1      39.349  20.922  26.083  1.00  0.00     0.251 C 
ATOM      5  H   UNL A   1      37.866  19.954  25.111  1.00  0.00     0.163 HD
BRANCH   4   6
ATOM      6  C   UNL A   1      39.745  22.218  26.671  1.00  0.00     0.039 A 
ATOM      7  C   UNL A   1      39.212  23.402  26.158  1.00  0.00     0.014 A 
ATOM      8  C   UNL A   1      40.747  22.250  27.644  1.00  0.00     0.014 A 
ATOM      9  C   UNL A   1      39.805  24.613  26.486  1.00  0.00     0.010 A 
ATOM     10  C   UNL A   1      41.279  23.480  28.040  1.00  0.00     0.010 A 
ATOM     11  C   UNL A   1      40.848  24.668  27.427  1.00  0.00    -0.014 A 
BRANCH  11  12
ATOM     12  C   UNL A   1      41.458  25.983  27.756  1.00  0.00     0.031 A 
ATOM     13  C   UNL A   1      42.828  26.353  27.256  1.00  0.00     0.074 A 
ATOM     14  C   UNL A   1      40.738  26.865  28.476  1.00  0.00     0.049 A 
ATOM     15  N   UNL A   1      43.507  27.457  27.446  1.00  0.00    -0.248 NA
ATOM     16  C   UNL A   1      43.533  25.351  26.443  1.00  0.00     0.031 C 
ATOM     17  C   UNL A   1      39.395  26.615  29.006  1.00  0.00     0.029 A 
ATOM     18  N   UNL A   1      41.014  28.150  28.861  1.00  0.00    -0.354 N 
ATOM     19  C   UNL A   1      44.728  27.274  26.805  1.00  0.00     0.074 A 
ATOM     20  C   UNL A   1      44.703  25.940  26.241  1.00  0.00     0.031 C 
ATOM     21  C   UNL A   1      38.943  27.730  29.598  1.00  0.00     0.029 A 
ATOM     22  C   UNL A   1      39.989  28.744  29.557  1.00  0.00     0.049 A 
ATOM     23  H   UNL A   1      41.864  28.604  28.659  1.00  0.00     0.167 HD
ATOM     24  C   UNL A   1      45.767  28.142  26.694  1.00  0.00     0.034 A 
ATOM     25  C   UNL A   1      39.904  29.962  30.124  1.00  0.00     0.034 A 
ATOM     26  C   UNL A   1      45.765  29.475  27.254  1.00  0.00     0.049 A 
ATOM     27  C   UNL A   1      41.079  30.891  30.017  1.00  0.00     0.074 A 
ATOM     28  C   UNL A   1      46.747  30.448  27.175  1.00  0.00     0.029 A 
ATOM     29  N   UNL A   1      44.731  30.021  28.006  1.00  0.00    -0.354 N 
ATOM     30  N   UNL A   1      42.230  30.699  29.414  1.00  0.00    -0.248 NA
ATOM     31  C   UNL A   1      40.945  32.197  30.671  1.00  0.00     0.031 C 
ATOM     32  C   UNL A   1      46.335  31.554  27.929  1.00  0.00     0.029 A 
ATOM     33  C   UNL A   1      45.065  31.302  28.422  1.00  0.00     0.049 A 
ATOM     34  H   UNL A   1      43.883  29.565  28.213  1.00  0.00     0.167 HD
ATOM     35  C   UNL A   1      42.958  31.866  29.613  1.00  0.00     0.074 A 
ATOM     36  C   UNL A   1      42.105  32.762  30.370  1.00  0.00     0.031 C 
ATOM     37  C   UNL A   1      44.217  32.170  29.206  1.00  0.00     0.034 A 
BRANCH  24  38
ATOM     38  C   UNL A   1      47.011  27.651  25.986  1.00  0.00     0.023 A 
ATOM     39  C   UNL A   1      47.283  27.974  24.645  1.00  0.00     0.031 A 
ATOM     40  C   UNL A   1      47.925  26.819  26.657  1.00  0.00     0.131 A 
ATOM     41  C   UNL A   1      48.393  27.409  23.997  1.00  0.00     0.055 A 
ATOM     42  C   UNL A   1      49.070  26.322  26.030  1.00  0.00     0.041 A 
ATOM     43  F   UNL A   1      47.713  26.458  27.933  1.00  0.00    -0.206 F 
ATOM     44  C   UNL A   1      49.301  26.603  24.687  1.00  0.00     0.022 A 
BRANCH  41  45
ATOM     45  S   UNL A   1      48.548  27.616  22.201  1.00  0.00     0.124 S 
ATOM     46  O   UNL A   1      49.800  28.361  22.094  1.00  0.00    -0.237 OA
ATOM     47  O   UNL A   1      48.582  26.238  21.727  1.00  0.00    -0.237 OA
ATOM     48  O   UNL A   1      47.351  28.373  21.838  1.00  0.00    -0.744 OA
ENDBRANCH  41  45
ENDBRANCH  24  38
BRANCH  25  49
ATOM     49  C   UNL A   1      38.677  30.345  30.871  1.00  0.00     0.023 A 
ATOM     50  C   UNL A   1      37.662  31.097  30.262  1.00  0.00     0.031 A 
ATOM     51  C   UNL A   1      38.496  29.946  32.209  1.00  0.00     0.131 A 
ATOM     52  C   UNL A   1      36.517  31.444  30.996  1.00  0.00     0.055 A 
ATOM     53  C   UNL A   1      37.337  30.255  32.919  1.00  0.00     0.041 A 
ATOM     54  F   UNL A   1      39.436  29.218  32.832  1.00  0.00    -0.206 F 
ATOM     55  C   UNL A   1      36.342  31.016  32.314  1.00  0.00     0.022 A 
BRANCH  52  56
ATOM     56  S   UNL A   1      35.272  32.505  30.213  1.00  0.00     0.124 S 
ATOM     57  O   UNL A   1      34.883  31.705  29.059  1.00  0.00    -0.237 OA
ATOM     58  O   UNL A   1      34.276  32.634  31.271  1.00  0.00    -0.237 OA
ATOM     59  O   UNL A   1      36.012  33.728  29.905  1.00  0.00    -0.744 OA
ENDBRANCH  52  56
ENDBRANCH  25  49
BRANCH  37  60
ATOM     60  C   UNL A   1      44.725  33.543  29.566  1.00  0.00     0.023 A 
ATOM     61  C   UNL A   1      44.443  34.662  28.763  1.00  0.00     0.031 A 
ATOM     62  C   UNL A   1      45.532  33.725  30.700  1.00  0.00     0.131 A 
ATOM     63  C   UNL A   1      45.015  35.905  29.073  1.00  0.00     0.055 A 
ATOM     64  C   UNL A   1      46.053  34.975  31.036  1.00  0.00     0.041 A 
ATOM     65  F   UNL A   1      45.835  32.688  31.498  1.00  0.00    -0.206 F 
ATOM     66  C   UNL A   1      45.807  36.071  30.213  1.00  0.00     0.022 A 
BRANCH  63  67
ATOM     67  S   UNL A   1      44.787  37.282  27.916  1.00  0.00     0.124 S 
ATOM     68  O   UNL A   1      45.720  36.938  26.848  1.00  0.00    -0.237 OA
ATOM     69  O   UNL A   1      43.370  37.180  27.583  1.00  0.00    -0.237 OA
ATOM     70  O   UNL A   1      45.154  38.457  28.705  1.00  0.00    -0.744 OA
ENDBRANCH  63  67
ENDBRANCH  37  60
ENDBRANCH  11  12
ENDBRANCH   4   6
ENDBRANCH   1   2
BRANCH   1  71
ATOM     71  C   UNL A   1      36.763  22.223  23.883  1.00  0.00     0.023 C 
BRANCH  71  72
ATOM     72  C   UNL A   1      35.718  23.323  23.703  1.00  0.00     0.023 C 
BRANCH  72  73
ATOM     73  C   UNL A   1      34.413  23.066  24.454  1.00  0.00     0.116 C 
BRANCH  73  74
ATOM     74  N   UNL A   1      33.481  22.255  23.692  1.00  0.00    -0.351 N 
ATOM     75  C   UNL A   1      33.060  20.969  23.844  1.00  0.00     0.278 C 
ATOM     76  H   UNL A   1      33.079  22.721  22.924  1.00  0.00     0.163 HD
ATOM     77  O   UNL A   1      32.141  20.591  23.107  1.00  0.00    -0.268 OA
BRANCH  75  78
ATOM     78  C   UNL A   1      33.733  19.950  24.784  1.00  0.00     0.273 C 
ATOM     79  C   UNL A   1      32.800  19.516  25.908  1.00  0.00     0.082 C 
ATOM     80  N   UNL A   1      34.187  18.723  24.109  1.00  0.00    -0.329 N 
ATOM     81  C   UNL A   1      32.553  18.039  25.664  1.00  0.00     0.078 C 
ATOM     82  C   UNL A   1      33.816  17.574  24.954  1.00  0.00     0.251 C 
ATOM     83  H   UNL A   1      35.199  18.750  23.986  1.00  0.00     0.347 HD
ATOM     84  H   UNL A   1      33.750  18.642  23.190  1.00  0.00     0.347 HD
BRANCH  82  85
ATOM     85  C   UNL A   1      33.584  16.264  24.187  1.00  0.00     0.399 C 
ATOM     86  F   UNL A   1      34.264  16.289  23.012  1.00  0.00    -0.204 F 
ATOM     87  F   UNL A   1      34.092  15.225  24.900  1.00  0.00    -0.204 F 
ENDBRANCH  82  85
ENDBRANCH  75  78
ENDBRANCH  73  74
ENDBRANCH  72  73
ENDBRANCH  71  72
ENDBRANCH   1  71
TORSDOF 15
ENDMDL
MODEL 3
REMARK VINA RESULT:     -10.5      3.243      9.708
REMARK SMILES O=C(NCCCCNC(=O)[C@H]1CC[C@@H](C(F)F)[NH2+]1)c1ccc(-c2c3nc(c(-c4cc(S(=O)(=O)[O-])ccc4F)c4ccc([nH]4)c(-c4cc(S(=O)(=O)[O-])ccc4F)c4nc(c(-c5cc(S(=O)(=O)[O-])ccc5F)c5ccc2[nH]5)C=C4)C=C3)cc1
REMARK SMILES IDX 4 1 3 2 1 3 2 4 19 6 20 7 81 8 21 9 80 10 22 11 23 12 24 13
REMARK SMILES IDX 74 14 25 15 79 16 73 17 75 18 26 19 78 20 72 21 71 22 27 24
REMARK SMILES IDX 59 25 39 26 58 27 40 28 43 29 57 30 76 31 41 32 42 33 56 35
REMARK SMILES IDX 77 36 44 37 28 38 29 39 37 40 30 41 36 42 38 43 35 44 31 45
REMARK SMILES IDX 32 46 33 47 34 48 60 49 61 50 69 51 62 52 68 53 70 54 67 55
REMARK SMILES IDX 63 56 64 57 65 58 66 59 45 60 46 61 54 62 47 63 53 64 55 65
REMARK SMILES IDX 52 66 48 67 49 68 50 69 51 70 5 71 6 72 7 73 8 74 9 75 10 77
REMARK SMILES IDX 11 78 12 79 18 80 13 81 14 82 15 85 16 86 17 87
REMARK H PARENT 3 5 75 23 43 34 8 76 18 83 18 84
REMARK Flexibility Score: inf
ROOT
ATOM      1  C   UNL A   1      32.382  30.127  26.066  1.00  0.00     0.116 C 
ENDROOT
BRANCH   1   2
ATOM      2  N   UNL A   1      32.073  31.488  26.485  1.00  0.00    -0.352 N 
ATOM      3  O   UNL A   1      32.454  33.427  27.602  1.00  0.00    -0.269 OA
ATOM      4  C   UNL A   1      32.852  32.316  27.268  1.00  0.00     0.251 C 
ATOM      5  H   UNL A   1      31.215  31.859  26.175  1.00  0.00     0.163 HD
BRANCH   4   6
ATOM      6  C   UNL A   1      34.158  31.806  27.733  1.00  0.00     0.039 A 
ATOM      7  C   UNL A   1      34.307  30.449  28.024  1.00  0.00     0.014 A 
ATOM      8  C   UNL A   1      35.188  32.710  28.002  1.00  0.00     0.014 A 
ATOM      9  C   UNL A   1      35.414  30.025  28.746  1.00  0.00     0.010 A 
ATOM     10  C   UNL A   1      36.343  32.261  28.648  1.00  0.00     0.010 A 
ATOM     11  C   UNL A   1      36.444  30.926  29.071  1.00  0.00    -0.014 A 
BRANCH  11  12
ATOM     12  C   UNL A   1      37.616  30.437  29.844  1.00  0.00     0.031 A 
ATOM     13  C   UNL A   1      38.666  29.572  29.200  1.00  0.00     0.074 A 
ATOM     14  C   UNL A   1      37.749  30.824  31.127  1.00  0.00     0.049 A 
ATOM     15  N   UNL A   1      39.752  29.062  29.727  1.00  0.00    -0.248 NA
ATOM     16  C   UNL A   1      38.469  29.226  27.786  1.00  0.00     0.031 C 
ATOM     17  C   UNL A   1      36.795  31.669  31.850  1.00  0.00     0.029 A 
ATOM     18  N   UNL A   1      38.743  30.588  32.039  1.00  0.00    -0.354 N 
ATOM     19  C   UNL A   1      40.352  28.312  28.720  1.00  0.00     0.074 A 
ATOM     20  C   UNL A   1      39.493  28.415  27.559  1.00  0.00     0.031 C 
ATOM     21  C   UNL A   1      37.277  31.926  33.074  1.00  0.00     0.029 A 
ATOM     22  C   UNL A   1      38.531  31.204  33.249  1.00  0.00     0.049 A 
ATOM     23  H   UNL A   1      39.531  30.031  31.847  1.00  0.00     0.167 HD
ATOM     24  C   UNL A   1      41.514  27.609  28.762  1.00  0.00     0.034 A 
ATOM     25  C   UNL A   1      39.252  31.176  34.385  1.00  0.00     0.034 A 
ATOM     26  C   UNL A   1      42.363  27.531  29.930  1.00  0.00     0.049 A 
ATOM     27  C   UNL A   1      40.515  30.365  34.419  1.00  0.00     0.074 A 
ATOM     28  C   UNL A   1      43.576  26.877  30.075  1.00  0.00     0.029 A 
ATOM     29  N   UNL A   1      42.086  28.120  31.158  1.00  0.00    -0.354 N 
ATOM     30  N   UNL A   1      41.064  29.654  33.460  1.00  0.00    -0.248 NA
ATOM     31  C   UNL A   1      41.251  30.347  35.687  1.00  0.00     0.031 C 
ATOM     32  C   UNL A   1      43.998  27.017  31.403  1.00  0.00     0.029 A 
ATOM     33  C   UNL A   1      43.086  27.818  32.072  1.00  0.00     0.049 A 
ATOM     34  H   UNL A   1      41.294  28.673  31.352  1.00  0.00     0.167 HD
ATOM     35  C   UNL A   1      42.217  29.107  34.011  1.00  0.00     0.074 A 
ATOM     36  C   UNL A   1      42.294  29.592  35.375  1.00  0.00     0.031 C 
ATOM     37  C   UNL A   1      43.130  28.280  33.440  1.00  0.00     0.034 A 
BRANCH  24  38
ATOM     38  C   UNL A   1      41.900  26.827  27.527  1.00  0.00     0.023 A 
ATOM     39  C   UNL A   1      41.660  25.446  27.413  1.00  0.00     0.031 A 
ATOM     40  C   UNL A   1      42.548  27.470  26.457  1.00  0.00     0.131 A 
ATOM     41  C   UNL A   1      42.132  24.741  26.293  1.00  0.00     0.055 A 
ATOM     42  C   UNL A   1      42.946  26.777  25.310  1.00  0.00     0.041 A 
ATOM     43  F   UNL A   1      42.823  28.783  26.512  1.00  0.00    -0.206 F 
ATOM     44  C   UNL A   1      42.754  25.401  25.231  1.00  0.00     0.022 A 
BRANCH  41  45
ATOM     45  S   UNL A   1      42.060  22.929  26.316  1.00  0.00     0.124 S 
ATOM     46  O   UNL A   1      40.625  22.689  26.447  1.00  0.00    -0.237 OA
ATOM     47  O   UNL A   1      42.652  22.574  25.032  1.00  0.00    -0.237 OA
ATOM     48  O   UNL A   1      42.852  22.568  27.491  1.00  0.00    -0.744 OA
ENDBRANCH  41  45
ENDBRANCH  24  38
BRANCH  25  49
ATOM     49  C   UNL A   1      38.768  31.908  35.586  1.00  0.00     0.023 A 
ATOM     50  C   UNL A   1      38.152  31.231  36.649  1.00  0.00     0.031 A 
ATOM     51  C   UNL A   1      38.932  33.302  35.693  1.00  0.00     0.131 A 
ATOM     52  C   UNL A   1      37.705  31.952  37.766  1.00  0.00     0.055 A 
ATOM     53  C   UNL A   1      38.527  34.007  36.825  1.00  0.00     0.041 A 
ATOM     54  F   UNL A   1      39.523  33.992  34.705  1.00  0.00    -0.206 F 
ATOM     55  C   UNL A   1      37.901  33.331  37.868  1.00  0.00     0.022 A 
BRANCH  52  56
ATOM     56  S   UNL A   1      36.820  31.062  39.075  1.00  0.00     0.124 S 
ATOM     57  O   UNL A   1      37.768  31.137  40.180  1.00  0.00    -0.237 OA
ATOM     58  O   UNL A   1      35.606  31.859  39.216  1.00  0.00    -0.237 OA
ATOM     59  O   UNL A   1      36.625  29.729  38.509  1.00  0.00    -0.744 OA
ENDBRANCH  52  56
ENDBRANCH  25  49
BRANCH  37  60
ATOM     60  C   UNL A   1      44.297  27.872  34.303  1.00  0.00     0.023 A 
ATOM     61  C   UNL A   1      44.269  26.689  35.062  1.00  0.00     0.031 A 
ATOM     62  C   UNL A   1      45.430  28.696  34.398  1.00  0.00     0.131 A 
ATOM     63  C   UNL A   1      45.330  26.392  35.930  1.00  0.00     0.055 A 
ATOM     64  C   UNL A   1      46.507  28.368  35.221  1.00  0.00     0.041 A 
ATOM     65  F   UNL A   1      45.505  29.840  33.697  1.00  0.00    -0.206 F 
ATOM     66  C   UNL A   1      46.456  27.218  36.004  1.00  0.00     0.022 A 
BRANCH  63  67
ATOM     67  S   UNL A   1      45.179  24.961  37.033  1.00  0.00     0.124 S 
ATOM     68  O   UNL A   1      44.318  24.071  36.259  1.00  0.00    -0.237 OA
ATOM     69  O   UNL A   1      46.566  24.534  37.184  1.00  0.00    -0.237 OA
ATOM     70  O   UNL A   1      44.569  25.520  38.239  1.00  0.00    -0.744 OA
ENDBRANCH  63  67
ENDBRANCH  37  60
ENDBRANCH  11  12
ENDBRANCH   4   6
ENDBRANCH   1   2
BRANCH   1  71
ATOM     71  C   UNL A   1      31.540  29.618  24.899  1.00  0.00     0.023 C 
BRANCH  71  72
ATOM     72  C   UNL A   1      32.323  28.935  23.778  1.00  0.00     0.023 C 
BRANCH  72  73
ATOM     73  C   UNL A   1      31.550  27.822  23.073  1.00  0.00     0.116 C 
BRANCH  73  74
ATOM     74  N   UNL A   1      32.310  27.209  21.999  1.00  0.00    -0.351 N 
ATOM     75  C   UNL A   1      32.771  25.940  21.821  1.00  0.00     0.278 C 
ATOM     76  H   UNL A   1      32.533  27.824  21.264  1.00  0.00     0.163 HD
ATOM     77  O   UNL A   1      33.278  25.679  20.723  1.00  0.00    -0.268 OA
BRANCH  75  78
ATOM     78  C   UNL A   1      32.800  24.872  22.930  1.00  0.00     0.273 C 
ATOM     79  C   UNL A   1      33.115  23.488  22.375  1.00  0.00     0.082 C 
ATOM     80  N   UNL A   1      33.784  25.140  23.992  1.00  0.00    -0.329 N 
ATOM     81  C   UNL A   1      34.454  23.117  22.983  1.00  0.00     0.078 C 
ATOM     82  C   UNL A   1      34.474  23.875  24.303  1.00  0.00     0.251 C 
ATOM     83  H   UNL A   1      33.309  25.488  24.825  1.00  0.00     0.347 HD
ATOM     84  H   UNL A   1      34.456  25.842  23.683  1.00  0.00     0.347 HD
BRANCH  82  85
ATOM     85  C   UNL A   1      35.904  24.041  24.838  1.00  0.00     0.399 C 
ATOM     86  F   UNL A   1      35.922  23.837  26.181  1.00  0.00    -0.204 F 
ATOM     87  F   UNL A   1      36.704  23.086  24.296  1.00  0.00    -0.204 F 
ENDBRANCH  82  85
ENDBRANCH  75  78
ENDBRANCH  73  74
ENDBRANCH  72  73
ENDBRANCH  71  72
ENDBRANCH   1  71
TORSDOF 15
ENDMDL
