MODEL 1
REMARK VINA RESULT:     -11.8      0.000      0.000
REMARK SMILES COC(=O)c1cccc(-c2cnc(Cl)cc2C(=O)NCCCCNC(=O)c2ccc(-c3c4nc(c(-c5cc(S(=O)(=O)[O-])ccc5F)c5ccc([nH]5)c(-c5cc(S(=O)(=O)[O-])ccc5F)c5nc(c(-c6cc(S(=O)(=O)[O-])ccc6F)c6ccc3[nH]6)C=C5)C=C4)cc2)c1
REMARK SMILES IDX 21 1 20 2 19 3 17 4 18 5 16 7 10 8 11 9 12 10 15 11 13 12
REMARK SMILES IDX 14 13 9 14 5 15 6 16 90 17 7 18 8 19 3 20 4 21 2 22 1 23
REMARK SMILES IDX 22 24 23 25 24 26 25 27 26 29 27 30 28 31 89 32 29 33 88 34
REMARK SMILES IDX 30 35 31 36 32 37 82 38 33 39 87 40 81 41 83 42 34 43 86 44
REMARK SMILES IDX 80 45 79 46 35 48 67 49 47 50 66 51 48 52 51 53 65 54 84 55
REMARK SMILES IDX 49 56 50 57 64 59 85 60 52 61 36 62 37 63 45 64 38 65 44 66
REMARK SMILES IDX 46 67 43 68 39 69 40 70 41 71 42 72 68 73 69 74 77 75 70 76
REMARK SMILES IDX 76 77 78 78 75 79 71 80 72 81 73 82 74 83 53 84 54 85 62 86
REMARK SMILES IDX 55 87 61 88 63 89 60 90 56 91 57 92 58 93 59 94
REMARK H PARENT 19 6 24 28 83 47 51 58
REMARK Flexibility Score: inf
ROOT
ATOM      1  C   UNL A   1      36.325  20.377  25.034  1.00  0.00     0.023 C 
ENDROOT
BRANCH   1   2
ATOM      2  C   UNL A   1      36.371  21.892  25.235  1.00  0.00     0.116 C 
BRANCH   2   3
ATOM      3  N   UNL A   1      35.912  22.579  24.046  1.00  0.00    -0.352 N 
ATOM      4  C   UNL A   1      34.829  23.330  23.678  1.00  0.00     0.252 C 
ATOM      5  O   UNL A   1      34.897  23.727  22.514  1.00  0.00    -0.269 OA
ATOM      6  H   UNL A   1      36.550  22.478  23.303  1.00  0.00     0.163 HD
BRANCH   4   7
ATOM      7  C   UNL A   1      33.661  23.713  24.553  1.00  0.00     0.052 A 
ATOM      8  C   UNL A   1      32.500  22.890  24.603  1.00  0.00     0.013 A 
ATOM      9  C   UNL A   1      31.397  23.386  25.315  1.00  0.00     0.122 A 
ATOM     10  N   UNL A   1      31.354  24.564  25.968  1.00  0.00    -0.244 NA
ATOM     11  C   UNL A   1      33.651  24.890  25.307  1.00  0.00     0.055 A 
ATOM     12  C   UNL A   1      32.489  25.273  25.955  1.00  0.00     0.129 A 
ATOM     13  Cl  UNL A   1      32.409  26.757  26.812  1.00  0.00    -0.062 Cl
BRANCH   8  14
ATOM     14  C   UNL A   1      32.364  21.555  23.993  1.00  0.00    -0.015 A 
ATOM     15  C   UNL A   1      32.465  19.119  24.169  1.00  0.00     0.060 A 
ATOM     16  C   UNL A   1      32.223  19.010  22.796  1.00  0.00     0.016 A 
ATOM     17  C   UNL A   1      32.500  20.387  24.768  1.00  0.00     0.024 A 
ATOM     18  C   UNL A   1      32.024  20.155  22.026  1.00  0.00     0.002 A 
ATOM     19  C   UNL A   1      32.101  21.416  22.619  1.00  0.00     0.009 A 
BRANCH  15  20
ATOM     20  C   UNL A   1      32.743  17.874  24.932  1.00  0.00     0.337 C 
ATOM     21  O   UNL A   1      32.405  17.711  26.093  1.00  0.00    -0.246 OA
BRANCH  20  22
ATOM     22  O   UNL A   1      33.445  16.993  24.176  1.00  0.00    -0.465 OA
ATOM     23  C   UNL A   1      34.446  16.275  24.899  1.00  0.00     0.282 C 
ENDBRANCH  20  22
ENDBRANCH  15  20
ENDBRANCH   8  14
ENDBRANCH   4   7
ENDBRANCH   2   3
ENDBRANCH   1   2
BRANCH   1  24
ATOM     24  C   UNL A   1      37.701  19.739  24.791  1.00  0.00     0.023 C 
BRANCH  24  25
ATOM     25  C   UNL A   1      38.815  20.210  25.727  1.00  0.00     0.116 C 
BRANCH  25  26
ATOM     26  N   UNL A   1      39.876  19.230  25.882  1.00  0.00    -0.352 N 
ATOM     27  C   UNL A   1      41.210  19.431  26.139  1.00  0.00     0.251 C 
ATOM     28  H   UNL A   1      39.601  18.289  25.789  1.00  0.00     0.163 HD
ATOM     29  O   UNL A   1      41.981  18.477  26.102  1.00  0.00    -0.269 OA
BRANCH  27  30
ATOM     30  C   UNL A   1      41.711  20.793  26.419  1.00  0.00     0.039 A 
ATOM     31  C   UNL A   1      42.154  21.574  25.351  1.00  0.00     0.014 A 
ATOM     32  C   UNL A   1      41.743  21.300  27.722  1.00  0.00     0.014 A 
ATOM     33  C   UNL A   1      42.581  22.881  25.583  1.00  0.00     0.010 A 
ATOM     34  C   UNL A   1      42.093  22.630  27.940  1.00  0.00     0.010 A 
ATOM     35  C   UNL A   1      42.525  23.432  26.876  1.00  0.00    -0.014 A 
BRANCH  35  36
ATOM     36  C   UNL A   1      42.922  24.844  27.109  1.00  0.00     0.031 A 
ATOM     37  C   UNL A   1      41.979  25.800  27.789  1.00  0.00     0.074 A 
ATOM     38  C   UNL A   1      44.130  25.269  26.688  1.00  0.00     0.049 A 
ATOM     39  N   UNL A   1      42.168  27.051  28.123  1.00  0.00    -0.248 NA
ATOM     40  C   UNL A   1      40.637  25.291  28.108  1.00  0.00     0.031 C 
ATOM     41  C   UNL A   1      45.105  24.448  25.966  1.00  0.00     0.029 A 
ATOM     42  N   UNL A   1      44.751  26.485  26.813  1.00  0.00    -0.354 N 
ATOM     43  C   UNL A   1      40.969  27.481  28.682  1.00  0.00     0.074 A 
ATOM     44  C   UNL A   1      40.040  26.377  28.573  1.00  0.00     0.031 C 
ATOM     45  C   UNL A   1      46.222  25.165  25.767  1.00  0.00     0.029 A 
ATOM     46  C   UNL A   1      46.030  26.508  26.307  1.00  0.00     0.049 A 
ATOM     47  H   UNL A   1      44.322  27.268  27.229  1.00  0.00     0.167 HD
ATOM     48  C   UNL A   1      40.680  28.676  29.257  1.00  0.00     0.034 A 
ATOM     49  C   UNL A   1      46.948  27.495  26.287  1.00  0.00     0.034 A 
ATOM     50  C   UNL A   1      41.627  29.760  29.359  1.00  0.00     0.049 A 
ATOM     51  C   UNL A   1      46.600  28.818  26.918  1.00  0.00     0.074 A 
ATOM     52  C   UNL A   1      41.468  30.987  29.979  1.00  0.00     0.029 A 
ATOM     53  N   UNL A   1      42.905  29.756  28.813  1.00  0.00    -0.354 N 
ATOM     54  N   UNL A   1      45.489  29.185  27.515  1.00  0.00    -0.248 NA
ATOM     55  C   UNL A   1      47.638  29.856  26.886  1.00  0.00     0.031 C 
ATOM     56  C   UNL A   1      42.614  31.753  29.735  1.00  0.00     0.029 A 
ATOM     57  C   UNL A   1      43.529  30.973  29.047  1.00  0.00     0.049 A 
ATOM     58  H   UNL A   1      43.310  28.999  28.331  1.00  0.00     0.167 HD
ATOM     59  C   UNL A   1      45.710  30.483  27.965  1.00  0.00     0.074 A 
ATOM     60  C   UNL A   1      47.064  30.829  27.579  1.00  0.00     0.031 C 
ATOM     61  C   UNL A   1      44.876  31.311  28.645  1.00  0.00     0.034 A 
BRANCH  48  62
ATOM     62  C   UNL A   1      39.275  28.873  29.783  1.00  0.00     0.023 A 
ATOM     63  C   UNL A   1      38.240  29.370  28.971  1.00  0.00     0.031 A 
ATOM     64  C   UNL A   1      38.974  28.599  31.129  1.00  0.00     0.131 A 
ATOM     65  C   UNL A   1      36.987  29.663  29.530  1.00  0.00     0.055 A 
ATOM     66  C   UNL A   1      37.698  28.805  31.657  1.00  0.00     0.041 A 
ATOM     67  F   UNL A   1      39.923  28.144  31.963  1.00  0.00    -0.206 F 
ATOM     68  C   UNL A   1      36.700  29.359  30.861  1.00  0.00     0.022 A 
BRANCH  65  69
ATOM     69  S   UNL A   1      35.798  30.612  28.539  1.00  0.00     0.124 S 
ATOM     70  O   UNL A   1      35.114  31.393  29.567  1.00  0.00    -0.237 OA
ATOM     71  O   UNL A   1      36.666  31.361  27.637  1.00  0.00    -0.237 OA
ATOM     72  O   UNL A   1      34.979  29.579  27.905  1.00  0.00    -0.744 OA
ENDBRANCH  65  69
ENDBRANCH  48  62
BRANCH  49  73
ATOM     73  C   UNL A   1      48.288  27.267  25.675  1.00  0.00     0.023 A 
ATOM     74  C   UNL A   1      48.495  27.460  24.299  1.00  0.00     0.031 A 
ATOM     75  C   UNL A   1      49.376  26.827  26.449  1.00  0.00     0.131 A 
ATOM     76  C   UNL A   1      49.746  27.171  23.732  1.00  0.00     0.055 A 
ATOM     77  C   UNL A   1      50.634  26.592  25.890  1.00  0.00     0.041 A 
ATOM     78  F   UNL A   1      49.235  26.632  27.771  1.00  0.00    -0.206 F 
ATOM     79  C   UNL A   1      50.820  26.752  24.520  1.00  0.00     0.022 A 
BRANCH  76  80
ATOM     80  S   UNL A   1      49.928  27.272  21.930  1.00  0.00     0.124 S 
ATOM     81  O   UNL A   1      48.844  26.409  21.474  1.00  0.00    -0.237 OA
ATOM     82  O   UNL A   1      49.758  28.700  21.689  1.00  0.00    -0.237 OA
ATOM     83  O   UNL A   1      51.275  26.758  21.696  1.00  0.00    -0.744 OA
ENDBRANCH  76  80
ENDBRANCH  49  73
BRANCH  61  84
ATOM     84  C   UNL A   1      45.428  32.655  29.062  1.00  0.00     0.023 A 
ATOM     85  C   UNL A   1      45.351  33.784  28.228  1.00  0.00     0.031 A 
ATOM     86  C   UNL A   1      46.058  32.799  30.312  1.00  0.00     0.131 A 
ATOM     87  C   UNL A   1      45.951  34.989  28.626  1.00  0.00     0.055 A 
ATOM     88  C   UNL A   1      46.590  34.019  30.732  1.00  0.00     0.041 A 
ATOM     89  F   UNL A   1      46.166  31.755  31.148  1.00  0.00    -0.206 F 
ATOM     90  C   UNL A   1      46.552  35.118  29.880  1.00  0.00     0.022 A 
BRANCH  87  91
ATOM     91  S   UNL A   1      46.034  36.355  27.436  1.00  0.00     0.124 S 
ATOM     92  O   UNL A   1      47.464  36.422  27.150  1.00  0.00    -0.237 OA
ATOM     93  O   UNL A   1      45.189  35.874  26.349  1.00  0.00    -0.237 OA
ATOM     94  O   UNL A   1      45.497  37.492  28.181  1.00  0.00    -0.744 OA
ENDBRANCH  87  91
ENDBRANCH  61  84
ENDBRANCH  35  36
ENDBRANCH  27  30
ENDBRANCH  25  26
ENDBRANCH  24  25
ENDBRANCH   1  24
TORSDOF 17
ENDMDL
MODEL 2
REMARK VINA RESULT:     -11.7      5.442      8.648
REMARK SMILES COC(=O)c1cccc(-c2cnc(Cl)cc2C(=O)NCCCCNC(=O)c2ccc(-c3c4nc(c(-c5cc(S(=O)(=O)[O-])ccc5F)c5ccc([nH]5)c(-c5cc(S(=O)(=O)[O-])ccc5F)c5nc(c(-c6cc(S(=O)(=O)[O-])ccc6F)c6ccc3[nH]6)C=C5)C=C4)cc2)c1
REMARK SMILES IDX 21 1 20 2 19 3 17 4 18 5 16 7 10 8 11 9 12 10 15 11 13 12
REMARK SMILES IDX 14 13 9 14 5 15 6 16 90 17 7 18 8 19 3 20 4 21 2 22 1 23
REMARK SMILES IDX 22 24 23 25 24 26 25 27 26 29 27 30 28 31 89 32 29 33 88 34
REMARK SMILES IDX 30 35 31 36 32 37 82 38 33 39 87 40 81 41 83 42 34 43 86 44
REMARK SMILES IDX 80 45 79 46 35 48 67 49 47 50 66 51 48 52 51 53 65 54 84 55
REMARK SMILES IDX 49 56 50 57 64 59 85 60 52 61 36 62 37 63 45 64 38 65 44 66
REMARK SMILES IDX 46 67 43 68 39 69 40 70 41 71 42 72 68 73 69 74 77 75 70 76
REMARK SMILES IDX 76 77 78 78 75 79 71 80 72 81 73 82 74 83 53 84 54 85 62 86
REMARK SMILES IDX 55 87 61 88 63 89 60 90 56 91 57 92 58 93 59 94
REMARK H PARENT 19 6 24 28 83 47 51 58
REMARK Flexibility Score: inf
ROOT
ATOM      1  C   UNL A   1      32.976  28.320  25.490  1.00  0.00     0.023 C 
ENDROOT
BRANCH   1   2
ATOM      2  C   UNL A   1      32.838  27.630  26.847  1.00  0.00     0.116 C 
BRANCH   2   3
ATOM      3  N   UNL A   1      31.733  26.694  26.834  1.00  0.00    -0.352 N 
ATOM      4  C   UNL A   1      30.819  26.235  25.926  1.00  0.00     0.252 C 
ATOM      5  O   UNL A   1      30.055  25.394  26.400  1.00  0.00    -0.269 OA
ATOM      6  H   UNL A   1      31.607  26.275  27.716  1.00  0.00     0.163 HD
BRANCH   4   7
ATOM      7  C   UNL A   1      30.717  26.632  24.473  1.00  0.00     0.052 A 
ATOM      8  C   UNL A   1      31.563  26.026  23.501  1.00  0.00     0.013 A 
ATOM      9  C   UNL A   1      31.521  26.554  22.202  1.00  0.00     0.122 A 
ATOM     10  N   UNL A   1      30.735  27.571  21.796  1.00  0.00    -0.244 NA
ATOM     11  C   UNL A   1      29.834  27.623  24.033  1.00  0.00     0.055 A 
ATOM     12  C   UNL A   1      29.905  28.064  22.723  1.00  0.00     0.129 A 
ATOM     13  Cl  UNL A   1      28.903  29.343  22.171  1.00  0.00    -0.062 Cl
BRANCH   8  14
ATOM     14  C   UNL A   1      32.460  24.880  23.736  1.00  0.00    -0.015 A 
ATOM     15  C   UNL A   1      32.796  22.488  24.112  1.00  0.00     0.060 A 
ATOM     16  C   UNL A   1      34.163  22.711  24.303  1.00  0.00     0.016 A 
ATOM     17  C   UNL A   1      31.957  23.566  23.795  1.00  0.00     0.024 A 
ATOM     18  C   UNL A   1      34.688  23.998  24.185  1.00  0.00     0.002 A 
ATOM     19  C   UNL A   1      33.842  25.073  23.911  1.00  0.00     0.009 A 
BRANCH  15  20
ATOM     20  C   UNL A   1      32.275  21.112  24.320  1.00  0.00     0.337 C 
ATOM     21  O   UNL A   1      31.732  20.751  25.351  1.00  0.00    -0.246 OA
BRANCH  20  22
ATOM     22  O   UNL A   1      32.525  20.334  23.237  1.00  0.00    -0.465 OA
ATOM     23  C   UNL A   1      31.937  20.815  22.027  1.00  0.00     0.282 C 
ENDBRANCH  20  22
ENDBRANCH  15  20
ENDBRANCH   8  14
ENDBRANCH   4   7
ENDBRANCH   2   3
ENDBRANCH   1   2
BRANCH   1  24
ATOM     24  C   UNL A   1      32.389  29.739  25.451  1.00  0.00     0.023 C 
BRANCH  24  25
ATOM     25  C   UNL A   1      31.963  30.308  26.805  1.00  0.00     0.116 C 
BRANCH  25  26
ATOM     26  N   UNL A   1      31.940  31.761  26.828  1.00  0.00    -0.352 N 
ATOM     27  C   UNL A   1      32.848  32.633  27.375  1.00  0.00     0.251 C 
ATOM     28  H   UNL A   1      31.164  32.178  26.389  1.00  0.00     0.163 HD
ATOM     29  O   UNL A   1      32.585  33.831  27.411  1.00  0.00    -0.269 OA
BRANCH  27  30
ATOM     30  C   UNL A   1      34.110  32.122  27.949  1.00  0.00     0.039 A 
ATOM     31  C   UNL A   1      35.181  33.003  28.099  1.00  0.00     0.014 A 
ATOM     32  C   UNL A   1      34.239  30.785  28.340  1.00  0.00     0.014 A 
ATOM     33  C   UNL A   1      36.364  32.557  28.686  1.00  0.00     0.010 A 
ATOM     34  C   UNL A   1      35.391  30.363  28.999  1.00  0.00     0.010 A 
ATOM     35  C   UNL A   1      36.470  31.241  29.170  1.00  0.00    -0.014 A 
BRANCH  35  36
ATOM     36  C   UNL A   1      37.710  30.787  29.852  1.00  0.00     0.031 A 
ATOM     37  C   UNL A   1      38.003  31.213  31.265  1.00  0.00     0.074 A 
ATOM     38  C   UNL A   1      38.581  30.005  29.185  1.00  0.00     0.049 A 
ATOM     39  N   UNL A   1      39.004  30.878  32.039  1.00  0.00    -0.248 NA
ATOM     40  C   UNL A   1      37.064  32.162  31.880  1.00  0.00     0.031 C 
ATOM     41  C   UNL A   1      38.430  29.575  27.792  1.00  0.00     0.029 A 
ATOM     42  N   UNL A   1      39.755  29.420  29.585  1.00  0.00    -0.354 N 
ATOM     43  C   UNL A   1      38.821  31.581  33.224  1.00  0.00     0.074 A 
ATOM     44  C   UNL A   1      37.653  32.415  33.037  1.00  0.00     0.031 C 
ATOM     45  C   UNL A   1      39.439  28.749  27.475  1.00  0.00     0.029 A 
ATOM     46  C   UNL A   1      40.332  28.623  28.623  1.00  0.00     0.049 A 
ATOM     47  H   UNL A   1      40.148  29.557  30.477  1.00  0.00     0.167 HD
ATOM     48  C   UNL A   1      39.544  31.516  34.371  1.00  0.00     0.034 A 
ATOM     49  C   UNL A   1      41.448  27.868  28.664  1.00  0.00     0.034 A 
ATOM     50  C   UNL A   1      40.702  30.671  34.536  1.00  0.00     0.049 A 
ATOM     51  C   UNL A   1      42.243  27.822  29.943  1.00  0.00     0.074 A 
ATOM     52  C   UNL A   1      41.469  30.472  35.670  1.00  0.00     0.029 A 
ATOM     53  N   UNL A   1      41.272  29.895  33.532  1.00  0.00    -0.354 N 
ATOM     54  N   UNL A   1      42.014  28.431  31.084  1.00  0.00    -0.248 NA
ATOM     55  C   UNL A   1      43.441  26.974  29.944  1.00  0.00     0.031 C 
ATOM     56  C   UNL A   1      42.547  29.647  35.330  1.00  0.00     0.029 A 
ATOM     57  C   UNL A   1      42.403  29.250  34.011  1.00  0.00     0.049 A 
ATOM     58  H   UNL A   1      40.922  29.815  32.615  1.00  0.00     0.167 HD
ATOM     59  C   UNL A   1      43.017  28.006  31.950  1.00  0.00     0.074 A 
ATOM     60  C   UNL A   1      43.845  27.082  31.201  1.00  0.00     0.031 C 
ATOM     61  C   UNL A   1      43.229  28.340  33.249  1.00  0.00     0.034 A 
BRANCH  48  62
ATOM     62  C   UNL A   1      39.116  32.409  35.515  1.00  0.00     0.023 A 
ATOM     63  C   UNL A   1      39.548  33.744  35.618  1.00  0.00     0.031 A 
ATOM     64  C   UNL A   1      38.296  31.908  36.541  1.00  0.00     0.131 A 
ATOM     65  C   UNL A   1      39.238  34.497  36.761  1.00  0.00     0.055 A 
ATOM     66  C   UNL A   1      37.913  32.693  37.631  1.00  0.00     0.041 A 
ATOM     67  F   UNL A   1      37.868  30.636  36.515  1.00  0.00    -0.206 F 
ATOM     68  C   UNL A   1      38.400  33.990  37.755  1.00  0.00     0.022 A 
BRANCH  65  69
ATOM     69  S   UNL A   1      40.090  36.080  37.010  1.00  0.00     0.124 S 
ATOM     70  O   UNL A   1      39.847  36.750  35.735  1.00  0.00    -0.237 OA
ATOM     71  O   UNL A   1      39.394  36.634  38.167  1.00  0.00    -0.237 OA
ATOM     72  O   UNL A   1      41.479  35.688  37.244  1.00  0.00    -0.744 OA
ENDBRANCH  65  69
ENDBRANCH  48  62
BRANCH  49  73
ATOM     73  C   UNL A   1      41.867  27.076  27.473  1.00  0.00     0.023 A 
ATOM     74  C   UNL A   1      41.652  25.688  27.418  1.00  0.00     0.031 A 
ATOM     75  C   UNL A   1      42.511  27.686  26.382  1.00  0.00     0.131 A 
ATOM     76  C   UNL A   1      42.119  24.951  26.318  1.00  0.00     0.055 A 
ATOM     77  C   UNL A   1      42.925  26.957  25.266  1.00  0.00     0.041 A 
ATOM     78  F   UNL A   1      42.735  29.010  26.380  1.00  0.00    -0.206 F 
ATOM     79  C   UNL A   1      42.740  25.577  25.237  1.00  0.00     0.022 A 
BRANCH  76  80
ATOM     80  S   UNL A   1      41.973  23.143  26.360  1.00  0.00     0.124 S 
ATOM     81  O   UNL A   1      42.760  22.809  27.542  1.00  0.00    -0.237 OA
ATOM     82  O   UNL A   1      40.531  22.959  26.474  1.00  0.00    -0.237 OA
ATOM     83  O   UNL A   1      42.554  22.727  25.085  1.00  0.00    -0.744 OA
ENDBRANCH  76  80
ENDBRANCH  49  73
BRANCH  61  84
ATOM     84  C   UNL A   1      44.375  27.656  33.958  1.00  0.00     0.023 A 
ATOM     85  C   UNL A   1      44.193  26.485  34.714  1.00  0.00     0.031 A 
ATOM     86  C   UNL A   1      45.671  28.200  33.885  1.00  0.00     0.131 A 
ATOM     87  C   UNL A   1      45.273  25.933  35.420  1.00  0.00     0.055 A 
ATOM     88  C   UNL A   1      46.756  27.606  34.532  1.00  0.00     0.041 A 
ATOM     89  F   UNL A   1      45.905  29.319  33.182  1.00  0.00    -0.206 F 
ATOM     90  C   UNL A   1      46.557  26.475  35.317  1.00  0.00     0.022 A 
BRANCH  87  91
ATOM     91  S   UNL A   1      44.957  24.563  36.564  1.00  0.00     0.124 S 
ATOM     92  O   UNL A   1      44.681  23.460  35.648  1.00  0.00    -0.237 OA
ATOM     93  O   UNL A   1      46.211  24.477  37.305  1.00  0.00    -0.237 OA
ATOM     94  O   UNL A   1      43.809  25.023  37.343  1.00  0.00    -0.744 OA
ENDBRANCH  87  91
ENDBRANCH  61  84
ENDBRANCH  35  36
ENDBRANCH  27  30
ENDBRANCH  25  26
ENDBRANCH  24  25
ENDBRANCH   1  24
TORSDOF 17
ENDMDL
MODEL 3
REMARK VINA RESULT:     -11.6      5.780      9.311
REMARK SMILES COC(=O)c1cccc(-c2cnc(Cl)cc2C(=O)NCCCCNC(=O)c2ccc(-c3c4nc(c(-c5cc(S(=O)(=O)[O-])ccc5F)c5ccc([nH]5)c(-c5cc(S(=O)(=O)[O-])ccc5F)c5nc(c(-c6cc(S(=O)(=O)[O-])ccc6F)c6ccc3[nH]6)C=C5)C=C4)cc2)c1
REMARK SMILES IDX 21 1 20 2 19 3 17 4 18 5 16 7 10 8 11 9 12 10 15 11 13 12
REMARK SMILES IDX 14 13 9 14 5 15 6 16 90 17 7 18 8 19 3 20 4 21 2 22 1 23
REMARK SMILES IDX 22 24 23 25 24 26 25 27 26 29 27 30 28 31 89 32 29 33 88 34
REMARK SMILES IDX 30 35 31 36 32 37 82 38 33 39 87 40 81 41 83 42 34 43 86 44
REMARK SMILES IDX 80 45 79 46 35 48 67 49 47 50 66 51 48 52 51 53 65 54 84 55
REMARK SMILES IDX 49 56 50 57 64 59 85 60 52 61 36 62 37 63 45 64 38 65 44 66
REMARK SMILES IDX 46 67 43 68 39 69 40 70 41 71 42 72 68 73 69 74 77 75 70 76
REMARK SMILES IDX 76 77 78 78 75 79 71 80 72 81 73 82 74 83 53 84 54 85 62 86
REMARK SMILES IDX 55 87 61 88 63 89 60 90 56 91 57 92 58 93 59 94
REMARK H PARENT 19 6 24 28 83 47 51 58
REMARK Flexibility Score: inf
ROOT
ATOM      1  C   UNL A   1      32.653  29.424  25.276  1.00  0.00     0.023 C 
ENDROOT
BRANCH   1   2
ATOM      2  C   UNL A   1      33.560  28.456  26.036  1.00  0.00     0.116 C 
BRANCH   2   3
ATOM      3  N   UNL A   1      32.809  27.307  26.496  1.00  0.00    -0.352 N 
ATOM      4  C   UNL A   1      32.486  26.065  26.021  1.00  0.00     0.252 C 
ATOM      5  O   UNL A   1      31.811  25.411  26.816  1.00  0.00    -0.269 OA
ATOM      6  H   UNL A   1      32.428  27.461  27.390  1.00  0.00     0.163 HD
BRANCH   4   7
ATOM      7  C   UNL A   1      32.908  25.470  24.700  1.00  0.00     0.052 A 
ATOM      8  C   UNL A   1      32.029  25.508  23.581  1.00  0.00     0.013 A 
ATOM      9  C   UNL A   1      32.424  24.801  22.435  1.00  0.00     0.122 A 
ATOM     10  N   UNL A   1      33.573  24.108  22.301  1.00  0.00    -0.244 NA
ATOM     11  C   UNL A   1      34.141  24.832  24.531  1.00  0.00     0.055 A 
ATOM     12  C   UNL A   1      34.402  24.159  23.351  1.00  0.00     0.129 A 
ATOM     13  Cl  UNL A   1      35.864  23.285  23.143  1.00  0.00    -0.062 Cl
BRANCH   8  14
ATOM     14  C   UNL A   1      30.752  26.242  23.514  1.00  0.00    -0.015 A 
ATOM     15  C   UNL A   1      29.508  28.306  23.103  1.00  0.00     0.060 A 
ATOM     16  C   UNL A   1      28.327  27.673  23.503  1.00  0.00     0.016 A 
ATOM     17  C   UNL A   1      30.708  27.580  23.076  1.00  0.00     0.024 A 
ATOM     18  C   UNL A   1      28.343  26.330  23.879  1.00  0.00     0.002 A 
ATOM     19  C   UNL A   1      29.547  25.624  23.891  1.00  0.00     0.009 A 
BRANCH  15  20
ATOM     20  C   UNL A   1      29.451  29.756  22.782  1.00  0.00     0.337 C 
ATOM     21  O   UNL A   1      29.532  30.632  23.627  1.00  0.00    -0.246 OA
BRANCH  20  22
ATOM     22  O   UNL A   1      29.260  29.947  21.453  1.00  0.00    -0.465 OA
ATOM     23  C   UNL A   1      28.517  31.126  21.136  1.00  0.00     0.282 C 
ENDBRANCH  20  22
ENDBRANCH  15  20
ENDBRANCH   8  14
ENDBRANCH   4   7
ENDBRANCH   2   3
ENDBRANCH   1   2
BRANCH   1  24
ATOM     24  C   UNL A   1      32.111  30.575  26.138  1.00  0.00     0.023 C 
BRANCH  24  25
ATOM     25  C   UNL A   1      32.999  30.986  27.313  1.00  0.00     0.116 C 
BRANCH  25  26
ATOM     26  N   UNL A   1      33.157  32.426  27.426  1.00  0.00    -0.352 N 
ATOM     27  C   UNL A   1      34.178  33.143  28.000  1.00  0.00     0.251 C 
ATOM     28  H   UNL A   1      32.430  32.964  27.038  1.00  0.00     0.163 HD
ATOM     29  O   UNL A   1      34.068  34.360  28.118  1.00  0.00    -0.269 OA
BRANCH  27  30
ATOM     30  C   UNL A   1      35.379  32.444  28.504  1.00  0.00     0.039 A 
ATOM     31  C   UNL A   1      36.626  33.046  28.328  1.00  0.00     0.014 A 
ATOM     32  C   UNL A   1      35.280  31.206  29.147  1.00  0.00     0.014 A 
ATOM     33  C   UNL A   1      37.767  32.430  28.841  1.00  0.00     0.010 A 
ATOM     34  C   UNL A   1      36.409  30.634  29.728  1.00  0.00     0.010 A 
ATOM     35  C   UNL A   1      37.666  31.234  29.573  1.00  0.00    -0.014 A 
BRANCH  35  36
ATOM     36  C   UNL A   1      38.876  30.614  30.171  1.00  0.00     0.031 A 
ATOM     37  C   UNL A   1      39.346  31.025  31.541  1.00  0.00     0.074 A 
ATOM     38  C   UNL A   1      39.562  29.692  29.468  1.00  0.00     0.049 A 
ATOM     39  N   UNL A   1      40.347  30.560  32.245  1.00  0.00    -0.248 NA
ATOM     40  C   UNL A   1      38.613  32.121  32.192  1.00  0.00     0.031 C 
ATOM     41  C   UNL A   1      39.234  29.256  28.108  1.00  0.00     0.029 A 
ATOM     42  N   UNL A   1      40.665  28.946  29.796  1.00  0.00    -0.354 N 
ATOM     43  C   UNL A   1      40.369  31.313  33.415  1.00  0.00     0.074 A 
ATOM     44  C   UNL A   1      39.328  32.310  33.289  1.00  0.00     0.031 C 
ATOM     45  C   UNL A   1      40.078  28.279  27.743  1.00  0.00     0.029 A 
ATOM     46  C   UNL A   1      41.034  28.047  28.822  1.00  0.00     0.049 A 
ATOM     47  H   UNL A   1      41.146  29.044  30.649  1.00  0.00     0.167 HD
ATOM     48  C   UNL A   1      41.167  31.166  34.503  1.00  0.00     0.034 A 
ATOM     49  C   UNL A   1      42.024  27.132  28.803  1.00  0.00     0.034 A 
ATOM     50  C   UNL A   1      42.195  30.159  34.608  1.00  0.00     0.049 A 
ATOM     51  C   UNL A   1      42.907  26.998  30.017  1.00  0.00     0.074 A 
ATOM     52  C   UNL A   1      43.016  29.874  35.685  1.00  0.00     0.029 A 
ATOM     53  N   UNL A   1      42.557  29.282  33.592  1.00  0.00    -0.354 N 
ATOM     54  N   UNL A   1      42.866  27.662  31.149  1.00  0.00    -0.248 NA
ATOM     55  C   UNL A   1      43.961  25.977  29.955  1.00  0.00     0.031 C 
ATOM     56  C   UNL A   1      43.926  28.886  35.292  1.00  0.00     0.029 A 
ATOM     57  C   UNL A   1      43.615  28.484  34.004  1.00  0.00     0.049 A 
ATOM     58  H   UNL A   1      42.125  29.233  32.709  1.00  0.00     0.167 HD
ATOM     59  C   UNL A   1      43.863  27.111  31.949  1.00  0.00     0.074 A 
ATOM     60  C   UNL A   1      44.479  26.054  31.172  1.00  0.00     0.031 C 
ATOM     61  C   UNL A   1      44.229  27.440  33.214  1.00  0.00     0.034 A 
BRANCH  48  62
ATOM     62  C   UNL A   1      40.974  32.142  35.643  1.00  0.00     0.023 A 
ATOM     63  C   UNL A   1      40.041  31.913  36.669  1.00  0.00     0.031 A 
ATOM     64  C   UNL A   1      41.707  33.342  35.684  1.00  0.00     0.131 A 
ATOM     65  C   UNL A   1      39.799  32.903  37.634  1.00  0.00     0.055 A 
ATOM     66  C   UNL A   1      41.528  34.283  36.701  1.00  0.00     0.041 A 
ATOM     67  F   UNL A   1      42.598  33.633  34.723  1.00  0.00    -0.206 F 
ATOM     68  C   UNL A   1      40.555  34.074  37.674  1.00  0.00     0.022 A 
BRANCH  65  69
ATOM     69  S   UNL A   1      38.361  32.713  38.726  1.00  0.00     0.124 S 
ATOM     70  O   UNL A   1      37.786  34.056  38.693  1.00  0.00    -0.237 OA
ATOM     71  O   UNL A   1      37.591  31.670  38.056  1.00  0.00    -0.237 OA
ATOM     72  O   UNL A   1      38.952  32.329  40.007  1.00  0.00    -0.744 OA
ENDBRANCH  65  69
ENDBRANCH  48  62
BRANCH  49  73
ATOM     73  C   UNL A   1      42.219  26.256  27.613  1.00  0.00     0.023 A 
ATOM     74  C   UNL A   1      41.755  24.930  27.610  1.00  0.00     0.031 A 
ATOM     75  C   UNL A   1      42.896  26.720  26.470  1.00  0.00     0.131 A 
ATOM     76  C   UNL A   1      42.013  24.101  26.506  1.00  0.00     0.055 A 
ATOM     77  C   UNL A   1      43.102  25.908  25.354  1.00  0.00     0.041 A 
ATOM     78  F   UNL A   1      43.354  27.981  26.418  1.00  0.00    -0.206 F 
ATOM     79  C   UNL A   1      42.670  24.585  25.374  1.00  0.00     0.022 A 
BRANCH  76  80
ATOM     80  S   UNL A   1      41.546  22.351  26.607  1.00  0.00     0.124 S 
ATOM     81  O   UNL A   1      42.142  21.815  25.388  1.00  0.00    -0.237 OA
ATOM     82  O   UNL A   1      42.170  21.944  27.861  1.00  0.00    -0.237 OA
ATOM     83  O   UNL A   1      40.086  22.390  26.622  1.00  0.00    -0.744 OA
ENDBRANCH  76  80
ENDBRANCH  49  73
BRANCH  61  84
ATOM     84  C   UNL A   1      45.316  26.608  33.855  1.00  0.00     0.023 A 
ATOM     85  C   UNL A   1      45.024  25.525  34.703  1.00  0.00     0.031 A 
ATOM     86  C   UNL A   1      46.668  26.918  33.624  1.00  0.00     0.131 A 
ATOM     87  C   UNL A   1      46.066  24.834  35.340  1.00  0.00     0.055 A 
ATOM     88  C   UNL A   1      47.703  26.182  34.203  1.00  0.00     0.041 A 
ATOM     89  F   UNL A   1      47.008  27.944  32.828  1.00  0.00    -0.206 F 
ATOM     90  C   UNL A   1      47.404  25.143  35.079  1.00  0.00     0.022 A 
BRANCH  87  91
ATOM     91  S   UNL A   1      45.650  23.597  36.599  1.00  0.00     0.124 S 
ATOM     92  O   UNL A   1      46.900  23.494  37.347  1.00  0.00    -0.237 OA
ATOM     93  O   UNL A   1      44.538  24.228  37.301  1.00  0.00    -0.237 OA
ATOM     94  O   UNL A   1      45.298  22.415  35.815  1.00  0.00    -0.744 OA
ENDBRANCH  87  91
ENDBRANCH  61  84
ENDBRANCH  35  36
ENDBRANCH  27  30
ENDBRANCH  25  26
ENDBRANCH  24  25
ENDBRANCH   1  24
TORSDOF 17
ENDMDL
