MODEL 1
REMARK VINA RESULT:     -10.8      0.000      0.000
REMARK SMILES CCCCCCNC(=O)Oc1cccc(-c2ccc([C@@H](C)C(=O)NCCCCNC(=O)c3ccc(-c4c5nc(c(-c6cc(S(=O)(=O)[O-])ccc6F)c6ccc([nH]6)c(-c6cc(S(=O)(=O)[O-])ccc6F)c6nc(c(-c7cc(S(=O)(=O)[O-])ccc7F)c7ccc4[nH]7)C=C6)C=C5)cc3)cc2O)c1
REMARK SMILES IDX 20 1 21 2 19 3 16 4 17 5 96 6 18 7 95 8 15 9 11 10 12 11
REMARK SMILES IDX 98 12 13 13 14 14 10 15 8 16 7 17 9 19 6 20 5 21 4 22 3 23
REMARK SMILES IDX 2 24 1 25 97 26 22 28 23 29 24 30 25 32 26 33 27 34 28 35
REMARK SMILES IDX 29 36 30 37 31 39 32 40 33 41 94 42 34 43 93 44 35 45 36 46
REMARK SMILES IDX 37 47 87 48 38 49 92 50 86 51 88 52 39 53 91 54 85 55 84 56
REMARK SMILES IDX 40 58 72 59 52 60 71 61 53 62 56 63 70 64 89 65 54 66 55 67
REMARK SMILES IDX 69 69 90 70 57 71 41 72 42 73 50 74 43 75 49 76 51 77 48 78
REMARK SMILES IDX 44 79 45 80 46 81 47 82 73 83 74 84 82 85 75 86 81 87 83 88
REMARK SMILES IDX 80 89 76 90 77 91 78 92 79 93 58 94 59 95 67 96 60 97 66 98
REMARK SMILES IDX 68 99 65 100 61 101 62 102 63 103 64 104
REMARK H PARENT 7 18 97 27 24 31 29 38 88 57 56 68
REMARK Flexibility Score: inf
ROOT
ATOM      1  C   UNL A   1      42.256  19.640  26.787  1.00  0.00     0.105 C 
ATOM      2  C   UNL A   1      42.284  18.477  27.780  1.00  0.00     0.023 C 
ENDROOT
BRANCH   1   3
ATOM      3  C   UNL A   1      40.872  20.154  26.425  1.00  0.00    -0.032 A 
ATOM      4  C   UNL A   1      38.340  21.241  25.626  1.00  0.00     0.024 A 
ATOM      5  C   UNL A   1      38.714  19.921  25.324  1.00  0.00     0.013 A 
ATOM      6  C   UNL A   1      39.254  21.981  26.397  1.00  0.00     0.123 A 
ATOM      7  C   UNL A   1      39.924  19.374  25.764  1.00  0.00     0.005 A 
ATOM      8  C   UNL A   1      40.510  21.469  26.749  1.00  0.00     0.051 A 
BRANCH   4   9
ATOM      9  C   UNL A   1      37.042  21.763  25.131  1.00  0.00    -0.011 A 
ATOM     10  C   UNL A   1      34.657  22.161  25.388  1.00  0.00     0.133 A 
ATOM     11  C   UNL A   1      34.583  22.754  24.132  1.00  0.00     0.047 A 
ATOM     12  C   UNL A   1      35.868  21.688  25.900  1.00  0.00     0.056 A 
ATOM     13  C   UNL A   1      35.738  22.876  23.373  1.00  0.00     0.004 A 
ATOM     14  C   UNL A   1      36.946  22.370  23.862  1.00  0.00     0.009 A 
BRANCH  10  15
ATOM     15  O   UNL A   1      33.434  21.908  26.031  1.00  0.00    -0.410 OA
BRANCH  15  16
ATOM     16  C   UNL A   1      32.270  21.805  25.285  1.00  0.00     0.412 C 
ATOM     17  N   UNL A   1      32.130  20.577  24.697  1.00  0.00    -0.321 N 
ATOM     18  H   UNL A   1      31.344  20.451  24.118  1.00  0.00     0.167 HD
ATOM     19  O   UNL A   1      31.432  22.682  25.136  1.00  0.00    -0.224 OA
BRANCH  17  20
ATOM     20  C   UNL A   1      33.024  19.445  24.838  1.00  0.00     0.119 C 
BRANCH  20  21
ATOM     21  C   UNL A   1      32.421  18.166  24.258  1.00  0.00     0.021 C 
BRANCH  21  22
ATOM     22  C   UNL A   1      33.149  17.615  23.026  1.00  0.00     0.002 C 
BRANCH  22  23
ATOM     23  C   UNL A   1      34.055  16.407  23.283  1.00  0.00    -0.000 C 
BRANCH  23  24
ATOM     24  C   UNL A   1      34.049  15.876  24.719  1.00  0.00    -0.003 C 
ATOM     25  C   UNL A   1      35.399  15.997  25.408  1.00  0.00     0.004 C 
ENDBRANCH  23  24
ENDBRANCH  22  23
ENDBRANCH  21  22
ENDBRANCH  20  21
ENDBRANCH  17  20
ENDBRANCH  15  16
ENDBRANCH  10  15
ENDBRANCH   4   9
BRANCH   6  26
ATOM     26  O   UNL A   1      38.974  23.226  26.898  1.00  0.00    -0.507 OA
ATOM     27  H   UNL A   1      39.213  23.443  27.778  1.00  0.00     0.293 HD
ENDBRANCH   6  26
ENDBRANCH   1   3
BRANCH   1  28
ATOM     28  C   UNL A   1      43.197  19.458  25.587  1.00  0.00     0.227 C 
ATOM     29  O   UNL A   1      43.260  18.359  25.021  1.00  0.00    -0.274 OA
ATOM     30  N   UNL A   1      43.970  20.450  25.067  1.00  0.00    -0.356 N 
ATOM     31  H   UNL A   1      44.463  20.193  24.254  1.00  0.00     0.163 HD
BRANCH  30  32
ATOM     32  C   UNL A   1      44.199  21.816  25.489  1.00  0.00     0.116 C 
BRANCH  32  33
ATOM     33  C   UNL A   1      44.428  22.751  24.301  1.00  0.00     0.023 C 
BRANCH  33  34
ATOM     34  C   UNL A   1      45.217  24.017  24.622  1.00  0.00     0.023 C 
BRANCH  34  35
ATOM     35  C   UNL A   1      44.371  25.230  24.985  1.00  0.00     0.116 C 
BRANCH  35  36
ATOM     36  N   UNL A   1      42.962  24.928  25.201  1.00  0.00    -0.352 N 
ATOM     37  C   UNL A   1      42.031  25.680  25.882  1.00  0.00     0.251 C 
ATOM     38  H   UNL A   1      42.636  24.083  24.812  1.00  0.00     0.163 HD
ATOM     39  O   UNL A   1      40.896  25.252  26.059  1.00  0.00    -0.269 OA
BRANCH  37  40
ATOM     40  C   UNL A   1      42.447  26.985  26.439  1.00  0.00     0.039 A 
ATOM     41  C   UNL A   1      41.897  28.155  25.911  1.00  0.00     0.014 A 
ATOM     42  C   UNL A   1      43.301  27.037  27.543  1.00  0.00     0.014 A 
ATOM     43  C   UNL A   1      42.142  29.374  26.546  1.00  0.00     0.010 A 
ATOM     44  C   UNL A   1      43.468  28.236  28.223  1.00  0.00     0.010 A 
ATOM     45  C   UNL A   1      42.891  29.418  27.734  1.00  0.00    -0.014 A 
BRANCH  45  46
ATOM     46  C   UNL A   1      43.086  30.688  28.480  1.00  0.00     0.031 A 
ATOM     47  C   UNL A   1      44.205  31.617  28.097  1.00  0.00     0.074 A 
ATOM     48  C   UNL A   1      42.313  30.962  29.549  1.00  0.00     0.049 A 
ATOM     49  N   UNL A   1      44.596  32.726  28.670  1.00  0.00    -0.248 NA
ATOM     50  C   UNL A   1      45.022  31.219  26.940  1.00  0.00     0.031 C 
ATOM     51  C   UNL A   1      41.240  30.103  30.059  1.00  0.00     0.029 A 
ATOM     52  N   UNL A   1      42.319  32.029  30.413  1.00  0.00    -0.354 N 
ATOM     53  C   UNL A   1      45.717  33.144  27.960  1.00  0.00     0.074 A 
ATOM     54  C   UNL A   1      45.980  32.130  26.962  1.00  0.00     0.031 C 
ATOM     55  C   UNL A   1      40.680  30.688  31.130  1.00  0.00     0.029 A 
ATOM     56  C   UNL A   1      41.379  31.938  31.413  1.00  0.00     0.049 A 
ATOM     57  H   UNL A   1      42.938  32.789  30.324  1.00  0.00     0.167 HD
ATOM     58  C   UNL A   1      46.441  34.280  28.110  1.00  0.00     0.034 A 
ATOM     59  C   UNL A   1      41.117  32.758  32.450  1.00  0.00     0.034 A 
ATOM     60  C   UNL A   1      46.146  35.287  29.102  1.00  0.00     0.049 A 
ATOM     61  C   UNL A   1      41.927  34.021  32.596  1.00  0.00     0.074 A 
ATOM     62  C   UNL A   1      46.754  36.515  29.290  1.00  0.00     0.029 A 
ATOM     63  N   UNL A   1      45.168  35.174  30.083  1.00  0.00    -0.354 N 
ATOM     64  N   UNL A   1      42.932  34.446  31.866  1.00  0.00    -0.248 NA
ATOM     65  C   UNL A   1      41.557  34.920  33.695  1.00  0.00     0.031 C 
ATOM     66  C   UNL A   1      46.198  37.109  30.429  1.00  0.00     0.029 A 
ATOM     67  C   UNL A   1      45.183  36.292  30.903  1.00  0.00     0.049 A 
ATOM     68  H   UNL A   1      44.553  34.411  30.182  1.00  0.00     0.167 HD
ATOM     69  C   UNL A   1      43.299  35.677  32.404  1.00  0.00     0.074 A 
ATOM     70  C   UNL A   1      42.396  35.929  33.509  1.00  0.00     0.031 C 
ATOM     71  C   UNL A   1      44.289  36.523  32.017  1.00  0.00     0.034 A 
BRANCH  58  72
ATOM     72  C   UNL A   1      47.635  34.468  27.201  1.00  0.00     0.023 A 
ATOM     73  C   UNL A   1      48.932  34.090  27.591  1.00  0.00     0.031 A 
ATOM     74  C   UNL A   1      47.483  35.083  25.945  1.00  0.00     0.131 A 
ATOM     75  C   UNL A   1      50.033  34.420  26.786  1.00  0.00     0.055 A 
ATOM     76  C   UNL A   1      48.573  35.322  25.104  1.00  0.00     0.041 A 
ATOM     77  F   UNL A   1      46.275  35.486  25.522  1.00  0.00    -0.206 F 
ATOM     78  C   UNL A   1      49.859  35.010  25.532  1.00  0.00     0.022 A 
BRANCH  75  79
ATOM     79  S   UNL A   1      51.699  34.234  27.479  1.00  0.00     0.124 S 
ATOM     80  O   UNL A   1      52.536  34.625  26.345  1.00  0.00    -0.237 OA
ATOM     81  O   UNL A   1      51.676  35.162  28.604  1.00  0.00    -0.237 OA
ATOM     82  O   UNL A   1      51.768  32.819  27.835  1.00  0.00    -0.744 OA
ENDBRANCH  75  79
ENDBRANCH  58  72
BRANCH  59  83
ATOM     83  C   UNL A   1      40.055  32.405  33.434  1.00  0.00     0.023 A 
ATOM     84  C   UNL A   1      38.787  33.005  33.386  1.00  0.00     0.031 A 
ATOM     85  C   UNL A   1      40.300  31.460  34.447  1.00  0.00     0.131 A 
ATOM     86  C   UNL A   1      37.821  32.678  34.352  1.00  0.00     0.055 A 
ATOM     87  C   UNL A   1      39.321  31.102  35.375  1.00  0.00     0.041 A 
ATOM     88  F   UNL A   1      41.493  30.850  34.532  1.00  0.00    -0.206 F 
ATOM     89  C   UNL A   1      38.076  31.721  35.338  1.00  0.00     0.022 A 
BRANCH  86  90
ATOM     90  S   UNL A   1      36.240  33.567  34.341  1.00  0.00     0.124 S 
ATOM     91  O   UNL A   1      35.873  33.541  35.752  1.00  0.00    -0.237 OA
ATOM     92  O   UNL A   1      36.627  34.868  33.804  1.00  0.00    -0.237 OA
ATOM     93  O   UNL A   1      35.400  32.757  33.460  1.00  0.00    -0.744 OA
ENDBRANCH  86  90
ENDBRANCH  59  83
BRANCH  71  94
ATOM     94  C   UNL A   1      44.418  37.822  32.774  1.00  0.00     0.023 A 
ATOM     95  C   UNL A   1      43.561  38.911  32.532  1.00  0.00     0.031 A 
ATOM     96  C   UNL A   1      45.417  37.973  33.754  1.00  0.00     0.131 A 
ATOM     97  C   UNL A   1      43.754  40.118  33.222  1.00  0.00     0.055 A 
ATOM     98  C   UNL A   1      45.563  39.154  34.481  1.00  0.00     0.041 A 
ATOM     99  F   UNL A   1      46.267  36.968  34.023  1.00  0.00    -0.206 F 
ATOM    100  C   UNL A   1      44.737  40.240  34.207  1.00  0.00     0.022 A 
BRANCH  97 101
ATOM    101  S   UNL A   1      42.764  41.561  32.746  1.00  0.00     0.124 S 
ATOM    102  O   UNL A   1      43.793  42.565  32.494  1.00  0.00    -0.237 OA
ATOM    103  O   UNL A   1      42.046  41.075  31.572  1.00  0.00    -0.237 OA
ATOM    104  O   UNL A   1      41.931  41.809  33.922  1.00  0.00    -0.744 OA
ENDBRANCH  97 101
ENDBRANCH  71  94
ENDBRANCH  45  46
ENDBRANCH  37  40
ENDBRANCH  35  36
ENDBRANCH  34  35
ENDBRANCH  33  34
ENDBRANCH  32  33
ENDBRANCH  30  32
ENDBRANCH   1  28
TORSDOF 24
ENDMDL
MODEL 2
REMARK VINA RESULT:     -10.2      6.183     15.773
REMARK SMILES CCCCCCNC(=O)Oc1cccc(-c2ccc([C@@H](C)C(=O)NCCCCNC(=O)c3ccc(-c4c5nc(c(-c6cc(S(=O)(=O)[O-])ccc6F)c6ccc([nH]6)c(-c6cc(S(=O)(=O)[O-])ccc6F)c6nc(c(-c7cc(S(=O)(=O)[O-])ccc7F)c7ccc4[nH]7)C=C6)C=C5)cc3)cc2O)c1
REMARK SMILES IDX 20 1 21 2 19 3 16 4 17 5 96 6 18 7 95 8 15 9 11 10 12 11
REMARK SMILES IDX 98 12 13 13 14 14 10 15 8 16 7 17 9 19 6 20 5 21 4 22 3 23
REMARK SMILES IDX 2 24 1 25 97 26 22 28 23 29 24 30 25 32 26 33 27 34 28 35
REMARK SMILES IDX 29 36 30 37 31 39 32 40 33 41 94 42 34 43 93 44 35 45 36 46
REMARK SMILES IDX 37 47 87 48 38 49 92 50 86 51 88 52 39 53 91 54 85 55 84 56
REMARK SMILES IDX 40 58 72 59 52 60 71 61 53 62 56 63 70 64 89 65 54 66 55 67
REMARK SMILES IDX 69 69 90 70 57 71 41 72 42 73 50 74 43 75 49 76 51 77 48 78
REMARK SMILES IDX 44 79 45 80 46 81 47 82 73 83 74 84 82 85 75 86 81 87 83 88
REMARK SMILES IDX 80 89 76 90 77 91 78 92 79 93 58 94 59 95 67 96 60 97 66 98
REMARK SMILES IDX 68 99 65 100 61 101 62 102 63 103 64 104
REMARK H PARENT 7 18 97 27 24 31 29 38 88 57 56 68
REMARK Flexibility Score: inf
ROOT
ATOM      1  C   UNL A   1      37.738  33.473  33.787  1.00  0.00     0.105 C 
ATOM      2  C   UNL A   1      36.969  32.152  33.826  1.00  0.00     0.023 C 
ENDROOT
BRANCH   1   3
ATOM      3  C   UNL A   1      38.293  33.943  35.122  1.00  0.00    -0.032 A 
ATOM      4  C   UNL A   1      39.236  34.977  37.626  1.00  0.00     0.024 A 
ATOM      5  C   UNL A   1      38.453  33.813  37.547  1.00  0.00     0.013 A 
ATOM      6  C   UNL A   1      39.583  35.573  36.400  1.00  0.00     0.123 A 
ATOM      7  C   UNL A   1      38.043  33.278  36.322  1.00  0.00     0.005 A 
ATOM      8  C   UNL A   1      39.086  35.098  35.179  1.00  0.00     0.051 A 
BRANCH   4   9
ATOM      9  C   UNL A   1      39.640  35.495  38.956  1.00  0.00    -0.011 A 
ATOM     10  C   UNL A   1      39.564  37.175  40.713  1.00  0.00     0.133 A 
ATOM     11  C   UNL A   1      40.460  36.452  41.494  1.00  0.00     0.047 A 
ATOM     12  C   UNL A   1      39.136  36.703  39.470  1.00  0.00     0.056 A 
ATOM     13  C   UNL A   1      40.939  35.237  41.025  1.00  0.00     0.004 A 
ATOM     14  C   UNL A   1      40.546  34.776  39.765  1.00  0.00     0.009 A 
BRANCH  10  15
ATOM     15  O   UNL A   1      39.254  38.471  41.158  1.00  0.00    -0.410 OA
BRANCH  15  16
ATOM     16  C   UNL A   1      39.932  39.010  42.240  1.00  0.00     0.412 C 
ATOM     17  N   UNL A   1      40.684  40.101  41.898  1.00  0.00    -0.321 N 
ATOM     18  H   UNL A   1      41.223  40.508  42.614  1.00  0.00     0.167 HD
ATOM     19  O   UNL A   1      39.898  38.594  43.389  1.00  0.00    -0.224 OA
BRANCH  17  20
ATOM     20  C   UNL A   1      40.766  40.717  40.589  1.00  0.00     0.119 C 
BRANCH  20  21
ATOM     21  C   UNL A   1      39.804  41.896  40.451  1.00  0.00     0.021 C 
BRANCH  21  22
ATOM     22  C   UNL A   1      40.125  43.094  41.354  1.00  0.00     0.002 C 
BRANCH  22  23
ATOM     23  C   UNL A   1      38.910  43.872  41.869  1.00  0.00    -0.000 C 
BRANCH  23  24
ATOM     24  C   UNL A   1      38.730  45.273  41.281  1.00  0.00    -0.003 C 
ATOM     25  C   UNL A   1      39.553  46.333  41.995  1.00  0.00     0.004 C 
ENDBRANCH  23  24
ENDBRANCH  22  23
ENDBRANCH  21  22
ENDBRANCH  20  21
ENDBRANCH  17  20
ENDBRANCH  15  16
ENDBRANCH  10  15
ENDBRANCH   4   9
BRANCH   6  26
ATOM     26  O   UNL A   1      40.460  36.622  36.301  1.00  0.00    -0.507 OA
ATOM     27  H   UNL A   1      40.138  37.502  36.283  1.00  0.00     0.293 HD
ENDBRANCH   6  26
ENDBRANCH   1   3
BRANCH   1  28
ATOM     28  C   UNL A   1      37.047  34.573  32.967  1.00  0.00     0.227 C 
ATOM     29  O   UNL A   1      36.141  35.241  33.482  1.00  0.00    -0.274 OA
ATOM     30  N   UNL A   1      37.384  34.896  31.688  1.00  0.00    -0.356 N 
ATOM     31  H   UNL A   1      36.895  35.671  31.327  1.00  0.00     0.163 HD
BRANCH  30  32
ATOM     32  C   UNL A   1      38.329  34.310  30.762  1.00  0.00     0.116 C 
BRANCH  32  33
ATOM     33  C   UNL A   1      37.687  33.223  29.899  1.00  0.00     0.023 C 
BRANCH  33  34
ATOM     34  C   UNL A   1      36.224  33.469  29.540  1.00  0.00     0.023 C 
BRANCH  34  35
ATOM     35  C   UNL A   1      35.892  33.339  28.060  1.00  0.00     0.116 C 
BRANCH  35  36
ATOM     36  N   UNL A   1      34.702  32.544  27.786  1.00  0.00    -0.352 N 
ATOM     37  C   UNL A   1      34.573  31.173  27.832  1.00  0.00     0.251 C 
ATOM     38  H   UNL A   1      33.891  33.048  27.540  1.00  0.00     0.163 HD
ATOM     39  O   UNL A   1      33.526  30.636  27.488  1.00  0.00    -0.269 OA
BRANCH  37  40
ATOM     40  C   UNL A   1      35.738  30.367  28.251  1.00  0.00     0.039 A 
ATOM     41  C   UNL A   1      36.846  30.283  27.406  1.00  0.00     0.014 A 
ATOM     42  C   UNL A   1      35.766  29.780  29.518  1.00  0.00     0.014 A 
ATOM     43  C   UNL A   1      38.016  29.677  27.868  1.00  0.00     0.010 A 
ATOM     44  C   UNL A   1      36.958  29.260  30.006  1.00  0.00     0.010 A 
ATOM     45  C   UNL A   1      38.097  29.203  29.188  1.00  0.00    -0.014 A 
BRANCH  45  46
ATOM     46  C   UNL A   1      39.359  28.641  29.733  1.00  0.00     0.031 A 
ATOM     47  C   UNL A   1      40.027  29.302  30.908  1.00  0.00     0.074 A 
ATOM     48  C   UNL A   1      39.947  27.595  29.121  1.00  0.00     0.049 A 
ATOM     49  N   UNL A   1      41.170  29.023  31.480  1.00  0.00    -0.248 NA
ATOM     50  C   UNL A   1      39.332  30.462  31.490  1.00  0.00     0.031 C 
ATOM     51  C   UNL A   1      39.430  26.912  27.930  1.00  0.00     0.029 A 
ATOM     52  N   UNL A   1      41.115  26.929  29.400  1.00  0.00    -0.354 N 
ATOM     53  C   UNL A   1      41.344  29.985  32.469  1.00  0.00     0.074 A 
ATOM     54  C   UNL A   1      40.222  30.894  32.369  1.00  0.00     0.031 C 
ATOM     55  C   UNL A   1      40.265  25.916  27.597  1.00  0.00     0.029 A 
ATOM     56  C   UNL A   1      41.398  25.912  28.518  1.00  0.00     0.049 A 
ATOM     57  H   UNL A   1      41.695  27.158  30.161  1.00  0.00     0.167 HD
ATOM     58  C   UNL A   1      42.333  30.085  33.390  1.00  0.00     0.034 A 
ATOM     59  C   UNL A   1      42.456  25.080  28.447  1.00  0.00     0.034 A 
ATOM     60  C   UNL A   1      43.433  29.155  33.481  1.00  0.00     0.049 A 
ATOM     61  C   UNL A   1      43.542  25.200  29.485  1.00  0.00     0.074 A 
ATOM     62  C   UNL A   1      44.443  29.104  34.425  1.00  0.00     0.029 A 
ATOM     63  N   UNL A   1      43.674  28.118  32.586  1.00  0.00    -0.354 N 
ATOM     64  N   UNL A   1      43.653  26.064  30.468  1.00  0.00    -0.248 NA
ATOM     65  C   UNL A   1      44.637  24.226  29.413  1.00  0.00     0.031 C 
ATOM     66  C   UNL A   1      45.336  28.090  34.057  1.00  0.00     0.029 A 
ATOM     67  C   UNL A   1      44.838  27.449  32.933  1.00  0.00     0.049 A 
ATOM     68  H   UNL A   1      43.101  27.892  31.818  1.00  0.00     0.167 HD
ATOM     69  C   UNL A   1      44.819  25.720  31.148  1.00  0.00     0.074 A 
ATOM     70  C   UNL A   1      45.364  24.561  30.469  1.00  0.00     0.031 C 
ATOM     71  C   UNL A   1      45.383  26.305  32.235  1.00  0.00     0.034 A 
BRANCH  58  72
ATOM     72  C   UNL A   1      42.279  31.259  34.342  1.00  0.00     0.023 A 
ATOM     73  C   UNL A   1      42.899  32.486  34.045  1.00  0.00     0.031 A 
ATOM     74  C   UNL A   1      41.643  31.134  35.591  1.00  0.00     0.131 A 
ATOM     75  C   UNL A   1      42.959  33.497  35.016  1.00  0.00     0.055 A 
ATOM     76  C   UNL A   1      41.623  32.179  36.517  1.00  0.00     0.041 A 
ATOM     77  F   UNL A   1      41.050  29.982  35.944  1.00  0.00    -0.206 F 
ATOM     78  C   UNL A   1      42.302  33.362  36.240  1.00  0.00     0.022 A 
BRANCH  75  79
ATOM     79  S   UNL A   1      44.059  34.911  34.726  1.00  0.00     0.124 S 
ATOM     80  O   UNL A   1      43.224  36.028  35.163  1.00  0.00    -0.237 OA
ATOM     81  O   UNL A   1      45.203  34.598  35.575  1.00  0.00    -0.237 OA
ATOM     82  O   UNL A   1      44.314  34.859  33.289  1.00  0.00    -0.744 OA
ENDBRANCH  75  79
ENDBRANCH  58  72
BRANCH  59  83
ATOM     83  C   UNL A   1      42.545  24.075  27.350  1.00  0.00     0.023 A 
ATOM     84  C   UNL A   1      41.984  22.796  27.486  1.00  0.00     0.031 A 
ATOM     85  C   UNL A   1      43.205  24.382  26.146  1.00  0.00     0.131 A 
ATOM     86  C   UNL A   1      42.119  21.859  26.448  1.00  0.00     0.055 A 
ATOM     87  C   UNL A   1      43.294  23.464  25.099  1.00  0.00     0.041 A 
ATOM     88  F   UNL A   1      43.752  25.594  25.962  1.00  0.00    -0.206 F 
ATOM     89  C   UNL A   1      42.758  22.189  25.251  1.00  0.00     0.022 A 
BRANCH  86  90
ATOM     90  S   UNL A   1      41.497  20.174  26.707  1.00  0.00     0.124 S 
ATOM     91  O   UNL A   1      40.719  19.954  25.493  1.00  0.00    -0.237 OA
ATOM     92  O   UNL A   1      42.734  19.408  26.824  1.00  0.00    -0.237 OA
ATOM     93  O   UNL A   1      40.717  20.284  27.939  1.00  0.00    -0.744 OA
ENDBRANCH  86  90
ENDBRANCH  59  83
BRANCH  71  94
ATOM     94  C   UNL A   1      46.640  25.672  32.782  1.00  0.00     0.023 A 
ATOM     95  C   UNL A   1      47.887  25.835  32.154  1.00  0.00     0.031 A 
ATOM     96  C   UNL A   1      46.585  24.890  33.951  1.00  0.00     0.131 A 
ATOM     97  C   UNL A   1      49.018  25.182  32.668  1.00  0.00     0.055 A 
ATOM     98  C   UNL A   1      47.725  24.296  34.492  1.00  0.00     0.041 A 
ATOM     99  F   UNL A   1      45.420  24.695  34.589  1.00  0.00    -0.206 F 
ATOM    100  C   UNL A   1      48.948  24.429  33.842  1.00  0.00     0.022 A 
BRANCH  97 101
ATOM    101  S   UNL A   1      50.567  25.250  31.725  1.00  0.00     0.124 S 
ATOM    102  O   UNL A   1      50.985  23.852  31.728  1.00  0.00    -0.237 OA
ATOM    103  O   UNL A   1      50.127  25.783  30.440  1.00  0.00    -0.237 OA
ATOM    104  O   UNL A   1      51.408  26.150  32.513  1.00  0.00    -0.744 OA
ENDBRANCH  97 101
ENDBRANCH  71  94
ENDBRANCH  45  46
ENDBRANCH  37  40
ENDBRANCH  35  36
ENDBRANCH  34  35
ENDBRANCH  33  34
ENDBRANCH  32  33
ENDBRANCH  30  32
ENDBRANCH   1  28
TORSDOF 24
ENDMDL
MODEL 3
REMARK VINA RESULT:     -10.2      4.524      9.020
REMARK SMILES CCCCCCNC(=O)Oc1cccc(-c2ccc([C@@H](C)C(=O)NCCCCNC(=O)c3ccc(-c4c5nc(c(-c6cc(S(=O)(=O)[O-])ccc6F)c6ccc([nH]6)c(-c6cc(S(=O)(=O)[O-])ccc6F)c6nc(c(-c7cc(S(=O)(=O)[O-])ccc7F)c7ccc4[nH]7)C=C6)C=C5)cc3)cc2O)c1
REMARK SMILES IDX 20 1 21 2 19 3 16 4 17 5 96 6 18 7 95 8 15 9 11 10 12 11
REMARK SMILES IDX 98 12 13 13 14 14 10 15 8 16 7 17 9 19 6 20 5 21 4 22 3 23
REMARK SMILES IDX 2 24 1 25 97 26 22 28 23 29 24 30 25 32 26 33 27 34 28 35
REMARK SMILES IDX 29 36 30 37 31 39 32 40 33 41 94 42 34 43 93 44 35 45 36 46
REMARK SMILES IDX 37 47 87 48 38 49 92 50 86 51 88 52 39 53 91 54 85 55 84 56
REMARK SMILES IDX 40 58 72 59 52 60 71 61 53 62 56 63 70 64 89 65 54 66 55 67
REMARK SMILES IDX 69 69 90 70 57 71 41 72 42 73 50 74 43 75 49 76 51 77 48 78
REMARK SMILES IDX 44 79 45 80 46 81 47 82 73 83 74 84 82 85 75 86 81 87 83 88
REMARK SMILES IDX 80 89 76 90 77 91 78 92 79 93 58 94 59 95 67 96 60 97 66 98
REMARK SMILES IDX 68 99 65 100 61 101 62 102 63 103 64 104
REMARK H PARENT 7 18 97 27 24 31 29 38 88 57 56 68
REMARK Flexibility Score: inf
ROOT
ATOM      1  C   UNL A   1      36.048  32.778  29.315  1.00  0.00     0.105 C 
ATOM      2  C   UNL A   1      37.402  33.212  28.752  1.00  0.00     0.023 C 
ENDROOT
BRANCH   1   3
ATOM      3  C   UNL A   1      35.398  31.598  28.611  1.00  0.00    -0.032 A 
ATOM      4  C   UNL A   1      34.184  29.465  27.125  1.00  0.00     0.024 A 
ATOM      5  C   UNL A   1      35.451  29.334  27.718  1.00  0.00     0.013 A 
ATOM      6  C   UNL A   1      33.518  30.682  27.354  1.00  0.00     0.123 A 
ATOM      7  C   UNL A   1      36.017  30.354  28.490  1.00  0.00     0.005 A 
ATOM      8  C   UNL A   1      34.126  31.742  28.039  1.00  0.00     0.051 A 
BRANCH   4   9
ATOM      9  C   UNL A   1      33.639  28.346  26.318  1.00  0.00    -0.011 A 
ATOM     10  C   UNL A   1      32.235  26.376  26.062  1.00  0.00     0.133 A 
ATOM     11  C   UNL A   1      32.642  26.212  24.742  1.00  0.00     0.047 A 
ATOM     12  C   UNL A   1      32.703  27.437  26.841  1.00  0.00     0.056 A 
ATOM     13  C   UNL A   1      33.534  27.122  24.191  1.00  0.00     0.004 A 
ATOM     14  C   UNL A   1      34.037  28.163  24.977  1.00  0.00     0.009 A 
BRANCH  10  15
ATOM     15  O   UNL A   1      31.474  25.332  26.613  1.00  0.00    -0.410 OA
BRANCH  15  16
ATOM     16  C   UNL A   1      30.416  24.795  25.898  1.00  0.00     0.412 C 
ATOM     17  N   UNL A   1      30.569  23.457  25.660  1.00  0.00    -0.321 N 
ATOM     18  H   UNL A   1      29.870  23.021  25.119  1.00  0.00     0.167 HD
ATOM     19  O   UNL A   1      29.435  25.406  25.498  1.00  0.00    -0.224 OA
BRANCH  17  20
ATOM     20  C   UNL A   1      31.655  22.615  26.121  1.00  0.00     0.119 C 
BRANCH  20  21
ATOM     21  C   UNL A   1      32.334  21.876  24.969  1.00  0.00     0.021 C 
BRANCH  21  22
ATOM     22  C   UNL A   1      32.497  20.366  25.183  1.00  0.00     0.002 C 
BRANCH  22  23
ATOM     23  C   UNL A   1      32.310  19.501  23.933  1.00  0.00    -0.000 C 
BRANCH  23  24
ATOM     24  C   UNL A   1      32.573  18.006  24.124  1.00  0.00    -0.003 C 
ATOM     25  C   UNL A   1      33.509  17.423  23.076  1.00  0.00     0.004 C 
ENDBRANCH  23  24
ENDBRANCH  22  23
ENDBRANCH  21  22
ENDBRANCH  20  21
ENDBRANCH  17  20
ENDBRANCH  15  16
ENDBRANCH  10  15
ENDBRANCH   4   9
BRANCH   6  26
ATOM     26  O   UNL A   1      32.221  30.906  26.971  1.00  0.00    -0.507 OA
ATOM     27  H   UNL A   1      31.874  31.778  26.976  1.00  0.00     0.293 HD
ENDBRANCH   6  26
ENDBRANCH   1   3
BRANCH   1  28
ATOM     28  C   UNL A   1      35.091  33.944  29.610  1.00  0.00     0.227 C 
ATOM     29  O   UNL A   1      34.950  34.844  28.772  1.00  0.00    -0.274 OA
ATOM     30  N   UNL A   1      34.346  34.050  30.743  1.00  0.00    -0.356 N 
ATOM     31  H   UNL A   1      33.729  34.818  30.749  1.00  0.00     0.163 HD
BRANCH  30  32
ATOM     32  C   UNL A   1      34.292  33.241  31.942  1.00  0.00     0.116 C 
BRANCH  32  33
ATOM     33  C   UNL A   1      35.593  32.471  32.173  1.00  0.00     0.023 C 
BRANCH  33  34
ATOM     34  C   UNL A   1      36.606  33.177  33.070  1.00  0.00     0.023 C 
BRANCH  34  35
ATOM     35  C   UNL A   1      37.626  32.262  33.736  1.00  0.00     0.116 C 
BRANCH  35  36
ATOM     36  N   UNL A   1      37.286  30.846  33.667  1.00  0.00    -0.352 N 
ATOM     37  C   UNL A   1      37.939  29.855  32.969  1.00  0.00     0.251 C 
ATOM     38  H   UNL A   1      36.495  30.565  34.183  1.00  0.00     0.163 HD
ATOM     39  O   UNL A   1      37.483  28.717  32.933  1.00  0.00    -0.269 OA
BRANCH  37  40
ATOM     40  C   UNL A   1      39.166  30.204  32.223  1.00  0.00     0.039 A 
ATOM     41  C   UNL A   1      39.075  30.484  30.859  1.00  0.00     0.014 A 
ATOM     42  C   UNL A   1      40.380  30.349  32.899  1.00  0.00     0.014 A 
ATOM     43  C   UNL A   1      40.191  30.989  30.187  1.00  0.00     0.010 A 
ATOM     44  C   UNL A   1      41.459  30.937  32.250  1.00  0.00     0.010 A 
ATOM     45  C   UNL A   1      41.377  31.264  30.887  1.00  0.00    -0.014 A 
BRANCH  45  46
ATOM     46  C   UNL A   1      42.545  31.890  30.216  1.00  0.00     0.031 A 
ATOM     47  C   UNL A   1      43.782  31.076  29.952  1.00  0.00     0.074 A 
ATOM     48  C   UNL A   1      42.524  33.206  29.924  1.00  0.00     0.049 A 
ATOM     49  N   UNL A   1      44.934  31.452  29.458  1.00  0.00    -0.248 NA
ATOM     50  C   UNL A   1      43.729  29.658  30.339  1.00  0.00     0.031 C 
ATOM     51  C   UNL A   1      41.406  34.114  30.196  1.00  0.00     0.029 A 
ATOM     52  N   UNL A   1      43.473  34.014  29.350  1.00  0.00    -0.354 N 
ATOM     53  C   UNL A   1      45.748  30.326  29.497  1.00  0.00     0.074 A 
ATOM     54  C   UNL A   1      44.978  29.276  30.129  1.00  0.00     0.031 C 
ATOM     55  C   UNL A   1      41.727  35.346  29.771  1.00  0.00     0.029 A 
ATOM     56  C   UNL A   1      43.085  35.330  29.238  1.00  0.00     0.049 A 
ATOM     57  H   UNL A   1      44.349  33.684  29.048  1.00  0.00     0.167 HD
ATOM     58  C   UNL A   1      47.011  30.175  29.026  1.00  0.00     0.034 A 
ATOM     59  C   UNL A   1      43.752  36.405  28.772  1.00  0.00     0.034 A 
ATOM     60  C   UNL A   1      47.752  31.233  28.382  1.00  0.00     0.049 A 
ATOM     61  C   UNL A   1      45.151  36.217  28.244  1.00  0.00     0.074 A 
ATOM     62  C   UNL A   1      48.999  31.173  27.789  1.00  0.00     0.029 A 
ATOM     63  N   UNL A   1      47.317  32.549  28.260  1.00  0.00    -0.354 N 
ATOM     64  N   UNL A   1      45.881  35.125  28.211  1.00  0.00    -0.248 NA
ATOM     65  C   UNL A   1      45.810  37.400  27.679  1.00  0.00     0.031 C 
ATOM     66  C   UNL A   1      49.352  32.465  27.379  1.00  0.00     0.029 A 
ATOM     67  C   UNL A   1      48.289  33.317  27.638  1.00  0.00     0.049 A 
ATOM     68  H   UNL A   1      46.445  32.885  28.571  1.00  0.00     0.167 HD
ATOM     69  C   UNL A   1      47.078  35.487  27.597  1.00  0.00     0.074 A 
ATOM     70  C   UNL A   1      46.962  36.893  27.265  1.00  0.00     0.031 C 
ATOM     71  C   UNL A   1      48.169  34.725  27.330  1.00  0.00     0.034 A 
BRANCH  58  72
ATOM     72  C   UNL A   1      47.669  28.828  29.225  1.00  0.00     0.023 A 
ATOM     73  C   UNL A   1      47.495  27.774  28.310  1.00  0.00     0.031 A 
ATOM     74  C   UNL A   1      48.441  28.575  30.373  1.00  0.00     0.131 A 
ATOM     75  C   UNL A   1      47.993  26.496  28.606  1.00  0.00     0.055 A 
ATOM     76  C   UNL A   1      49.016  27.326  30.615  1.00  0.00     0.041 A 
ATOM     77  F   UNL A   1      48.629  29.533  31.296  1.00  0.00    -0.206 F 
ATOM     78  C   UNL A   1      48.776  26.271  29.740  1.00  0.00     0.022 A 
BRANCH  75  79
ATOM     79  S   UNL A   1      47.450  25.098  27.585  1.00  0.00     0.124 S 
ATOM     80  O   UNL A   1      46.486  24.444  28.469  1.00  0.00    -0.237 OA
ATOM     81  O   UNL A   1      46.894  25.762  26.413  1.00  0.00    -0.237 OA
ATOM     82  O   UNL A   1      48.680  24.344  27.353  1.00  0.00    -0.744 OA
ENDBRANCH  75  79
ENDBRANCH  58  72
BRANCH  59  83
ATOM     83  C   UNL A   1      43.112  37.750  28.797  1.00  0.00     0.023 A 
ATOM     84  C   UNL A   1      43.322  38.639  29.864  1.00  0.00     0.031 A 
ATOM     85  C   UNL A   1      42.268  38.164  27.751  1.00  0.00     0.131 A 
ATOM     86  C   UNL A   1      42.672  39.884  29.875  1.00  0.00     0.055 A 
ATOM     87  C   UNL A   1      41.663  39.422  27.743  1.00  0.00     0.041 A 
ATOM     88  F   UNL A   1      42.040  37.355  26.703  1.00  0.00    -0.206 F 
ATOM     89  C   UNL A   1      41.855  40.286  28.815  1.00  0.00     0.022 A 
BRANCH  86  90
ATOM     90  S   UNL A   1      42.862  40.954  31.328  1.00  0.00     0.124 S 
ATOM     91  O   UNL A   1      41.482  41.345  31.593  1.00  0.00    -0.237 OA
ATOM     92  O   UNL A   1      43.468  40.046  32.297  1.00  0.00    -0.237 OA
ATOM     93  O   UNL A   1      43.735  42.025  30.851  1.00  0.00    -0.744 OA
ENDBRANCH  86  90
ENDBRANCH  59  83
BRANCH  71  94
ATOM     94  C   UNL A   1      49.313  35.393  26.604  1.00  0.00     0.023 A 
ATOM     95  C   UNL A   1      50.384  35.987  27.295  1.00  0.00     0.031 A 
ATOM     96  C   UNL A   1      49.327  35.437  25.198  1.00  0.00     0.131 A 
ATOM     97  C   UNL A   1      51.396  36.645  26.579  1.00  0.00     0.055 A 
ATOM     98  C   UNL A   1      50.369  36.037  24.491  1.00  0.00     0.041 A 
ATOM     99  F   UNL A   1      48.328  34.891  24.486  1.00  0.00    -0.206 F 
ATOM    100  C   UNL A   1      51.405  36.657  25.183  1.00  0.00     0.022 A 
BRANCH  97 101
ATOM    101  S   UNL A   1      52.655  37.570  27.502  1.00  0.00     0.124 S 
ATOM    102  O   UNL A   1      52.177  37.446  28.875  1.00  0.00    -0.237 OA
ATOM    103  O   UNL A   1      53.877  36.838  27.183  1.00  0.00    -0.237 OA
ATOM    104  O   UNL A   1      52.575  38.915  26.936  1.00  0.00    -0.744 OA
ENDBRANCH  97 101
ENDBRANCH  71  94
ENDBRANCH  45  46
ENDBRANCH  37  40
ENDBRANCH  35  36
ENDBRANCH  34  35
ENDBRANCH  33  34
ENDBRANCH  32  33
ENDBRANCH  30  32
ENDBRANCH   1  28
TORSDOF 24
ENDMDL
