MODEL 1
REMARK VINA RESULT:     -13.5      0.000      0.000
REMARK SMILES Cc1n[nH]c(C[N@H+]2CCC[C@H](c3cccc(C(=O)NCCCCNC(=O)c4ccc(-c5c6nc(c(-c7cc(S(=O)(=O)[O-])ccc7F)c7ccc([nH]7)c(-c7cc(S(=O)(=O)[O-])ccc7F)c7nc(c(-c8cc(S(=O)(=O)[O-])ccc8F)c8ccc5[nH]8)C=C7)C=C6)cc4)c3)C2)n1
REMARK SMILES IDX 21 1 20 2 19 3 17 4 18 5 16 7 12 8 13 9 90 10 14 11 15 12
REMARK SMILES IDX 11 13 7 14 8 15 91 16 9 18 10 19 6 20 5 21 1 22 2 23 3 24
REMARK SMILES IDX 92 25 4 26 22 28 23 29 24 30 25 31 26 33 27 34 28 35 89 36
REMARK SMILES IDX 29 37 88 38 30 39 31 40 32 41 82 42 33 43 87 44 81 45 83 46
REMARK SMILES IDX 34 47 86 48 80 49 79 50 35 52 67 53 47 54 66 55 48 56 51 57
REMARK SMILES IDX 65 58 84 59 49 60 50 61 64 63 85 64 52 65 36 66 37 67 45 68
REMARK SMILES IDX 38 69 44 70 46 71 43 72 39 73 40 74 41 75 42 76 68 77 69 78
REMARK SMILES IDX 77 79 70 80 76 81 78 82 75 83 71 84 72 85 73 86 74 87 53 88
REMARK SMILES IDX 54 89 62 90 55 91 61 92 63 93 60 94 56 95 57 96 58 97 59 98
REMARK H PARENT 19 6 7 17 4 27 24 32 83 51 51 62
REMARK Flexibility Score: inf
ROOT
ATOM      1  C   UNL A   1      33.411  28.821  24.983  1.00  0.00     0.023 C 
ENDROOT
BRANCH   1   2
ATOM      2  C   UNL A   1      32.156  29.590  24.567  1.00  0.00     0.116 C 
BRANCH   2   3
ATOM      3  N   UNL A   1      31.491  29.103  23.358  1.00  0.00    -0.352 N 
ATOM      4  C   UNL A   1      30.991  27.865  22.985  1.00  0.00     0.251 C 
ATOM      5  O   UNL A   1      30.516  27.740  21.857  1.00  0.00    -0.269 OA
ATOM      6  H   UNL A   1      31.376  29.796  22.668  1.00  0.00     0.163 HD
BRANCH   4   7
ATOM      7  C   UNL A   1      31.088  26.664  23.860  1.00  0.00     0.040 A 
ATOM      8  C   UNL A   1      31.703  24.322  24.051  1.00  0.00    -0.039 A 
ATOM      9  C   UNL A   1      30.863  24.215  25.167  1.00  0.00     0.004 A 
ATOM     10  C   UNL A   1      31.919  25.603  23.534  1.00  0.00     0.018 A 
ATOM     11  C   UNL A   1      30.207  25.340  25.676  1.00  0.00     0.001 A 
ATOM     12  C   UNL A   1      30.277  26.554  24.991  1.00  0.00     0.014 A 
BRANCH   8  13
ATOM     13  C   UNL A   1      32.220  23.122  23.253  1.00  0.00     0.074 C 
ATOM     14  N   UNL A   1      33.619  22.018  24.980  1.00  0.00    -0.328 N 
ATOM     15  C   UNL A   1      34.852  22.343  24.248  1.00  0.00     0.262 C 
ATOM     16  C   UNL A   1      32.476  21.843  24.068  1.00  0.00     0.270 C 
ATOM     17  H   UNL A   1      33.427  22.825  25.574  1.00  0.00     0.348 HD
ATOM     18  C   UNL A   1      34.690  23.557  23.326  1.00  0.00     0.062 C 
ATOM     19  C   UNL A   1      33.483  23.385  22.411  1.00  0.00     0.020 C 
BRANCH  14  20
ATOM     20  C   UNL A   1      33.764  20.873  25.893  1.00  0.00     0.340 C 
BRANCH  20  21
ATOM     21  C   UNL A   1      33.391  19.559  25.297  1.00  0.00     0.179 A 
ATOM     22  C   UNL A   1      33.875  16.511  23.603  1.00  0.00     0.092 C 
ATOM     23  C   UNL A   1      33.372  17.669  24.367  1.00  0.00     0.147 A 
ATOM     24  N   UNL A   1      32.281  17.623  25.139  1.00  0.00    -0.159 NA
ATOM     25  N   UNL A   1      34.041  18.861  24.387  1.00  0.00    -0.211 NA
ATOM     26  N   UNL A   1      32.316  18.832  25.723  1.00  0.00    -0.258 N 
ATOM     27  H   UNL A   1      31.652  19.155  26.375  1.00  0.00     0.192 HD
ENDBRANCH  20  21
ENDBRANCH  14  20
ENDBRANCH   8  13
ENDBRANCH   4   7
ENDBRANCH   2   3
ENDBRANCH   1   2
BRANCH   1  28
ATOM     28  C   UNL A   1      33.497  28.338  26.429  1.00  0.00     0.023 C 
BRANCH  28  29
ATOM     29  C   UNL A   1      34.454  29.126  27.309  1.00  0.00     0.116 C 
BRANCH  29  30
ATOM     30  N   UNL A   1      34.351  30.587  27.172  1.00  0.00    -0.352 N 
ATOM     31  C   UNL A   1      35.158  31.561  27.769  1.00  0.00     0.251 C 
ATOM     32  H   UNL A   1      33.628  30.919  26.593  1.00  0.00     0.163 HD
ATOM     33  O   UNL A   1      34.767  32.705  27.904  1.00  0.00    -0.269 OA
BRANCH  31  34
ATOM     34  C   UNL A   1      36.511  31.153  28.206  1.00  0.00     0.039 A 
ATOM     35  C   UNL A   1      37.218  31.737  29.261  1.00  0.00     0.014 A 
ATOM     36  C   UNL A   1      37.034  30.062  27.532  1.00  0.00     0.014 A 
ATOM     37  C   UNL A   1      38.441  31.167  29.628  1.00  0.00     0.010 A 
ATOM     38  C   UNL A   1      37.999  29.318  28.130  1.00  0.00     0.010 A 
ATOM     39  C   UNL A   1      38.817  29.951  29.039  1.00  0.00    -0.014 A 
BRANCH  39  40
ATOM     40  C   UNL A   1      40.037  29.225  29.334  1.00  0.00     0.031 A 
ATOM     41  C   UNL A   1      40.242  28.957  30.771  1.00  0.00     0.074 A 
ATOM     42  C   UNL A   1      40.748  28.600  28.365  1.00  0.00     0.049 A 
ATOM     43  N   UNL A   1      41.062  29.569  31.551  1.00  0.00    -0.248 NA
ATOM     44  C   UNL A   1      39.309  28.066  31.476  1.00  0.00     0.031 C 
ATOM     45  C   UNL A   1      40.484  28.506  26.922  1.00  0.00     0.029 A 
ATOM     46  N   UNL A   1      41.842  27.810  28.505  1.00  0.00    -0.354 N 
ATOM     47  C   UNL A   1      40.936  28.967  32.795  1.00  0.00     0.074 A 
ATOM     48  C   UNL A   1      39.696  28.238  32.743  1.00  0.00     0.031 C 
ATOM     49  C   UNL A   1      41.263  27.543  26.374  1.00  0.00     0.029 A 
ATOM     50  C   UNL A   1      42.186  27.055  27.386  1.00  0.00     0.049 A 
ATOM     51  H   UNL A   1      42.361  27.774  29.341  1.00  0.00     0.167 HD
ATOM     52  C   UNL A   1      41.985  28.944  33.664  1.00  0.00     0.034 A 
ATOM     53  C   UNL A   1      43.149  26.093  27.316  1.00  0.00     0.034 A 
ATOM     54  C   UNL A   1      43.062  29.780  33.168  1.00  0.00     0.049 A 
ATOM     55  C   UNL A   1      44.102  26.397  28.422  1.00  0.00     0.074 A 
ATOM     56  C   UNL A   1      43.184  31.127  32.887  1.00  0.00     0.029 A 
ATOM     57  N   UNL A   1      44.080  29.160  32.469  1.00  0.00    -0.354 N 
ATOM     58  N   UNL A   1      44.810  27.497  28.457  1.00  0.00    -0.248 NA
ATOM     59  C   UNL A   1      43.854  25.790  29.726  1.00  0.00     0.031 C 
ATOM     60  C   UNL A   1      43.903  31.174  31.654  1.00  0.00     0.029 A 
ATOM     61  C   UNL A   1      44.285  29.874  31.310  1.00  0.00     0.049 A 
ATOM     62  H   UNL A   1      44.570  28.354  32.749  1.00  0.00     0.167 HD
ATOM     63  C   UNL A   1      44.708  27.957  29.763  1.00  0.00     0.074 A 
ATOM     64  C   UNL A   1      44.185  26.816  30.521  1.00  0.00     0.031 C 
ATOM     65  C   UNL A   1      44.752  29.293  30.060  1.00  0.00     0.034 A 
BRANCH  52  66
ATOM     66  C   UNL A   1      42.222  27.939  34.765  1.00  0.00     0.023 A 
ATOM     67  C   UNL A   1      42.970  26.795  34.422  1.00  0.00     0.031 A 
ATOM     68  C   UNL A   1      41.569  27.891  36.013  1.00  0.00     0.131 A 
ATOM     69  C   UNL A   1      42.951  25.646  35.228  1.00  0.00     0.055 A 
ATOM     70  C   UNL A   1      41.606  26.768  36.846  1.00  0.00     0.041 A 
ATOM     71  F   UNL A   1      40.790  28.881  36.463  1.00  0.00    -0.206 F 
ATOM     72  C   UNL A   1      42.270  25.623  36.440  1.00  0.00     0.022 A 
BRANCH  69  73
ATOM     73  S   UNL A   1      43.684  24.129  34.568  1.00  0.00     0.124 S 
ATOM     74  O   UNL A   1      42.520  23.255  34.469  1.00  0.00    -0.237 OA
ATOM     75  O   UNL A   1      44.251  24.593  33.306  1.00  0.00    -0.237 OA
ATOM     76  O   UNL A   1      44.660  23.753  35.589  1.00  0.00    -0.744 OA
ENDBRANCH  69  73
ENDBRANCH  52  66
BRANCH  53  77
ATOM     77  C   UNL A   1      43.056  24.769  26.617  1.00  0.00     0.023 A 
ATOM     78  C   UNL A   1      44.095  24.213  25.830  1.00  0.00     0.031 A 
ATOM     79  C   UNL A   1      41.982  23.901  26.926  1.00  0.00     0.131 A 
ATOM     80  C   UNL A   1      44.025  22.861  25.396  1.00  0.00     0.055 A 
ATOM     81  C   UNL A   1      41.922  22.572  26.501  1.00  0.00     0.041 A 
ATOM     82  F   UNL A   1      40.981  24.293  27.732  1.00  0.00    -0.206 F 
ATOM     83  C   UNL A   1      42.949  22.042  25.740  1.00  0.00     0.022 A 
BRANCH  80  84
ATOM     84  S   UNL A   1      45.383  22.103  24.432  1.00  0.00     0.124 S 
ATOM     85  O   UNL A   1      46.302  21.669  25.477  1.00  0.00    -0.237 OA
ATOM     86  O   UNL A   1      44.698  21.050  23.691  1.00  0.00    -0.237 OA
ATOM     87  O   UNL A   1      45.875  23.207  23.605  1.00  0.00    -0.744 OA
ENDBRANCH  80  84
ENDBRANCH  53  77
BRANCH  65  88
ATOM     88  C   UNL A   1      45.121  30.272  28.953  1.00  0.00     0.023 A 
ATOM     89  C   UNL A   1      46.442  30.624  28.582  1.00  0.00     0.031 A 
ATOM     90  C   UNL A   1      44.078  30.751  28.143  1.00  0.00     0.131 A 
ATOM     91  C   UNL A   1      46.672  31.432  27.449  1.00  0.00     0.055 A 
ATOM     92  C   UNL A   1      44.309  31.527  27.006  1.00  0.00     0.041 A 
ATOM     93  F   UNL A   1      42.801  30.434  28.419  1.00  0.00    -0.206 F 
ATOM     94  C   UNL A   1      45.608  31.875  26.658  1.00  0.00     0.022 A 
BRANCH  91  95
ATOM     95  S   UNL A   1      48.363  31.944  26.990  1.00  0.00     0.124 S 
ATOM     96  O   UNL A   1      48.935  32.403  28.249  1.00  0.00    -0.237 OA
ATOM     97  O   UNL A   1      48.931  30.716  26.440  1.00  0.00    -0.237 OA
ATOM     98  O   UNL A   1      48.142  33.003  26.002  1.00  0.00    -0.744 OA
ENDBRANCH  91  95
ENDBRANCH  65  88
ENDBRANCH  39  40
ENDBRANCH  31  34
ENDBRANCH  29  30
ENDBRANCH  28  29
ENDBRANCH   1  28
TORSDOF 17
ENDMDL
MODEL 2
REMARK VINA RESULT:     -13.4      2.651      7.168
REMARK SMILES Cc1n[nH]c(C[N@H+]2CCC[C@H](c3cccc(C(=O)NCCCCNC(=O)c4ccc(-c5c6nc(c(-c7cc(S(=O)(=O)[O-])ccc7F)c7ccc([nH]7)c(-c7cc(S(=O)(=O)[O-])ccc7F)c7nc(c(-c8cc(S(=O)(=O)[O-])ccc8F)c8ccc5[nH]8)C=C7)C=C6)cc4)c3)C2)n1
REMARK SMILES IDX 21 1 20 2 19 3 17 4 18 5 16 7 12 8 13 9 90 10 14 11 15 12
REMARK SMILES IDX 11 13 7 14 8 15 91 16 9 18 10 19 6 20 5 21 1 22 2 23 3 24
REMARK SMILES IDX 92 25 4 26 22 28 23 29 24 30 25 31 26 33 27 34 28 35 89 36
REMARK SMILES IDX 29 37 88 38 30 39 31 40 32 41 82 42 33 43 87 44 81 45 83 46
REMARK SMILES IDX 34 47 86 48 80 49 79 50 35 52 67 53 47 54 66 55 48 56 51 57
REMARK SMILES IDX 65 58 84 59 49 60 50 61 64 63 85 64 52 65 36 66 37 67 45 68
REMARK SMILES IDX 38 69 44 70 46 71 43 72 39 73 40 74 41 75 42 76 68 77 69 78
REMARK SMILES IDX 77 79 70 80 76 81 78 82 75 83 71 84 72 85 73 86 74 87 53 88
REMARK SMILES IDX 54 89 62 90 55 91 61 92 63 93 60 94 56 95 57 96 58 97 59 98
REMARK H PARENT 19 6 7 17 4 27 24 32 83 51 51 62
REMARK Flexibility Score: inf
ROOT
ATOM      1  C   UNL A   1      33.026  29.542  26.676  1.00  0.00     0.023 C 
ENDROOT
BRANCH   1   2
ATOM      2  C   UNL A   1      32.360  29.456  25.303  1.00  0.00     0.116 C 
BRANCH   2   3
ATOM      3  N   UNL A   1      33.269  29.508  24.156  1.00  0.00    -0.352 N 
ATOM      4  C   UNL A   1      33.708  28.554  23.252  1.00  0.00     0.251 C 
ATOM      5  O   UNL A   1      34.531  28.889  22.400  1.00  0.00    -0.269 OA
ATOM      6  H   UNL A   1      33.645  30.403  23.996  1.00  0.00     0.163 HD
BRANCH   4   7
ATOM      7  C   UNL A   1      33.292  27.127  23.326  1.00  0.00     0.040 A 
ATOM      8  C   UNL A   1      32.693  25.246  24.741  1.00  0.00    -0.039 A 
ATOM      9  C   UNL A   1      33.022  24.378  23.691  1.00  0.00     0.004 A 
ATOM     10  C   UNL A   1      32.678  26.615  24.459  1.00  0.00     0.018 A 
ATOM     11  C   UNL A   1      33.401  24.882  22.443  1.00  0.00     0.001 A 
ATOM     12  C   UNL A   1      33.589  26.255  22.276  1.00  0.00     0.014 A 
BRANCH   8  13
ATOM     13  C   UNL A   1      32.557  24.805  26.201  1.00  0.00     0.074 C 
ATOM     14  N   UNL A   1      32.862  22.356  25.950  1.00  0.00    -0.328 N 
ATOM     15  C   UNL A   1      31.459  22.102  26.312  1.00  0.00     0.262 C 
ATOM     16  C   UNL A   1      33.380  23.570  26.602  1.00  0.00     0.270 C 
ATOM     17  H   UNL A   1      32.865  22.514  24.942  1.00  0.00     0.348 HD
ATOM     18  C   UNL A   1      30.552  23.307  26.039  1.00  0.00     0.062 C 
ATOM     19  C   UNL A   1      31.114  24.567  26.686  1.00  0.00     0.020 C 
BRANCH  14  20
ATOM     20  C   UNL A   1      33.744  21.200  26.178  1.00  0.00     0.340 C 
BRANCH  20  21
ATOM     21  C   UNL A   1      33.237  19.916  25.614  1.00  0.00     0.179 A 
ATOM     22  C   UNL A   1      32.902  17.311  23.270  1.00  0.00     0.092 C 
ATOM     23  C   UNL A   1      32.860  18.208  24.441  1.00  0.00     0.147 A 
ATOM     24  N   UNL A   1      32.512  17.801  25.668  1.00  0.00    -0.159 NA
ATOM     25  N   UNL A   1      33.246  19.516  24.358  1.00  0.00    -0.211 NA
ATOM     26  N   UNL A   1      32.764  18.902  26.395  1.00  0.00    -0.258 N 
ATOM     27  H   UNL A   1      32.626  18.968  27.368  1.00  0.00     0.192 HD
ENDBRANCH  20  21
ENDBRANCH  14  20
ENDBRANCH   8  13
ENDBRANCH   4   7
ENDBRANCH   2   3
ENDBRANCH   1   2
BRANCH   1  28
ATOM     28  C   UNL A   1      34.225  28.634  26.939  1.00  0.00     0.023 C 
BRANCH  28  29
ATOM     29  C   UNL A   1      35.493  29.357  27.362  1.00  0.00     0.116 C 
BRANCH  29  30
ATOM     30  N   UNL A   1      35.552  29.708  28.789  1.00  0.00    -0.352 N 
ATOM     31  C   UNL A   1      36.538  29.358  29.716  1.00  0.00     0.251 C 
ATOM     32  H   UNL A   1      34.808  30.253  29.133  1.00  0.00     0.163 HD
ATOM     33  O   UNL A   1      36.309  29.362  30.911  1.00  0.00    -0.269 OA
BRANCH  31  34
ATOM     34  C   UNL A   1      37.875  29.007  29.190  1.00  0.00     0.039 A 
ATOM     35  C   UNL A   1      38.475  29.600  28.075  1.00  0.00     0.014 A 
ATOM     36  C   UNL A   1      38.566  28.070  29.939  1.00  0.00     0.014 A 
ATOM     37  C   UNL A   1      39.791  29.241  27.767  1.00  0.00     0.010 A 
ATOM     38  C   UNL A   1      39.920  28.025  29.856  1.00  0.00     0.010 A 
ATOM     39  C   UNL A   1      40.497  28.440  28.676  1.00  0.00    -0.014 A 
BRANCH  39  40
ATOM     40  C   UNL A   1      41.871  28.008  28.512  1.00  0.00     0.031 A 
ATOM     41  C   UNL A   1      42.024  26.802  27.674  1.00  0.00     0.074 A 
ATOM     42  C   UNL A   1      42.915  28.805  28.842  1.00  0.00     0.049 A 
ATOM     43  N   UNL A   1      42.270  25.609  28.092  1.00  0.00    -0.248 NA
ATOM     44  C   UNL A   1      41.668  26.867  26.249  1.00  0.00     0.031 C 
ATOM     45  C   UNL A   1      42.916  30.170  29.386  1.00  0.00     0.029 A 
ATOM     46  N   UNL A   1      44.239  28.574  28.654  1.00  0.00    -0.354 N 
ATOM     47  C   UNL A   1      42.356  24.812  26.959  1.00  0.00     0.074 A 
ATOM     48  C   UNL A   1      41.746  25.578  25.905  1.00  0.00     0.031 C 
ATOM     49  C   UNL A   1      44.155  30.707  29.281  1.00  0.00     0.029 A 
ATOM     50  C   UNL A   1      45.070  29.682  28.804  1.00  0.00     0.049 A 
ATOM     51  H   UNL A   1      44.590  27.682  28.429  1.00  0.00     0.167 HD
ATOM     52  C   UNL A   1      43.134  23.694  26.957  1.00  0.00     0.034 A 
ATOM     53  C   UNL A   1      46.405  29.742  28.537  1.00  0.00     0.034 A 
ATOM     54  C   UNL A   1      43.615  23.418  28.297  1.00  0.00     0.049 A 
ATOM     55  C   UNL A   1      46.894  28.336  28.618  1.00  0.00     0.074 A 
ATOM     56  C   UNL A   1      43.000  23.119  29.498  1.00  0.00     0.029 A 
ATOM     57  N   UNL A   1      44.878  23.870  28.627  1.00  0.00    -0.354 N 
ATOM     58  N   UNL A   1      46.864  27.644  29.728  1.00  0.00    -0.248 NA
ATOM     59  C   UNL A   1      46.877  27.534  27.399  1.00  0.00     0.031 C 
ATOM     60  C   UNL A   1      43.708  23.893  30.467  1.00  0.00     0.029 A 
ATOM     61  C   UNL A   1      44.784  24.524  29.835  1.00  0.00     0.049 A 
ATOM     62  H   UNL A   1      45.696  23.746  28.096  1.00  0.00     0.167 HD
ATOM     63  C   UNL A   1      46.374  26.395  29.368  1.00  0.00     0.074 A 
ATOM     64  C   UNL A   1      46.489  26.357  27.907  1.00  0.00     0.031 C 
ATOM     65  C   UNL A   1      45.635  25.635  30.235  1.00  0.00     0.034 A 
BRANCH  52  66
ATOM     66  C   UNL A   1      43.761  23.033  25.753  1.00  0.00     0.023 A 
ATOM     67  C   UNL A   1      43.714  21.625  25.711  1.00  0.00     0.031 A 
ATOM     68  C   UNL A   1      44.604  23.646  24.803  1.00  0.00     0.131 A 
ATOM     69  C   UNL A   1      44.555  20.896  24.857  1.00  0.00     0.055 A 
ATOM     70  C   UNL A   1      45.392  22.916  23.907  1.00  0.00     0.041 A 
ATOM     71  F   UNL A   1      44.787  24.969  24.741  1.00  0.00    -0.206 F 
ATOM     72  C   UNL A   1      45.398  21.532  23.953  1.00  0.00     0.022 A 
BRANCH  69  73
ATOM     73  S   UNL A   1      44.650  19.102  25.083  1.00  0.00     0.124 S 
ATOM     74  O   UNL A   1      43.484  18.847  25.922  1.00  0.00    -0.237 OA
ATOM     75  O   UNL A   1      44.574  18.621  23.708  1.00  0.00    -0.237 OA
ATOM     76  O   UNL A   1      45.942  18.914  25.739  1.00  0.00    -0.744 OA
ENDBRANCH  69  73
ENDBRANCH  52  66
BRANCH  53  77
ATOM     77  C   UNL A   1      47.143  30.859  27.862  1.00  0.00     0.023 A 
ATOM     78  C   UNL A   1      46.514  31.895  27.127  1.00  0.00     0.031 A 
ATOM     79  C   UNL A   1      48.517  31.047  28.144  1.00  0.00     0.131 A 
ATOM     80  C   UNL A   1      47.253  33.038  26.717  1.00  0.00     0.055 A 
ATOM     81  C   UNL A   1      49.236  32.175  27.742  1.00  0.00     0.041 A 
ATOM     82  F   UNL A   1      49.197  30.170  28.901  1.00  0.00    -0.206 F 
ATOM     83  C   UNL A   1      48.605  33.182  27.034  1.00  0.00     0.022 A 
BRANCH  80  84
ATOM     84  S   UNL A   1      46.449  34.417  25.824  1.00  0.00     0.124 S 
ATOM     85  O   UNL A   1      45.361  33.743  25.125  1.00  0.00    -0.237 OA
ATOM     86  O   UNL A   1      46.066  35.317  26.906  1.00  0.00    -0.237 OA
ATOM     87  O   UNL A   1      47.510  34.929  24.954  1.00  0.00    -0.744 OA
ENDBRANCH  80  84
ENDBRANCH  53  77
BRANCH  65  88
ATOM     88  C   UNL A   1      45.523  26.088  31.685  1.00  0.00     0.023 A 
ATOM     89  C   UNL A   1      44.424  26.791  32.238  1.00  0.00     0.031 A 
ATOM     90  C   UNL A   1      46.520  25.652  32.574  1.00  0.00     0.131 A 
ATOM     91  C   UNL A   1      44.362  27.037  33.626  1.00  0.00     0.055 A 
ATOM     92  C   UNL A   1      46.442  25.872  33.950  1.00  0.00     0.041 A 
ATOM     93  F   UNL A   1      47.577  24.957  32.122  1.00  0.00    -0.206 F 
ATOM     94  C   UNL A   1      45.365  26.571  34.481  1.00  0.00     0.022 A 
BRANCH  91  95
ATOM     95  S   UNL A   1      42.983  27.990  34.348  1.00  0.00     0.124 S 
ATOM     96  O   UNL A   1      43.524  28.469  35.613  1.00  0.00    -0.237 OA
ATOM     97  O   UNL A   1      42.732  29.009  33.333  1.00  0.00    -0.237 OA
ATOM     98  O   UNL A   1      41.916  26.995  34.483  1.00  0.00    -0.744 OA
ENDBRANCH  91  95
ENDBRANCH  65  88
ENDBRANCH  39  40
ENDBRANCH  31  34
ENDBRANCH  29  30
ENDBRANCH  28  29
ENDBRANCH   1  28
TORSDOF 17
ENDMDL
MODEL 3
REMARK VINA RESULT:     -13.2      2.787      7.360
REMARK SMILES Cc1n[nH]c(C[N@H+]2CCC[C@H](c3cccc(C(=O)NCCCCNC(=O)c4ccc(-c5c6nc(c(-c7cc(S(=O)(=O)[O-])ccc7F)c7ccc([nH]7)c(-c7cc(S(=O)(=O)[O-])ccc7F)c7nc(c(-c8cc(S(=O)(=O)[O-])ccc8F)c8ccc5[nH]8)C=C7)C=C6)cc4)c3)C2)n1
REMARK SMILES IDX 21 1 20 2 19 3 17 4 18 5 16 7 12 8 13 9 90 10 14 11 15 12
REMARK SMILES IDX 11 13 7 14 8 15 91 16 9 18 10 19 6 20 5 21 1 22 2 23 3 24
REMARK SMILES IDX 92 25 4 26 22 28 23 29 24 30 25 31 26 33 27 34 28 35 89 36
REMARK SMILES IDX 29 37 88 38 30 39 31 40 32 41 82 42 33 43 87 44 81 45 83 46
REMARK SMILES IDX 34 47 86 48 80 49 79 50 35 52 67 53 47 54 66 55 48 56 51 57
REMARK SMILES IDX 65 58 84 59 49 60 50 61 64 63 85 64 52 65 36 66 37 67 45 68
REMARK SMILES IDX 38 69 44 70 46 71 43 72 39 73 40 74 41 75 42 76 68 77 69 78
REMARK SMILES IDX 77 79 70 80 76 81 78 82 75 83 71 84 72 85 73 86 74 87 53 88
REMARK SMILES IDX 54 89 62 90 55 91 61 92 63 93 60 94 56 95 57 96 58 97 59 98
REMARK H PARENT 19 6 7 17 4 27 24 32 83 51 51 62
REMARK Flexibility Score: inf
ROOT
ATOM      1  C   UNL A   1      33.135  30.108  27.247  1.00  0.00     0.023 C 
ENDROOT
BRANCH   1   2
ATOM      2  C   UNL A   1      31.981  30.287  26.261  1.00  0.00     0.116 C 
BRANCH   2   3
ATOM      3  N   UNL A   1      32.286  29.960  24.867  1.00  0.00    -0.352 N 
ATOM      4  C   UNL A   1      31.987  28.871  24.063  1.00  0.00     0.251 C 
ATOM      5  O   UNL A   1      32.430  28.852  22.915  1.00  0.00    -0.269 OA
ATOM      6  H   UNL A   1      32.810  30.655  24.408  1.00  0.00     0.163 HD
BRANCH   4   7
ATOM      7  C   UNL A   1      31.232  27.689  24.561  1.00  0.00     0.040 A 
ATOM      8  C   UNL A   1      31.309  25.564  25.736  1.00  0.00    -0.039 A 
ATOM      9  C   UNL A   1      30.113  25.197  25.106  1.00  0.00     0.004 A 
ATOM     10  C   UNL A   1      31.741  26.883  25.569  1.00  0.00     0.018 A 
ATOM     11  C   UNL A   1      29.438  26.098  24.276  1.00  0.00     0.001 A 
ATOM     12  C   UNL A   1      30.025  27.324  23.961  1.00  0.00     0.014 A 
BRANCH   8  13
ATOM     13  C   UNL A   1      32.258  24.570  26.411  1.00  0.00     0.074 C 
ATOM     14  N   UNL A   1      33.102  23.350  24.422  1.00  0.00    -0.328 N 
ATOM     15  C   UNL A   1      32.403  22.121  24.829  1.00  0.00     0.262 C 
ATOM     16  C   UNL A   1      33.491  24.164  25.587  1.00  0.00     0.270 C 
ATOM     17  H   UNL A   1      32.428  23.885  23.875  1.00  0.00     0.348 HD
ATOM     18  C   UNL A   1      31.199  22.399  25.736  1.00  0.00     0.062 C 
ATOM     19  C   UNL A   1      31.601  23.272  26.918  1.00  0.00     0.020 C 
BRANCH  14  20
ATOM     20  C   UNL A   1      34.244  23.105  23.527  1.00  0.00     0.340 C 
BRANCH  20  21
ATOM     21  C   UNL A   1      35.555  22.971  24.223  1.00  0.00     0.179 A 
ATOM     22  C   UNL A   1      38.223  23.900  26.323  1.00  0.00     0.092 C 
ATOM     23  C   UNL A   1      37.265  23.226  25.427  1.00  0.00     0.147 A 
ATOM     24  N   UNL A   1      37.222  21.898  25.259  1.00  0.00    -0.159 NA
ATOM     25  N   UNL A   1      36.299  23.921  24.754  1.00  0.00    -0.211 NA
ATOM     26  N   UNL A   1      36.126  21.761  24.495  1.00  0.00    -0.258 N 
ATOM     27  H   UNL A   1      35.779  20.898  24.172  1.00  0.00     0.192 HD
ENDBRANCH  20  21
ENDBRANCH  14  20
ENDBRANCH   8  13
ENDBRANCH   4   7
ENDBRANCH   2   3
ENDBRANCH   1   2
BRANCH   1  28
ATOM     28  C   UNL A   1      34.207  29.078  26.901  1.00  0.00     0.023 C 
BRANCH  28  29
ATOM     29  C   UNL A   1      35.590  29.386  27.455  1.00  0.00     0.116 C 
BRANCH  29  30
ATOM     30  N   UNL A   1      35.615  29.727  28.886  1.00  0.00    -0.352 N 
ATOM     31  C   UNL A   1      36.584  29.379  29.831  1.00  0.00     0.251 C 
ATOM     32  H   UNL A   1      34.860  30.264  29.217  1.00  0.00     0.163 HD
ATOM     33  O   UNL A   1      36.329  29.373  31.021  1.00  0.00    -0.269 OA
BRANCH  31  34
ATOM     34  C   UNL A   1      37.935  29.041  29.332  1.00  0.00     0.039 A 
ATOM     35  C   UNL A   1      38.564  29.664  28.249  1.00  0.00     0.014 A 
ATOM     36  C   UNL A   1      38.605  28.083  30.073  1.00  0.00     0.014 A 
ATOM     37  C   UNL A   1      39.888  29.313  27.967  1.00  0.00     0.010 A 
ATOM     38  C   UNL A   1      39.960  28.039  30.024  1.00  0.00     0.010 A 
ATOM     39  C   UNL A   1      40.569  28.486  28.872  1.00  0.00    -0.014 A 
BRANCH  39  40
ATOM     40  C   UNL A   1      41.947  28.057  28.733  1.00  0.00     0.031 A 
ATOM     41  C   UNL A   1      42.124  26.885  27.854  1.00  0.00     0.074 A 
ATOM     42  C   UNL A   1      42.982  28.838  29.125  1.00  0.00     0.049 A 
ATOM     43  N   UNL A   1      42.356  25.676  28.232  1.00  0.00    -0.248 NA
ATOM     44  C   UNL A   1      41.812  27.006  26.422  1.00  0.00     0.031 C 
ATOM     45  C   UNL A   1      42.967  30.182  29.722  1.00  0.00     0.029 A 
ATOM     46  N   UNL A   1      44.310  28.612  28.969  1.00  0.00    -0.354 N 
ATOM     47  C   UNL A   1      42.476  24.924  27.072  1.00  0.00     0.074 A 
ATOM     48  C   UNL A   1      41.899  25.732  26.030  1.00  0.00     0.031 C 
ATOM     49  C   UNL A   1      44.210  30.719  29.675  1.00  0.00     0.029 A 
ATOM     50  C   UNL A   1      45.137  29.712  29.187  1.00  0.00     0.049 A 
ATOM     51  H   UNL A   1      44.667  27.729  28.720  1.00  0.00     0.167 HD
ATOM     52  C   UNL A   1      43.252  23.804  27.050  1.00  0.00     0.034 A 
ATOM     53  C   UNL A   1      46.481  29.779  28.963  1.00  0.00     0.034 A 
ATOM     54  C   UNL A   1      43.692  23.475  28.392  1.00  0.00     0.049 A 
ATOM     55  C   UNL A   1      46.965  28.369  29.003  1.00  0.00     0.074 A 
ATOM     56  C   UNL A   1      43.040  23.132  29.561  1.00  0.00     0.029 A 
ATOM     57  N   UNL A   1      44.944  23.911  28.778  1.00  0.00    -0.354 N 
ATOM     58  N   UNL A   1      46.900  27.634  30.085  1.00  0.00    -0.248 NA
ATOM     59  C   UNL A   1      46.984  27.615  27.755  1.00  0.00     0.031 C 
ATOM     60  C   UNL A   1      43.720  23.865  30.581  1.00  0.00     0.029 A 
ATOM     61  C   UNL A   1      44.815  24.518  30.006  1.00  0.00     0.049 A 
ATOM     62  H   UNL A   1      45.779  23.807  28.267  1.00  0.00     0.167 HD
ATOM     63  C   UNL A   1      46.420  26.402  29.661  1.00  0.00     0.074 A 
ATOM     64  C   UNL A   1      46.579  26.420  28.204  1.00  0.00     0.031 C 
ATOM     65  C   UNL A   1      45.654  25.611  30.475  1.00  0.00     0.034 A 
BRANCH  52  66
ATOM     66  C   UNL A   1      43.914  23.190  25.840  1.00  0.00     0.023 A 
ATOM     67  C   UNL A   1      43.631  21.833  25.589  1.00  0.00     0.031 A 
ATOM     68  C   UNL A   1      44.973  23.743  25.091  1.00  0.00     0.131 A 
ATOM     69  C   UNL A   1      44.441  21.067  24.737  1.00  0.00     0.055 A 
ATOM     70  C   UNL A   1      45.738  22.992  24.192  1.00  0.00     0.041 A 
ATOM     71  F   UNL A   1      45.389  25.005  25.243  1.00  0.00    -0.206 F 
ATOM     72  C   UNL A   1      45.498  21.637  24.036  1.00  0.00     0.022 A 
BRANCH  69  73
ATOM     73  S   UNL A   1      44.193  19.274  24.708  1.00  0.00     0.124 S 
ATOM     74  O   UNL A   1      42.791  19.163  25.099  1.00  0.00    -0.237 OA
ATOM     75  O   UNL A   1      44.503  18.950  23.320  1.00  0.00    -0.237 OA
ATOM     76  O   UNL A   1      45.155  18.785  25.693  1.00  0.00    -0.744 OA
ENDBRANCH  69  73
ENDBRANCH  52  66
BRANCH  53  77
ATOM     77  C   UNL A   1      47.240  30.919  28.354  1.00  0.00     0.023 A 
ATOM     78  C   UNL A   1      46.677  31.852  27.448  1.00  0.00     0.031 A 
ATOM     79  C   UNL A   1      48.518  31.247  28.865  1.00  0.00     0.131 A 
ATOM     80  C   UNL A   1      47.387  33.034  27.098  1.00  0.00     0.055 A 
ATOM     81  C   UNL A   1      49.208  32.412  28.521  1.00  0.00     0.041 A 
ATOM     82  F   UNL A   1      49.114  30.478  29.792  1.00  0.00    -0.206 F 
ATOM     83  C   UNL A   1      48.641  33.317  27.642  1.00  0.00     0.022 A 
BRANCH  80  84
ATOM     84  S   UNL A   1      46.655  34.283  25.979  1.00  0.00     0.124 S 
ATOM     85  O   UNL A   1      46.226  35.321  26.909  1.00  0.00    -0.237 OA
ATOM     86  O   UNL A   1      47.771  34.618  25.102  1.00  0.00    -0.237 OA
ATOM     87  O   UNL A   1      45.563  33.560  25.324  1.00  0.00    -0.744 OA
ENDBRANCH  80  84
ENDBRANCH  53  77
BRANCH  65  88
ATOM     88  C   UNL A   1      45.499  26.007  31.937  1.00  0.00     0.023 A 
ATOM     89  C   UNL A   1      44.372  26.665  32.489  1.00  0.00     0.031 A 
ATOM     90  C   UNL A   1      46.484  25.560  32.834  1.00  0.00     0.131 A 
ATOM     91  C   UNL A   1      44.273  26.859  33.884  1.00  0.00     0.055 A 
ATOM     92  C   UNL A   1      46.370  25.727  34.214  1.00  0.00     0.041 A 
ATOM     93  F   UNL A   1      47.567  24.904  32.383  1.00  0.00    -0.206 F 
ATOM     94  C   UNL A   1      45.266  26.382  34.745  1.00  0.00     0.022 A 
BRANCH  91  95
ATOM     95  S   UNL A   1      42.857  27.755  34.607  1.00  0.00     0.124 S 
ATOM     96  O   UNL A   1      41.873  26.706  34.842  1.00  0.00    -0.237 OA
ATOM     97  O   UNL A   1      43.439  28.364  35.799  1.00  0.00    -0.237 OA
ATOM     98  O   UNL A   1      42.487  28.710  33.559  1.00  0.00    -0.744 OA
ENDBRANCH  91  95
ENDBRANCH  65  88
ENDBRANCH  39  40
ENDBRANCH  31  34
ENDBRANCH  29  30
ENDBRANCH  28  29
ENDBRANCH   1  28
TORSDOF 17
ENDMDL
