MODEL 1
REMARK VINA RESULT:     -11.8      0.000      0.000
REMARK SMILES C[C@@H](Sc1nc2ccccc2c(=O)n1N)C(=O)NCCCCNC(=O)c1ccc(-c2c3nc(c(-c4cc(S(=O)(=O)[O-])ccc4F)c4ccc([nH]4)c(-c4cc(S(=O)(=O)[O-])ccc4F)c4nc(c(-c5cc(S(=O)(=O)[O-])ccc5F)c5ccc2[nH]5)C=C4)C=C3)cc1
REMARK SMILES IDX 20 1 19 2 18 3 16 4 17 5 2 7 1 8 3 9 4 10 5 11 14 12 6 13
REMARK SMILES IDX 12 14 7 15 11 16 13 17 8 18 10 19 9 20 15 21 21 24 22 25
REMARK SMILES IDX 23 26 24 27 25 29 26 30 27 31 88 32 28 33 87 34 29 35 30 36
REMARK SMILES IDX 31 37 81 38 32 39 86 40 80 41 82 42 33 43 85 44 79 45 78 46
REMARK SMILES IDX 34 48 66 49 46 50 65 51 47 52 50 53 64 54 83 55 48 56 49 57
REMARK SMILES IDX 63 59 84 60 51 61 35 62 36 63 44 64 37 65 43 66 45 67 42 68
REMARK SMILES IDX 38 69 39 70 40 71 41 72 67 73 68 74 76 75 69 76 75 77 77 78
REMARK SMILES IDX 74 79 70 80 71 81 72 82 73 83 52 84 53 85 61 86 54 87 60 88
REMARK SMILES IDX 62 89 59 90 55 91 56 92 57 93 58 94
REMARK H PARENT 18 6 15 22 15 23 23 28 82 47 50 58
REMARK Flexibility Score: inf
ROOT
ATOM      1  C   UNL A   1      36.103  23.221  23.562  1.00  0.00     0.023 C 
ENDROOT
BRANCH   1   2
ATOM      2  C   UNL A   1      34.680  23.586  23.151  1.00  0.00     0.116 C 
BRANCH   2   3
ATOM      3  N   UNL A   1      34.110  24.582  24.040  1.00  0.00    -0.355 N 
ATOM      4  C   UNL A   1      33.394  24.436  25.192  1.00  0.00     0.233 C 
ATOM      5  O   UNL A   1      33.040  25.466  25.775  1.00  0.00    -0.274 OA
ATOM      6  H   UNL A   1      34.266  25.515  23.768  1.00  0.00     0.163 HD
BRANCH   4   7
ATOM      7  C   UNL A   1      33.031  23.060  25.761  1.00  0.00     0.141 C 
ATOM      8  C   UNL A   1      32.952  23.060  27.282  1.00  0.00     0.030 C 
BRANCH   7   9
ATOM      9  S   UNL A   1      31.569  22.430  24.859  1.00  0.00    -0.073 SA
BRANCH   9  10
ATOM     10  C   UNL A   1      32.101  20.838  24.385  1.00  0.00     0.191 A 
ATOM     11  N   UNL A   1      32.376  20.003  25.333  1.00  0.00    -0.222 NA
ATOM     12  N   UNL A   1      32.126  20.515  23.032  1.00  0.00    -0.202 N 
ATOM     13  C   UNL A   1      32.693  18.684  24.981  1.00  0.00     0.079 A 
ATOM     14  C   UNL A   1      32.419  19.222  22.598  1.00  0.00     0.280 A 
ATOM     15  C   UNL A   1      32.950  17.762  25.999  1.00  0.00     0.029 A 
ATOM     16  C   UNL A   1      32.720  18.243  23.657  1.00  0.00     0.068 A 
ATOM     17  O   UNL A   1      32.405  18.881  21.415  1.00  0.00    -0.267 OA
ATOM     18  C   UNL A   1      33.223  16.424  25.697  1.00  0.00     0.002 A 
ATOM     19  C   UNL A   1      32.997  16.907  23.344  1.00  0.00     0.016 A 
ATOM     20  C   UNL A   1      33.247  15.997  24.370  1.00  0.00     0.001 A 
BRANCH  12  21
ATOM     21  N   UNL A   1      31.835  21.484  22.018  1.00  0.00    -0.334 N 
ATOM     22  H   UNL A   1      30.900  21.706  21.802  1.00  0.00     0.178 HD
ATOM     23  H   UNL A   1      32.570  21.930  21.538  1.00  0.00     0.178 HD
ENDBRANCH  12  21
ENDBRANCH   9  10
ENDBRANCH   7   9
ENDBRANCH   4   7
ENDBRANCH   2   3
ENDBRANCH   1   2
BRANCH   1  24
ATOM     24  C   UNL A   1      36.239  21.844  24.215  1.00  0.00     0.023 C 
BRANCH  24  25
ATOM     25  C   UNL A   1      36.852  21.842  25.612  1.00  0.00     0.116 C 
BRANCH  25  26
ATOM     26  N   UNL A   1      37.903  20.848  25.770  1.00  0.00    -0.352 N 
ATOM     27  C   UNL A   1      39.210  21.029  26.157  1.00  0.00     0.251 C 
ATOM     28  H   UNL A   1      37.644  19.920  25.572  1.00  0.00     0.163 HD
ATOM     29  O   UNL A   1      39.999  20.090  26.104  1.00  0.00    -0.269 OA
BRANCH  27  30
ATOM     30  C   UNL A   1      39.662  22.366  26.597  1.00  0.00     0.039 A 
ATOM     31  C   UNL A   1      40.694  22.457  27.533  1.00  0.00     0.014 A 
ATOM     32  C   UNL A   1      39.088  23.526  26.065  1.00  0.00     0.014 A 
ATOM     33  C   UNL A   1      41.203  23.711  27.879  1.00  0.00     0.010 A 
ATOM     34  C   UNL A   1      39.643  24.767  26.359  1.00  0.00     0.010 A 
ATOM     35  C   UNL A   1      40.709  24.873  27.266  1.00  0.00    -0.014 A 
BRANCH  35  36
ATOM     36  C   UNL A   1      41.295  26.207  27.558  1.00  0.00     0.031 A 
ATOM     37  C   UNL A   1      42.685  26.539  27.086  1.00  0.00     0.074 A 
ATOM     38  C   UNL A   1      40.605  27.091  28.305  1.00  0.00     0.049 A 
ATOM     39  N   UNL A   1      43.405  27.607  27.314  1.00  0.00    -0.248 NA
ATOM     40  C   UNL A   1      43.364  25.515  26.277  1.00  0.00     0.031 C 
ATOM     41  C   UNL A   1      39.267  26.868  28.857  1.00  0.00     0.029 A 
ATOM     42  N   UNL A   1      40.936  28.349  28.741  1.00  0.00    -0.354 N 
ATOM     43  C   UNL A   1      44.626  27.381  26.687  1.00  0.00     0.074 A 
ATOM     44  C   UNL A   1      44.568  26.047  26.127  1.00  0.00     0.031 C 
ATOM     45  C   UNL A   1      38.886  27.957  29.543  1.00  0.00     0.029 A 
ATOM     46  C   UNL A   1      39.965  28.940  29.518  1.00  0.00     0.049 A 
ATOM     47  H   UNL A   1      41.788  28.790  28.520  1.00  0.00     0.167 HD
ATOM     48  C   UNL A   1      45.686  28.218  26.568  1.00  0.00     0.034 A 
ATOM     49  C   UNL A   1      39.950  30.130  30.150  1.00  0.00     0.034 A 
ATOM     50  C   UNL A   1      45.725  29.549  27.126  1.00  0.00     0.049 A 
ATOM     51  C   UNL A   1      41.148  31.037  30.020  1.00  0.00     0.074 A 
ATOM     52  C   UNL A   1      46.727  30.498  27.026  1.00  0.00     0.029 A 
ATOM     53  N   UNL A   1      44.717  30.117  27.896  1.00  0.00    -0.354 N 
ATOM     54  N   UNL A   1      42.277  30.829  29.383  1.00  0.00    -0.248 NA
ATOM     55  C   UNL A   1      41.062  32.344  30.683  1.00  0.00     0.031 C 
ATOM     56  C   UNL A   1      46.354  31.613  27.786  1.00  0.00     0.029 A 
ATOM     57  C   UNL A   1      45.086  31.392  28.299  1.00  0.00     0.049 A 
ATOM     58  H   UNL A   1      43.865  29.679  28.122  1.00  0.00     0.167 HD
ATOM     59  C   UNL A   1      43.024  31.991  29.547  1.00  0.00     0.074 A 
ATOM     60  C   UNL A   1      42.211  32.900  30.328  1.00  0.00     0.031 C 
ATOM     61  C   UNL A   1      44.269  32.284  29.089  1.00  0.00     0.034 A 
BRANCH  48  62
ATOM     62  C   UNL A   1      46.896  27.701  25.824  1.00  0.00     0.023 A 
ATOM     63  C   UNL A   1      47.141  28.052  24.484  1.00  0.00     0.031 A 
ATOM     64  C   UNL A   1      47.795  26.816  26.444  1.00  0.00     0.131 A 
ATOM     65  C   UNL A   1      48.204  27.460  23.785  1.00  0.00     0.055 A 
ATOM     66  C   UNL A   1      48.902  26.297  25.769  1.00  0.00     0.041 A 
ATOM     67  F   UNL A   1      47.604  26.427  27.714  1.00  0.00    -0.206 F 
ATOM     68  C   UNL A   1      49.101  26.604  24.426  1.00  0.00     0.022 A 
BRANCH  65  69
ATOM     69  S   UNL A   1      48.302  27.704  21.991  1.00  0.00     0.124 S 
ATOM     70  O   UNL A   1      49.435  28.621  21.880  1.00  0.00    -0.237 OA
ATOM     71  O   UNL A   1      48.527  26.349  21.500  1.00  0.00    -0.237 OA
ATOM     72  O   UNL A   1      47.005  28.284  21.652  1.00  0.00    -0.744 OA
ENDBRANCH  65  69
ENDBRANCH  48  62
BRANCH  49  73
ATOM     73  C   UNL A   1      38.774  30.533  30.972  1.00  0.00     0.023 A 
ATOM     74  C   UNL A   1      37.677  31.193  30.395  1.00  0.00     0.031 A 
ATOM     75  C   UNL A   1      38.746  30.295  32.358  1.00  0.00     0.131 A 
ATOM     76  C   UNL A   1      36.619  31.633  31.206  1.00  0.00     0.055 A 
ATOM     77  C   UNL A   1      37.667  30.689  33.153  1.00  0.00     0.041 A 
ATOM     78  F   UNL A   1      39.765  29.662  32.959  1.00  0.00    -0.206 F 
ATOM     79  C   UNL A   1      36.601  31.374  32.578  1.00  0.00     0.022 A 
BRANCH  76  80
ATOM     80  S   UNL A   1      35.298  32.620  30.450  1.00  0.00     0.124 S 
ATOM     81  O   UNL A   1      35.993  33.869  30.157  1.00  0.00    -0.237 OA
ATOM     82  O   UNL A   1      34.932  31.803  29.298  1.00  0.00    -0.237 OA
ATOM     83  O   UNL A   1      34.288  32.698  31.503  1.00  0.00    -0.744 OA
ENDBRANCH  76  80
ENDBRANCH  49  73
BRANCH  61  84
ATOM     84  C   UNL A   1      44.802  33.664  29.389  1.00  0.00     0.023 A 
ATOM     85  C   UNL A   1      44.475  34.773  28.591  1.00  0.00     0.031 A 
ATOM     86  C   UNL A   1      45.660  33.865  30.485  1.00  0.00     0.131 A 
ATOM     87  C   UNL A   1      45.047  36.024  28.867  1.00  0.00     0.055 A 
ATOM     88  C   UNL A   1      46.178  35.124  30.791  1.00  0.00     0.041 A 
ATOM     89  F   UNL A   1      46.006  32.840  31.279  1.00  0.00    -0.206 F 
ATOM     90  C   UNL A   1      45.882  36.210  29.972  1.00  0.00     0.022 A 
BRANCH  87  91
ATOM     91  S   UNL A   1      44.754  37.392  27.712  1.00  0.00     0.124 S 
ATOM     92  O   UNL A   1      43.668  36.867  26.891  1.00  0.00    -0.237 OA
ATOM     93  O   UNL A   1      44.403  38.488  28.609  1.00  0.00    -0.237 OA
ATOM     94  O   UNL A   1      46.035  37.541  27.024  1.00  0.00    -0.744 OA
ENDBRANCH  87  91
ENDBRANCH  61  84
ENDBRANCH  35  36
ENDBRANCH  27  30
ENDBRANCH  25  26
ENDBRANCH  24  25
ENDBRANCH   1  24
TORSDOF 17
ENDMDL
MODEL 2
REMARK VINA RESULT:     -11.8      5.684      8.510
REMARK SMILES C[C@@H](Sc1nc2ccccc2c(=O)n1N)C(=O)NCCCCNC(=O)c1ccc(-c2c3nc(c(-c4cc(S(=O)(=O)[O-])ccc4F)c4ccc([nH]4)c(-c4cc(S(=O)(=O)[O-])ccc4F)c4nc(c(-c5cc(S(=O)(=O)[O-])ccc5F)c5ccc2[nH]5)C=C4)C=C3)cc1
REMARK SMILES IDX 20 1 19 2 18 3 16 4 17 5 2 7 1 8 3 9 4 10 5 11 14 12 6 13
REMARK SMILES IDX 12 14 7 15 11 16 13 17 8 18 10 19 9 20 15 21 21 24 22 25
REMARK SMILES IDX 23 26 24 27 25 29 26 30 27 31 88 32 28 33 87 34 29 35 30 36
REMARK SMILES IDX 31 37 81 38 32 39 86 40 80 41 82 42 33 43 85 44 79 45 78 46
REMARK SMILES IDX 34 48 66 49 46 50 65 51 47 52 50 53 64 54 83 55 48 56 49 57
REMARK SMILES IDX 63 59 84 60 51 61 35 62 36 63 44 64 37 65 43 66 45 67 42 68
REMARK SMILES IDX 38 69 39 70 40 71 41 72 67 73 68 74 76 75 69 76 75 77 77 78
REMARK SMILES IDX 74 79 70 80 71 81 72 82 73 83 52 84 53 85 61 86 54 87 60 88
REMARK SMILES IDX 62 89 59 90 55 91 56 92 57 93 58 94
REMARK H PARENT 18 6 15 22 15 23 23 28 82 47 50 58
REMARK Flexibility Score: inf
ROOT
ATOM      1  C   UNL A   1      31.760  30.313  26.809  1.00  0.00     0.023 C 
ENDROOT
BRANCH   1   2
ATOM      2  C   UNL A   1      32.343  29.722  25.528  1.00  0.00     0.116 C 
BRANCH   2   3
ATOM      3  N   UNL A   1      31.428  28.775  24.918  1.00  0.00    -0.355 N 
ATOM      4  C   UNL A   1      31.673  27.613  24.246  1.00  0.00     0.233 C 
ATOM      5  O   UNL A   1      30.695  26.976  23.839  1.00  0.00    -0.274 OA
ATOM      6  H   UNL A   1      30.476  29.009  25.003  1.00  0.00     0.163 HD
BRANCH   4   7
ATOM      7  C   UNL A   1      33.093  27.099  23.991  1.00  0.00     0.141 C 
ATOM      8  C   UNL A   1      33.720  26.477  25.233  1.00  0.00     0.030 C 
BRANCH   7   9
ATOM      9  S   UNL A   1      33.074  26.074  22.476  1.00  0.00    -0.073 SA
BRANCH   9  10
ATOM     10  C   UNL A   1      33.559  24.516  23.091  1.00  0.00     0.191 A 
ATOM     11  N   UNL A   1      34.823  24.245  23.075  1.00  0.00    -0.222 NA
ATOM     12  N   UNL A   1      32.592  23.680  23.639  1.00  0.00    -0.202 N 
ATOM     13  C   UNL A   1      35.251  23.050  23.668  1.00  0.00     0.079 A 
ATOM     14  C   UNL A   1      32.934  22.479  24.261  1.00  0.00     0.280 A 
ATOM     15  C   UNL A   1      36.619  22.767  23.695  1.00  0.00     0.029 A 
ATOM     16  C   UNL A   1      34.371  22.152  24.273  1.00  0.00     0.068 A 
ATOM     17  O   UNL A   1      32.116  21.734  24.800  1.00  0.00    -0.267 OA
ATOM     18  C   UNL A   1      37.096  21.610  24.319  1.00  0.00     0.002 A 
ATOM     19  C   UNL A   1      34.837  20.988  24.896  1.00  0.00     0.016 A 
ATOM     20  C   UNL A   1      36.205  20.721  24.919  1.00  0.00     0.001 A 
BRANCH  12  21
ATOM     21  N   UNL A   1      31.199  24.016  23.611  1.00  0.00    -0.334 N 
ATOM     22  H   UNL A   1      30.681  23.897  22.782  1.00  0.00     0.178 HD
ATOM     23  H   UNL A   1      30.760  24.365  24.420  1.00  0.00     0.178 HD
ENDBRANCH  12  21
ENDBRANCH   9  10
ENDBRANCH   7   9
ENDBRANCH   4   7
ENDBRANCH   2   3
ENDBRANCH   1   2
BRANCH   1  24
ATOM     24  C   UNL A   1      31.576  31.831  26.776  1.00  0.00     0.023 C 
BRANCH  24  25
ATOM     25  C   UNL A   1      32.854  32.647  26.947  1.00  0.00     0.116 C 
BRANCH  25  26
ATOM     26  N   UNL A   1      32.628  33.929  27.597  1.00  0.00    -0.352 N 
ATOM     27  C   UNL A   1      33.272  34.469  28.685  1.00  0.00     0.251 C 
ATOM     28  H   UNL A   1      31.917  34.485  27.205  1.00  0.00     0.163 HD
ATOM     29  O   UNL A   1      32.856  35.510  29.187  1.00  0.00    -0.269 OA
BRANCH  27  30
ATOM     30  C   UNL A   1      34.437  33.768  29.266  1.00  0.00     0.039 A 
ATOM     31  C   UNL A   1      35.720  34.247  28.991  1.00  0.00     0.014 A 
ATOM     32  C   UNL A   1      34.261  32.660  30.102  1.00  0.00     0.014 A 
ATOM     33  C   UNL A   1      36.823  33.660  29.616  1.00  0.00     0.010 A 
ATOM     34  C   UNL A   1      35.354  32.124  30.775  1.00  0.00     0.010 A 
ATOM     35  C   UNL A   1      36.646  32.621  30.543  1.00  0.00    -0.014 A 
BRANCH  35  36
ATOM     36  C   UNL A   1      37.798  32.042  31.281  1.00  0.00     0.031 A 
ATOM     37  C   UNL A   1      38.624  30.951  30.654  1.00  0.00     0.074 A 
ATOM     38  C   UNL A   1      38.057  32.448  32.540  1.00  0.00     0.049 A 
ATOM     39  N   UNL A   1      39.608  30.258  31.165  1.00  0.00    -0.248 NA
ATOM     40  C   UNL A   1      38.270  30.571  29.278  1.00  0.00     0.031 C 
ATOM     41  C   UNL A   1      37.301  33.466  33.272  1.00  0.00     0.029 A 
ATOM     42  N   UNL A   1      39.020  32.047  33.432  1.00  0.00    -0.354 N 
ATOM     43  C   UNL A   1      39.985  29.352  30.180  1.00  0.00     0.074 A 
ATOM     44  C   UNL A   1      39.077  29.543  29.068  1.00  0.00     0.031 C 
ATOM     45  C   UNL A   1      37.837  33.621  34.493  1.00  0.00     0.029 A 
ATOM     46  C   UNL A   1      38.947  32.686  34.649  1.00  0.00     0.049 A 
ATOM     47  H   UNL A   1      39.699  31.366  33.223  1.00  0.00     0.167 HD
ATOM     48  C   UNL A   1      41.008  28.461  30.192  1.00  0.00     0.034 A 
ATOM     49  C   UNL A   1      39.681  32.527  35.769  1.00  0.00     0.034 A 
ATOM     50  C   UNL A   1      41.908  28.289  31.307  1.00  0.00     0.049 A 
ATOM     51  C   UNL A   1      40.801  31.517  35.767  1.00  0.00     0.074 A 
ATOM     52  C   UNL A   1      43.005  27.452  31.409  1.00  0.00     0.029 A 
ATOM     53  N   UNL A   1      41.811  28.964  32.518  1.00  0.00    -0.354 N 
ATOM     54  N   UNL A   1      41.176  30.701  34.810  1.00  0.00    -0.248 NA
ATOM     55  C   UNL A   1      41.605  31.419  36.992  1.00  0.00     0.031 C 
ATOM     56  C   UNL A   1      43.532  27.573  32.700  1.00  0.00     0.029 A 
ATOM     57  C   UNL A   1      42.811  28.540  33.381  1.00  0.00     0.049 A 
ATOM     58  H   UNL A   1      41.132  29.642  32.733  1.00  0.00     0.167 HD
ATOM     59  C   UNL A   1      42.277  30.012  35.309  1.00  0.00     0.074 A 
ATOM     60  C   UNL A   1      42.514  30.520  36.644  1.00  0.00     0.031 C 
ATOM     61  C   UNL A   1      43.028  29.048  34.716  1.00  0.00     0.034 A 
BRANCH  48  62
ATOM     62  C   UNL A   1      41.185  27.594  28.967  1.00  0.00     0.023 A 
ATOM     63  C   UNL A   1      42.205  27.842  28.031  1.00  0.00     0.031 A 
ATOM     64  C   UNL A   1      40.303  26.530  28.709  1.00  0.00     0.131 A 
ATOM     65  C   UNL A   1      42.267  27.095  26.845  1.00  0.00     0.055 A 
ATOM     66  C   UNL A   1      40.423  25.734  27.568  1.00  0.00     0.041 A 
ATOM     67  F   UNL A   1      39.297  26.256  29.554  1.00  0.00    -0.206 F 
ATOM     68  C   UNL A   1      41.398  26.026  26.618  1.00  0.00     0.022 A 
BRANCH  65  69
ATOM     69  S   UNL A   1      43.397  27.641  25.537  1.00  0.00     0.124 S 
ATOM     70  O   UNL A   1      43.994  28.831  26.141  1.00  0.00    -0.237 OA
ATOM     71  O   UNL A   1      44.281  26.492  25.382  1.00  0.00    -0.237 OA
ATOM     72  O   UNL A   1      42.511  27.905  24.405  1.00  0.00    -0.744 OA
ENDBRANCH  65  69
ENDBRANCH  48  62
BRANCH  49  73
ATOM     73  C   UNL A   1      39.378  33.329  36.989  1.00  0.00     0.023 A 
ATOM     74  C   UNL A   1      40.012  34.559  37.224  1.00  0.00     0.031 A 
ATOM     75  C   UNL A   1      38.476  32.856  37.958  1.00  0.00     0.131 A 
ATOM     76  C   UNL A   1      39.769  35.254  38.419  1.00  0.00     0.055 A 
ATOM     77  C   UNL A   1      38.198  33.575  39.122  1.00  0.00     0.041 A 
ATOM     78  F   UNL A   1      37.838  31.688  37.780  1.00  0.00    -0.206 F 
ATOM     79  C   UNL A   1      38.857  34.777  39.363  1.00  0.00     0.022 A 
BRANCH  76  80
ATOM     80  S   UNL A   1      40.724  36.758  38.758  1.00  0.00     0.124 S 
ATOM     81  O   UNL A   1      41.499  36.901  37.530  1.00  0.00    -0.237 OA
ATOM     82  O   UNL A   1      39.670  37.744  38.970  1.00  0.00    -0.237 OA
ATOM     83  O   UNL A   1      41.497  36.409  39.948  1.00  0.00    -0.744 OA
ENDBRANCH  76  80
ENDBRANCH  49  73
BRANCH  61  84
ATOM     84  C   UNL A   1      44.204  28.518  35.500  1.00  0.00     0.023 A 
ATOM     85  C   UNL A   1      44.068  27.465  36.419  1.00  0.00     0.031 A 
ATOM     86  C   UNL A   1      45.480  29.088  35.328  1.00  0.00     0.131 A 
ATOM     87  C   UNL A   1      45.175  27.050  37.174  1.00  0.00     0.055 A 
ATOM     88  C   UNL A   1      46.590  28.630  36.038  1.00  0.00     0.041 A 
ATOM     89  F   UNL A   1      45.666  30.098  34.464  1.00  0.00    -0.206 F 
ATOM     90  C   UNL A   1      46.439  27.614  36.977  1.00  0.00     0.022 A 
BRANCH  87  91
ATOM     91  S   UNL A   1      44.927  25.818  38.483  1.00  0.00     0.124 S 
ATOM     92  O   UNL A   1      44.281  24.730  37.756  1.00  0.00    -0.237 OA
ATOM     93  O   UNL A   1      46.291  25.562  38.933  1.00  0.00    -0.237 OA
ATOM     94  O   UNL A   1      44.077  26.509  39.449  1.00  0.00    -0.744 OA
ENDBRANCH  87  91
ENDBRANCH  61  84
ENDBRANCH  35  36
ENDBRANCH  27  30
ENDBRANCH  25  26
ENDBRANCH  24  25
ENDBRANCH   1  24
TORSDOF 17
ENDMDL
MODEL 3
REMARK VINA RESULT:     -11.5      2.234      3.856
REMARK SMILES C[C@@H](Sc1nc2ccccc2c(=O)n1N)C(=O)NCCCCNC(=O)c1ccc(-c2c3nc(c(-c4cc(S(=O)(=O)[O-])ccc4F)c4ccc([nH]4)c(-c4cc(S(=O)(=O)[O-])ccc4F)c4nc(c(-c5cc(S(=O)(=O)[O-])ccc5F)c5ccc2[nH]5)C=C4)C=C3)cc1
REMARK SMILES IDX 20 1 19 2 18 3 16 4 17 5 2 7 1 8 3 9 4 10 5 11 14 12 6 13
REMARK SMILES IDX 12 14 7 15 11 16 13 17 8 18 10 19 9 20 15 21 21 24 22 25
REMARK SMILES IDX 23 26 24 27 25 29 26 30 27 31 88 32 28 33 87 34 29 35 30 36
REMARK SMILES IDX 31 37 81 38 32 39 86 40 80 41 82 42 33 43 85 44 79 45 78 46
REMARK SMILES IDX 34 48 66 49 46 50 65 51 47 52 50 53 64 54 83 55 48 56 49 57
REMARK SMILES IDX 63 59 84 60 51 61 35 62 36 63 44 64 37 65 43 66 45 67 42 68
REMARK SMILES IDX 38 69 39 70 40 71 41 72 67 73 68 74 76 75 69 76 75 77 77 78
REMARK SMILES IDX 74 79 70 80 71 81 72 82 73 83 52 84 53 85 61 86 54 87 60 88
REMARK SMILES IDX 62 89 59 90 55 91 56 92 57 93 58 94
REMARK H PARENT 18 6 15 22 15 23 23 28 82 47 50 58
REMARK Flexibility Score: inf
ROOT
ATOM      1  C   UNL A   1      36.136  21.203  25.543  1.00  0.00     0.023 C 
ENDROOT
BRANCH   1   2
ATOM      2  C   UNL A   1      35.605  22.588  25.902  1.00  0.00     0.116 C 
BRANCH   2   3
ATOM      3  N   UNL A   1      34.765  22.542  27.085  1.00  0.00    -0.355 N 
ATOM      4  C   UNL A   1      33.408  22.480  27.207  1.00  0.00     0.233 C 
ATOM      5  O   UNL A   1      32.942  22.431  28.351  1.00  0.00    -0.274 OA
ATOM      6  H   UNL A   1      35.255  22.559  27.939  1.00  0.00     0.163 HD
BRANCH   4   7
ATOM      7  C   UNL A   1      32.477  22.471  25.990  1.00  0.00     0.141 C 
ATOM      8  C   UNL A   1      32.511  21.146  25.239  1.00  0.00     0.030 C 
BRANCH   7   9
ATOM      9  S   UNL A   1      30.834  23.080  26.515  1.00  0.00    -0.073 SA
BRANCH   9  10
ATOM     10  C   UNL A   1      30.882  24.741  25.987  1.00  0.00     0.191 A 
ATOM     11  N   UNL A   1      31.160  25.634  26.881  1.00  0.00    -0.222 NA
ATOM     12  N   UNL A   1      30.706  25.022  24.636  1.00  0.00    -0.202 N 
ATOM     13  C   UNL A   1      31.319  26.962  26.462  1.00  0.00     0.079 A 
ATOM     14  C   UNL A   1      30.860  26.315  24.135  1.00  0.00     0.280 A 
ATOM     15  C   UNL A   1      31.660  27.928  27.411  1.00  0.00     0.029 A 
ATOM     16  C   UNL A   1      31.193  27.351  25.127  1.00  0.00     0.068 A 
ATOM     17  O   UNL A   1      30.760  26.598  22.941  1.00  0.00    -0.267 OA
ATOM     18  C   UNL A   1      31.876  29.257  27.031  1.00  0.00     0.002 A 
ATOM     19  C   UNL A   1      31.403  28.679  24.737  1.00  0.00     0.016 A 
ATOM     20  C   UNL A   1      31.747  29.632  25.694  1.00  0.00     0.001 A 
BRANCH  12  21
ATOM     21  N   UNL A   1      30.377  23.998  23.689  1.00  0.00    -0.334 N 
ATOM     22  H   UNL A   1      29.675  23.340  23.900  1.00  0.00     0.178 HD
ATOM     23  H   UNL A   1      30.850  23.953  22.827  1.00  0.00     0.178 HD
ENDBRANCH  12  21
ENDBRANCH   9  10
ENDBRANCH   7   9
ENDBRANCH   4   7
ENDBRANCH   2   3
ENDBRANCH   1   2
BRANCH   1  24
ATOM     24  C   UNL A   1      37.542  21.203  24.940  1.00  0.00     0.023 C 
BRANCH  24  25
ATOM     25  C   UNL A   1      38.658  21.633  25.888  1.00  0.00     0.116 C 
BRANCH  25  26
ATOM     26  N   UNL A   1      39.674  20.607  26.072  1.00  0.00    -0.352 N 
ATOM     27  C   UNL A   1      40.992  20.755  26.433  1.00  0.00     0.251 C 
ATOM     28  H   UNL A   1      39.377  19.682  25.918  1.00  0.00     0.163 HD
ATOM     29  O   UNL A   1      41.745  19.785  26.408  1.00  0.00    -0.269 OA
BRANCH  27  30
ATOM     30  C   UNL A   1      41.501  22.091  26.809  1.00  0.00     0.039 A 
ATOM     31  C   UNL A   1      41.824  23.000  25.800  1.00  0.00     0.014 A 
ATOM     32  C   UNL A   1      41.629  22.455  28.154  1.00  0.00     0.014 A 
ATOM     33  C   UNL A   1      42.206  24.301  26.139  1.00  0.00     0.010 A 
ATOM     34  C   UNL A   1      41.942  23.769  28.486  1.00  0.00     0.010 A 
ATOM     35  C   UNL A   1      42.229  24.707  27.483  1.00  0.00    -0.014 A 
BRANCH  35  36
ATOM     36  C   UNL A   1      42.549  26.109  27.858  1.00  0.00     0.031 A 
ATOM     37  C   UNL A   1      43.973  26.595  27.813  1.00  0.00     0.074 A 
ATOM     38  C   UNL A   1      41.571  26.921  28.306  1.00  0.00     0.049 A 
ATOM     39  N   UNL A   1      44.468  27.747  28.184  1.00  0.00    -0.248 NA
ATOM     40  C   UNL A   1      44.974  25.641  27.312  1.00  0.00     0.031 C 
ATOM     41  C   UNL A   1      40.160  26.551  28.437  1.00  0.00     0.029 A 
ATOM     42  N   UNL A   1      41.613  28.220  28.745  1.00  0.00    -0.354 N 
ATOM     43  C   UNL A   1      45.839  27.655  27.974  1.00  0.00     0.074 A 
ATOM     44  C   UNL A   1      46.101  26.311  27.504  1.00  0.00     0.031 C 
ATOM     45  C   UNL A   1      39.470  27.602  28.907  1.00  0.00     0.029 A 
ATOM     46  C   UNL A   1      40.392  28.707  29.152  1.00  0.00     0.049 A 
ATOM     47  H   UNL A   1      42.440  28.754  28.767  1.00  0.00     0.167 HD
ATOM     48  C   UNL A   1      46.788  28.611  28.132  1.00  0.00     0.034 A 
ATOM     49  C   UNL A   1      40.055  29.902  29.677  1.00  0.00     0.034 A 
ATOM     50  C   UNL A   1      46.509  29.950  28.594  1.00  0.00     0.049 A 
ATOM     51  C   UNL A   1      41.129  30.944  29.863  1.00  0.00     0.074 A 
ATOM     52  C   UNL A   1      47.384  31.011  28.747  1.00  0.00     0.029 A 
ATOM     53  N   UNL A   1      45.257  30.411  28.985  1.00  0.00    -0.354 N 
ATOM     54  N   UNL A   1      42.415  30.858  29.614  1.00  0.00    -0.248 NA
ATOM     55  C   UNL A   1      40.703  32.247  30.389  1.00  0.00     0.031 C 
ATOM     56  C   UNL A   1      46.677  32.090  29.289  1.00  0.00     0.029 A 
ATOM     57  C   UNL A   1      45.344  31.730  29.404  1.00  0.00     0.049 A 
ATOM     58  H   UNL A   1      44.430  29.878  28.967  1.00  0.00     0.167 HD
ATOM     59  C   UNL A   1      42.946  32.106  29.927  1.00  0.00     0.074 A 
ATOM     60  C   UNL A   1      41.838  32.929  30.367  1.00  0.00     0.031 C 
ATOM     61  C   UNL A   1      44.232  32.536  29.853  1.00  0.00     0.034 A 
BRANCH  48  62
ATOM     62  C   UNL A   1      48.217  28.226  27.824  1.00  0.00     0.023 A 
ATOM     63  C   UNL A   1      48.765  28.402  26.540  1.00  0.00     0.031 A 
ATOM     64  C   UNL A   1      49.030  27.641  28.810  1.00  0.00     0.131 A 
ATOM     65  C   UNL A   1      50.053  27.923  26.255  1.00  0.00     0.055 A 
ATOM     66  C   UNL A   1      50.343  27.245  28.543  1.00  0.00     0.041 A 
ATOM     67  F   UNL A   1      48.558  27.429  30.048  1.00  0.00    -0.206 F 
ATOM     68  C   UNL A   1      50.855  27.369  27.254  1.00  0.00     0.022 A 
BRANCH  65  69
ATOM     69  S   UNL A   1      50.602  27.895  24.527  1.00  0.00     0.124 S 
ATOM     70  O   UNL A   1      51.337  29.155  24.431  1.00  0.00    -0.237 OA
ATOM     71  O   UNL A   1      51.407  26.680  24.471  1.00  0.00    -0.237 OA
ATOM     72  O   UNL A   1      49.352  27.852  23.771  1.00  0.00    -0.744 OA
ENDBRANCH  65  69
ENDBRANCH  48  62
BRANCH  49  73
ATOM     73  C   UNL A   1      38.646  30.180  30.076  1.00  0.00     0.023 A 
ATOM     74  C   UNL A   1      37.750  30.800  29.192  1.00  0.00     0.031 A 
ATOM     75  C   UNL A   1      38.184  29.860  31.366  1.00  0.00     0.131 A 
ATOM     76  C   UNL A   1      36.453  31.123  29.620  1.00  0.00     0.055 A 
ATOM     77  C   UNL A   1      36.877  30.136  31.772  1.00  0.00     0.041 A 
ATOM     78  F   UNL A   1      38.998  29.260  32.249  1.00  0.00    -0.206 F 
ATOM     79  C   UNL A   1      36.007  30.783  30.900  1.00  0.00     0.022 A 
BRANCH  76  80
ATOM     80  S   UNL A   1      35.378  32.065  28.504  1.00  0.00     0.124 S 
ATOM     81  O   UNL A   1      34.381  32.594  29.429  1.00  0.00    -0.237 OA
ATOM     82  O   UNL A   1      36.307  33.036  27.938  1.00  0.00    -0.237 OA
ATOM     83  O   UNL A   1      34.889  31.054  27.569  1.00  0.00    -0.744 OA
ENDBRANCH  76  80
ENDBRANCH  49  73
BRANCH  61  84
ATOM     84  C   UNL A   1      44.494  33.977  30.216  1.00  0.00     0.023 A 
ATOM     85  C   UNL A   1      44.425  35.006  29.263  1.00  0.00     0.031 A 
ATOM     86  C   UNL A   1      44.831  34.320  31.539  1.00  0.00     0.131 A 
ATOM     87  C   UNL A   1      44.742  36.322  29.631  1.00  0.00     0.055 A 
ATOM     88  C   UNL A   1      45.086  35.639  31.913  1.00  0.00     0.041 A 
ATOM     89  F   UNL A   1      44.914  33.376  32.490  1.00  0.00    -0.206 F 
ATOM     90  C   UNL A   1      45.055  36.648  30.954  1.00  0.00     0.022 A 
BRANCH  87  91
ATOM     91  S   UNL A   1      44.825  37.594  28.341  1.00  0.00     0.124 S 
ATOM     92  O   UNL A   1      43.753  37.181  27.440  1.00  0.00    -0.237 OA
ATOM     93  O   UNL A   1      44.586  38.820  29.095  1.00  0.00    -0.237 OA
ATOM     94  O   UNL A   1      46.176  37.451  27.803  1.00  0.00    -0.744 OA
ENDBRANCH  87  91
ENDBRANCH  61  84
ENDBRANCH  35  36
ENDBRANCH  27  30
ENDBRANCH  25  26
ENDBRANCH  24  25
ENDBRANCH   1  24
TORSDOF 17
ENDMDL
