MODEL 1
REMARK VINA RESULT:     -13.1      0.000      0.000
REMARK SMILES COc1cc2c(cc1OC)[C@H](C(=O)NCCCCNC(=O)c1ccc(-c3c4nc(c(-c5cc(S(=O)(=O)[O-])ccc5F)c5ccc([nH]5)c(-c5cc(S(=O)(=O)[O-])ccc5F)c5nc(c(-c6cc(S(=O)(=O)[O-])ccc6F)c6ccc3[nH]6)C=C5)C=C4)cc1)[C@H](c1cccc(Cl)c1)N(C)C2=O
REMARK SMILES IDX 17 1 16 2 15 3 14 4 12 5 13 6 11 8 3 9 4 10 8 11 5 12 7 13
REMARK SMILES IDX 6 14 95 15 93 16 96 17 85 18 94 19 2 20 1 21 9 22 10 23
REMARK SMILES IDX 86 24 87 25 92 26 88 27 90 28 89 29 91 30 18 31 19 32 20 33
REMARK SMILES IDX 21 35 22 36 23 37 84 38 24 39 83 40 25 41 26 42 27 43 77 44
REMARK SMILES IDX 28 45 82 46 76 47 78 48 29 49 81 50 75 51 74 52 30 54 62 55
REMARK SMILES IDX 42 56 61 57 43 58 46 59 60 60 79 61 44 62 45 63 59 65 80 66
REMARK SMILES IDX 47 67 31 68 32 69 40 70 33 71 39 72 41 73 38 74 34 75 35 76
REMARK SMILES IDX 36 77 37 78 63 79 64 80 72 81 65 82 71 83 73 84 70 85 66 86
REMARK SMILES IDX 67 87 68 88 69 89 48 90 49 91 57 92 50 93 56 94 58 95 55 96
REMARK SMILES IDX 51 97 52 98 53 99 54 100
REMARK H PARENT 14 7 19 34 78 53 46 64
REMARK Flexibility Score: inf
ROOT
ATOM      1  C   UNL A   1      32.278  28.945  27.071  1.00  0.00     0.023 C 
ENDROOT
BRANCH   1   2
ATOM      2  C   UNL A   1      31.828  27.813  26.149  1.00  0.00     0.023 C 
BRANCH   2   3
ATOM      3  C   UNL A   1      32.346  26.426  26.518  1.00  0.00     0.116 C 
BRANCH   3   4
ATOM      4  N   UNL A   1      31.297  25.472  26.754  1.00  0.00    -0.355 N 
ATOM      5  C   UNL A   1      31.136  24.161  26.507  1.00  0.00     0.230 C 
ATOM      6  O   UNL A   1      30.145  23.688  27.096  1.00  0.00    -0.274 OA
ATOM      7  H   UNL A   1      30.516  25.872  27.200  1.00  0.00     0.163 HD
BRANCH   5   8
ATOM      8  C   UNL A   1      31.910  23.226  25.554  1.00  0.00     0.136 C 
ATOM      9  C   UNL A   1      32.859  24.701  21.588  1.00  0.00     0.161 A 
ATOM     10  C   UNL A   1      32.797  23.328  21.868  1.00  0.00     0.064 A 
ATOM     11  C   UNL A   1      32.542  25.623  22.604  1.00  0.00     0.161 A 
ATOM     12  C   UNL A   1      32.464  22.879  23.151  1.00  0.00     0.048 A 
ATOM     13  C   UNL A   1      32.234  25.165  23.894  1.00  0.00     0.056 A 
ATOM     14  C   UNL A   1      32.207  23.800  24.181  1.00  0.00    -0.016 A 
ATOM     15  C   UNL A   1      32.420  21.403  23.447  1.00  0.00     0.254 C 
ATOM     16  N   UNL A   1      32.570  21.028  24.795  1.00  0.00    -0.333 N 
ATOM     17  O   UNL A   1      32.301  20.600  22.528  1.00  0.00    -0.269 OA
ATOM     18  C   UNL A   1      32.920  22.061  25.827  1.00  0.00     0.132 C 
ATOM     19  C   UNL A   1      32.555  19.627  25.169  1.00  0.00     0.147 C 
BRANCH   9  20
ATOM     20  O   UNL A   1      33.275  25.200  20.381  1.00  0.00    -0.493 OA
ATOM     21  C   UNL A   1      32.283  25.580  19.440  1.00  0.00     0.278 C 
ENDBRANCH   9  20
BRANCH  11  22
ATOM     22  O   UNL A   1      32.512  26.992  22.522  1.00  0.00    -0.493 OA
ATOM     23  C   UNL A   1      33.657  27.718  22.944  1.00  0.00     0.278 C 
ENDBRANCH  11  22
BRANCH  18  24
ATOM     24  C   UNL A   1      34.452  22.308  25.759  1.00  0.00    -0.023 A 
ATOM     25  C   UNL A   1      35.001  23.546  26.089  1.00  0.00     0.006 A 
ATOM     26  C   UNL A   1      35.392  21.298  25.448  1.00  0.00     0.026 A 
ATOM     27  C   UNL A   1      36.366  23.834  25.935  1.00  0.00     0.002 A 
ATOM     28  C   UNL A   1      36.764  21.558  25.348  1.00  0.00     0.041 A 
ATOM     29  C   UNL A   1      37.251  22.839  25.547  1.00  0.00     0.020 A 
ATOM     30  Cl  UNL A   1      37.855  20.273  25.001  1.00  0.00    -0.084 Cl
ENDBRANCH  18  24
ENDBRANCH   5   8
ENDBRANCH   3   4
ENDBRANCH   2   3
ENDBRANCH   1   2
BRANCH   1  31
ATOM     31  C   UNL A   1      33.140  30.020  26.411  1.00  0.00     0.116 C 
BRANCH  31  32
ATOM     32  N   UNL A   1      33.082  31.330  27.055  1.00  0.00    -0.352 N 
ATOM     33  C   UNL A   1      34.031  31.941  27.847  1.00  0.00     0.251 C 
ATOM     34  H   UNL A   1      32.256  31.844  26.904  1.00  0.00     0.163 HD
ATOM     35  O   UNL A   1      33.797  33.033  28.359  1.00  0.00    -0.269 OA
BRANCH  33  36
ATOM     36  C   UNL A   1      35.302  31.236  28.112  1.00  0.00     0.039 A 
ATOM     37  C   UNL A   1      36.493  31.965  28.135  1.00  0.00     0.014 A 
ATOM     38  C   UNL A   1      35.293  29.883  28.452  1.00  0.00     0.014 A 
ATOM     39  C   UNL A   1      37.657  31.362  28.616  1.00  0.00     0.010 A 
ATOM     40  C   UNL A   1      36.428  29.315  29.015  1.00  0.00     0.010 A 
ATOM     41  C   UNL A   1      37.618  30.052  29.122  1.00  0.00    -0.014 A 
BRANCH  41  42
ATOM     42  C   UNL A   1      38.792  29.429  29.790  1.00  0.00     0.031 A 
ATOM     43  C   UNL A   1      39.215  29.909  31.150  1.00  0.00     0.074 A 
ATOM     44  C   UNL A   1      39.539  28.523  29.126  1.00  0.00     0.049 A 
ATOM     45  N   UNL A   1      40.296  29.629  31.830  1.00  0.00    -0.248 NA
ATOM     46  C   UNL A   1      38.323  30.875  31.807  1.00  0.00     0.031 C 
ATOM     47  C   UNL A   1      39.265  28.020  27.777  1.00  0.00     0.029 A 
ATOM     48  N   UNL A   1      40.693  27.876  29.488  1.00  0.00    -0.354 N 
ATOM     49  C   UNL A   1      40.230  30.409  32.980  1.00  0.00     0.074 A 
ATOM     50  C   UNL A   1      39.037  31.220  32.867  1.00  0.00     0.031 C 
ATOM     51  C   UNL A   1      40.208  27.126  27.438  1.00  0.00     0.029 A 
ATOM     52  C   UNL A   1      41.181  27.026  28.521  1.00  0.00     0.049 A 
ATOM     53  H   UNL A   1      41.133  28.006  30.360  1.00  0.00     0.167 HD
ATOM     54  C   UNL A   1      41.072  30.427  34.043  1.00  0.00     0.034 A 
ATOM     55  C   UNL A   1      42.293  26.265  28.503  1.00  0.00     0.034 A 
ATOM     56  C   UNL A   1      42.236  29.582  34.154  1.00  0.00     0.049 A 
ATOM     57  C   UNL A   1      43.209  26.290  29.701  1.00  0.00     0.074 A 
ATOM     58  C   UNL A   1      43.119  29.463  35.212  1.00  0.00     0.029 A 
ATOM     59  N   UNL A   1      42.678  28.710  33.168  1.00  0.00    -0.354 N 
ATOM     60  N   UNL A   1      43.108  26.999  30.801  1.00  0.00    -0.248 NA
ATOM     61  C   UNL A   1      44.382  25.409  29.655  1.00  0.00     0.031 C 
ATOM     62  C   UNL A   1      44.122  28.558  34.847  1.00  0.00     0.029 A 
ATOM     63  C   UNL A   1      43.831  28.064  33.584  1.00  0.00     0.049 A 
ATOM     64  H   UNL A   1      42.235  28.569  32.299  1.00  0.00     0.167 HD
ATOM     65  C   UNL A   1      44.193  26.628  31.590  1.00  0.00     0.074 A 
ATOM     66  C   UNL A   1      44.925  25.624  30.844  1.00  0.00     0.031 C 
ATOM     67  C   UNL A   1      44.550  27.071  32.822  1.00  0.00     0.034 A 
BRANCH  54  68
ATOM     68  C   UNL A   1      40.761  31.403  35.154  1.00  0.00     0.023 A 
ATOM     69  C   UNL A   1      39.702  31.182  36.051  1.00  0.00     0.031 A 
ATOM     70  C   UNL A   1      41.495  32.595  35.284  1.00  0.00     0.131 A 
ATOM     71  C   UNL A   1      39.343  32.178  36.972  1.00  0.00     0.055 A 
ATOM     72  C   UNL A   1      41.190  33.542  36.264  1.00  0.00     0.041 A 
ATOM     73  F   UNL A   1      42.505  32.872  34.446  1.00  0.00    -0.206 F 
ATOM     74  C   UNL A   1      40.096  33.346  37.102  1.00  0.00     0.022 A 
BRANCH  71  75
ATOM     75  S   UNL A   1      37.782  31.993  37.874  1.00  0.00     0.124 S 
ATOM     76  O   UNL A   1      37.408  30.622  37.535  1.00  0.00    -0.237 OA
ATOM     77  O   UNL A   1      38.186  32.221  39.256  1.00  0.00    -0.237 OA
ATOM     78  O   UNL A   1      36.926  33.025  37.294  1.00  0.00    -0.744 OA
ENDBRANCH  71  75
ENDBRANCH  54  68
BRANCH  55  79
ATOM     79  C   UNL A   1      42.612  25.416  27.320  1.00  0.00     0.023 A 
ATOM     80  C   UNL A   1      42.228  24.066  27.279  1.00  0.00     0.031 A 
ATOM     81  C   UNL A   1      43.338  25.928  26.230  1.00  0.00     0.131 A 
ATOM     82  C   UNL A   1      42.609  23.262  26.194  1.00  0.00     0.055 A 
ATOM     83  C   UNL A   1      43.675  25.136  25.131  1.00  0.00     0.041 A 
ATOM     84  F   UNL A   1      43.722  27.215  26.216  1.00  0.00    -0.206 F 
ATOM     85  C   UNL A   1      43.320  23.790  25.115  1.00  0.00     0.022 A 
BRANCH  82  86
ATOM     86  S   UNL A   1      42.225  21.489  26.250  1.00  0.00     0.124 S 
ATOM     87  O   UNL A   1      40.877  21.459  25.694  1.00  0.00    -0.237 OA
ATOM     88  O   UNL A   1      43.278  20.926  25.412  1.00  0.00    -0.237 OA
ATOM     89  O   UNL A   1      42.322  21.165  27.671  1.00  0.00    -0.744 OA
ENDBRANCH  82  86
ENDBRANCH  55  79
BRANCH  67  90
ATOM     90  C   UNL A   1      45.763  26.437  33.450  1.00  0.00     0.023 A 
ATOM     91  C   UNL A   1      45.674  25.243  34.187  1.00  0.00     0.031 A 
ATOM     92  C   UNL A   1      47.025  27.040  33.310  1.00  0.00     0.131 A 
ATOM     93  C   UNL A   1      46.821  24.713  34.795  1.00  0.00     0.055 A 
ATOM     94  C   UNL A   1      48.172  26.480  33.873  1.00  0.00     0.041 A 
ATOM     95  F   UNL A   1      47.164  28.181  32.617  1.00  0.00    -0.206 F 
ATOM     96  C   UNL A   1      48.072  25.315  34.630  1.00  0.00     0.022 A 
BRANCH  93  97
ATOM     97  S   UNL A   1      46.648  23.259  35.864  1.00  0.00     0.124 S 
ATOM     98  O   UNL A   1      47.427  23.648  37.034  1.00  0.00    -0.237 OA
ATOM     99  O   UNL A   1      45.203  23.183  36.058  1.00  0.00    -0.237 OA
ATOM    100  O   UNL A   1      47.221  22.176  35.067  1.00  0.00    -0.744 OA
ENDBRANCH  93  97
ENDBRANCH  67  90
ENDBRANCH  41  42
ENDBRANCH  33  36
ENDBRANCH  31  32
ENDBRANCH   1  31
TORSDOF 17
ENDMDL
MODEL 2
REMARK VINA RESULT:     -13.0      4.832      7.647
REMARK SMILES COc1cc2c(cc1OC)[C@H](C(=O)NCCCCNC(=O)c1ccc(-c3c4nc(c(-c5cc(S(=O)(=O)[O-])ccc5F)c5ccc([nH]5)c(-c5cc(S(=O)(=O)[O-])ccc5F)c5nc(c(-c6cc(S(=O)(=O)[O-])ccc6F)c6ccc3[nH]6)C=C5)C=C4)cc1)[C@H](c1cccc(Cl)c1)N(C)C2=O
REMARK SMILES IDX 17 1 16 2 15 3 14 4 12 5 13 6 11 8 3 9 4 10 8 11 5 12 7 13
REMARK SMILES IDX 6 14 95 15 93 16 96 17 85 18 94 19 2 20 1 21 9 22 10 23
REMARK SMILES IDX 86 24 87 25 92 26 88 27 90 28 89 29 91 30 18 31 19 32 20 33
REMARK SMILES IDX 21 35 22 36 23 37 84 38 24 39 83 40 25 41 26 42 27 43 77 44
REMARK SMILES IDX 28 45 82 46 76 47 78 48 29 49 81 50 75 51 74 52 30 54 62 55
REMARK SMILES IDX 42 56 61 57 43 58 46 59 60 60 79 61 44 62 45 63 59 65 80 66
REMARK SMILES IDX 47 67 31 68 32 69 40 70 33 71 39 72 41 73 38 74 34 75 35 76
REMARK SMILES IDX 36 77 37 78 63 79 64 80 72 81 65 82 71 83 73 84 70 85 66 86
REMARK SMILES IDX 67 87 68 88 69 89 48 90 49 91 57 92 50 93 56 94 58 95 55 96
REMARK SMILES IDX 51 97 52 98 53 99 54 100
REMARK H PARENT 14 7 19 34 78 53 46 64
REMARK Flexibility Score: inf
ROOT
ATOM      1  C   UNL A   1      35.422  21.147  25.019  1.00  0.00     0.023 C 
ENDROOT
BRANCH   1   2
ATOM      2  C   UNL A   1      34.425  21.335  26.161  1.00  0.00     0.023 C 
BRANCH   2   3
ATOM      3  C   UNL A   1      34.387  22.733  26.770  1.00  0.00     0.116 C 
BRANCH   3   4
ATOM      4  N   UNL A   1      33.072  23.134  27.188  1.00  0.00    -0.355 N 
ATOM      5  C   UNL A   1      32.166  24.023  26.744  1.00  0.00     0.230 C 
ATOM      6  O   UNL A   1      31.053  23.873  27.283  1.00  0.00    -0.274 OA
ATOM      7  H   UNL A   1      32.761  22.643  27.983  1.00  0.00     0.163 HD
BRANCH   5   8
ATOM      8  C   UNL A   1      32.335  25.217  25.781  1.00  0.00     0.136 C 
ATOM      9  C   UNL A   1      33.211  24.365  21.620  1.00  0.00     0.161 A 
ATOM     10  C   UNL A   1      33.531  25.601  22.203  1.00  0.00     0.064 A 
ATOM     11  C   UNL A   1      32.649  23.354  22.423  1.00  0.00     0.161 A 
ATOM     12  C   UNL A   1      33.260  25.840  23.555  1.00  0.00     0.048 A 
ATOM     13  C   UNL A   1      32.358  23.611  23.771  1.00  0.00     0.056 A 
ATOM     14  C   UNL A   1      32.644  24.852  24.342  1.00  0.00    -0.016 A 
ATOM     15  C   UNL A   1      33.588  27.177  24.166  1.00  0.00     0.254 C 
ATOM     16  N   UNL A   1      32.876  27.528  25.327  1.00  0.00    -0.333 N 
ATOM     17  O   UNL A   1      34.409  27.910  23.624  1.00  0.00    -0.269 OA
ATOM     18  C   UNL A   1      31.742  26.666  25.803  1.00  0.00     0.132 C 
ATOM     19  C   UNL A   1      33.118  28.804  25.974  1.00  0.00     0.147 C 
BRANCH   9  20
ATOM     20  O   UNL A   1      33.360  24.109  20.283  1.00  0.00    -0.493 OA
ATOM     21  C   UNL A   1      32.699  24.965  19.363  1.00  0.00     0.278 C 
ENDBRANCH   9  20
BRANCH  11  22
ATOM     22  O   UNL A   1      32.300  22.080  22.053  1.00  0.00    -0.493 OA
ATOM     23  C   UNL A   1      32.232  21.081  23.061  1.00  0.00     0.278 C 
ENDBRANCH  11  22
BRANCH  18  24
ATOM     24  C   UNL A   1      30.484  27.021  24.964  1.00  0.00    -0.023 A 
ATOM     25  C   UNL A   1      29.355  26.205  24.971  1.00  0.00     0.006 A 
ATOM     26  C   UNL A   1      30.359  28.213  24.213  1.00  0.00     0.026 A 
ATOM     27  C   UNL A   1      28.247  26.438  24.144  1.00  0.00     0.002 A 
ATOM     28  C   UNL A   1      29.232  28.487  23.428  1.00  0.00     0.041 A 
ATOM     29  C   UNL A   1      28.191  27.578  23.356  1.00  0.00     0.020 A 
ATOM     30  Cl  UNL A   1      29.129  29.975  22.569  1.00  0.00    -0.084 Cl
ENDBRANCH  18  24
ENDBRANCH   5   8
ENDBRANCH   3   4
ENDBRANCH   2   3
ENDBRANCH   1   2
BRANCH   1  31
ATOM     31  C   UNL A   1      36.838  21.650  25.300  1.00  0.00     0.116 C 
BRANCH  31  32
ATOM     32  N   UNL A   1      37.861  20.608  25.333  1.00  0.00    -0.352 N 
ATOM     33  C   UNL A   1      39.122  20.661  25.889  1.00  0.00     0.251 C 
ATOM     34  H   UNL A   1      37.620  19.758  24.902  1.00  0.00     0.163 HD
ATOM     35  O   UNL A   1      39.885  19.704  25.781  1.00  0.00    -0.269 OA
BRANCH  33  36
ATOM     36  C   UNL A   1      39.555  21.903  26.564  1.00  0.00     0.039 A 
ATOM     37  C   UNL A   1      40.555  21.835  27.537  1.00  0.00     0.014 A 
ATOM     38  C   UNL A   1      39.053  23.135  26.147  1.00  0.00     0.014 A 
ATOM     39  C   UNL A   1      41.135  23.016  28.005  1.00  0.00     0.010 A 
ATOM     40  C   UNL A   1      39.695  24.301  26.545  1.00  0.00     0.010 A 
ATOM     41  C   UNL A   1      40.756  24.255  27.463  1.00  0.00    -0.014 A 
BRANCH  41  42
ATOM     42  C   UNL A   1      41.458  25.518  27.814  1.00  0.00     0.031 A 
ATOM     43  C   UNL A   1      40.718  26.600  28.551  1.00  0.00     0.074 A 
ATOM     44  C   UNL A   1      42.713  25.734  27.370  1.00  0.00     0.049 A 
ATOM     45  N   UNL A   1      41.081  27.831  28.802  1.00  0.00    -0.248 NA
ATOM     46  C   UNL A   1      39.367  26.262  29.020  1.00  0.00     0.031 C 
ATOM     47  C   UNL A   1      43.516  24.784  26.595  1.00  0.00     0.029 A 
ATOM     48  N   UNL A   1      43.531  26.830  27.492  1.00  0.00    -0.354 N 
ATOM     49  C   UNL A   1      39.991  28.424  29.430  1.00  0.00     0.074 A 
ATOM     50  C   UNL A   1      38.935  27.435  29.456  1.00  0.00     0.031 C 
ATOM     51  C   UNL A   1      44.715  25.328  26.334  1.00  0.00     0.029 A 
ATOM     52  C   UNL A   1      44.754  26.682  26.878  1.00  0.00     0.049 A 
ATOM     53  H   UNL A   1      43.267  27.647  27.973  1.00  0.00     0.167 HD
ATOM     54  C   UNL A   1      39.890  29.670  29.958  1.00  0.00     0.034 A 
ATOM     55  C   UNL A   1      45.783  27.543  26.755  1.00  0.00     0.034 A 
ATOM     56  C   UNL A   1      40.967  30.628  29.955  1.00  0.00     0.049 A 
ATOM     57  C   UNL A   1      45.654  28.918  27.361  1.00  0.00     0.074 A 
ATOM     58  C   UNL A   1      41.003  31.889  30.522  1.00  0.00     0.029 A 
ATOM     59  N   UNL A   1      42.203  30.428  29.353  1.00  0.00    -0.354 N 
ATOM     60  N   UNL A   1      44.632  29.449  27.992  1.00  0.00    -0.248 NA
ATOM     61  C   UNL A   1      46.818  29.805  27.243  1.00  0.00     0.031 C 
ATOM     62  C   UNL A   1      42.240  32.471  30.221  1.00  0.00     0.029 A 
ATOM     63  C   UNL A   1      43.000  31.549  29.519  1.00  0.00     0.049 A 
ATOM     64  H   UNL A   1      42.474  29.608  28.880  1.00  0.00     0.167 HD
ATOM     65  C   UNL A   1      45.042  30.724  28.370  1.00  0.00     0.074 A 
ATOM     66  C   UNL A   1      46.407  30.875  27.907  1.00  0.00     0.031 C 
ATOM     67  C   UNL A   1      44.357  31.682  29.043  1.00  0.00     0.034 A 
BRANCH  54  68
ATOM     68  C   UNL A   1      38.561  30.055  30.565  1.00  0.00     0.023 A 
ATOM     69  C   UNL A   1      37.559  30.682  29.803  1.00  0.00     0.031 A 
ATOM     70  C   UNL A   1      38.312  29.846  31.933  1.00  0.00     0.131 A 
ATOM     71  C   UNL A   1      36.401  31.165  30.431  1.00  0.00     0.055 A 
ATOM     72  C   UNL A   1      37.116  30.246  32.532  1.00  0.00     0.041 A 
ATOM     73  F   UNL A   1      39.237  29.270  32.716  1.00  0.00    -0.206 F 
ATOM     74  C   UNL A   1      36.160  30.929  31.785  1.00  0.00     0.022 A 
BRANCH  71  75
ATOM     75  S   UNL A   1      35.298  32.249  29.483  1.00  0.00     0.124 S 
ATOM     76  O   UNL A   1      36.229  33.269  29.007  1.00  0.00    -0.237 OA
ATOM     77  O   UNL A   1      34.765  31.349  28.468  1.00  0.00    -0.237 OA
ATOM     78  O   UNL A   1      34.334  32.711  30.479  1.00  0.00    -0.744 OA
ENDBRANCH  71  75
ENDBRANCH  54  68
BRANCH  55  79
ATOM     79  C   UNL A   1      47.024  27.145  26.031  1.00  0.00     0.023 A 
ATOM     80  C   UNL A   1      48.062  26.476  26.699  1.00  0.00     0.031 A 
ATOM     81  C   UNL A   1      47.207  27.460  24.673  1.00  0.00     0.131 A 
ATOM     82  C   UNL A   1      49.256  26.183  26.021  1.00  0.00     0.055 A 
ATOM     83  C   UNL A   1      48.378  27.124  23.991  1.00  0.00     0.041 A 
ATOM     84  F   UNL A   1      46.241  28.091  23.986  1.00  0.00    -0.206 F 
ATOM     85  C   UNL A   1      49.416  26.493  24.669  1.00  0.00     0.022 A 
BRANCH  82  86
ATOM     86  S   UNL A   1      50.629  25.456  26.958  1.00  0.00     0.124 S 
ATOM     87  O   UNL A   1      51.576  25.133  25.896  1.00  0.00    -0.237 OA
ATOM     88  O   UNL A   1      51.006  26.554  27.842  1.00  0.00    -0.237 OA
ATOM     89  O   UNL A   1      50.018  24.307  27.621  1.00  0.00    -0.744 OA
ENDBRANCH  82  86
ENDBRANCH  55  79
BRANCH  67  90
ATOM     90  C   UNL A   1      45.094  32.959  29.352  1.00  0.00     0.023 A 
ATOM     91  C   UNL A   1      45.086  34.049  28.464  1.00  0.00     0.031 A 
ATOM     92  C   UNL A   1      45.817  33.082  30.551  1.00  0.00     0.131 A 
ATOM     93  C   UNL A   1      45.826  35.201  28.770  1.00  0.00     0.055 A 
ATOM     94  C   UNL A   1      46.508  34.250  30.874  1.00  0.00     0.041 A 
ATOM     95  F   UNL A   1      45.857  32.069  31.431  1.00  0.00    -0.206 F 
ATOM     96  C   UNL A   1      46.524  35.314  29.976  1.00  0.00     0.022 A 
BRANCH  93  97
ATOM     97  S   UNL A   1      45.920  36.528  27.539  1.00  0.00     0.124 S 
ATOM     98  O   UNL A   1      45.882  35.782  26.285  1.00  0.00    -0.237 OA
ATOM     99  O   UNL A   1      44.735  37.323  27.843  1.00  0.00    -0.237 OA
ATOM    100  O   UNL A   1      47.195  37.181  27.834  1.00  0.00    -0.744 OA
ENDBRANCH  93  97
ENDBRANCH  67  90
ENDBRANCH  41  42
ENDBRANCH  33  36
ENDBRANCH  31  32
ENDBRANCH   1  31
TORSDOF 17
ENDMDL
MODEL 3
REMARK VINA RESULT:     -13.0      4.731      7.391
REMARK SMILES COc1cc2c(cc1OC)[C@H](C(=O)NCCCCNC(=O)c1ccc(-c3c4nc(c(-c5cc(S(=O)(=O)[O-])ccc5F)c5ccc([nH]5)c(-c5cc(S(=O)(=O)[O-])ccc5F)c5nc(c(-c6cc(S(=O)(=O)[O-])ccc6F)c6ccc3[nH]6)C=C5)C=C4)cc1)[C@H](c1cccc(Cl)c1)N(C)C2=O
REMARK SMILES IDX 17 1 16 2 15 3 14 4 12 5 13 6 11 8 3 9 4 10 8 11 5 12 7 13
REMARK SMILES IDX 6 14 95 15 93 16 96 17 85 18 94 19 2 20 1 21 9 22 10 23
REMARK SMILES IDX 86 24 87 25 92 26 88 27 90 28 89 29 91 30 18 31 19 32 20 33
REMARK SMILES IDX 21 35 22 36 23 37 84 38 24 39 83 40 25 41 26 42 27 43 77 44
REMARK SMILES IDX 28 45 82 46 76 47 78 48 29 49 81 50 75 51 74 52 30 54 62 55
REMARK SMILES IDX 42 56 61 57 43 58 46 59 60 60 79 61 44 62 45 63 59 65 80 66
REMARK SMILES IDX 47 67 31 68 32 69 40 70 33 71 39 72 41 73 38 74 34 75 35 76
REMARK SMILES IDX 36 77 37 78 63 79 64 80 72 81 65 82 71 83 73 84 70 85 66 86
REMARK SMILES IDX 67 87 68 88 69 89 48 90 49 91 57 92 50 93 56 94 58 95 55 96
REMARK SMILES IDX 51 97 52 98 53 99 54 100
REMARK H PARENT 14 7 19 34 78 53 46 64
REMARK Flexibility Score: inf
ROOT
ATOM      1  C   UNL A   1      35.570  21.704  24.732  1.00  0.00     0.023 C 
ENDROOT
BRANCH   1   2
ATOM      2  C   UNL A   1      34.826  21.688  26.066  1.00  0.00     0.023 C 
BRANCH   2   3
ATOM      3  C   UNL A   1      34.677  23.045  26.746  1.00  0.00     0.116 C 
BRANCH   3   4
ATOM      4  N   UNL A   1      33.328  23.335  27.145  1.00  0.00    -0.355 N 
ATOM      5  C   UNL A   1      32.360  24.151  26.692  1.00  0.00     0.230 C 
ATOM      6  O   UNL A   1      31.255  23.908  27.213  1.00  0.00    -0.274 OA
ATOM      7  H   UNL A   1      33.046  22.815  27.932  1.00  0.00     0.163 HD
BRANCH   5   8
ATOM      8  C   UNL A   1      32.446  25.362  25.740  1.00  0.00     0.136 C 
ATOM      9  C   UNL A   1      33.253  24.598  21.548  1.00  0.00     0.161 A 
ATOM     10  C   UNL A   1      33.529  25.842  22.137  1.00  0.00     0.064 A 
ATOM     11  C   UNL A   1      32.762  23.552  22.353  1.00  0.00     0.161 A 
ATOM     12  C   UNL A   1      33.282  26.053  23.498  1.00  0.00     0.048 A 
ATOM     13  C   UNL A   1      32.494  23.781  23.711  1.00  0.00     0.056 A 
ATOM     14  C   UNL A   1      32.735  25.028  24.289  1.00  0.00    -0.016 A 
ATOM     15  C   UNL A   1      33.562  27.397  24.116  1.00  0.00     0.254 C 
ATOM     16  N   UNL A   1      32.864  27.702  25.300  1.00  0.00    -0.333 N 
ATOM     17  O   UNL A   1      34.333  28.175  23.563  1.00  0.00    -0.269 OA
ATOM     18  C   UNL A   1      31.786  26.781  25.794  1.00  0.00     0.132 C 
ATOM     19  C   UNL A   1      33.062  28.980  25.956  1.00  0.00     0.147 C 
BRANCH   9  20
ATOM     20  O   UNL A   1      33.380  24.364  20.204  1.00  0.00    -0.493 OA
ATOM     21  C   UNL A   1      32.653  25.196  19.312  1.00  0.00     0.278 C 
ENDBRANCH   9  20
BRANCH  11  22
ATOM     22  O   UNL A   1      32.464  22.267  21.977  1.00  0.00    -0.493 OA
ATOM     23  C   UNL A   1      32.238  21.303  22.995  1.00  0.00     0.278 C 
ENDBRANCH  11  22
BRANCH  18  24
ATOM     24  C   UNL A   1      30.491  27.083  24.992  1.00  0.00    -0.023 A 
ATOM     25  C   UNL A   1      29.432  26.178  24.957  1.00  0.00     0.006 A 
ATOM     26  C   UNL A   1      30.257  28.307  24.322  1.00  0.00     0.026 A 
ATOM     27  C   UNL A   1      28.297  26.372  24.157  1.00  0.00     0.002 A 
ATOM     28  C   UNL A   1      29.101  28.537  23.567  1.00  0.00     0.041 A 
ATOM     29  C   UNL A   1      28.136  27.551  23.445  1.00  0.00     0.020 A 
ATOM     30  Cl  UNL A   1      28.864  30.064  22.807  1.00  0.00    -0.084 Cl
ENDBRANCH  18  24
ENDBRANCH   5   8
ENDBRANCH   3   4
ENDBRANCH   2   3
ENDBRANCH   1   2
BRANCH   1  31
ATOM     31  C   UNL A   1      37.056  22.053  24.818  1.00  0.00     0.116 C 
BRANCH  31  32
ATOM     32  N   UNL A   1      37.934  20.919  25.096  1.00  0.00    -0.352 N 
ATOM     33  C   UNL A   1      39.071  20.884  25.876  1.00  0.00     0.251 C 
ATOM     34  H   UNL A   1      37.684  20.069  24.669  1.00  0.00     0.163 HD
ATOM     35  O   UNL A   1      39.730  19.851  25.960  1.00  0.00    -0.269 OA
BRANCH  33  36
ATOM     36  C   UNL A   1      39.508  22.120  26.558  1.00  0.00     0.039 A 
ATOM     37  C   UNL A   1      40.520  22.046  27.518  1.00  0.00     0.014 A 
ATOM     38  C   UNL A   1      38.997  23.355  26.160  1.00  0.00     0.014 A 
ATOM     39  C   UNL A   1      41.102  23.224  27.991  1.00  0.00     0.010 A 
ATOM     40  C   UNL A   1      39.640  24.519  26.562  1.00  0.00     0.010 A 
ATOM     41  C   UNL A   1      40.712  24.467  27.466  1.00  0.00    -0.014 A 
BRANCH  41  42
ATOM     42  C   UNL A   1      41.414  25.729  27.822  1.00  0.00     0.031 A 
ATOM     43  C   UNL A   1      40.677  26.805  28.569  1.00  0.00     0.074 A 
ATOM     44  C   UNL A   1      42.667  25.949  27.373  1.00  0.00     0.049 A 
ATOM     45  N   UNL A   1      41.039  28.035  28.826  1.00  0.00    -0.248 NA
ATOM     46  C   UNL A   1      39.328  26.463  29.043  1.00  0.00     0.031 C 
ATOM     47  C   UNL A   1      43.467  25.005  26.588  1.00  0.00     0.029 A 
ATOM     48  N   UNL A   1      43.484  27.045  27.498  1.00  0.00    -0.354 N 
ATOM     49  C   UNL A   1      39.952  28.623  29.463  1.00  0.00     0.074 A 
ATOM     50  C   UNL A   1      38.897  27.633  29.488  1.00  0.00     0.031 C 
ATOM     51  C   UNL A   1      44.665  25.553  26.325  1.00  0.00     0.029 A 
ATOM     52  C   UNL A   1      44.704  26.903  26.877  1.00  0.00     0.049 A 
ATOM     53  H   UNL A   1      43.222  27.859  27.986  1.00  0.00     0.167 HD
ATOM     54  C   UNL A   1      39.852  29.865  29.999  1.00  0.00     0.034 A 
ATOM     55  C   UNL A   1      45.732  27.766  26.754  1.00  0.00     0.034 A 
ATOM     56  C   UNL A   1      40.928  30.825  29.997  1.00  0.00     0.049 A 
ATOM     57  C   UNL A   1      45.604  29.137  27.370  1.00  0.00     0.074 A 
ATOM     58  C   UNL A   1      40.965  32.083  30.572  1.00  0.00     0.029 A 
ATOM     59  N   UNL A   1      42.162  30.630  29.388  1.00  0.00    -0.354 N 
ATOM     60  N   UNL A   1      44.585  29.663  28.009  1.00  0.00    -0.248 NA
ATOM     61  C   UNL A   1      46.767  30.026  27.251  1.00  0.00     0.031 C 
ATOM     62  C   UNL A   1      42.199  32.667  30.268  1.00  0.00     0.029 A 
ATOM     63  C   UNL A   1      42.958  31.751  29.556  1.00  0.00     0.049 A 
ATOM     64  H   UNL A   1      42.431  29.814  28.908  1.00  0.00     0.167 HD
ATOM     65  C   UNL A   1      44.995  30.936  28.393  1.00  0.00     0.074 A 
ATOM     66  C   UNL A   1      46.357  31.092  27.924  1.00  0.00     0.031 C 
ATOM     67  C   UNL A   1      44.312  31.889  29.074  1.00  0.00     0.034 A 
BRANCH  54  68
ATOM     68  C   UNL A   1      38.526  30.246  30.615  1.00  0.00     0.023 A 
ATOM     69  C   UNL A   1      37.518  30.873  29.861  1.00  0.00     0.031 A 
ATOM     70  C   UNL A   1      38.285  30.030  31.984  1.00  0.00     0.131 A 
ATOM     71  C   UNL A   1      36.362  31.351  30.497  1.00  0.00     0.055 A 
ATOM     72  C   UNL A   1      37.091  30.426  32.591  1.00  0.00     0.041 A 
ATOM     73  F   UNL A   1      39.215  29.454  32.759  1.00  0.00    -0.206 F 
ATOM     74  C   UNL A   1      36.130  31.109  31.851  1.00  0.00     0.022 A 
BRANCH  71  75
ATOM     75  S   UNL A   1      35.252  32.435  29.560  1.00  0.00     0.124 S 
ATOM     76  O   UNL A   1      36.194  33.393  28.986  1.00  0.00    -0.237 OA
ATOM     77  O   UNL A   1      34.627  31.513  28.619  1.00  0.00    -0.237 OA
ATOM     78  O   UNL A   1      34.364  32.983  30.583  1.00  0.00    -0.744 OA
ENDBRANCH  71  75
ENDBRANCH  54  68
BRANCH  55  79
ATOM     79  C   UNL A   1      46.969  27.374  26.022  1.00  0.00     0.023 A 
ATOM     80  C   UNL A   1      47.161  27.748  24.683  1.00  0.00     0.031 A 
ATOM     81  C   UNL A   1      47.960  26.587  26.636  1.00  0.00     0.131 A 
ATOM     82  C   UNL A   1      48.294  27.300  23.985  1.00  0.00     0.055 A 
ATOM     83  C   UNL A   1      49.109  26.183  25.952  1.00  0.00     0.041 A 
ATOM     84  F   UNL A   1      47.829  26.210  27.918  1.00  0.00    -0.206 F 
ATOM     85  C   UNL A   1      49.274  26.529  24.614  1.00  0.00     0.022 A 
BRANCH  82  86
ATOM     86  S   UNL A   1      48.429  27.678  22.216  1.00  0.00     0.124 S 
ATOM     87  O   UNL A   1      48.557  26.345  21.636  1.00  0.00    -0.237 OA
ATOM     88  O   UNL A   1      47.172  28.372  21.959  1.00  0.00    -0.237 OA
ATOM     89  O   UNL A   1      49.627  28.510  22.137  1.00  0.00    -0.744 OA
ENDBRANCH  82  86
ENDBRANCH  55  79
BRANCH  67  90
ATOM     90  C   UNL A   1      45.049  33.165  29.388  1.00  0.00     0.023 A 
ATOM     91  C   UNL A   1      45.796  33.315  30.570  1.00  0.00     0.031 A 
ATOM     92  C   UNL A   1      45.000  34.245  28.490  1.00  0.00     0.131 A 
ATOM     93  C   UNL A   1      46.427  34.537  30.844  1.00  0.00     0.055 A 
ATOM     94  C   UNL A   1      45.673  35.440  28.743  1.00  0.00     0.041 A 
ATOM     95  F   UNL A   1      44.300  34.153  27.349  1.00  0.00    -0.206 F 
ATOM     96  C   UNL A   1      46.384  35.595  29.932  1.00  0.00     0.022 A 
BRANCH  93  97
ATOM     97  S   UNL A   1      47.253  34.750  32.443  1.00  0.00     0.124 S 
ATOM     98  O   UNL A   1      48.078  33.550  32.522  1.00  0.00    -0.237 OA
ATOM     99  O   UNL A   1      47.971  36.007  32.260  1.00  0.00    -0.237 OA
ATOM    100  O   UNL A   1      46.146  34.806  33.397  1.00  0.00    -0.744 OA
ENDBRANCH  93  97
ENDBRANCH  67  90
ENDBRANCH  41  42
ENDBRANCH  33  36
ENDBRANCH  31  32
ENDBRANCH   1  31
TORSDOF 17
ENDMDL
