MODEL 1
REMARK VINA RESULT:     -11.7      0.000      0.000
REMARK SMILES C/C(=C(\C#N)C(=O)NCCCCNC(=O)c1ccc(-c2c3nc(c(-c4cc(S(=O)(=O)[O-])ccc4F)c4ccc([nH]4)c(-c4cc(S(=O)(=O)[O-])ccc4F)c4nc(c(-c5cc(S(=O)(=O)[O-])ccc5F)c5ccc2[nH]5)C=C4)C=C3)cc1)c1cccc2ccccc12
REMARK SMILES IDX 11 1 10 2 9 3 8 4 6 5 7 6 3 8 1 9 2 10 79 11 80 12 88 13
REMARK SMILES IDX 81 14 83 15 87 16 82 17 84 18 86 19 85 20 4 21 5 22 12 23
REMARK SMILES IDX 13 24 14 25 15 27 16 28 17 29 78 30 18 31 77 32 19 33 20 34
REMARK SMILES IDX 21 35 71 36 22 37 76 38 70 39 72 40 23 41 75 42 69 43 68 44
REMARK SMILES IDX 24 46 56 47 36 48 55 49 37 50 40 51 54 52 73 53 38 54 39 55
REMARK SMILES IDX 53 57 74 58 41 59 25 60 26 61 34 62 27 63 33 64 35 65 32 66
REMARK SMILES IDX 28 67 29 68 30 69 31 70 57 71 58 72 66 73 59 74 65 75 67 76
REMARK SMILES IDX 64 77 60 78 61 79 62 80 63 81 42 82 43 83 51 84 44 85 50 86
REMARK SMILES IDX 52 87 49 88 45 89 46 90 47 91 48 92
REMARK H PARENT 8 7 13 26 72 45 40 56
REMARK Flexibility Score: inf
ROOT
ATOM      1  C   UNL A   1      32.669  28.804  24.708  1.00  0.00     0.023 C 
ENDROOT
BRANCH   1   2
ATOM      2  C   UNL A   1      31.359  28.222  25.245  1.00  0.00     0.023 C 
BRANCH   2   3
ATOM      3  C   UNL A   1      31.445  26.771  25.713  1.00  0.00     0.116 C 
BRANCH   3   4
ATOM      4  N   UNL A   1      30.905  25.828  24.746  1.00  0.00    -0.351 N 
ATOM      5  C   UNL A   1      31.426  24.929  23.861  1.00  0.00     0.262 C 
ATOM      6  O   UNL A   1      30.594  24.127  23.430  1.00  0.00    -0.268 OA
ATOM      7  H   UNL A   1      29.921  25.840  24.726  1.00  0.00     0.163 HD
BRANCH   5   8
ATOM      8  C   UNL A   1      32.878  24.882  23.421  1.00  0.00     0.120 C 
ATOM      9  C   UNL A   1      35.271  24.089  23.502  1.00  0.00     0.046 C 
ATOM     10  C   UNL A   1      33.824  24.037  23.954  1.00  0.00    -0.020 C 
BRANCH  10  11
ATOM     11  C   UNL A   1      33.526  22.972  24.976  1.00  0.00    -0.013 A 
ATOM     12  C   UNL A   1      33.641  23.366  26.323  1.00  0.00     0.009 A 
ATOM     13  C   UNL A   1      33.169  21.604  24.701  1.00  0.00    -0.011 A 
ATOM     14  C   UNL A   1      33.684  22.429  27.350  1.00  0.00     0.001 A 
ATOM     15  C   UNL A   1      33.337  20.656  25.746  1.00  0.00    -0.018 A 
ATOM     16  C   UNL A   1      32.606  21.087  23.501  1.00  0.00     0.009 A 
ATOM     17  C   UNL A   1      33.628  21.077  27.044  1.00  0.00     0.009 A 
ATOM     18  C   UNL A   1      33.149  19.284  25.522  1.00  0.00     0.009 A 
ATOM     19  C   UNL A   1      32.217  19.747  23.370  1.00  0.00     0.001 A 
ATOM     20  C   UNL A   1      32.535  18.834  24.361  1.00  0.00     0.001 A 
ENDBRANCH  10  11
BRANCH   8  21
ATOM     21  C   UNL A   1      33.303  25.788  22.404  1.00  0.00     0.105 C 
ATOM     22  N   UNL A   1      33.653  26.575  21.628  1.00  0.00    -0.192 NA
ENDBRANCH   8  21
ENDBRANCH   5   8
ENDBRANCH   3   4
ENDBRANCH   2   3
ENDBRANCH   1   2
BRANCH   1  23
ATOM     23  C   UNL A   1      33.634  29.333  25.767  1.00  0.00     0.116 C 
BRANCH  23  24
ATOM     24  N   UNL A   1      33.278  30.658  26.249  1.00  0.00    -0.352 N 
ATOM     25  C   UNL A   1      33.855  31.400  27.252  1.00  0.00     0.251 C 
ATOM     26  H   UNL A   1      32.517  31.082  25.793  1.00  0.00     0.163 HD
ATOM     27  O   UNL A   1      33.307  32.432  27.629  1.00  0.00    -0.269 OA
BRANCH  25  28
ATOM     28  C   UNL A   1      35.110  30.942  27.888  1.00  0.00     0.039 A 
ATOM     29  C   UNL A   1      35.147  29.671  28.465  1.00  0.00     0.014 A 
ATOM     30  C   UNL A   1      36.241  31.762  27.932  1.00  0.00     0.014 A 
ATOM     31  C   UNL A   1      36.327  29.215  29.056  1.00  0.00     0.010 A 
ATOM     32  C   UNL A   1      37.443  31.265  28.428  1.00  0.00     0.010 A 
ATOM     33  C   UNL A   1      37.494  29.999  29.025  1.00  0.00    -0.014 A 
BRANCH  33  34
ATOM     34  C   UNL A   1      38.746  29.525  29.673  1.00  0.00     0.031 A 
ATOM     35  C   UNL A   1      39.145  30.062  31.023  1.00  0.00     0.074 A 
ATOM     36  C   UNL A   1      39.522  28.616  29.050  1.00  0.00     0.049 A 
ATOM     37  N   UNL A   1      40.186  29.765  31.758  1.00  0.00    -0.248 NA
ATOM     38  C   UNL A   1      38.273  31.090  31.615  1.00  0.00     0.031 C 
ATOM     39  C   UNL A   1      39.261  28.048  27.724  1.00  0.00     0.029 A 
ATOM     40  N   UNL A   1      40.681  27.997  29.450  1.00  0.00    -0.354 N 
ATOM     41  C   UNL A   1      40.093  30.568  32.891  1.00  0.00     0.074 A 
ATOM     42  C   UNL A   1      38.943  31.423  32.705  1.00  0.00     0.031 C 
ATOM     43  C   UNL A   1      40.200  27.131  27.445  1.00  0.00     0.029 A 
ATOM     44  C   UNL A   1      41.161  27.081  28.543  1.00  0.00     0.049 A 
ATOM     45  H   UNL A   1      41.126  28.192  30.306  1.00  0.00     0.167 HD
ATOM     46  C   UNL A   1      40.876  30.569  33.998  1.00  0.00     0.034 A 
ATOM     47  C   UNL A   1      42.255  26.293  28.587  1.00  0.00     0.034 A 
ATOM     48  C   UNL A   1      42.020  29.709  34.167  1.00  0.00     0.049 A 
ATOM     49  C   UNL A   1      43.136  26.345  29.811  1.00  0.00     0.074 A 
ATOM     50  C   UNL A   1      42.864  29.604  35.259  1.00  0.00     0.029 A 
ATOM     51  N   UNL A   1      42.492  28.814  33.214  1.00  0.00    -0.354 N 
ATOM     52  N   UNL A   1      43.009  27.080  30.893  1.00  0.00    -0.248 NA
ATOM     53  C   UNL A   1      44.296  25.447  29.827  1.00  0.00     0.031 C 
ATOM     54  C   UNL A   1      43.894  28.718  34.933  1.00  0.00     0.029 A 
ATOM     55  C   UNL A   1      43.633  28.180  33.682  1.00  0.00     0.049 A 
ATOM     56  H   UNL A   1      42.077  28.654  32.336  1.00  0.00     0.167 HD
ATOM     57  C   UNL A   1      44.048  26.693  31.738  1.00  0.00     0.074 A 
ATOM     58  C   UNL A   1      44.779  25.655  31.041  1.00  0.00     0.031 C 
ATOM     59  C   UNL A   1      44.361  27.148  32.979  1.00  0.00     0.034 A 
BRANCH  46  60
ATOM     60  C   UNL A   1      40.533  31.556  35.092  1.00  0.00     0.023 A 
ATOM     61  C   UNL A   1      39.560  31.274  36.069  1.00  0.00     0.031 A 
ATOM     62  C   UNL A   1      41.170  32.808  35.147  1.00  0.00     0.131 A 
ATOM     63  C   UNL A   1      39.195  32.257  37.000  1.00  0.00     0.055 A 
ATOM     64  C   UNL A   1      40.871  33.745  36.137  1.00  0.00     0.041 A 
ATOM     65  F   UNL A   1      42.087  33.150  34.228  1.00  0.00    -0.206 F 
ATOM     66  C   UNL A   1      39.866  33.480  37.061  1.00  0.00     0.022 A 
BRANCH  63  67
ATOM     67  S   UNL A   1      37.720  31.979  38.020  1.00  0.00     0.124 S 
ATOM     68  O   UNL A   1      37.403  30.588  37.705  1.00  0.00    -0.237 OA
ATOM     69  O   UNL A   1      38.216  32.233  39.368  1.00  0.00    -0.237 OA
ATOM     70  O   UNL A   1      36.763  32.958  37.511  1.00  0.00    -0.744 OA
ENDBRANCH  63  67
ENDBRANCH  46  60
BRANCH  47  71
ATOM     71  C   UNL A   1      42.588  25.391  27.444  1.00  0.00     0.023 A 
ATOM     72  C   UNL A   1      42.062  24.092  27.362  1.00  0.00     0.031 A 
ATOM     73  C   UNL A   1      43.493  25.796  26.446  1.00  0.00     0.131 A 
ATOM     74  C   UNL A   1      42.490  23.226  26.342  1.00  0.00     0.055 A 
ATOM     75  C   UNL A   1      43.859  24.956  25.394  1.00  0.00     0.041 A 
ATOM     76  F   UNL A   1      44.030  27.027  26.475  1.00  0.00    -0.206 F 
ATOM     77  C   UNL A   1      43.370  23.655  25.348  1.00  0.00     0.022 A 
BRANCH  74  78
ATOM     78  S   UNL A   1      41.969  21.488  26.402  1.00  0.00     0.124 S 
ATOM     79  O   UNL A   1      42.292  21.130  27.778  1.00  0.00    -0.237 OA
ATOM     80  O   UNL A   1      40.551  21.585  26.077  1.00  0.00    -0.237 OA
ATOM     81  O   UNL A   1      42.798  20.851  25.380  1.00  0.00    -0.744 OA
ENDBRANCH  74  78
ENDBRANCH  47  71
BRANCH  59  82
ATOM     82  C   UNL A   1      45.502  26.464  33.698  1.00  0.00     0.023 A 
ATOM     83  C   UNL A   1      45.309  25.326  34.502  1.00  0.00     0.031 A 
ATOM     84  C   UNL A   1      46.806  26.983  33.598  1.00  0.00     0.131 A 
ATOM     85  C   UNL A   1      46.381  24.802  35.240  1.00  0.00     0.055 A 
ATOM     86  C   UNL A   1      47.886  26.402  34.264  1.00  0.00     0.041 A 
ATOM     87  F   UNL A   1      47.055  28.071  32.850  1.00  0.00    -0.206 F 
ATOM     88  C   UNL A   1      47.672  25.318  35.108  1.00  0.00     0.022 A 
BRANCH  85  89
ATOM     89  S   UNL A   1      46.035  23.535  36.491  1.00  0.00     0.124 S 
ATOM     90  O   UNL A   1      47.371  23.018  36.773  1.00  0.00    -0.237 OA
ATOM     91  O   UNL A   1      45.413  24.311  37.558  1.00  0.00    -0.237 OA
ATOM     92  O   UNL A   1      45.144  22.606  35.799  1.00  0.00    -0.744 OA
ENDBRANCH  85  89
ENDBRANCH  59  82
ENDBRANCH  33  34
ENDBRANCH  25  28
ENDBRANCH  23  24
ENDBRANCH   1  23
TORSDOF 16
ENDMDL
MODEL 2
REMARK VINA RESULT:     -11.7      2.413      2.720
REMARK SMILES C/C(=C(\C#N)C(=O)NCCCCNC(=O)c1ccc(-c2c3nc(c(-c4cc(S(=O)(=O)[O-])ccc4F)c4ccc([nH]4)c(-c4cc(S(=O)(=O)[O-])ccc4F)c4nc(c(-c5cc(S(=O)(=O)[O-])ccc5F)c5ccc2[nH]5)C=C4)C=C3)cc1)c1cccc2ccccc12
REMARK SMILES IDX 11 1 10 2 9 3 8 4 6 5 7 6 3 8 1 9 2 10 79 11 80 12 88 13
REMARK SMILES IDX 81 14 83 15 87 16 82 17 84 18 86 19 85 20 4 21 5 22 12 23
REMARK SMILES IDX 13 24 14 25 15 27 16 28 17 29 78 30 18 31 77 32 19 33 20 34
REMARK SMILES IDX 21 35 71 36 22 37 76 38 70 39 72 40 23 41 75 42 69 43 68 44
REMARK SMILES IDX 24 46 56 47 36 48 55 49 37 50 40 51 54 52 73 53 38 54 39 55
REMARK SMILES IDX 53 57 74 58 41 59 25 60 26 61 34 62 27 63 33 64 35 65 32 66
REMARK SMILES IDX 28 67 29 68 30 69 31 70 57 71 58 72 66 73 59 74 65 75 67 76
REMARK SMILES IDX 64 77 60 78 61 79 62 80 63 81 42 82 43 83 51 84 44 85 50 86
REMARK SMILES IDX 52 87 49 88 45 89 46 90 47 91 48 92
REMARK H PARENT 8 7 13 26 72 45 40 56
REMARK Flexibility Score: inf
ROOT
ATOM      1  C   UNL A   1      33.158  27.749  26.531  1.00  0.00     0.023 C 
ENDROOT
BRANCH   1   2
ATOM      2  C   UNL A   1      31.883  27.472  25.730  1.00  0.00     0.023 C 
BRANCH   2   3
ATOM      3  C   UNL A   1      31.254  26.104  25.978  1.00  0.00     0.116 C 
BRANCH   3   4
ATOM      4  N   UNL A   1      30.824  25.444  24.754  1.00  0.00    -0.351 N 
ATOM      5  C   UNL A   1      31.441  24.794  23.726  1.00  0.00     0.262 C 
ATOM      6  O   UNL A   1      30.667  24.138  23.025  1.00  0.00    -0.268 OA
ATOM      7  H   UNL A   1      29.847  25.474  24.641  1.00  0.00     0.163 HD
BRANCH   5   8
ATOM      8  C   UNL A   1      32.931  24.841  23.434  1.00  0.00     0.120 C 
ATOM      9  C   UNL A   1      35.352  24.219  23.771  1.00  0.00     0.046 C 
ATOM     10  C   UNL A   1      33.873  24.073  24.078  1.00  0.00    -0.020 C 
BRANCH  10  11
ATOM     11  C   UNL A   1      33.547  23.006  25.089  1.00  0.00    -0.013 A 
ATOM     12  C   UNL A   1      33.627  23.397  26.440  1.00  0.00     0.009 A 
ATOM     13  C   UNL A   1      33.195  21.640  24.801  1.00  0.00    -0.011 A 
ATOM     14  C   UNL A   1      33.641  22.458  27.465  1.00  0.00     0.001 A 
ATOM     15  C   UNL A   1      33.334  20.689  25.848  1.00  0.00    -0.018 A 
ATOM     16  C   UNL A   1      32.662  21.127  23.586  1.00  0.00     0.009 A 
ATOM     17  C   UNL A   1      33.591  21.107  27.155  1.00  0.00     0.009 A 
ATOM     18  C   UNL A   1      33.149  19.317  25.616  1.00  0.00     0.009 A 
ATOM     19  C   UNL A   1      32.274  19.787  23.442  1.00  0.00     0.001 A 
ATOM     20  C   UNL A   1      32.565  18.872  24.439  1.00  0.00     0.001 A 
ENDBRANCH  10  11
BRANCH   8  21
ATOM     21  C   UNL A   1      33.394  25.759  22.444  1.00  0.00     0.105 C 
ATOM     22  N   UNL A   1      33.704  26.501  21.610  1.00  0.00    -0.192 NA
ENDBRANCH   8  21
ENDBRANCH   5   8
ENDBRANCH   3   4
ENDBRANCH   2   3
ENDBRANCH   1   2
BRANCH   1  23
ATOM     23  C   UNL A   1      34.054  28.853  25.976  1.00  0.00     0.116 C 
BRANCH  23  24
ATOM     24  N   UNL A   1      33.771  30.159  26.550  1.00  0.00    -0.352 N 
ATOM     25  C   UNL A   1      34.445  30.838  27.536  1.00  0.00     0.251 C 
ATOM     26  H   UNL A   1      32.985  30.620  26.180  1.00  0.00     0.163 HD
ATOM     27  O   UNL A   1      33.955  31.860  28.006  1.00  0.00    -0.269 OA
BRANCH  25  28
ATOM     28  C   UNL A   1      35.737  30.324  28.043  1.00  0.00     0.039 A 
ATOM     29  C   UNL A   1      35.766  29.679  29.281  1.00  0.00     0.014 A 
ATOM     30  C   UNL A   1      36.918  30.487  27.313  1.00  0.00     0.014 A 
ATOM     31  C   UNL A   1      36.972  29.174  29.769  1.00  0.00     0.010 A 
ATOM     32  C   UNL A   1      38.096  29.891  27.753  1.00  0.00     0.010 A 
ATOM     33  C   UNL A   1      38.146  29.255  29.000  1.00  0.00    -0.014 A 
BRANCH  33  34
ATOM     34  C   UNL A   1      39.437  28.737  29.526  1.00  0.00     0.031 A 
ATOM     35  C   UNL A   1      40.041  29.341  30.767  1.00  0.00     0.074 A 
ATOM     36  C   UNL A   1      40.065  27.727  28.891  1.00  0.00     0.049 A 
ATOM     37  N   UNL A   1      41.146  29.021  31.391  1.00  0.00    -0.248 NA
ATOM     38  C   UNL A   1      39.323  30.473  31.374  1.00  0.00     0.031 C 
ATOM     39  C   UNL A   1      39.598  27.084  27.659  1.00  0.00     0.029 A 
ATOM     40  N   UNL A   1      41.222  27.053  29.195  1.00  0.00    -0.354 N 
ATOM     41  C   UNL A   1      41.254  29.910  32.456  1.00  0.00     0.074 A 
ATOM     42  C   UNL A   1      40.148  30.834  32.342  1.00  0.00     0.031 C 
ATOM     43  C   UNL A   1      40.430  26.080  27.344  1.00  0.00     0.029 A 
ATOM     44  C   UNL A   1      41.520  26.038  28.315  1.00  0.00     0.049 A 
ATOM     45  H   UNL A   1      41.786  27.277  29.971  1.00  0.00     0.167 HD
ATOM     46  C   UNL A   1      42.171  29.934  33.455  1.00  0.00     0.034 A 
ATOM     47  C   UNL A   1      42.555  25.174  28.290  1.00  0.00     0.034 A 
ATOM     48  C   UNL A   1      43.268  29.004  33.552  1.00  0.00     0.049 A 
ATOM     49  C   UNL A   1      43.588  25.250  29.388  1.00  0.00     0.074 A 
ATOM     50  C   UNL A   1      44.236  28.916  34.537  1.00  0.00     0.029 A 
ATOM     51  N   UNL A   1      43.553  28.007  32.626  1.00  0.00    -0.354 N 
ATOM     52  N   UNL A   1      43.650  26.071  30.412  1.00  0.00    -0.248 NA
ATOM     53  C   UNL A   1      44.678  24.270  29.336  1.00  0.00     0.031 C 
ATOM     54  C   UNL A   1      45.155  27.932  34.162  1.00  0.00     0.029 A 
ATOM     55  C   UNL A   1      44.700  27.325  33.002  1.00  0.00     0.049 A 
ATOM     56  H   UNL A   1      43.018  27.814  31.822  1.00  0.00     0.167 HD
ATOM     57  C   UNL A   1      44.761  25.669  31.153  1.00  0.00     0.074 A 
ATOM     58  C   UNL A   1      45.326  24.530  30.460  1.00  0.00     0.031 C 
ATOM     59  C   UNL A   1      45.261  26.190  32.304  1.00  0.00     0.034 A 
BRANCH  46  60
ATOM     60  C   UNL A   1      42.038  31.023  34.496  1.00  0.00     0.023 A 
ATOM     61  C   UNL A   1      42.682  32.266  34.357  1.00  0.00     0.031 A 
ATOM     62  C   UNL A   1      41.275  30.807  35.657  1.00  0.00     0.131 A 
ATOM     63  C   UNL A   1      42.620  33.207  35.395  1.00  0.00     0.055 A 
ATOM     64  C   UNL A   1      41.138  31.787  36.642  1.00  0.00     0.041 A 
ATOM     65  F   UNL A   1      40.658  29.633  35.863  1.00  0.00    -0.206 F 
ATOM     66  C   UNL A   1      41.827  32.989  36.524  1.00  0.00     0.022 A 
BRANCH  63  67
ATOM     67  S   UNL A   1      43.723  34.646  35.326  1.00  0.00     0.124 S 
ATOM     68  O   UNL A   1      42.793  35.712  34.960  1.00  0.00    -0.237 OA
ATOM     69  O   UNL A   1      44.256  34.702  36.682  1.00  0.00    -0.237 OA
ATOM     70  O   UNL A   1      44.688  34.289  34.289  1.00  0.00    -0.744 OA
ENDBRANCH  63  67
ENDBRANCH  46  60
BRANCH  47  71
ATOM     71  C   UNL A   1      42.678  24.167  27.195  1.00  0.00     0.023 A 
ATOM     72  C   UNL A   1      42.009  22.934  27.258  1.00  0.00     0.031 A 
ATOM     73  C   UNL A   1      43.522  24.399  26.093  1.00  0.00     0.131 A 
ATOM     74  C   UNL A   1      42.240  21.960  26.273  1.00  0.00     0.055 A 
ATOM     75  C   UNL A   1      43.693  23.455  25.080  1.00  0.00     0.041 A 
ATOM     76  F   UNL A   1      44.189  25.559  25.982  1.00  0.00    -0.206 F 
ATOM     77  C   UNL A   1      43.063  22.219  25.176  1.00  0.00     0.022 A 
BRANCH  74  78
ATOM     78  S   UNL A   1      41.542  20.301  26.509  1.00  0.00     0.124 S 
ATOM     79  O   UNL A   1      42.091  19.585  25.363  1.00  0.00    -0.237 OA
ATOM     80  O   UNL A   1      42.074  19.931  27.816  1.00  0.00    -0.237 OA
ATOM     81  O   UNL A   1      40.099  20.533  26.468  1.00  0.00    -0.744 OA
ENDBRANCH  74  78
ENDBRANCH  47  71
BRANCH  59  82
ATOM     82  C   UNL A   1      46.437  25.476  32.931  1.00  0.00     0.023 A 
ATOM     83  C   UNL A   1      47.766  25.755  32.568  1.00  0.00     0.031 A 
ATOM     84  C   UNL A   1      46.216  24.473  33.893  1.00  0.00     0.131 A 
ATOM     85  C   UNL A   1      48.811  24.981  33.095  1.00  0.00     0.055 A 
ATOM     86  C   UNL A   1      47.267  23.768  34.481  1.00  0.00     0.041 A 
ATOM     87  F   UNL A   1      44.968  24.155  34.278  1.00  0.00    -0.206 F 
ATOM     88  C   UNL A   1      48.573  24.006  34.065  1.00  0.00     0.022 A 
BRANCH  85  89
ATOM     89  S   UNL A   1      50.469  25.163  32.381  1.00  0.00     0.124 S 
ATOM     90  O   UNL A   1      50.261  26.226  31.402  1.00  0.00    -0.237 OA
ATOM     91  O   UNL A   1      51.273  25.516  33.545  1.00  0.00    -0.237 OA
ATOM     92  O   UNL A   1      50.743  23.843  31.814  1.00  0.00    -0.744 OA
ENDBRANCH  85  89
ENDBRANCH  59  82
ENDBRANCH  33  34
ENDBRANCH  25  28
ENDBRANCH  23  24
ENDBRANCH   1  23
TORSDOF 16
ENDMDL
MODEL 3
REMARK VINA RESULT:     -11.6      2.026      3.287
REMARK SMILES C/C(=C(\C#N)C(=O)NCCCCNC(=O)c1ccc(-c2c3nc(c(-c4cc(S(=O)(=O)[O-])ccc4F)c4ccc([nH]4)c(-c4cc(S(=O)(=O)[O-])ccc4F)c4nc(c(-c5cc(S(=O)(=O)[O-])ccc5F)c5ccc2[nH]5)C=C4)C=C3)cc1)c1cccc2ccccc12
REMARK SMILES IDX 11 1 10 2 9 3 8 4 6 5 7 6 3 8 1 9 2 10 79 11 80 12 88 13
REMARK SMILES IDX 81 14 83 15 87 16 82 17 84 18 86 19 85 20 4 21 5 22 12 23
REMARK SMILES IDX 13 24 14 25 15 27 16 28 17 29 78 30 18 31 77 32 19 33 20 34
REMARK SMILES IDX 21 35 71 36 22 37 76 38 70 39 72 40 23 41 75 42 69 43 68 44
REMARK SMILES IDX 24 46 56 47 36 48 55 49 37 50 40 51 54 52 73 53 38 54 39 55
REMARK SMILES IDX 53 57 74 58 41 59 25 60 26 61 34 62 27 63 33 64 35 65 32 66
REMARK SMILES IDX 28 67 29 68 30 69 31 70 57 71 58 72 66 73 59 74 65 75 67 76
REMARK SMILES IDX 64 77 60 78 61 79 62 80 63 81 42 82 43 83 51 84 44 85 50 86
REMARK SMILES IDX 52 87 49 88 45 89 46 90 47 91 48 92
REMARK H PARENT 8 7 13 26 72 45 40 56
REMARK Flexibility Score: inf
ROOT
ATOM      1  C   UNL A   1      32.860  29.084  24.812  1.00  0.00     0.023 C 
ENDROOT
BRANCH   1   2
ATOM      2  C   UNL A   1      33.702  27.807  24.732  1.00  0.00     0.023 C 
BRANCH   2   3
ATOM      3  C   UNL A   1      33.479  26.818  25.873  1.00  0.00     0.116 C 
BRANCH   3   4
ATOM      4  N   UNL A   1      34.417  25.707  25.856  1.00  0.00    -0.351 N 
ATOM      5  C   UNL A   1      34.322  24.346  25.829  1.00  0.00     0.262 C 
ATOM      6  O   UNL A   1      35.381  23.786  25.537  1.00  0.00    -0.268 OA
ATOM      7  H   UNL A   1      35.354  26.013  25.864  1.00  0.00     0.163 HD
BRANCH   5   8
ATOM      8  C   UNL A   1      33.058  23.556  26.121  1.00  0.00     0.120 C 
ATOM      9  C   UNL A   1      30.718  22.731  25.673  1.00  0.00     0.046 C 
ATOM     10  C   UNL A   1      31.969  23.496  25.284  1.00  0.00    -0.020 C 
BRANCH  10  11
ATOM     11  C   UNL A   1      31.918  24.123  23.916  1.00  0.00    -0.013 A 
ATOM     12  C   UNL A   1      32.622  23.442  22.903  1.00  0.00     0.009 A 
ATOM     13  C   UNL A   1      31.250  25.349  23.566  1.00  0.00    -0.011 A 
ATOM     14  C   UNL A   1      32.902  24.049  21.684  1.00  0.00     0.001 A 
ATOM     15  C   UNL A   1      31.649  25.998  22.367  1.00  0.00    -0.018 A 
ATOM     16  C   UNL A   1      30.179  25.974  24.263  1.00  0.00     0.009 A 
ATOM     17  C   UNL A   1      32.497  25.357  21.462  1.00  0.00     0.009 A 
ATOM     18  C   UNL A   1      31.152  27.265  22.024  1.00  0.00     0.009 A 
ATOM     19  C   UNL A   1      29.543  27.129  23.785  1.00  0.00     0.001 A 
ATOM     20  C   UNL A   1      30.063  27.803  22.694  1.00  0.00     0.001 A 
ENDBRANCH  10  11
BRANCH   8  21
ATOM     21  C   UNL A   1      32.980  22.846  27.356  1.00  0.00     0.105 C 
ATOM     22  N   UNL A   1      32.882  22.216  28.325  1.00  0.00    -0.192 NA
ENDBRANCH   8  21
ENDBRANCH   5   8
ENDBRANCH   3   4
ENDBRANCH   2   3
ENDBRANCH   1   2
BRANCH   1  23
ATOM     23  C   UNL A   1      32.468  29.523  26.220  1.00  0.00     0.116 C 
BRANCH  23  24
ATOM     24  N   UNL A   1      32.295  30.962  26.340  1.00  0.00    -0.352 N 
ATOM     25  C   UNL A   1      33.017  31.864  27.084  1.00  0.00     0.251 C 
ATOM     26  H   UNL A   1      31.557  31.343  25.813  1.00  0.00     0.163 HD
ATOM     27  O   UNL A   1      32.614  33.019  27.188  1.00  0.00    -0.269 OA
BRANCH  25  28
ATOM     28  C   UNL A   1      34.253  31.436  27.776  1.00  0.00     0.039 A 
ATOM     29  C   UNL A   1      35.262  32.377  27.995  1.00  0.00     0.014 A 
ATOM     30  C   UNL A   1      34.429  30.114  28.195  1.00  0.00     0.014 A 
ATOM     31  C   UNL A   1      36.429  31.996  28.660  1.00  0.00     0.010 A 
ATOM     32  C   UNL A   1      35.545  29.764  28.948  1.00  0.00     0.010 A 
ATOM     33  C   UNL A   1      36.575  30.691  29.162  1.00  0.00    -0.014 A 
BRANCH  33  34
ATOM     34  C   UNL A   1      37.825  30.276  29.852  1.00  0.00     0.031 A 
ATOM     35  C   UNL A   1      38.100  30.745  31.257  1.00  0.00     0.074 A 
ATOM     36  C   UNL A   1      38.710  29.481  29.219  1.00  0.00     0.049 A 
ATOM     37  N   UNL A   1      39.120  30.483  32.033  1.00  0.00    -0.248 NA
ATOM     38  C   UNL A   1      37.111  31.653  31.862  1.00  0.00     0.031 C 
ATOM     39  C   UNL A   1      38.573  28.991  27.844  1.00  0.00     0.029 A 
ATOM     40  N   UNL A   1      39.894  28.933  29.646  1.00  0.00    -0.354 N 
ATOM     41  C   UNL A   1      38.896  31.191  33.210  1.00  0.00     0.074 A 
ATOM     42  C   UNL A   1      37.688  31.960  33.012  1.00  0.00     0.031 C 
ATOM     43  C   UNL A   1      39.602  28.177  27.563  1.00  0.00     0.029 A 
ATOM     44  C   UNL A   1      40.502  28.127  28.711  1.00  0.00     0.049 A 
ATOM     45  H   UNL A   1      40.273  29.101  30.540  1.00  0.00     0.167 HD
ATOM     46  C   UNL A   1      39.612  31.177  34.361  1.00  0.00     0.034 A 
ATOM     47  C   UNL A   1      41.655  27.431  28.770  1.00  0.00     0.034 A 
ATOM     48  C   UNL A   1      40.816  30.404  34.542  1.00  0.00     0.049 A 
ATOM     49  C   UNL A   1      42.458  27.467  30.046  1.00  0.00     0.074 A 
ATOM     50  C   UNL A   1      41.603  30.290  35.674  1.00  0.00     0.029 A 
ATOM     51  N   UNL A   1      41.416  29.622  33.561  1.00  0.00    -0.354 N 
ATOM     52  N   UNL A   1      42.209  28.108  31.165  1.00  0.00    -0.248 NA
ATOM     53  C   UNL A   1      43.689  26.668  30.073  1.00  0.00     0.031 C 
ATOM     54  C   UNL A   1      42.723  29.518  35.353  1.00  0.00     0.029 A 
ATOM     55  C   UNL A   1      42.579  29.052  34.055  1.00  0.00     0.049 A 
ATOM     56  H   UNL A   1      41.065  29.492  32.651  1.00  0.00     0.167 HD
ATOM     57  C   UNL A   1      43.229  27.748  32.045  1.00  0.00     0.074 A 
ATOM     58  C   UNL A   1      44.084  26.827  31.326  1.00  0.00     0.031 C 
ATOM     59  C   UNL A   1      43.431  28.137  33.331  1.00  0.00     0.034 A 
BRANCH  46  60
ATOM     60  C   UNL A   1      39.125  32.051  35.495  1.00  0.00     0.023 A 
ATOM     61  C   UNL A   1      39.543  33.387  35.636  1.00  0.00     0.031 A 
ATOM     62  C   UNL A   1      38.249  31.534  36.466  1.00  0.00     0.131 A 
ATOM     63  C   UNL A   1      39.153  34.129  36.760  1.00  0.00     0.055 A 
ATOM     64  C   UNL A   1      37.787  32.310  37.530  1.00  0.00     0.041 A 
ATOM     65  F   UNL A   1      37.835  30.258  36.404  1.00  0.00    -0.206 F 
ATOM     66  C   UNL A   1      38.252  33.611  37.693  1.00  0.00     0.022 A 
BRANCH  63  67
ATOM     67  S   UNL A   1      39.969  35.719  37.075  1.00  0.00     0.124 S 
ATOM     68  O   UNL A   1      39.649  36.459  35.856  1.00  0.00    -0.237 OA
ATOM     69  O   UNL A   1      39.311  36.177  38.293  1.00  0.00    -0.237 OA
ATOM     70  O   UNL A   1      41.377  35.358  37.222  1.00  0.00    -0.744 OA
ENDBRANCH  63  67
ENDBRANCH  46  60
BRANCH  47  71
ATOM     71  C   UNL A   1      42.128  26.644  27.592  1.00  0.00     0.023 A 
ATOM     72  C   UNL A   1      41.798  25.288  27.439  1.00  0.00     0.031 A 
ATOM     73  C   UNL A   1      42.974  27.225  26.630  1.00  0.00     0.131 A 
ATOM     74  C   UNL A   1      42.358  24.544  26.387  1.00  0.00     0.055 A 
ATOM     75  C   UNL A   1      43.470  26.499  25.546  1.00  0.00     0.041 A 
ATOM     76  F   UNL A   1      43.326  28.518  26.726  1.00  0.00    -0.206 F 
ATOM     77  C   UNL A   1      43.176  25.145  25.429  1.00  0.00     0.022 A 
BRANCH  74  78
ATOM     78  S   UNL A   1      42.095  22.749  26.355  1.00  0.00     0.124 S 
ATOM     79  O   UNL A   1      42.854  22.319  27.524  1.00  0.00    -0.237 OA
ATOM     80  O   UNL A   1      40.643  22.652  26.459  1.00  0.00    -0.237 OA
ATOM     81  O   UNL A   1      42.654  22.348  25.065  1.00  0.00    -0.744 OA
ENDBRANCH  74  78
ENDBRANCH  47  71
BRANCH  59  82
ATOM     82  C   UNL A   1      44.585  27.498  34.071  1.00  0.00     0.023 A 
ATOM     83  C   UNL A   1      44.461  26.267  34.737  1.00  0.00     0.031 A 
ATOM     84  C   UNL A   1      45.828  28.156  34.134  1.00  0.00     0.131 A 
ATOM     85  C   UNL A   1      45.528  25.777  35.507  1.00  0.00     0.055 A 
ATOM     86  C   UNL A   1      46.914  27.620  34.827  1.00  0.00     0.041 A 
ATOM     87  F   UNL A   1      46.009  29.339  33.523  1.00  0.00    -0.206 F 
ATOM     88  C   UNL A   1      46.760  26.434  35.537  1.00  0.00     0.022 A 
BRANCH  85  89
ATOM     89  S   UNL A   1      45.234  24.353  36.590  1.00  0.00     0.124 S 
ATOM     90  O   UNL A   1      44.115  23.693  35.924  1.00  0.00    -0.237 OA
ATOM     91  O   UNL A   1      46.511  23.651  36.538  1.00  0.00    -0.237 OA
ATOM     92  O   UNL A   1      44.914  24.964  37.879  1.00  0.00    -0.744 OA
ENDBRANCH  85  89
ENDBRANCH  59  82
ENDBRANCH  33  34
ENDBRANCH  25  28
ENDBRANCH  23  24
ENDBRANCH   1  23
TORSDOF 16
ENDMDL
