MODEL 1
REMARK VINA RESULT:     -12.6      0.000      0.000
REMARK SMILES Cc1cc(C(=O)NCCCCNC(=O)c2ccc(-c3c4nc(c(-c5cc(S(=O)(=O)[O-])ccc5F)c5ccc([nH]5)c(-c5cc(S(=O)(=O)[O-])ccc5F)c5nc(c(-c6cc(S(=O)(=O)[O-])ccc6F)c6ccc3[nH]6)C=C5)C=C4)cc2)nn1[C@H]1CCS(=O)(=O)C1
REMARK SMILES IDX 10 1 9 2 8 3 7 4 5 5 6 6 4 8 1 9 2 10 3 11 79 12 78 13 80 14
REMARK SMILES IDX 81 15 86 16 82 17 83 18 84 19 85 20 11 21 12 22 13 23 14 25
REMARK SMILES IDX 15 26 16 27 77 28 17 29 76 30 18 31 19 32 20 33 70 34 21 35
REMARK SMILES IDX 75 36 69 37 71 38 22 39 74 40 68 41 67 42 23 44 55 45 35 46
REMARK SMILES IDX 54 47 36 48 39 49 53 50 72 51 37 52 38 53 52 55 73 56 40 57
REMARK SMILES IDX 24 58 25 59 33 60 26 61 32 62 34 63 31 64 27 65 28 66 29 67
REMARK SMILES IDX 30 68 56 69 57 70 65 71 58 72 64 73 66 74 63 75 59 76 60 77
REMARK SMILES IDX 61 78 62 79 41 80 42 81 50 82 43 83 49 84 51 85 48 86 44 87
REMARK SMILES IDX 45 88 46 89 47 90
REMARK H PARENT 7 7 12 24 71 43 39 54
REMARK Flexibility Score: inf
ROOT
ATOM      1  C   UNL A   1      33.518  28.739  27.065  1.00  0.00     0.023 C 
ENDROOT
BRANCH   1   2
ATOM      2  C   UNL A   1      33.014  29.164  25.675  1.00  0.00     0.023 C 
BRANCH   2   3
ATOM      3  C   UNL A   1      32.443  28.029  24.822  1.00  0.00     0.116 C 
BRANCH   3   4
ATOM      4  N   UNL A   1      31.337  27.375  25.484  1.00  0.00    -0.351 N 
ATOM      5  C   UNL A   1      31.177  26.109  25.993  1.00  0.00     0.271 C 
ATOM      6  O   UNL A   1      30.080  25.885  26.515  1.00  0.00    -0.267 OA
ATOM      7  H   UNL A   1      30.544  27.948  25.590  1.00  0.00     0.163 HD
BRANCH   5   8
ATOM      8  C   UNL A   1      32.232  25.074  25.919  1.00  0.00     0.150 A 
ATOM      9  C   UNL A   1      35.535  23.417  25.913  1.00  0.00     0.066 C 
ATOM     10  C   UNL A   1      34.117  23.840  25.815  1.00  0.00     0.036 A 
ATOM     11  C   UNL A   1      33.640  25.143  25.789  1.00  0.00     0.059 A 
ATOM     12  N   UNL A   1      32.992  23.062  25.760  1.00  0.00    -0.265 N 
ATOM     13  N   UNL A   1      31.871  23.781  25.950  1.00  0.00    -0.167 NA
BRANCH  12  14
ATOM     14  C   UNL A   1      32.737  21.689  25.366  1.00  0.00     0.123 C 
ATOM     15  C   UNL A   1      32.787  21.568  23.827  1.00  0.00     0.044 C 
ATOM     16  C   UNL A   1      33.633  20.569  25.865  1.00  0.00     0.164 C 
ATOM     17  C   UNL A   1      32.486  20.116  23.496  1.00  0.00     0.139 C 
ATOM     18  S   UNL A   1      33.172  19.176  24.848  1.00  0.00     0.152 S 
ATOM     19  O   UNL A   1      32.092  18.461  25.507  1.00  0.00    -0.229 OA
ATOM     20  O   UNL A   1      34.372  18.513  24.402  1.00  0.00    -0.229 OA
ENDBRANCH  12  14
ENDBRANCH   5   8
ENDBRANCH   3   4
ENDBRANCH   2   3
ENDBRANCH   1   2
BRANCH   1  21
ATOM     21  C   UNL A   1      35.005  28.982  27.315  1.00  0.00     0.116 C 
BRANCH  21  22
ATOM     22  N   UNL A   1      35.250  29.952  28.381  1.00  0.00    -0.352 N 
ATOM     23  C   UNL A   1      36.297  29.975  29.286  1.00  0.00     0.251 C 
ATOM     24  H   UNL A   1      34.590  30.678  28.466  1.00  0.00     0.163 HD
ATOM     25  O   UNL A   1      36.183  30.560  30.357  1.00  0.00    -0.269 OA
BRANCH  23  26
ATOM     26  C   UNL A   1      37.554  29.295  28.927  1.00  0.00     0.039 A 
ATOM     27  C   UNL A   1      38.288  29.648  27.791  1.00  0.00     0.014 A 
ATOM     28  C   UNL A   1      38.011  28.304  29.792  1.00  0.00     0.014 A 
ATOM     29  C   UNL A   1      39.534  29.055  27.587  1.00  0.00     0.010 A 
ATOM     30  C   UNL A   1      39.291  27.827  29.666  1.00  0.00     0.010 A 
ATOM     31  C   UNL A   1      40.040  28.160  28.542  1.00  0.00    -0.014 A 
BRANCH  31  32
ATOM     32  C   UNL A   1      41.413  27.664  28.466  1.00  0.00     0.031 A 
ATOM     33  C   UNL A   1      41.579  26.411  27.678  1.00  0.00     0.074 A 
ATOM     34  C   UNL A   1      42.477  28.413  28.835  1.00  0.00     0.049 A 
ATOM     35  N   UNL A   1      41.946  25.250  28.108  1.00  0.00    -0.248 NA
ATOM     36  C   UNL A   1      41.150  26.404  26.269  1.00  0.00     0.031 C 
ATOM     37  C   UNL A   1      42.486  29.793  29.333  1.00  0.00     0.029 A 
ATOM     38  N   UNL A   1      43.803  28.142  28.706  1.00  0.00    -0.354 N 
ATOM     39  C   UNL A   1      42.034  24.430  26.987  1.00  0.00     0.074 A 
ATOM     40  C   UNL A   1      41.331  25.121  25.942  1.00  0.00     0.031 C 
ATOM     41  C   UNL A   1      43.728  30.311  29.207  1.00  0.00     0.029 A 
ATOM     42  C   UNL A   1      44.633  29.260  28.777  1.00  0.00     0.049 A 
ATOM     43  H   UNL A   1      44.149  27.230  28.574  1.00  0.00     0.167 HD
ATOM     44  C   UNL A   1      42.889  23.367  26.954  1.00  0.00     0.034 A 
ATOM     45  C   UNL A   1      45.957  29.326  28.462  1.00  0.00     0.034 A 
ATOM     46  C   UNL A   1      43.361  23.046  28.285  1.00  0.00     0.049 A 
ATOM     47  C   UNL A   1      46.474  27.935  28.549  1.00  0.00     0.074 A 
ATOM     48  C   UNL A   1      42.734  22.740  29.480  1.00  0.00     0.029 A 
ATOM     49  N   UNL A   1      44.640  23.429  28.634  1.00  0.00    -0.354 N 
ATOM     50  N   UNL A   1      46.510  27.257  29.666  1.00  0.00    -0.248 NA
ATOM     51  C   UNL A   1      46.453  27.125  27.338  1.00  0.00     0.031 C 
ATOM     52  C   UNL A   1      43.457  23.478  30.463  1.00  0.00     0.029 A 
ATOM     53  C   UNL A   1      44.543  24.092  29.835  1.00  0.00     0.049 A 
ATOM     54  H   UNL A   1      45.462  23.260  28.121  1.00  0.00     0.167 HD
ATOM     55  C   UNL A   1      46.068  25.986  29.330  1.00  0.00     0.074 A 
ATOM     56  C   UNL A   1      46.138  25.939  27.868  1.00  0.00     0.031 C 
ATOM     57  C   UNL A   1      45.402  25.196  30.226  1.00  0.00     0.034 A 
BRANCH  44  58
ATOM     58  C   UNL A   1      43.586  22.836  25.718  1.00  0.00     0.023 A 
ATOM     59  C   UNL A   1      43.686  21.436  25.586  1.00  0.00     0.031 A 
ATOM     60  C   UNL A   1      44.390  23.589  24.834  1.00  0.00     0.131 A 
ATOM     61  C   UNL A   1      44.618  20.853  24.710  1.00  0.00     0.055 A 
ATOM     62  C   UNL A   1      45.262  23.005  23.911  1.00  0.00     0.041 A 
ATOM     63  F   UNL A   1      44.454  24.925  24.870  1.00  0.00    -0.206 F 
ATOM     64  C   UNL A   1      45.407  21.629  23.869  1.00  0.00     0.022 A 
BRANCH  61  65
ATOM     65  S   UNL A   1      44.912  19.070  24.833  1.00  0.00     0.124 S 
ATOM     66  O   UNL A   1      44.984  18.688  23.427  1.00  0.00    -0.237 OA
ATOM     67  O   UNL A   1      46.165  19.023  25.579  1.00  0.00    -0.237 OA
ATOM     68  O   UNL A   1      43.738  18.584  25.554  1.00  0.00    -0.744 OA
ENDBRANCH  61  65
ENDBRANCH  44  58
BRANCH  45  69
ATOM     69  C   UNL A   1      46.684  30.457  27.807  1.00  0.00     0.023 A 
ATOM     70  C   UNL A   1      46.032  31.482  27.085  1.00  0.00     0.031 A 
ATOM     71  C   UNL A   1      48.056  30.668  28.087  1.00  0.00     0.131 A 
ATOM     72  C   UNL A   1      46.744  32.640  26.678  1.00  0.00     0.055 A 
ATOM     73  C   UNL A   1      48.754  31.808  27.680  1.00  0.00     0.041 A 
ATOM     74  F   UNL A   1      48.753  29.806  28.845  1.00  0.00    -0.206 F 
ATOM     75  C   UNL A   1      48.097  32.805  26.981  1.00  0.00     0.022 A 
BRANCH  72  76
ATOM     76  S   UNL A   1      45.894  34.010  25.823  1.00  0.00     0.124 S 
ATOM     77  O   UNL A   1      44.892  33.307  25.032  1.00  0.00    -0.237 OA
ATOM     78  O   UNL A   1      45.398  34.816  26.932  1.00  0.00    -0.237 OA
ATOM     79  O   UNL A   1      46.961  34.640  25.042  1.00  0.00    -0.744 OA
ENDBRANCH  72  76
ENDBRANCH  45  69
BRANCH  57  80
ATOM     80  C   UNL A   1      45.361  25.601  31.690  1.00  0.00     0.023 A 
ATOM     81  C   UNL A   1      46.381  25.346  32.636  1.00  0.00     0.031 A 
ATOM     82  C   UNL A   1      44.294  26.425  32.095  1.00  0.00     0.131 A 
ATOM     83  C   UNL A   1      46.301  25.906  33.929  1.00  0.00     0.055 A 
ATOM     84  C   UNL A   1      44.232  26.996  33.365  1.00  0.00     0.041 A 
ATOM     85  F   UNL A   1      43.304  26.728  31.239  1.00  0.00    -0.206 F 
ATOM     86  C   UNL A   1      45.235  26.735  34.289  1.00  0.00     0.022 A 
BRANCH  83  87
ATOM     87  S   UNL A   1      47.581  25.557  35.182  1.00  0.00     0.124 S 
ATOM     88  O   UNL A   1      46.896  25.800  36.446  1.00  0.00    -0.237 OA
ATOM     89  O   UNL A   1      47.931  24.166  34.900  1.00  0.00    -0.237 OA
ATOM     90  O   UNL A   1      48.637  26.522  34.867  1.00  0.00    -0.744 OA
ENDBRANCH  83  87
ENDBRANCH  57  80
ENDBRANCH  31  32
ENDBRANCH  23  26
ENDBRANCH  21  22
ENDBRANCH   1  21
TORSDOF 15
ENDMDL
MODEL 2
REMARK VINA RESULT:     -12.6      1.795      2.351
REMARK SMILES Cc1cc(C(=O)NCCCCNC(=O)c2ccc(-c3c4nc(c(-c5cc(S(=O)(=O)[O-])ccc5F)c5ccc([nH]5)c(-c5cc(S(=O)(=O)[O-])ccc5F)c5nc(c(-c6cc(S(=O)(=O)[O-])ccc6F)c6ccc3[nH]6)C=C5)C=C4)cc2)nn1[C@H]1CCS(=O)(=O)C1
REMARK SMILES IDX 10 1 9 2 8 3 7 4 5 5 6 6 4 8 1 9 2 10 3 11 79 12 78 13 80 14
REMARK SMILES IDX 81 15 86 16 82 17 83 18 84 19 85 20 11 21 12 22 13 23 14 25
REMARK SMILES IDX 15 26 16 27 77 28 17 29 76 30 18 31 19 32 20 33 70 34 21 35
REMARK SMILES IDX 75 36 69 37 71 38 22 39 74 40 68 41 67 42 23 44 55 45 35 46
REMARK SMILES IDX 54 47 36 48 39 49 53 50 72 51 37 52 38 53 52 55 73 56 40 57
REMARK SMILES IDX 24 58 25 59 33 60 26 61 32 62 34 63 31 64 27 65 28 66 29 67
REMARK SMILES IDX 30 68 56 69 57 70 65 71 58 72 64 73 66 74 63 75 59 76 60 77
REMARK SMILES IDX 61 78 62 79 41 80 42 81 50 82 43 83 49 84 51 85 48 86 44 87
REMARK SMILES IDX 45 88 46 89 47 90
REMARK H PARENT 7 7 12 24 71 43 39 54
REMARK Flexibility Score: inf
ROOT
ATOM      1  C   UNL A   1      33.712  28.705  27.258  1.00  0.00     0.023 C 
ENDROOT
BRANCH   1   2
ATOM      2  C   UNL A   1      32.662  29.780  26.933  1.00  0.00     0.023 C 
BRANCH   2   3
ATOM      3  C   UNL A   1      31.948  29.598  25.591  1.00  0.00     0.116 C 
BRANCH   3   4
ATOM      4  N   UNL A   1      32.883  29.606  24.489  1.00  0.00    -0.351 N 
ATOM      5  C   UNL A   1      33.281  28.635  23.602  1.00  0.00     0.271 C 
ATOM      6  O   UNL A   1      34.107  28.998  22.759  1.00  0.00    -0.267 OA
ATOM      7  H   UNL A   1      33.319  30.476  24.346  1.00  0.00     0.163 HD
BRANCH   5   8
ATOM      8  C   UNL A   1      32.772  27.246  23.649  1.00  0.00     0.150 A 
ATOM      9  C   UNL A   1      30.580  24.293  23.292  1.00  0.00     0.066 C 
ATOM     10  C   UNL A   1      31.615  25.312  23.594  1.00  0.00     0.036 A 
ATOM     11  C   UNL A   1      31.483  26.688  23.480  1.00  0.00     0.059 A 
ATOM     12  N   UNL A   1      32.906  25.125  24.013  1.00  0.00    -0.265 N 
ATOM     13  N   UNL A   1      33.633  26.253  23.924  1.00  0.00    -0.167 NA
BRANCH  12  14
ATOM     14  C   UNL A   1      33.597  24.044  24.690  1.00  0.00     0.123 C 
ATOM     15  C   UNL A   1      34.909  24.570  25.314  1.00  0.00     0.044 C 
ATOM     16  C   UNL A   1      32.917  23.287  25.817  1.00  0.00     0.164 C 
ATOM     17  C   UNL A   1      35.581  23.380  25.977  1.00  0.00     0.139 C 
ATOM     18  S   UNL A   1      34.245  22.351  26.557  1.00  0.00     0.152 S 
ATOM     19  O   UNL A   1      34.331  21.063  25.887  1.00  0.00    -0.229 OA
ATOM     20  O   UNL A   1      34.148  22.465  27.991  1.00  0.00    -0.229 OA
ENDBRANCH  12  14
ENDBRANCH   5   8
ENDBRANCH   3   4
ENDBRANCH   2   3
ENDBRANCH   1   2
BRANCH   1  21
ATOM     21  C   UNL A   1      35.139  29.225  27.422  1.00  0.00     0.116 C 
BRANCH  21  22
ATOM     22  N   UNL A   1      35.330  29.980  28.660  1.00  0.00    -0.352 N 
ATOM     23  C   UNL A   1      36.331  29.827  29.603  1.00  0.00     0.251 C 
ATOM     24  H   UNL A   1      34.665  30.683  28.845  1.00  0.00     0.163 HD
ATOM     25  O   UNL A   1      36.162  30.206  30.756  1.00  0.00    -0.269 OA
BRANCH  23  26
ATOM     26  C   UNL A   1      37.604  29.216  29.187  1.00  0.00     0.039 A 
ATOM     27  C   UNL A   1      38.258  29.595  28.011  1.00  0.00     0.014 A 
ATOM     28  C   UNL A   1      38.161  28.265  30.038  1.00  0.00     0.014 A 
ATOM     29  C   UNL A   1      39.524  29.072  27.749  1.00  0.00     0.010 A 
ATOM     30  C   UNL A   1      39.459  27.860  29.851  1.00  0.00     0.010 A 
ATOM     31  C   UNL A   1      40.130  28.220  28.686  1.00  0.00    -0.014 A 
BRANCH  31  32
ATOM     32  C   UNL A   1      41.523  27.803  28.545  1.00  0.00     0.031 A 
ATOM     33  C   UNL A   1      41.719  26.533  27.789  1.00  0.00     0.074 A 
ATOM     34  C   UNL A   1      42.559  28.625  28.824  1.00  0.00     0.049 A 
ATOM     35  N   UNL A   1      42.179  25.412  28.236  1.00  0.00    -0.248 NA
ATOM     36  C   UNL A   1      41.210  26.450  26.410  1.00  0.00     0.031 C 
ATOM     37  C   UNL A   1      42.514  30.021  29.274  1.00  0.00     0.029 A 
ATOM     38  N   UNL A   1      43.890  28.428  28.625  1.00  0.00    -0.354 N 
ATOM     39  C   UNL A   1      42.252  24.558  27.138  1.00  0.00     0.074 A 
ATOM     40  C   UNL A   1      41.448  25.169  26.115  1.00  0.00     0.031 C 
ATOM     41  C   UNL A   1      43.713  30.605  29.057  1.00  0.00     0.029 A 
ATOM     42  C   UNL A   1      44.654  29.594  28.609  1.00  0.00     0.049 A 
ATOM     43  H   UNL A   1      44.282  27.533  28.502  1.00  0.00     0.167 HD
ATOM     44  C   UNL A   1      43.166  23.546  27.090  1.00  0.00     0.034 A 
ATOM     45  C   UNL A   1      45.950  29.726  28.214  1.00  0.00     0.034 A 
ATOM     46  C   UNL A   1      43.732  23.303  28.400  1.00  0.00     0.049 A 
ATOM     47  C   UNL A   1      46.555  28.371  28.315  1.00  0.00     0.074 A 
ATOM     48  C   UNL A   1      43.196  23.004  29.640  1.00  0.00     0.029 A 
ATOM     49  N   UNL A   1      45.003  23.772  28.659  1.00  0.00    -0.354 N 
ATOM     50  N   UNL A   1      46.696  27.738  29.450  1.00  0.00    -0.248 NA
ATOM     51  C   UNL A   1      46.513  27.517  27.135  1.00  0.00     0.031 C 
ATOM     52  C   UNL A   1      43.928  23.819  30.553  1.00  0.00     0.029 A 
ATOM     53  C   UNL A   1      44.937  24.472  29.841  1.00  0.00     0.049 A 
ATOM     54  H   UNL A   1      45.804  23.633  28.104  1.00  0.00     0.167 HD
ATOM     55  C   UNL A   1      46.313  26.432  29.183  1.00  0.00     0.074 A 
ATOM     56  C   UNL A   1      46.301  26.335  27.722  1.00  0.00     0.031 C 
ATOM     57  C   UNL A   1      45.749  25.637  30.142  1.00  0.00     0.034 A 
BRANCH  44  58
ATOM     58  C   UNL A   1      43.821  23.012  25.833  1.00  0.00     0.023 A 
ATOM     59  C   UNL A   1      43.839  21.613  25.661  1.00  0.00     0.031 A 
ATOM     60  C   UNL A   1      44.659  23.743  24.962  1.00  0.00     0.131 A 
ATOM     61  C   UNL A   1      44.730  21.003  24.759  1.00  0.00     0.055 A 
ATOM     62  C   UNL A   1      45.488  23.137  24.014  1.00  0.00     0.041 A 
ATOM     63  F   UNL A   1      44.800  25.072  25.035  1.00  0.00    -0.206 F 
ATOM     64  C   UNL A   1      45.555  21.757  23.932  1.00  0.00     0.022 A 
BRANCH  61  65
ATOM     65  S   UNL A   1      44.922  19.204  24.829  1.00  0.00     0.124 S 
ATOM     66  O   UNL A   1      43.643  18.795  25.399  1.00  0.00    -0.237 OA
ATOM     67  O   UNL A   1      45.138  18.870  23.425  1.00  0.00    -0.237 OA
ATOM     68  O   UNL A   1      46.081  19.022  25.699  1.00  0.00    -0.744 OA
ENDBRANCH  61  65
ENDBRANCH  44  58
BRANCH  45  69
ATOM     69  C   UNL A   1      46.569  30.872  27.479  1.00  0.00     0.023 A 
ATOM     70  C   UNL A   1      45.814  31.907  26.883  1.00  0.00     0.031 A 
ATOM     71  C   UNL A   1      47.966  31.084  27.554  1.00  0.00     0.131 A 
ATOM     72  C   UNL A   1      46.455  33.076  26.396  1.00  0.00     0.055 A 
ATOM     73  C   UNL A   1      48.593  32.235  27.069  1.00  0.00     0.041 A 
ATOM     74  F   UNL A   1      48.771  30.212  28.182  1.00  0.00    -0.206 F 
ATOM     75  C   UNL A   1      47.837  33.243  26.496  1.00  0.00     0.022 A 
BRANCH  72  76
ATOM     76  S   UNL A   1      45.483  34.458  25.706  1.00  0.00     0.124 S 
ATOM     77  O   UNL A   1      44.417  34.609  26.689  1.00  0.00    -0.237 OA
ATOM     78  O   UNL A   1      46.464  35.534  25.641  1.00  0.00    -0.237 OA
ATOM     79  O   UNL A   1      45.048  33.953  24.402  1.00  0.00    -0.744 OA
ENDBRANCH  72  76
ENDBRANCH  45  69
BRANCH  57  80
ATOM     80  C   UNL A   1      45.768  26.093  31.592  1.00  0.00     0.023 A 
ATOM     81  C   UNL A   1      44.656  26.608  32.300  1.00  0.00     0.031 A 
ATOM     82  C   UNL A   1      46.941  25.839  32.327  1.00  0.00     0.131 A 
ATOM     83  C   UNL A   1      44.753  26.853  33.686  1.00  0.00     0.055 A 
ATOM     84  C   UNL A   1      47.024  26.058  33.701  1.00  0.00     0.041 A 
ATOM     85  F   UNL A   1      48.025  25.326  31.722  1.00  0.00    -0.206 F 
ATOM     86  C   UNL A   1      45.931  26.570  34.386  1.00  0.00     0.022 A 
BRANCH  83  87
ATOM     87  S   UNL A   1      43.350  27.559  34.614  1.00  0.00     0.124 S 
ATOM     88  O   UNL A   1      42.561  26.389  34.981  1.00  0.00    -0.237 OA
ATOM     89  O   UNL A   1      44.013  28.254  35.714  1.00  0.00    -0.237 OA
ATOM     90  O   UNL A   1      42.708  28.443  33.639  1.00  0.00    -0.744 OA
ENDBRANCH  83  87
ENDBRANCH  57  80
ENDBRANCH  31  32
ENDBRANCH  23  26
ENDBRANCH  21  22
ENDBRANCH   1  21
TORSDOF 15
ENDMDL
MODEL 3
REMARK VINA RESULT:     -12.5      1.968      2.641
REMARK SMILES Cc1cc(C(=O)NCCCCNC(=O)c2ccc(-c3c4nc(c(-c5cc(S(=O)(=O)[O-])ccc5F)c5ccc([nH]5)c(-c5cc(S(=O)(=O)[O-])ccc5F)c5nc(c(-c6cc(S(=O)(=O)[O-])ccc6F)c6ccc3[nH]6)C=C5)C=C4)cc2)nn1[C@H]1CCS(=O)(=O)C1
REMARK SMILES IDX 10 1 9 2 8 3 7 4 5 5 6 6 4 8 1 9 2 10 3 11 79 12 78 13 80 14
REMARK SMILES IDX 81 15 86 16 82 17 83 18 84 19 85 20 11 21 12 22 13 23 14 25
REMARK SMILES IDX 15 26 16 27 77 28 17 29 76 30 18 31 19 32 20 33 70 34 21 35
REMARK SMILES IDX 75 36 69 37 71 38 22 39 74 40 68 41 67 42 23 44 55 45 35 46
REMARK SMILES IDX 54 47 36 48 39 49 53 50 72 51 37 52 38 53 52 55 73 56 40 57
REMARK SMILES IDX 24 58 25 59 33 60 26 61 32 62 34 63 31 64 27 65 28 66 29 67
REMARK SMILES IDX 30 68 56 69 57 70 65 71 58 72 64 73 66 74 63 75 59 76 60 77
REMARK SMILES IDX 61 78 62 79 41 80 42 81 50 82 43 83 49 84 51 85 48 86 44 87
REMARK SMILES IDX 45 88 46 89 47 90
REMARK H PARENT 7 7 12 24 71 43 39 54
REMARK Flexibility Score: inf
ROOT
ATOM      1  C   UNL A   1      33.907  29.542  27.299  1.00  0.00     0.023 C 
ENDROOT
BRANCH   1   2
ATOM      2  C   UNL A   1      33.634  28.738  26.017  1.00  0.00     0.023 C 
BRANCH   2   3
ATOM      3  C   UNL A   1      33.392  29.586  24.765  1.00  0.00     0.116 C 
BRANCH   3   4
ATOM      4  N   UNL A   1      33.762  28.873  23.564  1.00  0.00    -0.351 N 
ATOM      5  C   UNL A   1      33.147  27.873  22.851  1.00  0.00     0.271 C 
ATOM      6  O   UNL A   1      33.751  27.496  21.842  1.00  0.00    -0.267 OA
ATOM      7  H   UNL A   1      34.623  29.159  23.183  1.00  0.00     0.163 HD
BRANCH   5   8
ATOM      8  C   UNL A   1      31.856  27.274  23.258  1.00  0.00     0.150 A 
ATOM      9  C   UNL A   1      28.233  26.698  23.698  1.00  0.00     0.066 C 
ATOM     10  C   UNL A   1      29.716  26.732  23.715  1.00  0.00     0.036 A 
ATOM     11  C   UNL A   1      30.526  27.759  23.255  1.00  0.00     0.059 A 
ATOM     12  N   UNL A   1      30.591  25.772  24.148  1.00  0.00    -0.265 N 
ATOM     13  N   UNL A   1      31.853  26.030  23.765  1.00  0.00    -0.167 NA
BRANCH  12  14
ATOM     14  C   UNL A   1      30.484  24.656  25.069  1.00  0.00     0.123 C 
ATOM     15  C   UNL A   1      31.193  23.418  24.478  1.00  0.00     0.044 C 
ATOM     16  C   UNL A   1      31.033  24.770  26.480  1.00  0.00     0.164 C 
ATOM     17  C   UNL A   1      31.014  22.293  25.483  1.00  0.00     0.139 C 
ATOM     18  S   UNL A   1      31.010  23.089  27.079  1.00  0.00     0.152 S 
ATOM     19  O   UNL A   1      29.726  22.843  27.714  1.00  0.00    -0.229 OA
ATOM     20  O   UNL A   1      32.260  22.818  27.745  1.00  0.00    -0.229 OA
ENDBRANCH  12  14
ENDBRANCH   5   8
ENDBRANCH   3   4
ENDBRANCH   2   3
ENDBRANCH   1   2
BRANCH   1  21
ATOM     21  C   UNL A   1      35.363  29.547  27.761  1.00  0.00     0.116 C 
BRANCH  21  22
ATOM     22  N   UNL A   1      35.519  30.004  29.141  1.00  0.00    -0.352 N 
ATOM     23  C   UNL A   1      36.466  29.602  30.067  1.00  0.00     0.251 C 
ATOM     24  H   UNL A   1      34.872  30.678  29.450  1.00  0.00     0.163 HD
ATOM     25  O   UNL A   1      36.255  29.727  31.268  1.00  0.00    -0.269 OA
BRANCH  23  26
ATOM     26  C   UNL A   1      37.736  29.039  29.578  1.00  0.00     0.039 A 
ATOM     27  C   UNL A   1      38.354  29.508  28.416  1.00  0.00     0.014 A 
ATOM     28  C   UNL A   1      38.326  28.039  30.346  1.00  0.00     0.014 A 
ATOM     29  C   UNL A   1      39.620  29.021  28.087  1.00  0.00     0.010 A 
ATOM     30  C   UNL A   1      39.623  27.665  30.100  1.00  0.00     0.010 A 
ATOM     31  C   UNL A   1      40.259  28.115  28.946  1.00  0.00    -0.014 A 
BRANCH  31  32
ATOM     32  C   UNL A   1      41.653  27.728  28.742  1.00  0.00     0.031 A 
ATOM     33  C   UNL A   1      41.842  26.465  27.973  1.00  0.00     0.074 A 
ATOM     34  C   UNL A   1      42.684  28.571  28.979  1.00  0.00     0.049 A 
ATOM     35  N   UNL A   1      42.345  25.353  28.394  1.00  0.00    -0.248 NA
ATOM     36  C   UNL A   1      41.275  26.376  26.617  1.00  0.00     0.031 C 
ATOM     37  C   UNL A   1      42.629  29.964  29.437  1.00  0.00     0.029 A 
ATOM     38  N   UNL A   1      44.008  28.402  28.721  1.00  0.00    -0.354 N 
ATOM     39  C   UNL A   1      42.387  24.504  27.290  1.00  0.00     0.074 A 
ATOM     40  C   UNL A   1      41.527  25.101  26.307  1.00  0.00     0.031 C 
ATOM     41  C   UNL A   1      43.805  30.574  29.170  1.00  0.00     0.029 A 
ATOM     42  C   UNL A   1      44.746  29.584  28.676  1.00  0.00     0.049 A 
ATOM     43  H   UNL A   1      44.413  27.516  28.577  1.00  0.00     0.167 HD
ATOM     44  C   UNL A   1      43.319  23.512  27.197  1.00  0.00     0.034 A 
ATOM     45  C   UNL A   1      46.021  29.745  28.224  1.00  0.00     0.034 A 
ATOM     46  C   UNL A   1      43.948  23.276  28.480  1.00  0.00     0.049 A 
ATOM     47  C   UNL A   1      46.658  28.403  28.293  1.00  0.00     0.074 A 
ATOM     48  C   UNL A   1      43.473  22.961  29.741  1.00  0.00     0.029 A 
ATOM     49  N   UNL A   1      45.219  23.770  28.685  1.00  0.00    -0.354 N 
ATOM     50  N   UNL A   1      46.862  27.768  29.418  1.00  0.00    -0.248 NA
ATOM     51  C   UNL A   1      46.581  27.552  27.112  1.00  0.00     0.031 C 
ATOM     52  C   UNL A   1      44.227  23.788  30.624  1.00  0.00     0.029 A 
ATOM     53  C   UNL A   1      45.191  24.465  29.871  1.00  0.00     0.049 A 
ATOM     54  H   UNL A   1      45.997  23.650  28.094  1.00  0.00     0.167 HD
ATOM     55  C   UNL A   1      46.494  26.455  29.162  1.00  0.00     0.074 A 
ATOM     56  C   UNL A   1      46.420  26.364  27.703  1.00  0.00     0.031 C 
ATOM     57  C   UNL A   1      45.990  25.646  30.142  1.00  0.00     0.034 A 
BRANCH  44  58
ATOM     58  C   UNL A   1      43.929  22.996  25.910  1.00  0.00     0.023 A 
ATOM     59  C   UNL A   1      43.920  21.601  25.707  1.00  0.00     0.031 A 
ATOM     60  C   UNL A   1      44.753  23.733  25.031  1.00  0.00     0.131 A 
ATOM     61  C   UNL A   1      44.774  20.998  24.766  1.00  0.00     0.055 A 
ATOM     62  C   UNL A   1      45.545  23.136  24.046  1.00  0.00     0.041 A 
ATOM     63  F   UNL A   1      44.917  25.057  25.130  1.00  0.00    -0.206 F 
ATOM     64  C   UNL A   1      45.587  21.757  23.933  1.00  0.00     0.022 A 
BRANCH  61  65
ATOM     65  S   UNL A   1      44.939  19.195  24.791  1.00  0.00     0.124 S 
ATOM     66  O   UNL A   1      46.076  19.018  25.688  1.00  0.00    -0.237 OA
ATOM     67  O   UNL A   1      43.639  18.781  25.309  1.00  0.00    -0.237 OA
ATOM     68  O   UNL A   1      45.188  18.859  23.392  1.00  0.00    -0.744 OA
ENDBRANCH  61  65
ENDBRANCH  44  58
BRANCH  45  69
ATOM     69  C   UNL A   1      46.582  30.906  27.468  1.00  0.00     0.023 A 
ATOM     70  C   UNL A   1      45.778  31.906  26.876  1.00  0.00     0.031 A 
ATOM     71  C   UNL A   1      47.972  31.172  27.517  1.00  0.00     0.131 A 
ATOM     72  C   UNL A   1      46.365  33.093  26.367  1.00  0.00     0.055 A 
ATOM     73  C   UNL A   1      48.545  32.341  27.010  1.00  0.00     0.041 A 
ATOM     74  F   UNL A   1      48.820  30.338  28.139  1.00  0.00    -0.206 F 
ATOM     75  C   UNL A   1      47.741  33.313  26.441  1.00  0.00     0.022 A 
BRANCH  72  76
ATOM     76  S   UNL A   1      45.329  34.430  25.680  1.00  0.00     0.124 S 
ATOM     77  O   UNL A   1      46.164  35.607  25.890  1.00  0.00    -0.237 OA
ATOM     78  O   UNL A   1      45.139  34.006  24.299  1.00  0.00    -0.237 OA
ATOM     79  O   UNL A   1      44.119  34.383  26.504  1.00  0.00    -0.744 OA
ENDBRANCH  72  76
ENDBRANCH  45  69
BRANCH  57  80
ATOM     80  C   UNL A   1      46.064  26.097  31.592  1.00  0.00     0.023 A 
ATOM     81  C   UNL A   1      44.990  26.647  32.331  1.00  0.00     0.031 A 
ATOM     82  C   UNL A   1      47.247  25.802  32.294  1.00  0.00     0.131 A 
ATOM     83  C   UNL A   1      45.132  26.884  33.714  1.00  0.00     0.055 A 
ATOM     84  C   UNL A   1      47.375  26.015  33.665  1.00  0.00     0.041 A 
ATOM     85  F   UNL A   1      48.297  25.255  31.659  1.00  0.00    -0.206 F 
ATOM     86  C   UNL A   1      46.318  26.561  34.381  1.00  0.00     0.022 A 
BRANCH  83  87
ATOM     87  S   UNL A   1      43.779  27.634  34.681  1.00  0.00     0.124 S 
ATOM     88  O   UNL A   1      43.993  29.066  34.514  1.00  0.00    -0.237 OA
ATOM     89  O   UNL A   1      42.587  27.086  34.038  1.00  0.00    -0.237 OA
ATOM     90  O   UNL A   1      44.016  27.138  36.039  1.00  0.00    -0.744 OA
ENDBRANCH  83  87
ENDBRANCH  57  80
ENDBRANCH  31  32
ENDBRANCH  23  26
ENDBRANCH  21  22
ENDBRANCH   1  21
TORSDOF 15
ENDMDL
