MODEL 1
REMARK VINA RESULT:     -12.6      0.000      0.000
REMARK SMILES Cc1sc(NC(=O)[C@@H]2[C@@H](C(=O)NCCCCNC(=O)c3ccc(-c4c5nc(c(-c6cc(S(=O)(=O)[O-])ccc6F)c6ccc([nH]6)c(-c6cc(S(=O)(=O)[O-])ccc6F)c6nc(c(-c7cc(S(=O)(=O)[O-])ccc7F)c7ccc4[nH]7)C=C6)C=C5)cc3)[C@@H]3C=C[C@H]2C3)c(C#N)c1C
REMARK SMILES IDX 14 1 13 2 12 3 10 4 11 5 9 7 8 8 86 9 83 10 85 11 87 12
REMARK SMILES IDX 84 13 6 14 5 15 7 17 4 18 1 19 2 20 3 21 91 22 88 23 92 24
REMARK SMILES IDX 89 25 90 26 15 27 16 28 17 29 18 30 19 32 20 33 21 34 82 35
REMARK SMILES IDX 22 36 81 37 23 38 24 39 25 40 75 41 26 42 80 43 74 44 76 45
REMARK SMILES IDX 27 46 79 47 73 48 72 49 28 51 60 52 40 53 59 54 41 55 44 56
REMARK SMILES IDX 58 57 77 58 42 59 43 60 57 62 78 63 45 64 29 65 30 66 38 67
REMARK SMILES IDX 31 68 37 69 39 70 36 71 32 72 33 73 34 74 35 75 61 76 62 77
REMARK SMILES IDX 70 78 63 79 69 80 71 81 68 82 64 83 65 84 66 85 67 86 46 87
REMARK SMILES IDX 47 88 55 89 48 90 54 91 56 92 53 93 49 94 50 95 51 96 52 97
REMARK H PARENT 12 6 5 16 17 31 76 50 44 61
REMARK Flexibility Score: inf
ROOT
ATOM      1  C   UNL A   1      36.850  21.778  24.266  1.00  0.00     0.023 C 
ENDROOT
BRANCH   1   2
ATOM      2  C   UNL A   1      36.688  22.920  25.263  1.00  0.00     0.116 C 
BRANCH   2   3
ATOM      3  N   UNL A   1      35.884  22.608  26.423  1.00  0.00    -0.356 N 
ATOM      4  C   UNL A   1      34.538  22.601  26.620  1.00  0.00     0.224 C 
ATOM      5  O   UNL A   1      34.180  22.292  27.763  1.00  0.00    -0.275 OA
ATOM      6  H   UNL A   1      36.407  22.350  27.216  1.00  0.00     0.163 HD
BRANCH   4   7
ATOM      7  C   UNL A   1      33.492  23.072  25.586  1.00  0.00     0.098 C 
ATOM      8  C   UNL A   1      32.045  22.810  26.186  1.00  0.00     0.099 C 
ATOM      9  C   UNL A   1      31.378  21.999  25.016  1.00  0.00     0.025 C 
ATOM     10  C   UNL A   1      33.411  22.334  24.224  1.00  0.00     0.025 C 
ATOM     11  C   UNL A   1      31.239  22.927  23.822  1.00  0.00    -0.027 C 
ATOM     12  C   UNL A   1      32.533  21.136  24.538  1.00  0.00     0.017 C 
ATOM     13  C   UNL A   1      32.473  23.142  23.353  1.00  0.00    -0.027 C 
BRANCH   8  14
ATOM     14  C   UNL A   1      30.955  23.780  26.654  1.00  0.00     0.229 C 
ATOM     15  N   UNL A   1      30.669  25.063  26.389  1.00  0.00    -0.316 N 
ATOM     16  H   UNL A   1      29.807  25.312  26.794  1.00  0.00     0.170 HD
ATOM     17  O   UNL A   1      30.118  23.308  27.455  1.00  0.00    -0.274 OA
BRANCH  15  18
ATOM     18  C   UNL A   1      31.213  26.133  25.728  1.00  0.00     0.113 A 
ATOM     19  C   UNL A   1      33.959  28.612  24.516  1.00  0.00     0.057 C 
ATOM     20  C   UNL A   1      32.704  27.860  24.803  1.00  0.00     0.008 A 
ATOM     21  S   UNL A   1      32.702  26.789  26.132  1.00  0.00    -0.122 S 
ATOM     22  C   UNL A   1      31.467  27.896  24.180  1.00  0.00    -0.017 A 
ATOM     23  C   UNL A   1      30.603  26.875  24.728  1.00  0.00     0.090 A 
ATOM     24  C   UNL A   1      31.057  28.826  23.081  1.00  0.00     0.047 C 
BRANCH  23  25
ATOM     25  C   UNL A   1      29.271  26.631  24.264  1.00  0.00     0.103 C 
ATOM     26  N   UNL A   1      28.186  26.416  23.886  1.00  0.00    -0.192 NA
ENDBRANCH  23  25
ENDBRANCH  15  18
ENDBRANCH   8  14
ENDBRANCH   4   7
ENDBRANCH   2   3
ENDBRANCH   1   2
BRANCH   1  27
ATOM     27  C   UNL A   1      37.596  20.528  24.730  1.00  0.00     0.023 C 
BRANCH  27  28
ATOM     28  C   UNL A   1      38.712  20.789  25.729  1.00  0.00     0.116 C 
BRANCH  28  29
ATOM     29  N   UNL A   1      39.677  19.687  25.848  1.00  0.00    -0.352 N 
ATOM     30  C   UNL A   1      41.064  19.784  25.925  1.00  0.00     0.251 C 
ATOM     31  H   UNL A   1      39.300  18.778  25.875  1.00  0.00     0.163 HD
ATOM     32  O   UNL A   1      41.778  18.836  25.622  1.00  0.00    -0.269 OA
BRANCH  30  33
ATOM     33  C   UNL A   1      41.643  21.042  26.443  1.00  0.00     0.039 A 
ATOM     34  C   UNL A   1      42.285  22.011  25.666  1.00  0.00     0.014 A 
ATOM     35  C   UNL A   1      41.429  21.264  27.792  1.00  0.00     0.014 A 
ATOM     36  C   UNL A   1      42.716  23.190  26.292  1.00  0.00     0.010 A 
ATOM     37  C   UNL A   1      41.493  22.542  28.251  1.00  0.00     0.010 A 
ATOM     38  C   UNL A   1      42.335  23.433  27.622  1.00  0.00    -0.014 A 
BRANCH  38  39
ATOM     39  C   UNL A   1      42.525  24.686  28.353  1.00  0.00     0.031 A 
ATOM     40  C   UNL A   1      41.348  25.572  28.155  1.00  0.00     0.074 A 
ATOM     41  C   UNL A   1      43.494  24.858  29.297  1.00  0.00     0.049 A 
ATOM     42  N   UNL A   1      41.243  26.520  27.282  1.00  0.00    -0.248 NA
ATOM     43  C   UNL A   1      40.043  25.175  28.729  1.00  0.00     0.031 C 
ATOM     44  C   UNL A   1      44.543  23.918  29.725  1.00  0.00     0.029 A 
ATOM     45  N   UNL A   1      43.732  25.921  30.131  1.00  0.00    -0.354 N 
ATOM     46  C   UNL A   1      39.986  27.071  27.501  1.00  0.00     0.074 A 
ATOM     47  C   UNL A   1      39.219  26.024  28.108  1.00  0.00     0.031 C 
ATOM     48  C   UNL A   1      45.160  24.368  30.850  1.00  0.00     0.029 A 
ATOM     49  C   UNL A   1      44.668  25.698  31.167  1.00  0.00     0.049 A 
ATOM     50  H   UNL A   1      43.278  26.786  30.015  1.00  0.00     0.167 HD
ATOM     51  C   UNL A   1      39.839  28.426  27.549  1.00  0.00     0.034 A 
ATOM     52  C   UNL A   1      45.041  26.563  32.172  1.00  0.00     0.034 A 
ATOM     53  C   UNL A   1      41.043  29.060  27.040  1.00  0.00     0.049 A 
ATOM     54  C   UNL A   1      44.674  27.918  31.684  1.00  0.00     0.074 A 
ATOM     55  C   UNL A   1      41.730  29.048  25.844  1.00  0.00     0.029 A 
ATOM     56  N   UNL A   1      41.941  29.503  27.988  1.00  0.00    -0.354 N 
ATOM     57  N   UNL A   1      45.256  28.467  30.651  1.00  0.00    -0.248 NA
ATOM     58  C   UNL A   1      43.322  28.381  31.954  1.00  0.00     0.031 C 
ATOM     59  C   UNL A   1      43.110  29.036  26.212  1.00  0.00     0.029 A 
ATOM     60  C   UNL A   1      43.213  29.182  27.597  1.00  0.00     0.049 A 
ATOM     61  H   UNL A   1      41.704  29.977  28.819  1.00  0.00     0.167 HD
ATOM     62  C   UNL A   1      44.217  28.973  29.884  1.00  0.00     0.074 A 
ATOM     63  C   UNL A   1      43.050  28.955  30.775  1.00  0.00     0.031 C 
ATOM     64  C   UNL A   1      44.325  29.037  28.521  1.00  0.00     0.034 A 
BRANCH  51  65
ATOM     65  C   UNL A   1      38.906  29.177  28.490  1.00  0.00     0.023 A 
ATOM     66  C   UNL A   1      39.238  29.119  29.858  1.00  0.00     0.031 A 
ATOM     67  C   UNL A   1      37.608  29.656  28.205  1.00  0.00     0.131 A 
ATOM     68  C   UNL A   1      38.273  29.343  30.852  1.00  0.00     0.055 A 
ATOM     69  C   UNL A   1      36.666  29.938  29.201  1.00  0.00     0.041 A 
ATOM     70  F   UNL A   1      37.141  29.823  26.965  1.00  0.00    -0.206 F 
ATOM     71  C   UNL A   1      36.981  29.742  30.533  1.00  0.00     0.022 A 
BRANCH  68  72
ATOM     72  S   UNL A   1      38.694  28.900  32.555  1.00  0.00     0.124 S 
ATOM     73  O   UNL A   1      37.473  28.229  32.986  1.00  0.00    -0.237 OA
ATOM     74  O   UNL A   1      39.865  28.053  32.362  1.00  0.00    -0.237 OA
ATOM     75  O   UNL A   1      38.956  30.193  33.183  1.00  0.00    -0.744 OA
ENDBRANCH  68  72
ENDBRANCH  51  65
BRANCH  52  76
ATOM     76  C   UNL A   1      45.307  26.288  33.636  1.00  0.00     0.023 A 
ATOM     77  C   UNL A   1      44.335  26.301  34.685  1.00  0.00     0.031 A 
ATOM     78  C   UNL A   1      46.553  25.715  33.971  1.00  0.00     0.131 A 
ATOM     79  C   UNL A   1      44.646  25.772  35.977  1.00  0.00     0.055 A 
ATOM     80  C   UNL A   1      46.843  25.181  35.232  1.00  0.00     0.041 A 
ATOM     81  F   UNL A   1      47.513  25.577  33.043  1.00  0.00    -0.206 F 
ATOM     82  C   UNL A   1      45.891  25.201  36.238  1.00  0.00     0.022 A 
BRANCH  79  83
ATOM     83  S   UNL A   1      43.440  25.774  37.369  1.00  0.00     0.124 S 
ATOM     84  O   UNL A   1      42.288  25.088  36.796  1.00  0.00    -0.237 OA
ATOM     85  O   UNL A   1      44.162  25.067  38.420  1.00  0.00    -0.237 OA
ATOM     86  O   UNL A   1      43.224  27.198  37.637  1.00  0.00    -0.744 OA
ENDBRANCH  79  83
ENDBRANCH  52  76
BRANCH  64  87
ATOM     87  C   UNL A   1      45.699  28.828  27.907  1.00  0.00     0.023 A 
ATOM     88  C   UNL A   1      46.244  27.593  27.474  1.00  0.00     0.031 A 
ATOM     89  C   UNL A   1      46.447  29.991  27.660  1.00  0.00     0.131 A 
ATOM     90  C   UNL A   1      47.503  27.566  26.833  1.00  0.00     0.055 A 
ATOM     91  C   UNL A   1      47.671  29.963  27.000  1.00  0.00     0.041 A 
ATOM     92  F   UNL A   1      45.971  31.192  28.027  1.00  0.00    -0.206 F 
ATOM     93  C   UNL A   1      48.208  28.750  26.590  1.00  0.00     0.022 A 
BRANCH  90  94
ATOM     94  S   UNL A   1      48.276  25.989  26.330  1.00  0.00     0.124 S 
ATOM     95  O   UNL A   1      47.483  25.577  25.178  1.00  0.00    -0.237 OA
ATOM     96  O   UNL A   1      49.654  26.385  26.048  1.00  0.00    -0.237 OA
ATOM     97  O   UNL A   1      48.120  25.140  27.513  1.00  0.00    -0.744 OA
ENDBRANCH  90  94
ENDBRANCH  64  87
ENDBRANCH  38  39
ENDBRANCH  30  33
ENDBRANCH  28  29
ENDBRANCH  27  28
ENDBRANCH   1  27
TORSDOF 17
ENDMDL
MODEL 2
REMARK VINA RESULT:     -12.5      4.443      9.347
REMARK SMILES Cc1sc(NC(=O)[C@@H]2[C@@H](C(=O)NCCCCNC(=O)c3ccc(-c4c5nc(c(-c6cc(S(=O)(=O)[O-])ccc6F)c6ccc([nH]6)c(-c6cc(S(=O)(=O)[O-])ccc6F)c6nc(c(-c7cc(S(=O)(=O)[O-])ccc7F)c7ccc4[nH]7)C=C6)C=C5)cc3)[C@@H]3C=C[C@H]2C3)c(C#N)c1C
REMARK SMILES IDX 14 1 13 2 12 3 10 4 11 5 9 7 8 8 86 9 83 10 85 11 87 12
REMARK SMILES IDX 84 13 6 14 5 15 7 17 4 18 1 19 2 20 3 21 91 22 88 23 92 24
REMARK SMILES IDX 89 25 90 26 15 27 16 28 17 29 18 30 19 32 20 33 21 34 82 35
REMARK SMILES IDX 22 36 81 37 23 38 24 39 25 40 75 41 26 42 80 43 74 44 76 45
REMARK SMILES IDX 27 46 79 47 73 48 72 49 28 51 60 52 40 53 59 54 41 55 44 56
REMARK SMILES IDX 58 57 77 58 42 59 43 60 57 62 78 63 45 64 29 65 30 66 38 67
REMARK SMILES IDX 31 68 37 69 39 70 36 71 32 72 33 73 34 74 35 75 61 76 62 77
REMARK SMILES IDX 70 78 63 79 69 80 71 81 68 82 64 83 65 84 66 85 67 86 46 87
REMARK SMILES IDX 47 88 55 89 48 90 54 91 56 92 53 93 49 94 50 95 51 96 52 97
REMARK H PARENT 12 6 5 16 17 31 76 50 44 61
REMARK Flexibility Score: inf
ROOT
ATOM      1  C   UNL A   1      31.508  30.633  25.661  1.00  0.00     0.023 C 
ENDROOT
BRANCH   1   2
ATOM      2  C   UNL A   1      32.706  29.688  25.648  1.00  0.00     0.116 C 
BRANCH   2   3
ATOM      3  N   UNL A   1      33.369  29.562  24.371  1.00  0.00    -0.356 N 
ATOM      4  C   UNL A   1      33.294  28.615  23.398  1.00  0.00     0.224 C 
ATOM      5  O   UNL A   1      34.024  28.813  22.418  1.00  0.00    -0.275 OA
ATOM      6  H   UNL A   1      33.990  30.298  24.167  1.00  0.00     0.163 HD
BRANCH   4   7
ATOM      7  C   UNL A   1      32.491  27.300  23.506  1.00  0.00     0.098 C 
ATOM      8  C   UNL A   1      33.404  26.216  24.225  1.00  0.00     0.099 C 
ATOM      9  C   UNL A   1      33.316  25.025  23.202  1.00  0.00     0.025 C 
ATOM     10  C   UNL A   1      32.090  26.565  22.200  1.00  0.00     0.025 C 
ATOM     11  C   UNL A   1      31.884  24.517  23.197  1.00  0.00    -0.027 C 
ATOM     12  C   UNL A   1      33.332  25.756  21.870  1.00  0.00     0.017 C 
ATOM     13  C   UNL A   1      31.141  25.458  22.605  1.00  0.00    -0.027 C 
BRANCH   8  14
ATOM     14  C   UNL A   1      33.291  25.553  25.601  1.00  0.00     0.229 C 
ATOM     15  N   UNL A   1      33.908  24.520  26.193  1.00  0.00    -0.316 N 
ATOM     16  H   UNL A   1      33.649  24.465  27.142  1.00  0.00     0.170 HD
ATOM     17  O   UNL A   1      32.458  26.064  26.382  1.00  0.00    -0.274 OA
BRANCH  15  18
ATOM     18  C   UNL A   1      34.788  23.517  25.880  1.00  0.00     0.113 A 
ATOM     19  C   UNL A   1      38.200  21.665  25.602  1.00  0.00     0.057 C 
ATOM     20  C   UNL A   1      36.775  22.101  25.555  1.00  0.00     0.008 A 
ATOM     21  S   UNL A   1      36.443  23.761  25.773  1.00  0.00    -0.122 S 
ATOM     22  C   UNL A   1      35.616  21.379  25.321  1.00  0.00    -0.017 A 
ATOM     23  C   UNL A   1      34.457  22.219  25.520  1.00  0.00     0.090 A 
ATOM     24  C   UNL A   1      35.537  19.934  24.940  1.00  0.00     0.047 C 
BRANCH  23  25
ATOM     25  C   UNL A   1      33.109  21.753  25.395  1.00  0.00     0.103 C 
ATOM     26  N   UNL A   1      32.013  21.363  25.283  1.00  0.00    -0.192 NA
ENDBRANCH  23  25
ENDBRANCH  15  18
ENDBRANCH   8  14
ENDBRANCH   4   7
ENDBRANCH   2   3
ENDBRANCH   1   2
BRANCH   1  27
ATOM     27  C   UNL A   1      31.410  31.643  26.803  1.00  0.00     0.023 C 
BRANCH  27  28
ATOM     28  C   UNL A   1      32.721  32.325  27.162  1.00  0.00     0.116 C 
BRANCH  28  29
ATOM     29  N   UNL A   1      32.577  33.741  27.525  1.00  0.00    -0.352 N 
ATOM     30  C   UNL A   1      33.163  34.401  28.602  1.00  0.00     0.251 C 
ATOM     31  H   UNL A   1      31.999  34.285  26.940  1.00  0.00     0.163 HD
ATOM     32  O   UNL A   1      32.681  35.438  29.041  1.00  0.00    -0.269 OA
BRANCH  30  33
ATOM     33  C   UNL A   1      34.418  33.847  29.153  1.00  0.00     0.039 A 
ATOM     34  C   UNL A   1      34.495  32.926  30.203  1.00  0.00     0.014 A 
ATOM     35  C   UNL A   1      35.566  34.238  28.487  1.00  0.00     0.014 A 
ATOM     36  C   UNL A   1      35.758  32.434  30.565  1.00  0.00     0.010 A 
ATOM     37  C   UNL A   1      36.672  33.456  28.597  1.00  0.00     0.010 A 
ATOM     38  C   UNL A   1      36.866  32.740  29.758  1.00  0.00    -0.014 A 
BRANCH  38  39
ATOM     39  C   UNL A   1      38.201  32.152  29.876  1.00  0.00     0.031 A 
ATOM     40  C   UNL A   1      38.174  30.738  29.419  1.00  0.00     0.074 A 
ATOM     41  C   UNL A   1      39.326  32.894  30.085  1.00  0.00     0.049 A 
ATOM     42  N   UNL A   1      38.045  29.693  30.170  1.00  0.00    -0.248 NA
ATOM     43  C   UNL A   1      37.928  30.448  27.989  1.00  0.00     0.031 C 
ATOM     44  C   UNL A   1      39.448  34.346  30.294  1.00  0.00     0.029 A 
ATOM     45  N   UNL A   1      40.642  32.509  30.114  1.00  0.00    -0.354 N 
ATOM     46  C   UNL A   1      38.105  28.614  29.297  1.00  0.00     0.074 A 
ATOM     47  C   UNL A   1      37.686  29.135  28.030  1.00  0.00     0.031 C 
ATOM     48  C   UNL A   1      40.750  34.732  30.228  1.00  0.00     0.029 A 
ATOM     49  C   UNL A   1      41.593  33.554  30.114  1.00  0.00     0.049 A 
ATOM     50  H   UNL A   1      40.907  31.562  30.133  1.00  0.00     0.167 HD
ATOM     51  C   UNL A   1      38.880  27.535  29.604  1.00  0.00     0.034 A 
ATOM     52  C   UNL A   1      42.966  33.450  30.077  1.00  0.00     0.034 A 
ATOM     53  C   UNL A   1      39.279  27.610  31.000  1.00  0.00     0.049 A 
ATOM     54  C   UNL A   1      43.272  32.071  30.541  1.00  0.00     0.074 A 
ATOM     55  C   UNL A   1      38.618  27.644  32.211  1.00  0.00     0.029 A 
ATOM     56  N   UNL A   1      40.540  28.111  31.243  1.00  0.00    -0.354 N 
ATOM     57  N   UNL A   1      43.023  31.677  31.761  1.00  0.00    -0.248 NA
ATOM     58  C   UNL A   1      43.286  31.017  29.538  1.00  0.00     0.031 C 
ATOM     59  C   UNL A   1      39.348  28.581  33.003  1.00  0.00     0.029 A 
ATOM     60  C   UNL A   1      40.492  28.974  32.305  1.00  0.00     0.049 A 
ATOM     61  H   UNL A   1      41.352  27.883  30.732  1.00  0.00     0.167 HD
ATOM     62  C   UNL A   1      42.401  30.446  31.618  1.00  0.00     0.074 A 
ATOM     63  C   UNL A   1      42.656  30.057  30.226  1.00  0.00     0.031 C 
ATOM     64  C   UNL A   1      41.466  30.029  32.528  1.00  0.00     0.034 A 
BRANCH  51  65
ATOM     65  C   UNL A   1      39.700  26.727  28.607  1.00  0.00     0.023 A 
ATOM     66  C   UNL A   1      40.713  27.435  27.931  1.00  0.00     0.031 A 
ATOM     67  C   UNL A   1      39.379  25.464  28.061  1.00  0.00     0.131 A 
ATOM     68  C   UNL A   1      41.219  26.986  26.701  1.00  0.00     0.055 A 
ATOM     69  C   UNL A   1      39.931  24.991  26.864  1.00  0.00     0.041 A 
ATOM     70  F   UNL A   1      38.478  24.638  28.598  1.00  0.00    -0.206 F 
ATOM     71  C   UNL A   1      40.826  25.771  26.155  1.00  0.00     0.022 A 
BRANCH  68  72
ATOM     72  S   UNL A   1      42.246  28.125  25.741  1.00  0.00     0.124 S 
ATOM     73  O   UNL A   1      43.321  28.405  26.686  1.00  0.00    -0.237 OA
ATOM     74  O   UNL A   1      42.596  27.309  24.585  1.00  0.00    -0.237 OA
ATOM     75  O   UNL A   1      41.343  29.241  25.469  1.00  0.00    -0.744 OA
ENDBRANCH  68  72
ENDBRANCH  51  65
BRANCH  52  76
ATOM     76  C   UNL A   1      43.979  34.276  29.313  1.00  0.00     0.023 A 
ATOM     77  C   UNL A   1      44.641  33.892  28.107  1.00  0.00     0.031 A 
ATOM     78  C   UNL A   1      44.094  35.640  29.661  1.00  0.00     0.131 A 
ATOM     79  C   UNL A   1      45.373  34.849  27.336  1.00  0.00     0.055 A 
ATOM     80  C   UNL A   1      44.795  36.576  28.890  1.00  0.00     0.041 A 
ATOM     81  F   UNL A   1      43.448  36.130  30.730  1.00  0.00    -0.206 F 
ATOM     82  C   UNL A   1      45.432  36.187  27.724  1.00  0.00     0.022 A 
BRANCH  79  83
ATOM     83  S   UNL A   1      46.256  34.409  25.781  1.00  0.00     0.124 S 
ATOM     84  O   UNL A   1      47.207  35.504  25.631  1.00  0.00    -0.237 OA
ATOM     85  O   UNL A   1      46.816  33.099  26.091  1.00  0.00    -0.237 OA
ATOM     86  O   UNL A   1      45.193  34.388  24.773  1.00  0.00    -0.744 OA
ENDBRANCH  79  83
ENDBRANCH  52  76
BRANCH  64  87
ATOM     87  C   UNL A   1      41.352  30.797  33.833  1.00  0.00     0.023 A 
ATOM     88  C   UNL A   1      42.221  30.689  34.947  1.00  0.00     0.031 A 
ATOM     89  C   UNL A   1      40.346  31.776  33.886  1.00  0.00     0.131 A 
ATOM     90  C   UNL A   1      42.045  31.540  36.061  1.00  0.00     0.055 A 
ATOM     91  C   UNL A   1      40.196  32.633  34.971  1.00  0.00     0.041 A 
ATOM     92  F   UNL A   1      39.507  31.940  32.850  1.00  0.00    -0.206 F 
ATOM     93  C   UNL A   1      41.041  32.514  36.067  1.00  0.00     0.022 A 
BRANCH  90  94
ATOM     94  S   UNL A   1      43.093  31.381  37.549  1.00  0.00     0.124 S 
ATOM     95  O   UNL A   1      44.093  32.427  37.371  1.00  0.00    -0.237 OA
ATOM     96  O   UNL A   1      42.139  31.590  38.636  1.00  0.00    -0.237 OA
ATOM     97  O   UNL A   1      43.614  30.016  37.456  1.00  0.00    -0.744 OA
ENDBRANCH  90  94
ENDBRANCH  64  87
ENDBRANCH  38  39
ENDBRANCH  30  33
ENDBRANCH  28  29
ENDBRANCH  27  28
ENDBRANCH   1  27
TORSDOF 17
ENDMDL
MODEL 3
REMARK VINA RESULT:     -12.5      4.474      9.477
REMARK SMILES Cc1sc(NC(=O)[C@@H]2[C@@H](C(=O)NCCCCNC(=O)c3ccc(-c4c5nc(c(-c6cc(S(=O)(=O)[O-])ccc6F)c6ccc([nH]6)c(-c6cc(S(=O)(=O)[O-])ccc6F)c6nc(c(-c7cc(S(=O)(=O)[O-])ccc7F)c7ccc4[nH]7)C=C6)C=C5)cc3)[C@@H]3C=C[C@H]2C3)c(C#N)c1C
REMARK SMILES IDX 14 1 13 2 12 3 10 4 11 5 9 7 8 8 86 9 83 10 85 11 87 12
REMARK SMILES IDX 84 13 6 14 5 15 7 17 4 18 1 19 2 20 3 21 91 22 88 23 92 24
REMARK SMILES IDX 89 25 90 26 15 27 16 28 17 29 18 30 19 32 20 33 21 34 82 35
REMARK SMILES IDX 22 36 81 37 23 38 24 39 25 40 75 41 26 42 80 43 74 44 76 45
REMARK SMILES IDX 27 46 79 47 73 48 72 49 28 51 60 52 40 53 59 54 41 55 44 56
REMARK SMILES IDX 58 57 77 58 42 59 43 60 57 62 78 63 45 64 29 65 30 66 38 67
REMARK SMILES IDX 31 68 37 69 39 70 36 71 32 72 33 73 34 74 35 75 61 76 62 77
REMARK SMILES IDX 70 78 63 79 69 80 71 81 68 82 64 83 65 84 66 85 67 86 46 87
REMARK SMILES IDX 47 88 55 89 48 90 54 91 56 92 53 93 49 94 50 95 51 96 52 97
REMARK H PARENT 12 6 5 16 17 31 76 50 44 61
REMARK Flexibility Score: inf
ROOT
ATOM      1  C   UNL A   1      34.179  29.975  27.523  1.00  0.00     0.023 C 
ENDROOT
BRANCH   1   2
ATOM      2  C   UNL A   1      34.112  28.717  26.663  1.00  0.00     0.116 C 
BRANCH   2   3
ATOM      3  N   UNL A   1      34.418  28.918  25.265  1.00  0.00    -0.356 N 
ATOM      4  C   UNL A   1      33.825  28.461  24.130  1.00  0.00     0.224 C 
ATOM      5  O   UNL A   1      34.365  28.821  23.077  1.00  0.00    -0.275 OA
ATOM      6  H   UNL A   1      35.201  29.493  25.105  1.00  0.00     0.163 HD
BRANCH   4   7
ATOM      7  C   UNL A   1      32.655  27.453  24.090  1.00  0.00     0.098 C 
ATOM      8  C   UNL A   1      32.565  26.851  22.623  1.00  0.00     0.099 C 
ATOM      9  C   UNL A   1      31.052  27.108  22.286  1.00  0.00     0.025 C 
ATOM     10  C   UNL A   1      31.213  27.981  24.307  1.00  0.00     0.025 C 
ATOM     11  C   UNL A   1      30.213  26.242  23.209  1.00  0.00    -0.027 C 
ATOM     12  C   UNL A   1      30.816  28.466  22.924  1.00  0.00     0.017 C 
ATOM     13  C   UNL A   1      30.325  26.762  24.436  1.00  0.00    -0.027 C 
BRANCH   8  14
ATOM     14  C   UNL A   1      32.847  25.442  22.090  1.00  0.00     0.229 C 
ATOM     15  N   UNL A   1      33.155  24.270  22.664  1.00  0.00    -0.316 N 
ATOM     16  H   UNL A   1      33.144  23.548  21.995  1.00  0.00     0.170 HD
ATOM     17  O   UNL A   1      32.773  25.308  20.848  1.00  0.00    -0.274 OA
BRANCH  15  18
ATOM     18  C   UNL A   1      33.482  23.772  23.899  1.00  0.00     0.113 A 
ATOM     19  C   UNL A   1      32.937  22.497  27.536  1.00  0.00     0.057 C 
ATOM     20  C   UNL A   1      33.468  22.928  26.211  1.00  0.00     0.008 A 
ATOM     21  S   UNL A   1      32.462  23.891  25.225  1.00  0.00    -0.122 S 
ATOM     22  C   UNL A   1      34.700  22.709  25.616  1.00  0.00    -0.017 A 
ATOM     23  C   UNL A   1      34.694  23.204  24.259  1.00  0.00     0.090 A 
ATOM     24  C   UNL A   1      35.880  22.039  26.249  1.00  0.00     0.047 C 
BRANCH  23  25
ATOM     25  C   UNL A   1      35.808  23.089  23.368  1.00  0.00     0.103 C 
ATOM     26  N   UNL A   1      36.726  23.000  22.650  1.00  0.00    -0.192 NA
ENDBRANCH  23  25
ENDBRANCH  15  18
ENDBRANCH   8  14
ENDBRANCH   4   7
ENDBRANCH   2   3
ENDBRANCH   1   2
BRANCH   1  27
ATOM     27  C   UNL A   1      33.726  31.292  26.896  1.00  0.00     0.023 C 
BRANCH  27  28
ATOM     28  C   UNL A   1      32.442  31.864  27.479  1.00  0.00     0.116 C 
BRANCH  28  29
ATOM     29  N   UNL A   1      32.390  33.332  27.480  1.00  0.00    -0.352 N 
ATOM     30  C   UNL A   1      33.088  34.202  28.314  1.00  0.00     0.251 C 
ATOM     31  H   UNL A   1      31.793  33.748  26.816  1.00  0.00     0.163 HD
ATOM     32  O   UNL A   1      32.689  35.344  28.507  1.00  0.00    -0.269 OA
BRANCH  30  33
ATOM     33  C   UNL A   1      34.357  33.725  28.904  1.00  0.00     0.039 A 
ATOM     34  C   UNL A   1      34.461  32.943  30.059  1.00  0.00     0.014 A 
ATOM     35  C   UNL A   1      35.489  34.034  28.171  1.00  0.00     0.014 A 
ATOM     36  C   UNL A   1      35.734  32.504  30.454  1.00  0.00     0.010 A 
ATOM     37  C   UNL A   1      36.602  33.276  28.356  1.00  0.00     0.010 A 
ATOM     38  C   UNL A   1      36.823  32.711  29.593  1.00  0.00    -0.014 A 
BRANCH  38  39
ATOM     39  C   UNL A   1      38.164  32.147  29.756  1.00  0.00     0.031 A 
ATOM     40  C   UNL A   1      38.170  30.724  29.327  1.00  0.00     0.074 A 
ATOM     41  C   UNL A   1      39.271  32.912  29.977  1.00  0.00     0.049 A 
ATOM     42  N   UNL A   1      38.039  29.693  30.096  1.00  0.00    -0.248 NA
ATOM     43  C   UNL A   1      37.965  30.402  27.898  1.00  0.00     0.031 C 
ATOM     44  C   UNL A   1      39.365  34.369  30.159  1.00  0.00     0.029 A 
ATOM     45  N   UNL A   1      40.592  32.549  30.047  1.00  0.00    -0.354 N 
ATOM     46  C   UNL A   1      38.138  28.598  29.247  1.00  0.00     0.074 A 
ATOM     47  C   UNL A   1      37.743  29.085  27.960  1.00  0.00     0.031 C 
ATOM     48  C   UNL A   1      40.662  34.775  30.117  1.00  0.00     0.029 A 
ATOM     49  C   UNL A   1      41.527  33.609  30.049  1.00  0.00     0.049 A 
ATOM     50  H   UNL A   1      40.872  31.606  30.092  1.00  0.00     0.167 HD
ATOM     51  C   UNL A   1      38.922  27.538  29.597  1.00  0.00     0.034 A 
ATOM     52  C   UNL A   1      42.902  33.526  30.048  1.00  0.00     0.034 A 
ATOM     53  C   UNL A   1      39.285  27.647  31.000  1.00  0.00     0.049 A 
ATOM     54  C   UNL A   1      43.217  32.162  30.548  1.00  0.00     0.074 A 
ATOM     55  C   UNL A   1      38.593  27.695  32.193  1.00  0.00     0.029 A 
ATOM     56  N   UNL A   1      40.531  28.173  31.264  1.00  0.00    -0.354 N 
ATOM     57  N   UNL A   1      42.944  31.789  31.769  1.00  0.00    -0.248 NA
ATOM     58  C   UNL A   1      43.273  31.088  29.567  1.00  0.00     0.031 C 
ATOM     59  C   UNL A   1      39.288  28.660  32.983  1.00  0.00     0.029 A 
ATOM     60  C   UNL A   1      40.443  29.057  32.306  1.00  0.00     0.049 A 
ATOM     61  H   UNL A   1      41.359  27.948  30.778  1.00  0.00     0.167 HD
ATOM     62  C   UNL A   1      42.345  30.545  31.636  1.00  0.00     0.074 A 
ATOM     63  C   UNL A   1      42.641  30.132  30.259  1.00  0.00     0.031 C 
ATOM     64  C   UNL A   1      41.394  30.132  32.531  1.00  0.00     0.034 A 
BRANCH  51  65
ATOM     65  C   UNL A   1      39.779  26.723  28.637  1.00  0.00     0.023 A 
ATOM     66  C   UNL A   1      40.876  27.400  28.069  1.00  0.00     0.031 A 
ATOM     67  C   UNL A   1      39.442  25.497  28.020  1.00  0.00     0.131 A 
ATOM     68  C   UNL A   1      41.456  26.967  26.866  1.00  0.00     0.055 A 
ATOM     69  C   UNL A   1      40.065  25.037  26.854  1.00  0.00     0.041 A 
ATOM     70  F   UNL A   1      38.463  24.700  28.454  1.00  0.00    -0.206 F 
ATOM     71  C   UNL A   1      41.050  25.793  26.246  1.00  0.00     0.022 A 
BRANCH  68  72
ATOM     72  S   UNL A   1      42.610  28.085  26.033  1.00  0.00     0.124 S 
ATOM     73  O   UNL A   1      42.181  29.378  26.554  1.00  0.00    -0.237 OA
ATOM     74  O   UNL A   1      43.897  27.592  26.507  1.00  0.00    -0.237 OA
ATOM     75  O   UNL A   1      42.335  27.856  24.616  1.00  0.00    -0.744 OA
ENDBRANCH  68  72
ENDBRANCH  51  65
BRANCH  52  76
ATOM     76  C   UNL A   1      43.920  34.353  29.292  1.00  0.00     0.023 A 
ATOM     77  C   UNL A   1      44.660  33.934  28.143  1.00  0.00     0.031 A 
ATOM     78  C   UNL A   1      43.964  35.737  29.571  1.00  0.00     0.131 A 
ATOM     79  C   UNL A   1      45.393  34.880  27.359  1.00  0.00     0.055 A 
ATOM     80  C   UNL A   1      44.667  36.659  28.787  1.00  0.00     0.041 A 
ATOM     81  F   UNL A   1      43.243  36.254  30.577  1.00  0.00    -0.206 F 
ATOM     82  C   UNL A   1      45.379  36.238  27.677  1.00  0.00     0.022 A 
BRANCH  79  83
ATOM     83  S   UNL A   1      46.373  34.396  25.878  1.00  0.00     0.124 S 
ATOM     84  O   UNL A   1      46.748  33.019  26.177  1.00  0.00    -0.237 OA
ATOM     85  O   UNL A   1      45.424  34.590  24.788  1.00  0.00    -0.237 OA
ATOM     86  O   UNL A   1      47.493  35.341  25.879  1.00  0.00    -0.744 OA
ENDBRANCH  79  83
ENDBRANCH  52  76
BRANCH  64  87
ATOM     87  C   UNL A   1      41.236  30.925  33.816  1.00  0.00     0.023 A 
ATOM     88  C   UNL A   1      40.337  31.999  34.033  1.00  0.00     0.031 A 
ATOM     89  C   UNL A   1      41.987  30.474  34.915  1.00  0.00     0.131 A 
ATOM     90  C   UNL A   1      40.234  32.581  35.316  1.00  0.00     0.055 A 
ATOM     91  C   UNL A   1      41.859  31.029  36.183  1.00  0.00     0.041 A 
ATOM     92  F   UNL A   1      42.838  29.444  34.775  1.00  0.00    -0.206 F 
ATOM     93  C   UNL A   1      40.987  32.091  36.388  1.00  0.00     0.022 A 
BRANCH  90  94
ATOM     94  S   UNL A   1      39.147  34.018  35.620  1.00  0.00     0.124 S 
ATOM     95  O   UNL A   1      39.733  34.642  36.800  1.00  0.00    -0.237 OA
ATOM     96  O   UNL A   1      39.259  34.773  34.375  1.00  0.00    -0.237 OA
ATOM     97  O   UNL A   1      37.832  33.410  35.842  1.00  0.00    -0.744 OA
ENDBRANCH  90  94
ENDBRANCH  64  87
ENDBRANCH  38  39
ENDBRANCH  30  33
ENDBRANCH  28  29
ENDBRANCH  27  28
ENDBRANCH   1  27
TORSDOF 17
ENDMDL
