MODEL 1
REMARK VINA RESULT:     -13.5      0.000      0.000
REMARK SMILES CC(C)=C1[C@H]2CC[C@@H]1[C@@H](C(=O)Nc1cc(C)cc(C)c1)[C@@H]2C(=O)NCCCCNC(=O)c1ccc(-c2c3nc(c(-c4cc(S(=O)(=O)[O-])ccc4F)c4ccc([nH]4)c(-c4cc(S(=O)(=O)[O-])ccc4F)c4nc(c(-c5cc(S(=O)(=O)[O-])ccc5F)c5ccc2[nH]5)C=C4)C=C3)cc1
REMARK SMILES IDX 27 1 26 2 25 3 24 4 22 5 23 6 21 8 1 9 2 10 3 11 4 12 5 13
REMARK SMILES IDX 8 14 6 15 7 16 9 17 10 18 11 19 12 20 13 22 14 23 20 24
REMARK SMILES IDX 15 25 18 26 16 27 17 28 19 29 28 30 29 31 30 32 31 34 32 35
REMARK SMILES IDX 33 36 94 37 34 38 93 39 35 40 36 41 37 42 87 43 38 44 92 45
REMARK SMILES IDX 86 46 88 47 39 48 91 49 85 50 84 51 40 53 72 54 52 55 71 56
REMARK SMILES IDX 53 57 56 58 70 59 89 60 54 61 55 62 69 64 90 65 57 66 41 67
REMARK SMILES IDX 42 68 50 69 43 70 49 71 51 72 48 73 44 74 45 75 46 76 47 77
REMARK SMILES IDX 73 78 74 79 82 80 75 81 81 82 83 83 80 84 76 85 77 86 78 87
REMARK SMILES IDX 79 88 58 89 59 90 67 91 60 92 66 93 68 94 65 95 61 96 62 97
REMARK SMILES IDX 63 98 64 99
REMARK H PARENT 24 7 12 21 29 33 88 52 56 63
REMARK Flexibility Score: inf
ROOT
ATOM      1  C   UNL A   1      36.290  21.596  24.282  1.00  0.00     0.023 C 
ENDROOT
BRANCH   1   2
ATOM      2  C   UNL A   1      36.286  22.988  23.673  1.00  0.00     0.023 C 
BRANCH   2   3
ATOM      3  C   UNL A   1      35.650  24.085  24.499  1.00  0.00     0.116 C 
BRANCH   3   4
ATOM      4  N   UNL A   1      35.093  23.793  25.776  1.00  0.00    -0.356 N 
ATOM      5  C   UNL A   1      33.876  24.216  26.224  1.00  0.00     0.224 C 
ATOM      6  O   UNL A   1      33.453  23.666  27.249  1.00  0.00    -0.275 OA
ATOM      7  H   UNL A   1      35.632  23.241  26.388  1.00  0.00     0.163 HD
BRANCH   5   8
ATOM      8  C   UNL A   1      33.064  25.391  25.622  1.00  0.00     0.098 C 
ATOM      9  C   UNL A   1      30.749  29.384  24.366  1.00  0.00     0.039 C 
ATOM     10  C   UNL A   1      31.934  28.497  24.091  1.00  0.00    -0.077 C 
ATOM     11  C   UNL A   1      32.775  28.867  22.905  1.00  0.00     0.039 C 
ATOM     12  C   UNL A   1      32.313  27.544  24.962  1.00  0.00    -0.064 C 
ATOM     13  C   UNL A   1      33.610  26.751  25.098  1.00  0.00     0.028 C 
ATOM     14  C   UNL A   1      31.768  27.307  26.339  1.00  0.00     0.028 C 
ATOM     15  C   UNL A   1      34.155  27.746  26.125  1.00  0.00     0.009 C 
ATOM     16  C   UNL A   1      32.939  28.014  27.057  1.00  0.00     0.009 C 
ATOM     17  C   UNL A   1      31.834  25.769  26.451  1.00  0.00     0.099 C 
BRANCH  17  18
ATOM     18  C   UNL A   1      30.473  25.116  26.112  1.00  0.00     0.228 C 
ATOM     19  O   UNL A   1      29.452  25.654  26.573  1.00  0.00    -0.274 OA
ATOM     20  N   UNL A   1      30.241  24.122  25.203  1.00  0.00    -0.326 N 
ATOM     21  H   UNL A   1      29.297  24.053  24.936  1.00  0.00     0.169 HD
BRANCH  20  22
ATOM     22  C   UNL A   1      31.065  23.181  24.573  1.00  0.00     0.041 A 
ATOM     23  C   UNL A   1      31.321  21.927  25.117  1.00  0.00     0.029 A 
ATOM     24  C   UNL A   1      31.594  23.498  23.319  1.00  0.00     0.029 A 
ATOM     25  C   UNL A   1      32.276  21.077  24.545  1.00  0.00    -0.049 A 
ATOM     26  C   UNL A   1      32.524  22.645  22.705  1.00  0.00    -0.049 A 
ATOM     27  C   UNL A   1      32.742  19.854  25.283  1.00  0.00     0.044 C 
ATOM     28  C   UNL A   1      32.884  21.451  23.343  1.00  0.00     0.007 A 
ATOM     29  C   UNL A   1      33.246  23.066  21.458  1.00  0.00     0.044 C 
ENDBRANCH  20  22
ENDBRANCH  17  18
ENDBRANCH   5   8
ENDBRANCH   3   4
ENDBRANCH   2   3
ENDBRANCH   1   2
BRANCH   1  30
ATOM     30  C   UNL A   1      37.094  21.404  25.564  1.00  0.00     0.116 C 
BRANCH  30  31
ATOM     31  N   UNL A   1      38.241  20.503  25.459  1.00  0.00    -0.352 N 
ATOM     32  C   UNL A   1      39.502  20.663  26.000  1.00  0.00     0.251 C 
ATOM     33  H   UNL A   1      38.096  19.680  24.939  1.00  0.00     0.163 HD
ATOM     34  O   UNL A   1      40.372  19.813  25.838  1.00  0.00    -0.269 OA
BRANCH  32  35
ATOM     35  C   UNL A   1      39.794  21.918  26.719  1.00  0.00     0.039 A 
ATOM     36  C   UNL A   1      40.750  21.904  27.736  1.00  0.00     0.014 A 
ATOM     37  C   UNL A   1      39.276  23.121  26.237  1.00  0.00     0.014 A 
ATOM     38  C   UNL A   1      41.294  23.112  28.178  1.00  0.00     0.010 A 
ATOM     39  C   UNL A   1      39.892  24.311  26.605  1.00  0.00     0.010 A 
ATOM     40  C   UNL A   1      40.927  24.318  27.558  1.00  0.00    -0.014 A 
BRANCH  40  41
ATOM     41  C   UNL A   1      41.612  25.604  27.862  1.00  0.00     0.031 A 
ATOM     42  C   UNL A   1      40.867  26.674  28.610  1.00  0.00     0.074 A 
ATOM     43  C   UNL A   1      42.843  25.855  27.370  1.00  0.00     0.049 A 
ATOM     44  N   UNL A   1      41.184  27.927  28.805  1.00  0.00    -0.248 NA
ATOM     45  C   UNL A   1      39.562  26.288  29.168  1.00  0.00     0.031 C 
ATOM     46  C   UNL A   1      43.658  24.918  26.592  1.00  0.00     0.029 A 
ATOM     47  N   UNL A   1      43.621  26.985  27.436  1.00  0.00    -0.354 N 
ATOM     48  C   UNL A   1      40.101  28.488  29.472  1.00  0.00     0.074 A 
ATOM     49  C   UNL A   1      39.097  27.453  29.588  1.00  0.00     0.031 C 
ATOM     50  C   UNL A   1      44.824  25.503  26.273  1.00  0.00     0.029 A 
ATOM     51  C   UNL A   1      44.824  26.874  26.775  1.00  0.00     0.049 A 
ATOM     52  H   UNL A   1      43.345  27.802  27.912  1.00  0.00     0.167 HD
ATOM     53  C   UNL A   1      39.967  29.744  29.967  1.00  0.00     0.034 A 
ATOM     54  C   UNL A   1      45.806  27.778  26.578  1.00  0.00     0.034 A 
ATOM     55  C   UNL A   1      40.993  30.752  29.877  1.00  0.00     0.049 A 
ATOM     56  C   UNL A   1      45.639  29.168  27.137  1.00  0.00     0.074 A 
ATOM     57  C   UNL A   1      40.990  32.036  30.393  1.00  0.00     0.029 A 
ATOM     58  N   UNL A   1      42.213  30.585  29.232  1.00  0.00    -0.354 N 
ATOM     59  N   UNL A   1      44.621  29.676  27.792  1.00  0.00    -0.248 NA
ATOM     60  C   UNL A   1      46.752  30.106  26.936  1.00  0.00     0.031 C 
ATOM     61  C   UNL A   1      42.183  32.662  30.017  1.00  0.00     0.029 A 
ATOM     62  C   UNL A   1      42.961  31.748  29.323  1.00  0.00     0.049 A 
ATOM     63  H   UNL A   1      42.503  29.762  28.777  1.00  0.00     0.167 HD
ATOM     64  C   UNL A   1      44.988  30.981  28.113  1.00  0.00     0.074 A 
ATOM     65  C   UNL A   1      46.319  31.181  27.580  1.00  0.00     0.031 C 
ATOM     66  C   UNL A   1      44.291  31.925  28.792  1.00  0.00     0.034 A 
BRANCH  53  67
ATOM     67  C   UNL A   1      38.654  30.087  30.627  1.00  0.00     0.023 A 
ATOM     68  C   UNL A   1      37.621  30.728  29.921  1.00  0.00     0.031 A 
ATOM     69  C   UNL A   1      38.451  29.822  31.992  1.00  0.00     0.131 A 
ATOM     70  C   UNL A   1      36.477  31.171  30.601  1.00  0.00     0.055 A 
ATOM     71  C   UNL A   1      37.269  30.182  32.643  1.00  0.00     0.041 A 
ATOM     72  F   UNL A   1      39.408  29.230  32.725  1.00  0.00    -0.206 F 
ATOM     73  C   UNL A   1      36.282  30.879  31.952  1.00  0.00     0.022 A 
BRANCH  70  74
ATOM     74  S   UNL A   1      35.334  32.277  29.731  1.00  0.00     0.124 S 
ATOM     75  O   UNL A   1      34.843  31.409  28.663  1.00  0.00    -0.237 OA
ATOM     76  O   UNL A   1      34.371  32.618  30.770  1.00  0.00    -0.237 OA
ATOM     77  O   UNL A   1      36.191  33.374  29.286  1.00  0.00    -0.744 OA
ENDBRANCH  70  74
ENDBRANCH  53  67
BRANCH  54  78
ATOM     78  C   UNL A   1      47.033  27.413  25.811  1.00  0.00     0.023 A 
ATOM     79  C   UNL A   1      47.167  27.765  24.458  1.00  0.00     0.031 A 
ATOM     80  C   UNL A   1      48.068  26.671  26.404  1.00  0.00     0.131 A 
ATOM     81  C   UNL A   1      48.288  27.335  23.730  1.00  0.00     0.055 A 
ATOM     82  C   UNL A   1      49.205  26.288  25.689  1.00  0.00     0.041 A 
ATOM     83  F   UNL A   1      47.994  26.315  27.697  1.00  0.00    -0.206 F 
ATOM     84  C   UNL A   1      49.313  26.609  24.339  1.00  0.00     0.022 A 
BRANCH  81  85
ATOM     85  S   UNL A   1      48.349  27.674  21.949  1.00  0.00     0.124 S 
ATOM     86  O   UNL A   1      49.505  28.557  21.854  1.00  0.00    -0.237 OA
ATOM     87  O   UNL A   1      48.514  26.336  21.391  1.00  0.00    -0.237 OA
ATOM     88  O   UNL A   1      47.058  28.305  21.679  1.00  0.00    -0.744 OA
ENDBRANCH  81  85
ENDBRANCH  54  78
BRANCH  66  89
ATOM     89  C   UNL A   1      44.985  33.234  29.060  1.00  0.00     0.023 A 
ATOM     90  C   UNL A   1      44.887  34.322  28.176  1.00  0.00     0.031 A 
ATOM     91  C   UNL A   1      45.739  33.398  30.236  1.00  0.00     0.131 A 
ATOM     92  C   UNL A   1      45.563  35.517  28.466  1.00  0.00     0.055 A 
ATOM     93  C   UNL A   1      46.369  34.604  30.542  1.00  0.00     0.041 A 
ATOM     94  F   UNL A   1      45.862  32.389  31.113  1.00  0.00    -0.206 F 
ATOM     95  C   UNL A   1      46.290  35.670  29.651  1.00  0.00     0.022 A 
BRANCH  92  96
ATOM     96  S   UNL A   1      45.523  36.861  27.249  1.00  0.00     0.124 S 
ATOM     97  O   UNL A   1      44.098  36.957  26.949  1.00  0.00    -0.237 OA
ATOM     98  O   UNL A   1      46.095  37.978  27.996  1.00  0.00    -0.237 OA
ATOM     99  O   UNL A   1      46.355  36.359  26.155  1.00  0.00    -0.744 OA
ENDBRANCH  92  96
ENDBRANCH  66  89
ENDBRANCH  40  41
ENDBRANCH  32  35
ENDBRANCH  30  31
ENDBRANCH   1  30
TORSDOF 16
ENDMDL
MODEL 2
REMARK VINA RESULT:     -13.2      0.851      7.330
REMARK SMILES CC(C)=C1[C@H]2CC[C@@H]1[C@@H](C(=O)Nc1cc(C)cc(C)c1)[C@@H]2C(=O)NCCCCNC(=O)c1ccc(-c2c3nc(c(-c4cc(S(=O)(=O)[O-])ccc4F)c4ccc([nH]4)c(-c4cc(S(=O)(=O)[O-])ccc4F)c4nc(c(-c5cc(S(=O)(=O)[O-])ccc5F)c5ccc2[nH]5)C=C4)C=C3)cc1
REMARK SMILES IDX 27 1 26 2 25 3 24 4 22 5 23 6 21 8 1 9 2 10 3 11 4 12 5 13
REMARK SMILES IDX 8 14 6 15 7 16 9 17 10 18 11 19 12 20 13 22 14 23 20 24
REMARK SMILES IDX 15 25 18 26 16 27 17 28 19 29 28 30 29 31 30 32 31 34 32 35
REMARK SMILES IDX 33 36 94 37 34 38 93 39 35 40 36 41 37 42 87 43 38 44 92 45
REMARK SMILES IDX 86 46 88 47 39 48 91 49 85 50 84 51 40 53 72 54 52 55 71 56
REMARK SMILES IDX 53 57 56 58 70 59 89 60 54 61 55 62 69 64 90 65 57 66 41 67
REMARK SMILES IDX 42 68 50 69 43 70 49 71 51 72 48 73 44 74 45 75 46 76 47 77
REMARK SMILES IDX 73 78 74 79 82 80 75 81 81 82 83 83 80 84 76 85 77 86 78 87
REMARK SMILES IDX 79 88 58 89 59 90 67 91 60 92 66 93 68 94 65 95 61 96 62 97
REMARK SMILES IDX 63 98 64 99
REMARK H PARENT 24 7 12 21 29 33 88 52 56 63
REMARK Flexibility Score: inf
ROOT
ATOM      1  C   UNL A   1      36.919  21.671  24.296  1.00  0.00     0.023 C 
ENDROOT
BRANCH   1   2
ATOM      2  C   UNL A   1      36.667  23.047  23.705  1.00  0.00     0.023 C 
BRANCH   2   3
ATOM      3  C   UNL A   1      35.461  23.797  24.228  1.00  0.00     0.116 C 
BRANCH   3   4
ATOM      4  N   UNL A   1      35.053  23.646  25.584  1.00  0.00    -0.356 N 
ATOM      5  C   UNL A   1      33.920  24.171  26.133  1.00  0.00     0.224 C 
ATOM      6  O   UNL A   1      33.603  23.735  27.246  1.00  0.00    -0.275 OA
ATOM      7  H   UNL A   1      35.638  23.119  26.175  1.00  0.00     0.163 HD
BRANCH   5   8
ATOM      8  C   UNL A   1      33.093  25.334  25.526  1.00  0.00     0.098 C 
ATOM      9  C   UNL A   1      30.731  29.293  24.252  1.00  0.00     0.039 C 
ATOM     10  C   UNL A   1      31.923  28.415  23.976  1.00  0.00    -0.077 C 
ATOM     11  C   UNL A   1      32.751  28.781  22.780  1.00  0.00     0.039 C 
ATOM     12  C   UNL A   1      32.317  27.474  24.853  1.00  0.00    -0.064 C 
ATOM     13  C   UNL A   1      33.622  26.693  24.986  1.00  0.00     0.028 C 
ATOM     14  C   UNL A   1      31.785  27.244  26.235  1.00  0.00     0.028 C 
ATOM     15  C   UNL A   1      34.166  27.703  26.000  1.00  0.00     0.009 C 
ATOM     16  C   UNL A   1      32.955  27.968  26.938  1.00  0.00     0.009 C 
ATOM     17  C   UNL A   1      31.866  25.708  26.361  1.00  0.00     0.099 C 
BRANCH  17  18
ATOM     18  C   UNL A   1      30.508  25.039  26.038  1.00  0.00     0.228 C 
ATOM     19  O   UNL A   1      29.485  25.573  26.501  1.00  0.00    -0.274 OA
ATOM     20  N   UNL A   1      30.279  24.034  25.141  1.00  0.00    -0.326 N 
ATOM     21  H   UNL A   1      29.333  23.954  24.882  1.00  0.00     0.169 HD
BRANCH  20  22
ATOM     22  C   UNL A   1      31.107  23.095  24.514  1.00  0.00     0.041 A 
ATOM     23  C   UNL A   1      31.406  21.862  25.086  1.00  0.00     0.029 A 
ATOM     24  C   UNL A   1      31.594  23.387  23.238  1.00  0.00     0.029 A 
ATOM     25  C   UNL A   1      32.365  21.018  24.511  1.00  0.00    -0.049 A 
ATOM     26  C   UNL A   1      32.527  22.539  22.622  1.00  0.00    -0.049 A 
ATOM     27  C   UNL A   1      32.878  19.827  25.268  1.00  0.00     0.044 C 
ATOM     28  C   UNL A   1      32.931  21.372  23.283  1.00  0.00     0.007 A 
ATOM     29  C   UNL A   1      33.204  22.940  21.345  1.00  0.00     0.044 C 
ENDBRANCH  20  22
ENDBRANCH  17  18
ENDBRANCH   5   8
ENDBRANCH   3   4
ENDBRANCH   2   3
ENDBRANCH   1   2
BRANCH   1  30
ATOM     30  C   UNL A   1      37.575  21.619  25.673  1.00  0.00     0.116 C 
BRANCH  30  31
ATOM     31  N   UNL A   1      38.812  20.844  25.751  1.00  0.00    -0.352 N 
ATOM     32  C   UNL A   1      39.990  21.182  26.391  1.00  0.00     0.251 C 
ATOM     33  H   UNL A   1      38.805  19.973  25.294  1.00  0.00     0.163 HD
ATOM     34  O   UNL A   1      40.954  20.423  26.384  1.00  0.00    -0.269 OA
BRANCH  32  35
ATOM     35  C   UNL A   1      40.079  22.513  27.023  1.00  0.00     0.039 A 
ATOM     36  C   UNL A   1      41.047  22.728  28.005  1.00  0.00     0.014 A 
ATOM     37  C   UNL A   1      39.350  23.576  26.487  1.00  0.00     0.014 A 
ATOM     38  C   UNL A   1      41.385  24.037  28.354  1.00  0.00     0.010 A 
ATOM     39  C   UNL A   1      39.761  24.875  26.762  1.00  0.00     0.010 A 
ATOM     40  C   UNL A   1      40.801  25.120  27.677  1.00  0.00    -0.014 A 
BRANCH  40  41
ATOM     41  C   UNL A   1      41.262  26.521  27.879  1.00  0.00     0.031 A 
ATOM     42  C   UNL A   1      42.661  26.898  27.480  1.00  0.00     0.074 A 
ATOM     43  C   UNL A   1      40.478  27.412  28.520  1.00  0.00     0.049 A 
ATOM     44  N   UNL A   1      43.337  27.985  27.745  1.00  0.00    -0.248 NA
ATOM     45  C   UNL A   1      43.416  25.887  26.725  1.00  0.00     0.031 C 
ATOM     46  C   UNL A   1      39.115  27.161  28.998  1.00  0.00     0.029 A 
ATOM     47  N   UNL A   1      40.721  28.710  28.900  1.00  0.00    -0.354 N 
ATOM     48  C   UNL A   1      44.608  27.773  27.224  1.00  0.00     0.074 A 
ATOM     49  C   UNL A   1      44.623  26.429  26.688  1.00  0.00     0.031 C 
ATOM     50  C   UNL A   1      38.639  28.271  29.584  1.00  0.00     0.029 A 
ATOM     51  C   UNL A   1      39.676  29.298  29.576  1.00  0.00     0.049 A 
ATOM     52  H   UNL A   1      41.566  29.177  28.708  1.00  0.00     0.167 HD
ATOM     53  C   UNL A   1      45.659  28.629  27.174  1.00  0.00     0.034 A 
ATOM     54  C   UNL A   1      39.571  30.519  30.142  1.00  0.00     0.034 A 
ATOM     55  C   UNL A   1      45.614  29.978  27.677  1.00  0.00     0.049 A 
ATOM     56  C   UNL A   1      40.750  31.457  30.073  1.00  0.00     0.074 A 
ATOM     57  C   UNL A   1      46.597  30.952  27.626  1.00  0.00     0.029 A 
ATOM     58  N   UNL A   1      44.523  30.548  28.320  1.00  0.00    -0.354 N 
ATOM     59  N   UNL A   1      41.937  31.252  29.551  1.00  0.00    -0.248 NA
ATOM     60  C   UNL A   1      40.575  32.791  30.664  1.00  0.00     0.031 C 
ATOM     61  C   UNL A   1      46.119  32.091  28.283  1.00  0.00     0.029 A 
ATOM     62  C   UNL A   1      44.815  31.853  28.685  1.00  0.00     0.049 A 
ATOM     63  H   UNL A   1      43.667  30.093  28.492  1.00  0.00     0.167 HD
ATOM     64  C   UNL A   1      42.636  32.445  29.719  1.00  0.00     0.074 A 
ATOM     65  C   UNL A   1      41.739  33.362  30.389  1.00  0.00     0.031 C 
ATOM     66  C   UNL A   1      43.903  32.755  29.346  1.00  0.00     0.034 A 
BRANCH  53  67
ATOM     67  C   UNL A   1      46.941  28.110  26.568  1.00  0.00     0.023 A 
ATOM     68  C   UNL A   1      47.195  28.210  25.189  1.00  0.00     0.031 A 
ATOM     69  C   UNL A   1      47.895  27.458  27.368  1.00  0.00     0.131 A 
ATOM     70  C   UNL A   1      48.321  27.581  24.638  1.00  0.00     0.055 A 
ATOM     71  C   UNL A   1      49.062  26.916  26.825  1.00  0.00     0.041 A 
ATOM     72  F   UNL A   1      47.700  27.315  28.688  1.00  0.00    -0.206 F 
ATOM     73  C   UNL A   1      49.270  26.958  25.449  1.00  0.00     0.022 A 
BRANCH  70  74
ATOM     74  S   UNL A   1      48.433  27.448  22.833  1.00  0.00     0.124 S 
ATOM     75  O   UNL A   1      49.726  28.079  22.572  1.00  0.00    -0.237 OA
ATOM     76  O   UNL A   1      48.370  26.009  22.617  1.00  0.00    -0.237 OA
ATOM     77  O   UNL A   1      47.274  28.204  22.361  1.00  0.00    -0.744 OA
ENDBRANCH  70  74
ENDBRANCH  53  67
BRANCH  54  78
ATOM     78  C   UNL A   1      38.315  30.931  30.833  1.00  0.00     0.023 A 
ATOM     79  C   UNL A   1      37.296  31.600  30.135  1.00  0.00     0.031 A 
ATOM     80  C   UNL A   1      38.132  30.705  32.208  1.00  0.00     0.131 A 
ATOM     81  C   UNL A   1      36.161  32.060  30.822  1.00  0.00     0.055 A 
ATOM     82  C   UNL A   1      36.979  31.121  32.878  1.00  0.00     0.041 A 
ATOM     83  F   UNL A   1      39.072  30.064  32.921  1.00  0.00    -0.206 F 
ATOM     84  C   UNL A   1      35.991  31.815  32.186  1.00  0.00     0.022 A 
BRANCH  81  85
ATOM     85  S   UNL A   1      34.943  33.055  29.919  1.00  0.00     0.124 S 
ATOM     86  O   UNL A   1      34.030  33.449  30.985  1.00  0.00    -0.237 OA
ATOM     87  O   UNL A   1      35.774  34.116  29.359  1.00  0.00    -0.237 OA
ATOM     88  O   UNL A   1      34.394  32.116  28.943  1.00  0.00    -0.744 OA
ENDBRANCH  81  85
ENDBRANCH  54  78
BRANCH  66  89
ATOM     89  C   UNL A   1      44.367  34.167  29.590  1.00  0.00     0.023 A 
ATOM     90  C   UNL A   1      44.206  35.179  28.628  1.00  0.00     0.031 A 
ATOM     91  C   UNL A   1      44.960  34.505  30.819  1.00  0.00     0.131 A 
ATOM     92  C   UNL A   1      44.667  36.476  28.899  1.00  0.00     0.055 A 
ATOM     93  C   UNL A   1      45.373  35.807  31.101  1.00  0.00     0.041 A 
ATOM     94  F   UNL A   1      45.134  33.574  31.770  1.00  0.00    -0.206 F 
ATOM     95  C   UNL A   1      45.235  36.800  30.136  1.00  0.00     0.022 A 
BRANCH  92  96
ATOM     96  S   UNL A   1      44.563  37.732  27.595  1.00  0.00     0.124 S 
ATOM     97  O   UNL A   1      45.696  37.382  26.744  1.00  0.00    -0.237 OA
ATOM     98  O   UNL A   1      43.239  37.485  27.028  1.00  0.00    -0.237 OA
ATOM     99  O   UNL A   1      44.698  38.994  28.321  1.00  0.00    -0.744 OA
ENDBRANCH  92  96
ENDBRANCH  66  89
ENDBRANCH  40  41
ENDBRANCH  32  35
ENDBRANCH  30  31
ENDBRANCH   1  30
TORSDOF 16
ENDMDL
MODEL 3
REMARK VINA RESULT:     -13.1      1.281      7.394
REMARK SMILES CC(C)=C1[C@H]2CC[C@@H]1[C@@H](C(=O)Nc1cc(C)cc(C)c1)[C@@H]2C(=O)NCCCCNC(=O)c1ccc(-c2c3nc(c(-c4cc(S(=O)(=O)[O-])ccc4F)c4ccc([nH]4)c(-c4cc(S(=O)(=O)[O-])ccc4F)c4nc(c(-c5cc(S(=O)(=O)[O-])ccc5F)c5ccc2[nH]5)C=C4)C=C3)cc1
REMARK SMILES IDX 27 1 26 2 25 3 24 4 22 5 23 6 21 8 1 9 2 10 3 11 4 12 5 13
REMARK SMILES IDX 8 14 6 15 7 16 9 17 10 18 11 19 12 20 13 22 14 23 20 24
REMARK SMILES IDX 15 25 18 26 16 27 17 28 19 29 28 30 29 31 30 32 31 34 32 35
REMARK SMILES IDX 33 36 94 37 34 38 93 39 35 40 36 41 37 42 87 43 38 44 92 45
REMARK SMILES IDX 86 46 88 47 39 48 91 49 85 50 84 51 40 53 72 54 52 55 71 56
REMARK SMILES IDX 53 57 56 58 70 59 89 60 54 61 55 62 69 64 90 65 57 66 41 67
REMARK SMILES IDX 42 68 50 69 43 70 49 71 51 72 48 73 44 74 45 75 46 76 47 77
REMARK SMILES IDX 73 78 74 79 82 80 75 81 81 82 83 83 80 84 76 85 77 86 78 87
REMARK SMILES IDX 79 88 58 89 59 90 67 91 60 92 66 93 68 94 65 95 61 96 62 97
REMARK SMILES IDX 63 98 64 99
REMARK H PARENT 24 7 12 21 29 33 88 52 56 63
REMARK Flexibility Score: inf
ROOT
ATOM      1  C   UNL A   1      36.451  21.572  24.276  1.00  0.00     0.023 C 
ENDROOT
BRANCH   1   2
ATOM      2  C   UNL A   1      36.432  22.955  23.649  1.00  0.00     0.023 C 
BRANCH   2   3
ATOM      3  C   UNL A   1      35.571  23.994  24.333  1.00  0.00     0.116 C 
BRANCH   3   4
ATOM      4  N   UNL A   1      35.096  23.777  25.658  1.00  0.00    -0.356 N 
ATOM      5  C   UNL A   1      33.913  24.235  26.160  1.00  0.00     0.224 C 
ATOM      6  O   UNL A   1      33.554  23.745  27.238  1.00  0.00    -0.275 OA
ATOM      7  H   UNL A   1      35.670  23.254  26.263  1.00  0.00     0.163 HD
BRANCH   5   8
ATOM      8  C   UNL A   1      33.070  25.383  25.548  1.00  0.00     0.098 C 
ATOM      9  C   UNL A   1      30.653  29.304  24.258  1.00  0.00     0.039 C 
ATOM     10  C   UNL A   1      31.859  28.443  23.987  1.00  0.00    -0.077 C 
ATOM     11  C   UNL A   1      32.686  28.819  22.793  1.00  0.00     0.039 C 
ATOM     12  C   UNL A   1      32.264  27.510  24.868  1.00  0.00    -0.064 C 
ATOM     13  C   UNL A   1      33.580  26.749  25.006  1.00  0.00     0.028 C 
ATOM     14  C   UNL A   1      31.731  27.275  26.249  1.00  0.00     0.028 C 
ATOM     15  C   UNL A   1      34.106  27.769  26.020  1.00  0.00     0.009 C 
ATOM     16  C   UNL A   1      32.888  28.018  26.954  1.00  0.00     0.009 C 
ATOM     17  C   UNL A   1      31.835  25.740  26.378  1.00  0.00     0.099 C 
BRANCH  17  18
ATOM     18  C   UNL A   1      30.489  25.050  26.053  1.00  0.00     0.228 C 
ATOM     19  O   UNL A   1      29.456  25.576  26.502  1.00  0.00    -0.274 OA
ATOM     20  N   UNL A   1      30.279  24.034  25.165  1.00  0.00    -0.326 N 
ATOM     21  H   UNL A   1      29.336  23.938  24.899  1.00  0.00     0.169 HD
BRANCH  20  22
ATOM     22  C   UNL A   1      31.124  23.099  24.553  1.00  0.00     0.041 A 
ATOM     23  C   UNL A   1      31.421  21.868  25.132  1.00  0.00     0.029 A 
ATOM     24  C   UNL A   1      31.631  23.393  23.286  1.00  0.00     0.029 A 
ATOM     25  C   UNL A   1      32.395  21.030  24.575  1.00  0.00    -0.049 A 
ATOM     26  C   UNL A   1      32.580  22.549  22.687  1.00  0.00    -0.049 A 
ATOM     27  C   UNL A   1      32.902  19.843  25.343  1.00  0.00     0.044 C 
ATOM     28  C   UNL A   1      32.980  21.385  23.357  1.00  0.00     0.007 A 
ATOM     29  C   UNL A   1      33.277  22.953  21.421  1.00  0.00     0.044 C 
ENDBRANCH  20  22
ENDBRANCH  17  18
ENDBRANCH   5   8
ENDBRANCH   3   4
ENDBRANCH   2   3
ENDBRANCH   1   2
BRANCH   1  30
ATOM     30  C   UNL A   1      37.180  21.424  25.607  1.00  0.00     0.116 C 
BRANCH  30  31
ATOM     31  N   UNL A   1      38.394  20.610  25.573  1.00  0.00    -0.352 N 
ATOM     32  C   UNL A   1      39.633  20.905  26.110  1.00  0.00     0.251 C 
ATOM     33  H   UNL A   1      38.320  19.744  25.112  1.00  0.00     0.163 HD
ATOM     34  O   UNL A   1      40.568  20.116  26.014  1.00  0.00    -0.269 OA
BRANCH  32  35
ATOM     35  C   UNL A   1      39.819  22.227  26.740  1.00  0.00     0.039 A 
ATOM     36  C   UNL A   1      40.860  22.395  27.654  1.00  0.00     0.014 A 
ATOM     37  C   UNL A   1      39.099  23.322  26.261  1.00  0.00     0.014 A 
ATOM     38  C   UNL A   1      41.274  23.687  27.985  1.00  0.00     0.010 A 
ATOM     39  C   UNL A   1      39.580  24.601  26.512  1.00  0.00     0.010 A 
ATOM     40  C   UNL A   1      40.689  24.797  27.354  1.00  0.00    -0.014 A 
BRANCH  40  41
ATOM     41  C   UNL A   1      41.219  26.177  27.530  1.00  0.00     0.031 A 
ATOM     42  C   UNL A   1      42.565  26.525  26.959  1.00  0.00     0.074 A 
ATOM     43  C   UNL A   1      40.557  27.071  28.294  1.00  0.00     0.049 A 
ATOM     44  N   UNL A   1      43.305  27.584  27.160  1.00  0.00    -0.248 NA
ATOM     45  C   UNL A   1      43.179  25.516  26.083  1.00  0.00     0.031 C 
ATOM     46  C   UNL A   1      39.263  26.846  28.943  1.00  0.00     0.029 A 
ATOM     47  N   UNL A   1      40.892  28.348  28.673  1.00  0.00    -0.354 N 
ATOM     48  C   UNL A   1      44.489  27.350  26.468  1.00  0.00     0.074 A 
ATOM     49  C   UNL A   1      44.388  26.023  25.899  1.00  0.00     0.031 C 
ATOM     50  C   UNL A   1      38.905  27.951  29.617  1.00  0.00     0.029 A 
ATOM     51  C   UNL A   1      39.966  28.947  29.498  1.00  0.00     0.049 A 
ATOM     52  H   UNL A   1      41.719  28.796  28.382  1.00  0.00     0.167 HD
ATOM     53  C   UNL A   1      45.552  28.176  26.301  1.00  0.00     0.034 A 
ATOM     54  C   UNL A   1      39.978  30.151  30.106  1.00  0.00     0.034 A 
ATOM     55  C   UNL A   1      45.619  29.510  26.842  1.00  0.00     0.049 A 
ATOM     56  C   UNL A   1      41.168  31.056  29.905  1.00  0.00     0.074 A 
ATOM     57  C   UNL A   1      46.618  30.455  26.686  1.00  0.00     0.029 A 
ATOM     58  N   UNL A   1      44.643  30.092  27.640  1.00  0.00    -0.354 N 
ATOM     59  N   UNL A   1      42.267  30.833  29.224  1.00  0.00    -0.248 NA
ATOM     60  C   UNL A   1      41.118  32.375  30.550  1.00  0.00     0.031 C 
ATOM     61  C   UNL A   1      46.270  31.587  27.431  1.00  0.00     0.029 A 
ATOM     62  C   UNL A   1      45.023  31.375  27.997  1.00  0.00     0.049 A 
ATOM     63  H   UNL A   1      43.803  29.656  27.912  1.00  0.00     0.167 HD
ATOM     64  C   UNL A   1      43.022  31.998  29.329  1.00  0.00     0.074 A 
ATOM     65  C   UNL A   1      42.253  32.921  30.137  1.00  0.00     0.031 C 
ATOM     66  C   UNL A   1      44.238  32.283  28.798  1.00  0.00     0.034 A 
BRANCH  53  67
ATOM     67  C   UNL A   1      46.724  27.639  25.516  1.00  0.00     0.023 A 
ATOM     68  C   UNL A   1      46.999  28.082  24.211  1.00  0.00     0.031 A 
ATOM     69  C   UNL A   1      47.542  26.631  26.055  1.00  0.00     0.131 A 
ATOM     70  C   UNL A   1      47.998  27.453  23.454  1.00  0.00     0.055 A 
ATOM     71  C   UNL A   1      48.596  26.074  25.328  1.00  0.00     0.041 A 
ATOM     72  F   UNL A   1      47.316  26.152  27.289  1.00  0.00    -0.206 F 
ATOM     73  C   UNL A   1      48.816  26.470  24.012  1.00  0.00     0.022 A 
BRANCH  70  74
ATOM     74  S   UNL A   1      48.095  27.824  21.681  1.00  0.00     0.124 S 
ATOM     75  O   UNL A   1      46.792  28.440  21.439  1.00  0.00    -0.237 OA
ATOM     76  O   UNL A   1      49.246  28.714  21.607  1.00  0.00    -0.237 OA
ATOM     77  O   UNL A   1      48.279  26.511  21.066  1.00  0.00    -0.744 OA
ENDBRANCH  70  74
ENDBRANCH  53  67
BRANCH  54  78
ATOM     78  C   UNL A   1      38.839  30.579  30.969  1.00  0.00     0.023 A 
ATOM     79  C   UNL A   1      37.711  31.204  30.415  1.00  0.00     0.031 A 
ATOM     80  C   UNL A   1      38.880  30.411  32.364  1.00  0.00     0.131 A 
ATOM     81  C   UNL A   1      36.690  31.681  31.253  1.00  0.00     0.055 A 
ATOM     82  C   UNL A   1      37.839  30.842  33.190  1.00  0.00     0.041 A 
ATOM     83  F   UNL A   1      39.932  29.813  32.945  1.00  0.00    -0.206 F 
ATOM     84  C   UNL A   1      36.742  31.494  32.635  1.00  0.00     0.022 A 
BRANCH  81  85
ATOM     85  S   UNL A   1      35.327  32.621  30.513  1.00  0.00     0.124 S 
ATOM     86  O   UNL A   1      35.997  33.853  30.113  1.00  0.00    -0.237 OA
ATOM     87  O   UNL A   1      34.904  31.739  29.430  1.00  0.00    -0.237 OA
ATOM     88  O   UNL A   1      34.372  32.758  31.611  1.00  0.00    -0.744 OA
ENDBRANCH  81  85
ENDBRANCH  54  78
BRANCH  66  89
ATOM     89  C   UNL A   1      44.777  33.672  29.016  1.00  0.00     0.023 A 
ATOM     90  C   UNL A   1      45.605  33.986  30.107  1.00  0.00     0.031 A 
ATOM     91  C   UNL A   1      44.470  34.693  28.097  1.00  0.00     0.131 A 
ATOM     92  C   UNL A   1      46.071  35.299  30.272  1.00  0.00     0.055 A 
ATOM     93  C   UNL A   1      44.976  35.985  28.241  1.00  0.00     0.041 A 
ATOM     94  F   UNL A   1      43.684  34.443  27.039  1.00  0.00    -0.206 F 
ATOM     95  C   UNL A   1      45.775  36.296  29.337  1.00  0.00     0.022 A 
BRANCH  92  96
ATOM     96  S   UNL A   1      47.033  35.705  31.754  1.00  0.00     0.124 S 
ATOM     97  O   UNL A   1      48.399  35.699  31.241  1.00  0.00    -0.237 OA
ATOM     98  O   UNL A   1      46.497  37.012  32.127  1.00  0.00    -0.237 OA
ATOM     99  O   UNL A   1      46.713  34.620  32.680  1.00  0.00    -0.744 OA
ENDBRANCH  92  96
ENDBRANCH  66  89
ENDBRANCH  40  41
ENDBRANCH  32  35
ENDBRANCH  30  31
ENDBRANCH   1  30
TORSDOF 16
ENDMDL
