MODEL 1
REMARK VINA RESULT:     -11.4      0.000      0.000
REMARK SMILES CS(=O)(=O)CC(=O)N1CCO[C@@H](CC(=O)NCCCCNC(=O)c2ccc(-c3c4nc(c(-c5cc(S(=O)(=O)[O-])ccc5F)c5ccc([nH]5)c(-c5cc(S(=O)(=O)[O-])ccc5F)c5nc(c(-c6cc(S(=O)(=O)[O-])ccc6F)c6ccc3[nH]6)C=C5)C=C4)cc2)C1
REMARK SMILES IDX 18 1 17 2 16 3 14 4 15 5 13 7 12 8 8 9 9 10 87 11 10 12
REMARK SMILES IDX 11 13 6 14 7 15 5 16 2 17 1 18 3 19 4 20 19 21 20 22 21 23
REMARK SMILES IDX 22 24 23 26 24 27 25 28 86 29 26 30 85 31 27 32 28 33 29 34
REMARK SMILES IDX 79 35 30 36 84 37 78 38 80 39 31 40 83 41 77 42 76 43 32 45
REMARK SMILES IDX 64 46 44 47 63 48 45 49 48 50 62 51 81 52 46 53 47 54 61 56
REMARK SMILES IDX 82 57 49 58 33 59 34 60 42 61 35 62 41 63 43 64 40 65 36 66
REMARK SMILES IDX 37 67 38 68 39 69 65 70 66 71 74 72 67 73 73 74 75 75 72 76
REMARK SMILES IDX 68 77 69 78 70 79 71 80 50 81 51 82 59 83 52 84 58 85 60 86
REMARK SMILES IDX 57 87 53 88 54 89 55 90 56 91
REMARK H PARENT 16 6 21 25 80 44 48 55
REMARK Flexibility Score: inf
ROOT
ATOM      1  C   UNL A   1      32.212  29.821  27.134  1.00  0.00     0.023 C 
ENDROOT
BRANCH   1   2
ATOM      2  C   UNL A   1      33.601  29.210  26.926  1.00  0.00     0.116 C 
BRANCH   2   3
ATOM      3  N   UNL A   1      33.997  29.267  25.526  1.00  0.00    -0.356 N 
ATOM      4  C   UNL A   1      33.861  28.348  24.527  1.00  0.00     0.222 C 
ATOM      5  O   UNL A   1      34.391  28.578  23.439  1.00  0.00    -0.275 OA
ATOM      6  H   UNL A   1      34.436  30.106  25.257  1.00  0.00     0.163 HD
BRANCH   4   7
ATOM      7  C   UNL A   1      33.101  27.060  24.754  1.00  0.00     0.133 C 
BRANCH   7   8
ATOM      8  C   UNL A   1      31.588  27.268  24.865  1.00  0.00     0.147 C 
ATOM      9  N   UNL A   1      29.633  28.154  23.535  1.00  0.00    -0.337 N 
ATOM     10  C   UNL A   1      29.090  26.801  23.530  1.00  0.00     0.148 C 
ATOM     11  C   UNL A   1      31.073  28.160  23.728  1.00  0.00     0.152 C 
ATOM     12  C   UNL A   1      29.547  26.040  24.770  1.00  0.00     0.182 C 
ATOM     13  O   UNL A   1      30.980  25.957  24.804  1.00  0.00    -0.374 OA
BRANCH   9  14
ATOM     14  C   UNL A   1      29.164  29.025  22.555  1.00  0.00     0.237 C 
ATOM     15  O   UNL A   1      29.825  29.313  21.560  1.00  0.00    -0.274 OA
BRANCH  14  16
ATOM     16  C   UNL A   1      27.846  29.667  22.842  1.00  0.00     0.236 C 
BRANCH  16  17
ATOM     17  S   UNL A   1      28.044  31.356  23.320  1.00  0.00     0.156 S 
ATOM     18  C   UNL A   1      28.269  32.279  21.815  1.00  0.00     0.158 C 
ATOM     19  O   UNL A   1      29.281  31.449  24.073  1.00  0.00    -0.229 OA
ATOM     20  O   UNL A   1      26.804  31.806  23.931  1.00  0.00    -0.229 OA
ENDBRANCH  16  17
ENDBRANCH  14  16
ENDBRANCH   9  14
ENDBRANCH   7   8
ENDBRANCH   4   7
ENDBRANCH   2   3
ENDBRANCH   1   2
BRANCH   1  21
ATOM     21  C   UNL A   1      32.095  31.300  26.804  1.00  0.00     0.023 C 
BRANCH  21  22
ATOM     22  C   UNL A   1      33.133  32.169  27.486  1.00  0.00     0.116 C 
BRANCH  22  23
ATOM     23  N   UNL A   1      32.711  33.554  27.656  1.00  0.00    -0.352 N 
ATOM     24  C   UNL A   1      33.192  34.498  28.536  1.00  0.00     0.251 C 
ATOM     25  H   UNL A   1      31.985  33.854  27.063  1.00  0.00     0.163 HD
ATOM     26  O   UNL A   1      32.658  35.597  28.615  1.00  0.00    -0.269 OA
BRANCH  24  27
ATOM     27  C   UNL A   1      34.323  34.138  29.417  1.00  0.00     0.039 A 
ATOM     28  C   UNL A   1      34.073  33.405  30.578  1.00  0.00     0.014 A 
ATOM     29  C   UNL A   1      35.631  34.447  29.042  1.00  0.00     0.014 A 
ATOM     30  C   UNL A   1      35.146  32.909  31.319  1.00  0.00     0.010 A 
ATOM     31  C   UNL A   1      36.691  33.852  29.709  1.00  0.00     0.010 A 
ATOM     32  C   UNL A   1      36.463  33.090  30.864  1.00  0.00    -0.014 A 
BRANCH  32  33
ATOM     33  C   UNL A   1      37.626  32.526  31.594  1.00  0.00     0.031 A 
ATOM     34  C   UNL A   1      38.400  31.388  30.984  1.00  0.00     0.074 A 
ATOM     35  C   UNL A   1      37.920  32.963  32.834  1.00  0.00     0.049 A 
ATOM     36  N   UNL A   1      39.369  30.673  31.493  1.00  0.00    -0.248 NA
ATOM     37  C   UNL A   1      37.981  30.959  29.641  1.00  0.00     0.031 C 
ATOM     38  C   UNL A   1      37.185  33.999  33.565  1.00  0.00     0.029 A 
ATOM     39  N   UNL A   1      38.904  32.577  33.708  1.00  0.00    -0.354 N 
ATOM     40  C   UNL A   1      39.644  29.688  30.552  1.00  0.00     0.074 A 
ATOM     41  C   UNL A   1      38.682  29.849  29.483  1.00  0.00     0.031 C 
ATOM     42  C   UNL A   1      37.760  34.181  34.765  1.00  0.00     0.029 A 
ATOM     43  C   UNL A   1      38.878  33.254  34.905  1.00  0.00     0.049 A 
ATOM     44  H   UNL A   1      39.568  31.880  33.498  1.00  0.00     0.167 HD
ATOM     45  C   UNL A   1      40.629  28.755  30.560  1.00  0.00     0.034 A 
ATOM     46  C   UNL A   1      39.664  33.135  35.992  1.00  0.00     0.034 A 
ATOM     47  C   UNL A   1      41.603  28.646  31.618  1.00  0.00     0.049 A 
ATOM     48  C   UNL A   1      40.792  32.139  35.963  1.00  0.00     0.074 A 
ATOM     49  C   UNL A   1      42.708  27.816  31.694  1.00  0.00     0.029 A 
ATOM     50  N   UNL A   1      41.587  29.395  32.790  1.00  0.00    -0.354 N 
ATOM     51  N   UNL A   1      41.099  31.268  35.029  1.00  0.00    -0.248 NA
ATOM     52  C   UNL A   1      41.690  32.123  37.123  1.00  0.00     0.031 C 
ATOM     53  C   UNL A   1      43.323  28.021  32.935  1.00  0.00     0.029 A 
ATOM     54  C   UNL A   1      42.645  29.027  33.606  1.00  0.00     0.049 A 
ATOM     55  H   UNL A   1      40.921  30.086  33.007  1.00  0.00     0.167 HD
ATOM     56  C   UNL A   1      42.240  30.612  35.481  1.00  0.00     0.074 A 
ATOM     57  C   UNL A   1      42.573  31.203  36.763  1.00  0.00     0.031 C 
ATOM     58  C   UNL A   1      42.950  29.616  34.890  1.00  0.00     0.034 A 
BRANCH  45  59
ATOM     59  C   UNL A   1      40.671  27.783  29.401  1.00  0.00     0.023 A 
ATOM     60  C   UNL A   1      41.617  27.906  28.368  1.00  0.00     0.031 A 
ATOM     61  C   UNL A   1      39.704  26.770  29.286  1.00  0.00     0.131 A 
ATOM     62  C   UNL A   1      41.503  27.115  27.214  1.00  0.00     0.055 A 
ATOM     63  C   UNL A   1      39.660  25.917  28.180  1.00  0.00     0.041 A 
ATOM     64  F   UNL A   1      38.763  26.610  30.229  1.00  0.00    -0.206 F 
ATOM     65  C   UNL A   1      40.547  26.103  27.123  1.00  0.00     0.022 A 
BRANCH  62  66
ATOM     66  S   UNL A   1      42.491  27.566  25.760  1.00  0.00     0.124 S 
ATOM     67  O   UNL A   1      41.893  28.846  25.384  1.00  0.00    -0.237 OA
ATOM     68  O   UNL A   1      43.842  27.628  26.304  1.00  0.00    -0.237 OA
ATOM     69  O   UNL A   1      42.243  26.473  24.823  1.00  0.00    -0.744 OA
ENDBRANCH  62  66
ENDBRANCH  45  59
BRANCH  46  70
ATOM     70  C   UNL A   1      39.412  33.984  37.190  1.00  0.00     0.023 A 
ATOM     71  C   UNL A   1      38.752  33.472  38.318  1.00  0.00     0.031 A 
ATOM     72  C   UNL A   1      39.836  35.324  37.223  1.00  0.00     0.131 A 
ATOM     73  C   UNL A   1      38.509  34.304  39.423  1.00  0.00     0.055 A 
ATOM     74  C   UNL A   1      39.627  36.136  38.339  1.00  0.00     0.041 A 
ATOM     75  F   UNL A   1      40.486  35.857  36.176  1.00  0.00    -0.206 F 
ATOM     76  C   UNL A   1      38.952  35.628  39.445  1.00  0.00     0.022 A 
BRANCH  73  77
ATOM     77  S   UNL A   1      37.567  33.638  40.823  1.00  0.00     0.124 S 
ATOM     78  O   UNL A   1      36.459  32.973  40.148  1.00  0.00    -0.237 OA
ATOM     79  O   UNL A   1      38.547  32.765  41.460  1.00  0.00    -0.237 OA
ATOM     80  O   UNL A   1      37.208  34.829  41.589  1.00  0.00    -0.744 OA
ENDBRANCH  73  77
ENDBRANCH  46  70
BRANCH  58  81
ATOM     81  C   UNL A   1      44.177  29.130  35.619  1.00  0.00     0.023 A 
ATOM     82  C   UNL A   1      44.102  28.132  36.606  1.00  0.00     0.031 A 
ATOM     83  C   UNL A   1      45.437  29.681  35.326  1.00  0.00     0.131 A 
ATOM     84  C   UNL A   1      45.259  27.750  37.301  1.00  0.00     0.055 A 
ATOM     85  C   UNL A   1      46.593  29.256  35.981  1.00  0.00     0.041 A 
ATOM     86  F   UNL A   1      45.564  30.639  34.394  1.00  0.00    -0.206 F 
ATOM     87  C   UNL A   1      46.507  28.294  36.983  1.00  0.00     0.022 A 
BRANCH  84  88
ATOM     88  S   UNL A   1      45.099  26.597  38.691  1.00  0.00     0.124 S 
ATOM     89  O   UNL A   1      43.906  25.841  38.322  1.00  0.00    -0.237 OA
ATOM     90  O   UNL A   1      46.360  25.865  38.636  1.00  0.00    -0.237 OA
ATOM     91  O   UNL A   1      44.943  27.476  39.849  1.00  0.00    -0.744 OA
ENDBRANCH  84  88
ENDBRANCH  58  81
ENDBRANCH  32  33
ENDBRANCH  24  27
ENDBRANCH  22  23
ENDBRANCH  21  22
ENDBRANCH   1  21
TORSDOF 18
ENDMDL
MODEL 2
REMARK VINA RESULT:     -11.2      5.150      8.037
REMARK SMILES CS(=O)(=O)CC(=O)N1CCO[C@@H](CC(=O)NCCCCNC(=O)c2ccc(-c3c4nc(c(-c5cc(S(=O)(=O)[O-])ccc5F)c5ccc([nH]5)c(-c5cc(S(=O)(=O)[O-])ccc5F)c5nc(c(-c6cc(S(=O)(=O)[O-])ccc6F)c6ccc3[nH]6)C=C5)C=C4)cc2)C1
REMARK SMILES IDX 18 1 17 2 16 3 14 4 15 5 13 7 12 8 8 9 9 10 87 11 10 12
REMARK SMILES IDX 11 13 6 14 7 15 5 16 2 17 1 18 3 19 4 20 19 21 20 22 21 23
REMARK SMILES IDX 22 24 23 26 24 27 25 28 86 29 26 30 85 31 27 32 28 33 29 34
REMARK SMILES IDX 79 35 30 36 84 37 78 38 80 39 31 40 83 41 77 42 76 43 32 45
REMARK SMILES IDX 64 46 44 47 63 48 45 49 48 50 62 51 81 52 46 53 47 54 61 56
REMARK SMILES IDX 82 57 49 58 33 59 34 60 42 61 35 62 41 63 43 64 40 65 36 66
REMARK SMILES IDX 37 67 38 68 39 69 65 70 66 71 74 72 67 73 73 74 75 75 72 76
REMARK SMILES IDX 68 77 69 78 70 79 71 80 50 81 51 82 59 83 52 84 58 85 60 86
REMARK SMILES IDX 57 87 53 88 54 89 55 90 56 91
REMARK H PARENT 16 6 21 25 80 44 48 55
REMARK Flexibility Score: inf
ROOT
ATOM      1  C   UNL A   1      35.007  22.791  24.654  1.00  0.00     0.023 C 
ENDROOT
BRANCH   1   2
ATOM      2  C   UNL A   1      33.614  23.287  24.259  1.00  0.00     0.116 C 
BRANCH   2   3
ATOM      3  N   UNL A   1      33.652  24.019  23.001  1.00  0.00    -0.356 N 
ATOM      4  C   UNL A   1      33.659  25.361  22.754  1.00  0.00     0.222 C 
ATOM      5  O   UNL A   1      33.570  25.746  21.587  1.00  0.00    -0.275 OA
ATOM      6  H   UNL A   1      33.678  23.452  22.196  1.00  0.00     0.163 HD
BRANCH   4   7
ATOM      7  C   UNL A   1      33.744  26.359  23.887  1.00  0.00     0.133 C 
BRANCH   7   8
ATOM      8  C   UNL A   1      32.373  26.875  24.337  1.00  0.00     0.147 C 
ATOM      9  N   UNL A   1      30.495  28.372  23.558  1.00  0.00    -0.337 N 
ATOM     10  C   UNL A   1      29.642  27.190  23.512  1.00  0.00     0.148 C 
ATOM     11  C   UNL A   1      31.903  28.029  23.443  1.00  0.00     0.152 C 
ATOM     12  C   UNL A   1      30.109  26.159  24.533  1.00  0.00     0.182 C 
ATOM     13  O   UNL A   1      31.459  25.757  24.255  1.00  0.00    -0.374 OA
BRANCH   9  14
ATOM     14  C   UNL A   1      30.091  29.471  22.804  1.00  0.00     0.237 C 
ATOM     15  O   UNL A   1      30.396  29.606  21.621  1.00  0.00    -0.274 OA
BRANCH  14  16
ATOM     16  C   UNL A   1      29.347  30.526  23.555  1.00  0.00     0.236 C 
BRANCH  16  17
ATOM     17  S   UNL A   1      27.701  30.715  22.941  1.00  0.00     0.156 S 
ATOM     18  C   UNL A   1      27.856  31.231  21.244  1.00  0.00     0.158 C 
ATOM     19  O   UNL A   1      27.092  31.810  23.672  1.00  0.00    -0.229 OA
ATOM     20  O   UNL A   1      27.060  29.411  22.947  1.00  0.00    -0.229 OA
ENDBRANCH  16  17
ENDBRANCH  14  16
ENDBRANCH   9  14
ENDBRANCH   7   8
ENDBRANCH   4   7
ENDBRANCH   2   3
ENDBRANCH   1   2
BRANCH   1  21
ATOM     21  C   UNL A   1      35.510  23.268  26.006  1.00  0.00     0.023 C 
BRANCH  21  22
ATOM     22  C   UNL A   1      36.966  23.689  26.010  1.00  0.00     0.116 C 
BRANCH  22  23
ATOM     23  N   UNL A   1      37.896  22.568  26.055  1.00  0.00    -0.352 N 
ATOM     24  C   UNL A   1      39.233  22.572  26.384  1.00  0.00     0.251 C 
ATOM     25  H   UNL A   1      37.517  21.690  25.819  1.00  0.00     0.163 HD
ATOM     26  O   UNL A   1      39.898  21.549  26.280  1.00  0.00    -0.269 OA
BRANCH  24  27
ATOM     27  C   UNL A   1      39.857  23.843  26.809  1.00  0.00     0.039 A 
ATOM     28  C   UNL A   1      40.158  24.807  25.845  1.00  0.00     0.014 A 
ATOM     29  C   UNL A   1      40.054  24.111  28.164  1.00  0.00     0.014 A 
ATOM     30  C   UNL A   1      40.579  26.074  26.251  1.00  0.00     0.010 A 
ATOM     31  C   UNL A   1      40.354  25.402  28.568  1.00  0.00     0.010 A 
ATOM     32  C   UNL A   1      40.636  26.395  27.618  1.00  0.00    -0.014 A 
BRANCH  32  33
ATOM     33  C   UNL A   1      41.022  27.749  28.086  1.00  0.00     0.031 A 
ATOM     34  C   UNL A   1      42.481  28.118  28.162  1.00  0.00     0.074 A 
ATOM     35  C   UNL A   1      40.080  28.602  28.533  1.00  0.00     0.049 A 
ATOM     36  N   UNL A   1      43.043  29.194  28.646  1.00  0.00    -0.248 NA
ATOM     37  C   UNL A   1      43.435  27.106  27.683  1.00  0.00     0.031 C 
ATOM     38  C   UNL A   1      38.642  28.323  28.592  1.00  0.00     0.029 A 
ATOM     39  N   UNL A   1      40.191  29.871  29.041  1.00  0.00    -0.354 N 
ATOM     40  C   UNL A   1      44.413  28.969  28.568  1.00  0.00     0.074 A 
ATOM     41  C   UNL A   1      44.589  27.623  28.070  1.00  0.00     0.031 C 
ATOM     42  C   UNL A   1      38.006  29.398  29.084  1.00  0.00     0.029 A 
ATOM     43  C   UNL A   1      38.988  30.426  29.409  1.00  0.00     0.049 A 
ATOM     44  H   UNL A   1      41.052  30.341  29.133  1.00  0.00     0.167 HD
ATOM     45  C   UNL A   1      45.431  29.820  28.854  1.00  0.00     0.034 A 
ATOM     46  C   UNL A   1      38.712  31.628  29.953  1.00  0.00     0.034 A 
ATOM     47  C   UNL A   1      45.225  31.173  29.307  1.00  0.00     0.049 A 
ATOM     48  C   UNL A   1      39.846  32.585  30.207  1.00  0.00     0.074 A 
ATOM     49  C   UNL A   1      46.166  32.163  29.530  1.00  0.00     0.029 A 
ATOM     50  N   UNL A   1      43.986  31.728  29.608  1.00  0.00    -0.354 N 
ATOM     51  N   UNL A   1      41.136  32.395  30.047  1.00  0.00    -0.248 NA
ATOM     52  C   UNL A   1      39.487  33.921  30.693  1.00  0.00     0.031 C 
ATOM     53  C   UNL A   1      45.503  33.293  30.021  1.00  0.00     0.029 A 
ATOM     54  C   UNL A   1      44.140  33.036  30.040  1.00  0.00     0.049 A 
ATOM     55  H   UNL A   1      43.124  31.259  29.525  1.00  0.00     0.167 HD
ATOM     56  C   UNL A   1      41.743  33.598  30.396  1.00  0.00     0.074 A 
ATOM     57  C   UNL A   1      40.674  34.509  30.756  1.00  0.00     0.031 C 
ATOM     58  C   UNL A   1      43.062  33.922  30.413  1.00  0.00     0.034 A 
BRANCH  45  59
ATOM     59  C   UNL A   1      46.839  29.288  28.699  1.00  0.00     0.023 A 
ATOM     60  C   UNL A   1      47.438  29.138  27.435  1.00  0.00     0.031 A 
ATOM     61  C   UNL A   1      47.563  28.851  29.822  1.00  0.00     0.131 A 
ATOM     62  C   UNL A   1      48.661  28.460  27.314  1.00  0.00     0.055 A 
ATOM     63  C   UNL A   1      48.827  28.269  29.703  1.00  0.00     0.041 A 
ATOM     64  F   UNL A   1      47.042  28.950  31.055  1.00  0.00    -0.206 F 
ATOM     65  C   UNL A   1      49.373  28.047  28.441  1.00  0.00     0.022 A 
BRANCH  62  66
ATOM     66  S   UNL A   1      49.201  27.949  25.658  1.00  0.00     0.124 S 
ATOM     67  O   UNL A   1      50.389  28.779  25.469  1.00  0.00    -0.237 OA
ATOM     68  O   UNL A   1      49.440  26.521  25.832  1.00  0.00    -0.237 OA
ATOM     69  O   UNL A   1      48.067  28.295  24.805  1.00  0.00    -0.744 OA
ENDBRANCH  62  66
ENDBRANCH  45  59
BRANCH  46  70
ATOM     70  C   UNL A   1      37.305  31.990  30.285  1.00  0.00     0.023 A 
ATOM     71  C   UNL A   1      36.417  32.433  29.294  1.00  0.00     0.031 A 
ATOM     72  C   UNL A   1      36.830  31.890  31.604  1.00  0.00     0.131 A 
ATOM     73  C   UNL A   1      35.103  32.789  29.642  1.00  0.00     0.055 A 
ATOM     74  C   UNL A   1      35.512  32.207  31.938  1.00  0.00     0.041 A 
ATOM     75  F   UNL A   1      37.636  31.455  32.585  1.00  0.00    -0.206 F 
ATOM     76  C   UNL A   1      34.643  32.668  30.954  1.00  0.00     0.022 A 
BRANCH  73  77
ATOM     77  S   UNL A   1      34.011  33.452  28.353  1.00  0.00     0.124 S 
ATOM     78  O   UNL A   1      33.055  34.221  29.140  1.00  0.00    -0.237 OA
ATOM     79  O   UNL A   1      34.939  34.225  27.537  1.00  0.00    -0.237 OA
ATOM     80  O   UNL A   1      33.473  32.253  27.714  1.00  0.00    -0.744 OA
ENDBRANCH  73  77
ENDBRANCH  46  70
BRANCH  58  81
ATOM     81  C   UNL A   1      43.410  35.335  30.807  1.00  0.00     0.023 A 
ATOM     82  C   UNL A   1      43.558  35.710  32.154  1.00  0.00     0.031 A 
ATOM     83  C   UNL A   1      43.589  36.319  29.820  1.00  0.00     0.131 A 
ATOM     84  C   UNL A   1      43.825  37.048  32.480  1.00  0.00     0.055 A 
ATOM     85  C   UNL A   1      43.911  37.637  30.148  1.00  0.00     0.041 A 
ATOM     86  F   UNL A   1      43.457  36.015  28.519  1.00  0.00    -0.206 F 
ATOM     87  C   UNL A   1      44.019  38.010  31.484  1.00  0.00     0.022 A 
BRANCH  84  88
ATOM     88  S   UNL A   1      43.826  37.535  34.226  1.00  0.00     0.124 S 
ATOM     89  O   UNL A   1      44.140  36.275  34.892  1.00  0.00    -0.237 OA
ATOM     90  O   UNL A   1      44.870  38.555  34.265  1.00  0.00    -0.237 OA
ATOM     91  O   UNL A   1      42.468  38.031  34.445  1.00  0.00    -0.744 OA
ENDBRANCH  84  88
ENDBRANCH  58  81
ENDBRANCH  32  33
ENDBRANCH  24  27
ENDBRANCH  22  23
ENDBRANCH  21  22
ENDBRANCH   1  21
TORSDOF 18
ENDMDL
MODEL 3
REMARK VINA RESULT:     -11.0      4.548      9.774
REMARK SMILES CS(=O)(=O)CC(=O)N1CCO[C@@H](CC(=O)NCCCCNC(=O)c2ccc(-c3c4nc(c(-c5cc(S(=O)(=O)[O-])ccc5F)c5ccc([nH]5)c(-c5cc(S(=O)(=O)[O-])ccc5F)c5nc(c(-c6cc(S(=O)(=O)[O-])ccc6F)c6ccc3[nH]6)C=C5)C=C4)cc2)C1
REMARK SMILES IDX 18 1 17 2 16 3 14 4 15 5 13 7 12 8 8 9 9 10 87 11 10 12
REMARK SMILES IDX 11 13 6 14 7 15 5 16 2 17 1 18 3 19 4 20 19 21 20 22 21 23
REMARK SMILES IDX 22 24 23 26 24 27 25 28 86 29 26 30 85 31 27 32 28 33 29 34
REMARK SMILES IDX 79 35 30 36 84 37 78 38 80 39 31 40 83 41 77 42 76 43 32 45
REMARK SMILES IDX 64 46 44 47 63 48 45 49 48 50 62 51 81 52 46 53 47 54 61 56
REMARK SMILES IDX 82 57 49 58 33 59 34 60 42 61 35 62 41 63 43 64 40 65 36 66
REMARK SMILES IDX 37 67 38 68 39 69 65 70 66 71 74 72 67 73 73 74 75 75 72 76
REMARK SMILES IDX 68 77 69 78 70 79 71 80 50 81 51 82 59 83 52 84 58 85 60 86
REMARK SMILES IDX 57 87 53 88 54 89 55 90 56 91
REMARK H PARENT 16 6 21 25 80 44 48 55
REMARK Flexibility Score: inf
ROOT
ATOM      1  C   UNL A   1      32.795  27.420  26.368  1.00  0.00     0.023 C 
ENDROOT
BRANCH   1   2
ATOM      2  C   UNL A   1      32.809  26.012  25.765  1.00  0.00     0.116 C 
BRANCH   2   3
ATOM      3  N   UNL A   1      31.876  25.134  26.456  1.00  0.00    -0.356 N 
ATOM      4  C   UNL A   1      32.039  23.869  26.939  1.00  0.00     0.222 C 
ATOM      5  O   UNL A   1      31.055  23.276  27.383  1.00  0.00    -0.275 OA
ATOM      6  H   UNL A   1      30.980  25.517  26.598  1.00  0.00     0.163 HD
BRANCH   4   7
ATOM      7  C   UNL A   1      33.392  23.192  26.905  1.00  0.00     0.133 C 
BRANCH   7   8
ATOM      8  C   UNL A   1      33.625  22.379  25.628  1.00  0.00     0.147 C 
ATOM      9  N   UNL A   1      32.970  20.188  24.558  1.00  0.00    -0.337 N 
ATOM     10  C   UNL A   1      32.290  20.957  23.522  1.00  0.00     0.148 C 
ATOM     11  C   UNL A   1      33.108  20.944  25.791  1.00  0.00     0.152 C 
ATOM     12  C   UNL A   1      32.963  22.313  23.339  1.00  0.00     0.182 C 
ATOM     13  O   UNL A   1      32.920  23.060  24.564  1.00  0.00    -0.374 OA
BRANCH   9  14
ATOM     14  C   UNL A   1      32.576  18.862  24.718  1.00  0.00     0.237 C 
ATOM     15  O   UNL A   1      32.159  18.424  25.787  1.00  0.00    -0.274 OA
BRANCH  14  16
ATOM     16  C   UNL A   1      32.792  17.980  23.532  1.00  0.00     0.236 C 
BRANCH  16  17
ATOM     17  S   UNL A   1      34.066  16.794  23.834  1.00  0.00     0.156 S 
ATOM     18  C   UNL A   1      33.377  15.593  24.951  1.00  0.00     0.158 C 
ATOM     19  O   UNL A   1      35.133  17.479  24.540  1.00  0.00    -0.229 OA
ATOM     20  O   UNL A   1      34.362  16.114  22.584  1.00  0.00    -0.229 OA
ENDBRANCH  16  17
ENDBRANCH  14  16
ENDBRANCH   9  14
ENDBRANCH   7   8
ENDBRANCH   4   7
ENDBRANCH   2   3
ENDBRANCH   1   2
BRANCH   1  21
ATOM     21  C   UNL A   1      33.574  28.469  25.592  1.00  0.00     0.023 C 
BRANCH  21  22
ATOM     22  C   UNL A   1      34.595  29.221  26.424  1.00  0.00     0.116 C 
BRANCH  22  23
ATOM     23  N   UNL A   1      34.113  30.506  26.913  1.00  0.00    -0.352 N 
ATOM     24  C   UNL A   1      34.624  31.289  27.924  1.00  0.00     0.251 C 
ATOM     25  H   UNL A   1      33.317  30.864  26.458  1.00  0.00     0.163 HD
ATOM     26  O   UNL A   1      34.040  32.305  28.275  1.00  0.00    -0.269 OA
BRANCH  24  27
ATOM     27  C   UNL A   1      35.856  30.846  28.612  1.00  0.00     0.039 A 
ATOM     28  C   UNL A   1      35.764  29.873  29.610  1.00  0.00     0.014 A 
ATOM     29  C   UNL A   1      37.100  31.326  28.203  1.00  0.00     0.014 A 
ATOM     30  C   UNL A   1      36.933  29.321  30.137  1.00  0.00     0.010 A 
ATOM     31  C   UNL A   1      38.254  30.692  28.639  1.00  0.00     0.010 A 
ATOM     32  C   UNL A   1      38.186  29.694  29.623  1.00  0.00    -0.014 A 
BRANCH  32  33
ATOM     33  C   UNL A   1      39.445  29.086  30.118  1.00  0.00     0.031 A 
ATOM     34  C   UNL A   1      40.119  29.665  31.334  1.00  0.00     0.074 A 
ATOM     35  C   UNL A   1      40.031  28.090  29.425  1.00  0.00     0.049 A 
ATOM     36  N   UNL A   1      41.275  29.367  31.866  1.00  0.00    -0.248 NA
ATOM     37  C   UNL A   1      39.419  30.774  32.001  1.00  0.00     0.031 C 
ATOM     38  C   UNL A   1      39.518  27.506  28.182  1.00  0.00     0.029 A 
ATOM     39  N   UNL A   1      41.195  27.404  29.656  1.00  0.00    -0.354 N 
ATOM     40  C   UNL A   1      41.457  30.278  32.901  1.00  0.00     0.074 A 
ATOM     41  C   UNL A   1      40.333  31.187  32.863  1.00  0.00     0.031 C 
ATOM     42  C   UNL A   1      40.352  26.535  27.776  1.00  0.00     0.029 A 
ATOM     43  C   UNL A   1      41.474  26.451  28.705  1.00  0.00     0.049 A 
ATOM     44  H   UNL A   1      41.777  27.577  30.431  1.00  0.00     0.167 HD
ATOM     45  C   UNL A   1      42.454  30.331  33.821  1.00  0.00     0.034 A 
ATOM     46  C   UNL A   1      42.520  25.609  28.593  1.00  0.00     0.034 A 
ATOM     47  C   UNL A   1      43.540  29.383  33.863  1.00  0.00     0.049 A 
ATOM     48  C   UNL A   1      43.587  25.637  29.655  1.00  0.00     0.074 A 
ATOM     49  C   UNL A   1      44.550  29.266  34.801  1.00  0.00     0.029 A 
ATOM     50  N   UNL A   1      43.757  28.385  32.918  1.00  0.00    -0.354 N 
ATOM     51  N   UNL A   1      43.706  26.446  30.683  1.00  0.00    -0.248 NA
ATOM     52  C   UNL A   1      44.646  24.627  29.554  1.00  0.00     0.031 C 
ATOM     53  C   UNL A   1      45.409  28.239  34.393  1.00  0.00     0.029 A 
ATOM     54  C   UNL A   1      44.899  27.667  33.237  1.00  0.00     0.049 A 
ATOM     55  H   UNL A   1      43.182  28.214  32.138  1.00  0.00     0.167 HD
ATOM     56  C   UNL A   1      44.846  26.030  31.364  1.00  0.00     0.074 A 
ATOM     57  C   UNL A   1      45.365  24.887  30.638  1.00  0.00     0.031 C 
ATOM     58  C   UNL A   1      45.410  26.542  32.489  1.00  0.00     0.034 A 
BRANCH  45  59
ATOM     59  C   UNL A   1      42.408  31.461  34.826  1.00  0.00     0.023 A 
ATOM     60  C   UNL A   1      41.460  31.488  35.865  1.00  0.00     0.031 A 
ATOM     61  C   UNL A   1      43.269  32.565  34.697  1.00  0.00     0.131 A 
ATOM     62  C   UNL A   1      41.315  32.640  36.653  1.00  0.00     0.055 A 
ATOM     63  C   UNL A   1      43.187  33.666  35.552  1.00  0.00     0.041 A 
ATOM     64  F   UNL A   1      44.184  32.609  33.717  1.00  0.00    -0.206 F 
ATOM     65  C   UNL A   1      42.189  33.720  36.522  1.00  0.00     0.022 A 
BRANCH  62  66
ATOM     66  S   UNL A   1      39.845  32.782  37.707  1.00  0.00     0.124 S 
ATOM     67  O   UNL A   1      40.425  32.644  39.041  1.00  0.00    -0.237 OA
ATOM     68  O   UNL A   1      39.340  34.106  37.365  1.00  0.00    -0.237 OA
ATOM     69  O   UNL A   1      39.007  31.663  37.282  1.00  0.00    -0.744 OA
ENDBRANCH  62  66
ENDBRANCH  45  59
BRANCH  46  70
ATOM     70  C   UNL A   1      42.602  24.671  27.439  1.00  0.00     0.023 A 
ATOM     71  C   UNL A   1      42.052  23.381  27.512  1.00  0.00     0.031 A 
ATOM     72  C   UNL A   1      43.228  25.057  26.242  1.00  0.00     0.131 A 
ATOM     73  C   UNL A   1      42.165  22.511  26.415  1.00  0.00     0.055 A 
ATOM     74  C   UNL A   1      43.304  24.202  25.140  1.00  0.00     0.041 A 
ATOM     75  F   UNL A   1      43.755  26.285  26.117  1.00  0.00    -0.206 F 
ATOM     76  C   UNL A   1      42.777  22.917  25.227  1.00  0.00     0.022 A 
BRANCH  73  77
ATOM     77  S   UNL A   1      41.531  20.818  26.578  1.00  0.00     0.124 S 
ATOM     78  O   UNL A   1      42.005  20.450  27.906  1.00  0.00    -0.237 OA
ATOM     79  O   UNL A   1      40.093  21.019  26.441  1.00  0.00    -0.237 OA
ATOM     80  O   UNL A   1      42.166  20.110  25.468  1.00  0.00    -0.744 OA
ENDBRANCH  73  77
ENDBRANCH  46  70
BRANCH  58  81
ATOM     81  C   UNL A   1      46.638  25.841  33.013  1.00  0.00     0.023 A 
ATOM     82  C   UNL A   1      46.546  24.765  33.913  1.00  0.00     0.031 A 
ATOM     83  C   UNL A   1      47.918  26.262  32.610  1.00  0.00     0.131 A 
ATOM     84  C   UNL A   1      47.714  24.179  34.422  1.00  0.00     0.055 A 
ATOM     85  C   UNL A   1      49.076  25.637  33.075  1.00  0.00     0.041 A 
ATOM     86  F   UNL A   1      48.062  27.286  31.754  1.00  0.00    -0.206 F 
ATOM     87  C   UNL A   1      48.978  24.598  33.995  1.00  0.00     0.022 A 
BRANCH  84  88
ATOM     88  S   UNL A   1      47.563  22.921  35.718  1.00  0.00     0.124 S 
ATOM     89  O   UNL A   1      48.535  23.383  36.704  1.00  0.00    -0.237 OA
ATOM     90  O   UNL A   1      46.160  23.036  36.103  1.00  0.00    -0.237 OA
ATOM     91  O   UNL A   1      47.917  21.679  35.033  1.00  0.00    -0.744 OA
ENDBRANCH  84  88
ENDBRANCH  58  81
ENDBRANCH  32  33
ENDBRANCH  24  27
ENDBRANCH  22  23
ENDBRANCH  21  22
ENDBRANCH   1  21
TORSDOF 18
ENDMDL
