MODEL 1
REMARK VINA RESULT:     -12.9      0.000      0.000
REMARK SMILES CC(C)(C)OC(=O)N1CCC2(CC1)C[C@@H](C(=O)NCCCCNC(=O)c1ccc(-c3c4nc(c(-c5cc(S(=O)(=O)[O-])ccc5F)c5ccc([nH]5)c(-c5cc(S(=O)(=O)[O-])ccc5F)c5nc(c(-c6cc(S(=O)(=O)[O-])ccc6F)c6ccc3[nH]6)C=C5)C=C4)cc1)CO2
REMARK SMILES IDX 21 1 20 2 19 3 18 4 16 5 17 6 15 8 6 9 7 10 8 11 9 12 13 13
REMARK SMILES IDX 10 14 12 15 11 16 14 17 90 18 89 19 5 20 2 21 1 22 3 23 4 24
REMARK SMILES IDX 22 25 23 26 24 27 25 29 26 30 27 31 88 32 28 33 87 34 29 35
REMARK SMILES IDX 30 36 31 37 81 38 32 39 86 40 80 41 82 42 33 43 85 44 79 45
REMARK SMILES IDX 78 46 34 48 66 49 46 50 65 51 47 52 50 53 64 54 83 55 48 56
REMARK SMILES IDX 49 57 63 59 84 60 51 61 35 62 36 63 44 64 37 65 43 66 45 67
REMARK SMILES IDX 42 68 38 69 39 70 40 71 41 72 67 73 68 74 76 75 69 76 75 77
REMARK SMILES IDX 77 78 74 79 70 80 71 81 72 82 73 83 52 84 53 85 61 86 54 87
REMARK SMILES IDX 60 88 62 89 59 90 55 91 56 92 57 93 58 94
REMARK H PARENT 18 7 23 28 82 47 50 58
REMARK Flexibility Score: inf
ROOT
ATOM      1  C   UNL A   1      35.654  20.819  24.948  1.00  0.00     0.023 C 
ENDROOT
BRANCH   1   2
ATOM      2  C   UNL A   1      34.334  20.988  25.697  1.00  0.00     0.023 C 
BRANCH   2   3
ATOM      3  C   UNL A   1      34.456  21.677  27.050  1.00  0.00     0.116 C 
BRANCH   3   4
ATOM      4  N   UNL A   1      33.332  22.513  27.411  1.00  0.00    -0.356 N 
ATOM      5  C   UNL A   1      32.849  23.667  26.880  1.00  0.00     0.225 C 
ATOM      6  O   UNL A   1      31.744  24.039  27.296  1.00  0.00    -0.275 OA
ATOM      7  H   UNL A   1      32.821  22.185  28.186  1.00  0.00     0.163 HD
BRANCH   5   8
ATOM      8  C   UNL A   1      33.549  24.514  25.813  1.00  0.00     0.107 C 
ATOM      9  C   UNL A   1      30.281  29.227  22.506  1.00  0.00     0.410 C 
ATOM     10  O   UNL A   1      30.658  29.775  21.478  1.00  0.00    -0.224 OA
ATOM     11  N   UNL A   1      30.850  28.078  23.014  1.00  0.00    -0.308 N 
ATOM     12  C   UNL A   1      32.132  27.598  22.512  1.00  0.00     0.126 C 
ATOM     13  C   UNL A   1      30.204  27.258  24.030  1.00  0.00     0.126 C 
ATOM     14  C   UNL A   1      33.110  27.337  23.676  1.00  0.00     0.057 C 
ATOM     15  C   UNL A   1      31.158  27.044  25.190  1.00  0.00     0.057 C 
ATOM     16  C   UNL A   1      32.466  26.386  24.704  1.00  0.00     0.072 C 
ATOM     17  C   UNL A   1      33.350  26.018  25.902  1.00  0.00     0.051 C 
ATOM     18  O   UNL A   1      32.223  25.153  23.990  1.00  0.00    -0.374 OA
ATOM     19  C   UNL A   1      33.193  24.180  24.392  1.00  0.00     0.174 C 
BRANCH   9  20
ATOM     20  O   UNL A   1      29.316  29.703  23.330  1.00  0.00    -0.444 OA
BRANCH  20  21
ATOM     21  C   UNL A   1      27.973  29.998  22.872  1.00  0.00     0.106 C 
ATOM     22  C   UNL A   1      27.483  31.114  23.808  1.00  0.00     0.056 C 
ATOM     23  C   UNL A   1      27.099  28.758  23.055  1.00  0.00     0.056 C 
ATOM     24  C   UNL A   1      27.927  30.528  21.434  1.00  0.00     0.056 C 
ENDBRANCH  20  21
ENDBRANCH   9  20
ENDBRANCH   5   8
ENDBRANCH   3   4
ENDBRANCH   2   3
ENDBRANCH   1   2
BRANCH   1  25
ATOM     25  C   UNL A   1      36.915  21.195  25.722  1.00  0.00     0.116 C 
BRANCH  25  26
ATOM     26  N   UNL A   1      38.001  20.229  25.624  1.00  0.00    -0.352 N 
ATOM     27  C   UNL A   1      39.324  20.418  25.973  1.00  0.00     0.251 C 
ATOM     28  H   UNL A   1      37.766  19.342  25.269  1.00  0.00     0.163 HD
ATOM     29  O   UNL A   1      40.151  19.533  25.787  1.00  0.00    -0.269 OA
BRANCH  27  30
ATOM     30  C   UNL A   1      39.725  21.731  26.523  1.00  0.00     0.039 A 
ATOM     31  C   UNL A   1      40.705  21.777  27.517  1.00  0.00     0.014 A 
ATOM     32  C   UNL A   1      39.217  22.908  25.970  1.00  0.00     0.014 A 
ATOM     33  C   UNL A   1      41.245  23.011  27.889  1.00  0.00     0.010 A 
ATOM     34  C   UNL A   1      39.810  24.125  26.287  1.00  0.00     0.010 A 
ATOM     35  C   UNL A   1      40.839  24.189  27.241  1.00  0.00    -0.014 A 
BRANCH  35  36
ATOM     36  C   UNL A   1      41.488  25.495  27.529  1.00  0.00     0.031 A 
ATOM     37  C   UNL A   1      40.753  26.541  28.319  1.00  0.00     0.074 A 
ATOM     38  C   UNL A   1      42.701  25.770  27.008  1.00  0.00     0.049 A 
ATOM     39  N   UNL A   1      41.109  27.766  28.607  1.00  0.00    -0.248 NA
ATOM     40  C   UNL A   1      39.422  26.168  28.818  1.00  0.00     0.031 C 
ATOM     41  C   UNL A   1      43.493  24.858  26.180  1.00  0.00     0.029 A 
ATOM     42  N   UNL A   1      43.477  26.899  27.089  1.00  0.00    -0.354 N 
ATOM     43  C   UNL A   1      40.038  28.319  29.302  1.00  0.00     0.074 A 
ATOM     44  C   UNL A   1      38.997  27.313  29.329  1.00  0.00     0.031 C 
ATOM     45  C   UNL A   1      44.656  25.450  25.860  1.00  0.00     0.029 A 
ATOM     46  C   UNL A   1      44.675  26.797  26.420  1.00  0.00     0.049 A 
ATOM     47  H   UNL A   1      43.201  27.706  27.580  1.00  0.00     0.167 HD
ATOM     48  C   UNL A   1      39.941  29.540  29.882  1.00  0.00     0.034 A 
ATOM     49  C   UNL A   1      45.674  27.690  26.272  1.00  0.00     0.034 A 
ATOM     50  C   UNL A   1      40.997  30.523  29.862  1.00  0.00     0.049 A 
ATOM     51  C   UNL A   1      45.540  29.048  26.912  1.00  0.00     0.074 A 
ATOM     52  C   UNL A   1      41.041  31.758  30.485  1.00  0.00     0.029 A 
ATOM     53  N   UNL A   1      42.196  30.388  29.170  1.00  0.00    -0.354 N 
ATOM     54  N   UNL A   1      44.548  29.533  27.622  1.00  0.00    -0.248 NA
ATOM     55  C   UNL A   1      46.665  29.976  26.734  1.00  0.00     0.031 C 
ATOM     56  C   UNL A   1      42.231  32.396  30.116  1.00  0.00     0.029 A 
ATOM     57  C   UNL A   1      42.967  31.531  29.322  1.00  0.00     0.049 A 
ATOM     58  H   UNL A   1      42.459  29.595  28.648  1.00  0.00     0.167 HD
ATOM     59  C   UNL A   1      44.945  30.812  28.003  1.00  0.00     0.074 A 
ATOM     60  C   UNL A   1      46.268  31.018  27.450  1.00  0.00     0.031 C 
ATOM     61  C   UNL A   1      44.279  31.730  28.750  1.00  0.00     0.034 A 
BRANCH  48  62
ATOM     62  C   UNL A   1      38.632  29.881  30.559  1.00  0.00     0.023 A 
ATOM     63  C   UNL A   1      37.630  30.617  29.901  1.00  0.00     0.031 A 
ATOM     64  C   UNL A   1      38.406  29.518  31.897  1.00  0.00     0.131 A 
ATOM     65  C   UNL A   1      36.501  31.052  30.610  1.00  0.00     0.055 A 
ATOM     66  C   UNL A   1      37.235  29.873  32.570  1.00  0.00     0.041 A 
ATOM     67  F   UNL A   1      39.332  28.831  32.586  1.00  0.00    -0.206 F 
ATOM     68  C   UNL A   1      36.283  30.664  31.933  1.00  0.00     0.022 A 
BRANCH  65  69
ATOM     69  S   UNL A   1      35.414  32.279  29.831  1.00  0.00     0.124 S 
ATOM     70  O   UNL A   1      34.993  31.574  28.623  1.00  0.00    -0.237 OA
ATOM     71  O   UNL A   1      34.387  32.480  30.846  1.00  0.00    -0.237 OA
ATOM     72  O   UNL A   1      36.297  33.421  29.601  1.00  0.00    -0.744 OA
ENDBRANCH  65  69
ENDBRANCH  48  62
BRANCH  49  73
ATOM     73  C   UNL A   1      46.895  27.334  25.496  1.00  0.00     0.023 A 
ATOM     74  C   UNL A   1      47.038  27.738  24.159  1.00  0.00     0.031 A 
ATOM     75  C   UNL A   1      47.921  26.560  26.066  1.00  0.00     0.131 A 
ATOM     76  C   UNL A   1      48.164  27.339  23.424  1.00  0.00     0.055 A 
ATOM     77  C   UNL A   1      49.060  26.201  25.343  1.00  0.00     0.041 A 
ATOM     78  F   UNL A   1      47.835  26.154  27.343  1.00  0.00    -0.206 F 
ATOM     79  C   UNL A   1      49.182  26.583  24.010  1.00  0.00     0.022 A 
BRANCH  76  80
ATOM     80  S   UNL A   1      48.253  27.773  21.665  1.00  0.00     0.124 S 
ATOM     81  O   UNL A   1      49.370  28.710  21.646  1.00  0.00    -0.237 OA
ATOM     82  O   UNL A   1      48.494  26.473  21.044  1.00  0.00    -0.237 OA
ATOM     83  O   UNL A   1      46.941  28.356  21.392  1.00  0.00    -0.744 OA
ENDBRANCH  76  80
ENDBRANCH  49  73
BRANCH  61  84
ATOM     84  C   UNL A   1      44.999  33.023  29.045  1.00  0.00     0.023 A 
ATOM     85  C   UNL A   1      44.857  34.154  28.223  1.00  0.00     0.031 A 
ATOM     86  C   UNL A   1      45.851  33.117  30.161  1.00  0.00     0.131 A 
ATOM     87  C   UNL A   1      45.598  35.314  28.497  1.00  0.00     0.055 A 
ATOM     88  C   UNL A   1      46.539  34.292  30.463  1.00  0.00     0.041 A 
ATOM     89  F   UNL A   1      46.024  32.066  30.978  1.00  0.00    -0.206 F 
ATOM     90  C   UNL A   1      46.425  35.396  29.622  1.00  0.00     0.022 A 
BRANCH  87  91
ATOM     91  S   UNL A   1      45.536  36.689  27.316  1.00  0.00     0.124 S 
ATOM     92  O   UNL A   1      44.121  36.716  26.956  1.00  0.00    -0.237 OA
ATOM     93  O   UNL A   1      46.011  37.812  28.118  1.00  0.00    -0.237 OA
ATOM     94  O   UNL A   1      46.440  36.265  26.247  1.00  0.00    -0.744 OA
ENDBRANCH  87  91
ENDBRANCH  61  84
ENDBRANCH  35  36
ENDBRANCH  27  30
ENDBRANCH  25  26
ENDBRANCH   1  25
TORSDOF 16
ENDMDL
MODEL 2
REMARK VINA RESULT:     -12.4      5.143      8.470
REMARK SMILES CC(C)(C)OC(=O)N1CCC2(CC1)C[C@@H](C(=O)NCCCCNC(=O)c1ccc(-c3c4nc(c(-c5cc(S(=O)(=O)[O-])ccc5F)c5ccc([nH]5)c(-c5cc(S(=O)(=O)[O-])ccc5F)c5nc(c(-c6cc(S(=O)(=O)[O-])ccc6F)c6ccc3[nH]6)C=C5)C=C4)cc1)CO2
REMARK SMILES IDX 21 1 20 2 19 3 18 4 16 5 17 6 15 8 6 9 7 10 8 11 9 12 13 13
REMARK SMILES IDX 10 14 12 15 11 16 14 17 90 18 89 19 5 20 2 21 1 22 3 23 4 24
REMARK SMILES IDX 22 25 23 26 24 27 25 29 26 30 27 31 88 32 28 33 87 34 29 35
REMARK SMILES IDX 30 36 31 37 81 38 32 39 86 40 80 41 82 42 33 43 85 44 79 45
REMARK SMILES IDX 78 46 34 48 66 49 46 50 65 51 47 52 50 53 64 54 83 55 48 56
REMARK SMILES IDX 49 57 63 59 84 60 51 61 35 62 36 63 44 64 37 65 43 66 45 67
REMARK SMILES IDX 42 68 38 69 39 70 40 71 41 72 67 73 68 74 76 75 69 76 75 77
REMARK SMILES IDX 77 78 74 79 70 80 71 81 72 82 73 83 52 84 53 85 61 86 54 87
REMARK SMILES IDX 60 88 62 89 59 90 55 91 56 92 57 93 58 94
REMARK H PARENT 18 7 23 28 82 47 50 58
REMARK Flexibility Score: inf
ROOT
ATOM      1  C   UNL A   1      31.820  29.109  24.987  1.00  0.00     0.023 C 
ENDROOT
BRANCH   1   2
ATOM      2  C   UNL A   1      31.923  29.177  23.465  1.00  0.00     0.023 C 
BRANCH   2   3
ATOM      3  C   UNL A   1      33.337  29.037  22.917  1.00  0.00     0.116 C 
BRANCH   3   4
ATOM      4  N   UNL A   1      33.584  27.824  22.168  1.00  0.00    -0.356 N 
ATOM      5  C   UNL A   1      33.620  26.518  22.539  1.00  0.00     0.225 C 
ATOM      6  O   UNL A   1      33.663  25.690  21.619  1.00  0.00    -0.275 OA
ATOM      7  H   UNL A   1      33.756  27.974  21.210  1.00  0.00     0.163 HD
BRANCH   5   8
ATOM      8  C   UNL A   1      33.595  26.003  23.981  1.00  0.00     0.107 C 
ATOM      9  C   UNL A   1      33.140  19.529  25.290  1.00  0.00     0.410 C 
ATOM     10  O   UNL A   1      32.857  19.035  26.374  1.00  0.00    -0.224 OA
ATOM     11  N   UNL A   1      32.966  20.864  24.990  1.00  0.00    -0.308 N 
ATOM     12  C   UNL A   1      32.701  21.836  26.043  1.00  0.00     0.126 C 
ATOM     13  C   UNL A   1      32.988  21.376  23.626  1.00  0.00     0.126 C 
ATOM     14  C   UNL A   1      33.679  23.026  25.945  1.00  0.00     0.057 C 
ATOM     15  C   UNL A   1      33.984  22.517  23.530  1.00  0.00     0.057 C 
ATOM     16  C   UNL A   1      33.628  23.636  24.531  1.00  0.00     0.072 C 
ATOM     17  C   UNL A   1      34.534  24.853  24.307  1.00  0.00     0.051 C 
ATOM     18  O   UNL A   1      32.272  24.107  24.361  1.00  0.00    -0.374 OA
ATOM     19  C   UNL A   1      32.255  25.535  24.473  1.00  0.00     0.174 C 
BRANCH   9  20
ATOM     20  O   UNL A   1      33.731  18.868  24.266  1.00  0.00    -0.444 OA
BRANCH  20  21
ATOM     21  C   UNL A   1      33.165  17.670  23.680  1.00  0.00     0.106 C 
ATOM     22  C   UNL A   1      34.373  16.916  23.101  1.00  0.00     0.056 C 
ATOM     23  C   UNL A   1      32.221  18.067  22.546  1.00  0.00     0.056 C 
ATOM     24  C   UNL A   1      32.482  16.759  24.705  1.00  0.00     0.056 C 
ENDBRANCH  20  21
ENDBRANCH   9  20
ENDBRANCH   5   8
ENDBRANCH   3   4
ENDBRANCH   2   3
ENDBRANCH   1   2
BRANCH   1  25
ATOM     25  C   UNL A   1      32.940  29.795  25.765  1.00  0.00     0.116 C 
BRANCH  25  26
ATOM     26  N   UNL A   1      32.583  31.087  26.336  1.00  0.00    -0.352 N 
ATOM     27  C   UNL A   1      33.305  31.826  27.252  1.00  0.00     0.251 C 
ATOM     28  H   UNL A   1      31.731  31.476  26.035  1.00  0.00     0.163 HD
ATOM     29  O   UNL A   1      32.861  32.878  27.695  1.00  0.00    -0.269 OA
BRANCH  27  30
ATOM     30  C   UNL A   1      34.599  31.288  27.726  1.00  0.00     0.039 A 
ATOM     31  C   UNL A   1      35.684  32.156  27.862  1.00  0.00     0.014 A 
ATOM     32  C   UNL A   1      34.695  29.958  28.143  1.00  0.00     0.014 A 
ATOM     33  C   UNL A   1      36.840  31.712  28.507  1.00  0.00     0.010 A 
ATOM     34  C   UNL A   1      35.817  29.543  28.852  1.00  0.00     0.010 A 
ATOM     35  C   UNL A   1      36.896  30.419  29.054  1.00  0.00    -0.014 A 
BRANCH  35  36
ATOM     36  C   UNL A   1      38.065  29.965  29.854  1.00  0.00     0.031 A 
ATOM     37  C   UNL A   1      38.274  30.495  31.245  1.00  0.00     0.074 A 
ATOM     38  C   UNL A   1      38.979  29.145  29.298  1.00  0.00     0.049 A 
ATOM     39  N   UNL A   1      39.266  30.288  32.071  1.00  0.00    -0.248 NA
ATOM     40  C   UNL A   1      37.245  31.411  31.757  1.00  0.00     0.031 C 
ATOM     41  C   UNL A   1      38.917  28.604  27.938  1.00  0.00     0.029 A 
ATOM     42  N   UNL A   1      40.146  28.629  29.805  1.00  0.00    -0.354 N 
ATOM     43  C   UNL A   1      38.994  31.065  33.192  1.00  0.00     0.074 A 
ATOM     44  C   UNL A   1      37.778  31.796  32.906  1.00  0.00     0.031 C 
ATOM     45  C   UNL A   1      39.977  27.806  27.732  1.00  0.00     0.029 A 
ATOM     46  C   UNL A   1      40.818  27.812  28.924  1.00  0.00     0.049 A 
ATOM     47  H   UNL A   1      40.471  28.826  30.713  1.00  0.00     0.167 HD
ATOM     48  C   UNL A   1      39.680  31.143  34.359  1.00  0.00     0.034 A 
ATOM     49  C   UNL A   1      41.982  27.147  29.063  1.00  0.00     0.034 A 
ATOM     50  C   UNL A   1      40.880  30.390  34.634  1.00  0.00     0.049 A 
ATOM     51  C   UNL A   1      42.738  27.259  30.362  1.00  0.00     0.074 A 
ATOM     52  C   UNL A   1      41.611  30.328  35.809  1.00  0.00     0.029 A 
ATOM     53  N   UNL A   1      41.536  29.576  33.718  1.00  0.00    -0.354 N 
ATOM     54  N   UNL A   1      42.434  27.946  31.438  1.00  0.00    -0.248 NA
ATOM     55  C   UNL A   1      43.990  26.499  30.465  1.00  0.00     0.031 C 
ATOM     56  C   UNL A   1      42.741  29.534  35.582  1.00  0.00     0.029 A 
ATOM     57  C   UNL A   1      42.680  29.038  34.289  1.00  0.00     0.049 A 
ATOM     58  H   UNL A   1      41.232  29.406  32.797  1.00  0.00     0.167 HD
ATOM     59  C   UNL A   1      43.443  27.675  32.359  1.00  0.00     0.074 A 
ATOM     60  C   UNL A   1      44.358  26.756  31.712  1.00  0.00     0.031 C 
ATOM     61  C   UNL A   1      43.594  28.136  33.626  1.00  0.00     0.034 A 
BRANCH  48  62
ATOM     62  C   UNL A   1      39.156  32.100  35.406  1.00  0.00     0.023 A 
ATOM     63  C   UNL A   1      39.557  33.447  35.442  1.00  0.00     0.031 A 
ATOM     64  C   UNL A   1      38.290  31.647  36.416  1.00  0.00     0.131 A 
ATOM     65  C   UNL A   1      39.177  34.263  36.518  1.00  0.00     0.055 A 
ATOM     66  C   UNL A   1      37.839  32.491  37.433  1.00  0.00     0.041 A 
ATOM     67  F   UNL A   1      37.886  30.367  36.448  1.00  0.00    -0.206 F 
ATOM     68  C   UNL A   1      38.301  33.802  37.501  1.00  0.00     0.022 A 
BRANCH  65  69
ATOM     69  S   UNL A   1      39.991  35.874  36.707  1.00  0.00     0.124 S 
ATOM     70  O   UNL A   1      39.335  36.397  37.904  1.00  0.00    -0.237 OA
ATOM     71  O   UNL A   1      41.394  35.503  36.856  1.00  0.00    -0.237 OA
ATOM     72  O   UNL A   1      39.657  36.574  35.468  1.00  0.00    -0.744 OA
ENDBRANCH  65  69
ENDBRANCH  48  62
BRANCH  49  73
ATOM     73  C   UNL A   1      42.506  26.305  27.950  1.00  0.00     0.023 A 
ATOM     74  C   UNL A   1      42.025  25.002  27.749  1.00  0.00     0.031 A 
ATOM     75  C   UNL A   1      43.514  26.778  27.090  1.00  0.00     0.131 A 
ATOM     76  C   UNL A   1      42.575  24.201  26.737  1.00  0.00     0.055 A 
ATOM     77  C   UNL A   1      44.028  25.992  26.057  1.00  0.00     0.041 A 
ATOM     78  F   UNL A   1      44.002  28.020  27.237  1.00  0.00    -0.206 F 
ATOM     79  C   UNL A   1      43.565  24.691  25.882  1.00  0.00     0.022 A 
BRANCH  76  80
ATOM     80  S   UNL A   1      42.018  22.481  26.590  1.00  0.00     0.124 S 
ATOM     81  O   UNL A   1      40.583  22.613  26.813  1.00  0.00    -0.237 OA
ATOM     82  O   UNL A   1      42.430  22.145  25.230  1.00  0.00    -0.237 OA
ATOM     83  O   UNL A   1      42.755  21.794  27.649  1.00  0.00    -0.744 OA
ENDBRANCH  76  80
ENDBRANCH  49  73
BRANCH  61  84
ATOM     84  C   UNL A   1      44.775  27.614  34.408  1.00  0.00     0.023 A 
ATOM     85  C   UNL A   1      44.707  26.415  35.139  1.00  0.00     0.031 A 
ATOM     86  C   UNL A   1      45.981  28.336  34.430  1.00  0.00     0.131 A 
ATOM     87  C   UNL A   1      45.807  26.002  35.906  1.00  0.00     0.055 A 
ATOM     88  C   UNL A   1      47.092  27.890  35.146  1.00  0.00     0.041 A 
ATOM     89  F   UNL A   1      46.100  29.488  33.751  1.00  0.00    -0.206 F 
ATOM     90  C   UNL A   1      47.005  26.722  35.900  1.00  0.00     0.022 A 
BRANCH  87  91
ATOM     91  S   UNL A   1      45.625  24.553  36.982  1.00  0.00     0.124 S 
ATOM     92  O   UNL A   1      47.009  24.278  37.357  1.00  0.00    -0.237 OA
ATOM     93  O   UNL A   1      44.766  25.061  38.047  1.00  0.00    -0.237 OA
ATOM     94  O   UNL A   1      45.008  23.554  36.112  1.00  0.00    -0.744 OA
ENDBRANCH  87  91
ENDBRANCH  61  84
ENDBRANCH  35  36
ENDBRANCH  27  30
ENDBRANCH  25  26
ENDBRANCH   1  25
TORSDOF 16
ENDMDL
MODEL 3
REMARK VINA RESULT:     -12.4      5.408     11.035
REMARK SMILES CC(C)(C)OC(=O)N1CCC2(CC1)C[C@@H](C(=O)NCCCCNC(=O)c1ccc(-c3c4nc(c(-c5cc(S(=O)(=O)[O-])ccc5F)c5ccc([nH]5)c(-c5cc(S(=O)(=O)[O-])ccc5F)c5nc(c(-c6cc(S(=O)(=O)[O-])ccc6F)c6ccc3[nH]6)C=C5)C=C4)cc1)CO2
REMARK SMILES IDX 21 1 20 2 19 3 18 4 16 5 17 6 15 8 6 9 7 10 8 11 9 12 13 13
REMARK SMILES IDX 10 14 12 15 11 16 14 17 90 18 89 19 5 20 2 21 1 22 3 23 4 24
REMARK SMILES IDX 22 25 23 26 24 27 25 29 26 30 27 31 88 32 28 33 87 34 29 35
REMARK SMILES IDX 30 36 31 37 81 38 32 39 86 40 80 41 82 42 33 43 85 44 79 45
REMARK SMILES IDX 78 46 34 48 66 49 46 50 65 51 47 52 50 53 64 54 83 55 48 56
REMARK SMILES IDX 49 57 63 59 84 60 51 61 35 62 36 63 44 64 37 65 43 66 45 67
REMARK SMILES IDX 42 68 38 69 39 70 40 71 41 72 67 73 68 74 76 75 69 76 75 77
REMARK SMILES IDX 77 78 74 79 70 80 71 81 72 82 73 83 52 84 53 85 61 86 54 87
REMARK SMILES IDX 60 88 62 89 59 90 55 91 56 92 57 93 58 94
REMARK H PARENT 18 7 23 28 82 47 50 58
REMARK Flexibility Score: inf
ROOT
ATOM      1  C   UNL A   1      31.408  32.049  26.866  1.00  0.00     0.023 C 
ENDROOT
BRANCH   1   2
ATOM      2  C   UNL A   1      31.664  30.544  26.819  1.00  0.00     0.023 C 
BRANCH   2   3
ATOM      3  C   UNL A   1      32.625  30.097  25.724  1.00  0.00     0.116 C 
BRANCH   3   4
ATOM      4  N   UNL A   1      32.001  29.434  24.599  1.00  0.00    -0.356 N 
ATOM      5  C   UNL A   1      31.296  28.277  24.503  1.00  0.00     0.225 C 
ATOM      6  O   UNL A   1      30.719  28.077  23.426  1.00  0.00    -0.275 OA
ATOM      7  H   UNL A   1      32.106  29.912  23.745  1.00  0.00     0.163 HD
BRANCH   5   8
ATOM      8  C   UNL A   1      31.150  27.231  25.612  1.00  0.00     0.107 C 
ATOM      9  C   UNL A   1      33.808  21.199  24.988  1.00  0.00     0.410 C 
ATOM     10  O   UNL A   1      33.542  20.223  25.677  1.00  0.00    -0.224 OA
ATOM     11  N   UNL A   1      33.052  22.352  24.970  1.00  0.00    -0.308 N 
ATOM     12  C   UNL A   1      32.042  22.597  25.993  1.00  0.00     0.126 C 
ATOM     13  C   UNL A   1      33.174  23.362  23.927  1.00  0.00     0.126 C 
ATOM     14  C   UNL A   1      32.236  23.989  26.630  1.00  0.00     0.057 C 
ATOM     15  C   UNL A   1      33.409  24.720  24.562  1.00  0.00     0.057 C 
ATOM     16  C   UNL A   1      32.263  25.071  25.534  1.00  0.00     0.072 C 
ATOM     17  C   UNL A   1      32.420  26.512  26.037  1.00  0.00     0.051 C 
ATOM     18  O   UNL A   1      30.968  25.007  24.895  1.00  0.00    -0.374 OA
ATOM     19  C   UNL A   1      30.178  26.121  25.325  1.00  0.00     0.174 C 
BRANCH   9  20
ATOM     20  O   UNL A   1      34.910  21.323  24.210  1.00  0.00    -0.444 OA
BRANCH  20  21
ATOM     21  C   UNL A   1      36.198  21.727  24.738  1.00  0.00     0.106 C 
ATOM     22  C   UNL A   1      36.789  22.641  23.654  1.00  0.00     0.056 C 
ATOM     23  C   UNL A   1      37.082  20.491  24.900  1.00  0.00     0.056 C 
ATOM     24  C   UNL A   1      36.094  22.534  26.037  1.00  0.00     0.056 C 
ENDBRANCH  20  21
ENDBRANCH   9  20
ENDBRANCH   5   8
ENDBRANCH   3   4
ENDBRANCH   2   3
ENDBRANCH   1   2
BRANCH   1  25
ATOM     25  C   UNL A   1      32.650  32.939  26.877  1.00  0.00     0.116 C 
BRANCH  25  26
ATOM     26  N   UNL A   1      32.519  34.156  27.666  1.00  0.00    -0.352 N 
ATOM     27  C   UNL A   1      33.348  34.588  28.682  1.00  0.00     0.251 C 
ATOM     28  H   UNL A   1      31.754  34.736  27.449  1.00  0.00     0.163 HD
ATOM     29  O   UNL A   1      33.091  35.612  29.306  1.00  0.00    -0.269 OA
BRANCH  27  30
ATOM     30  C   UNL A   1      34.518  33.756  29.037  1.00  0.00     0.039 A 
ATOM     31  C   UNL A   1      35.799  34.233  28.751  1.00  0.00     0.014 A 
ATOM     32  C   UNL A   1      34.344  32.571  29.754  1.00  0.00     0.014 A 
ATOM     33  C   UNL A   1      36.911  33.564  29.268  1.00  0.00     0.010 A 
ATOM     34  C   UNL A   1      35.448  31.952  30.331  1.00  0.00     0.010 A 
ATOM     35  C   UNL A   1      36.742  32.449  30.106  1.00  0.00    -0.014 A 
BRANCH  35  36
ATOM     36  C   UNL A   1      37.901  31.798  30.772  1.00  0.00     0.031 A 
ATOM     37  C   UNL A   1      38.693  30.748  30.044  1.00  0.00     0.074 A 
ATOM     38  C   UNL A   1      38.185  32.089  32.058  1.00  0.00     0.049 A 
ATOM     39  N   UNL A   1      39.682  30.009  30.475  1.00  0.00    -0.248 NA
ATOM     40  C   UNL A   1      38.291  30.469  28.659  1.00  0.00     0.031 C 
ATOM     41  C   UNL A   1      37.458  33.052  32.889  1.00  0.00     0.029 A 
ATOM     42  N   UNL A   1      39.157  31.600  32.894  1.00  0.00    -0.354 N 
ATOM     43  C   UNL A   1      40.007  29.160  29.421  1.00  0.00     0.074 A 
ATOM     44  C   UNL A   1      39.062  29.436  28.359  1.00  0.00     0.031 C 
ATOM     45  C   UNL A   1      38.030  33.106  34.103  1.00  0.00     0.029 A 
ATOM     46  C   UNL A   1      39.135  32.155  34.154  1.00  0.00     0.049 A 
ATOM     47  H   UNL A   1      39.808  30.915  32.619  1.00  0.00     0.167 HD
ATOM     48  C   UNL A   1      41.012  28.254  29.338  1.00  0.00     0.034 A 
ATOM     49  C   UNL A   1      39.914  31.919  35.227  1.00  0.00     0.034 A 
ATOM     50  C   UNL A   1      41.957  28.007  30.400  1.00  0.00     0.049 A 
ATOM     51  C   UNL A   1      41.017  30.897  35.120  1.00  0.00     0.074 A 
ATOM     52  C   UNL A   1      43.063  27.174  30.396  1.00  0.00     0.029 A 
ATOM     53  N   UNL A   1      41.902  28.584  31.664  1.00  0.00    -0.354 N 
ATOM     54  N   UNL A   1      41.353  30.149  34.095  1.00  0.00    -0.248 NA
ATOM     55  C   UNL A   1      41.847  30.694  36.314  1.00  0.00     0.031 C 
ATOM     56  C   UNL A   1      43.634  27.195  31.675  1.00  0.00     0.029 A 
ATOM     57  C   UNL A   1      42.930  28.097  32.457  1.00  0.00     0.049 A 
ATOM     58  H   UNL A   1      41.229  29.242  31.954  1.00  0.00     0.167 HD
ATOM     59  C   UNL A   1      42.457  29.409  34.512  1.00  0.00     0.074 A 
ATOM     60  C   UNL A   1      42.731  29.808  35.878  1.00  0.00     0.031 C 
ATOM     61  C   UNL A   1      43.182  28.491  33.825  1.00  0.00     0.034 A 
BRANCH  48  62
ATOM     62  C   UNL A   1      41.112  27.448  28.063  1.00  0.00     0.023 A 
ATOM     63  C   UNL A   1      40.734  26.094  28.012  1.00  0.00     0.031 A 
ATOM     64  C   UNL A   1      41.647  28.022  26.897  1.00  0.00     0.131 A 
ATOM     65  C   UNL A   1      40.990  25.337  26.860  1.00  0.00     0.055 A 
ATOM     66  C   UNL A   1      41.811  27.286  25.721  1.00  0.00     0.041 A 
ATOM     67  F   UNL A   1      42.044  29.305  26.886  1.00  0.00    -0.206 F 
ATOM     68  C   UNL A   1      41.502  25.929  25.705  1.00  0.00     0.022 A 
BRANCH  65  69
ATOM     69  S   UNL A   1      40.811  23.534  26.956  1.00  0.00     0.124 S 
ATOM     70  O   UNL A   1      39.380  23.367  26.714  1.00  0.00    -0.237 OA
ATOM     71  O   UNL A   1      41.698  23.072  25.894  1.00  0.00    -0.237 OA
ATOM     72  O   UNL A   1      41.246  23.219  28.316  1.00  0.00    -0.744 OA
ENDBRANCH  65  69
ENDBRANCH  48  62
BRANCH  49  73
ATOM     73  C   UNL A   1      39.694  32.668  36.497  1.00  0.00     0.023 A 
ATOM     74  C   UNL A   1      38.823  32.172  37.480  1.00  0.00     0.031 A 
ATOM     75  C   UNL A   1      40.325  33.902  36.735  1.00  0.00     0.131 A 
ATOM     76  C   UNL A   1      38.578  32.921  38.640  1.00  0.00     0.055 A 
ATOM     77  C   UNL A   1      40.111  34.623  37.911  1.00  0.00     0.041 A 
ATOM     78  F   UNL A   1      41.172  34.416  35.829  1.00  0.00    -0.206 F 
ATOM     79  C   UNL A   1      39.225  34.138  38.868  1.00  0.00     0.022 A 
BRANCH  76  80
ATOM     80  S   UNL A   1      37.350  32.309  39.827  1.00  0.00     0.124 S 
ATOM     81  O   UNL A   1      36.352  31.717  38.943  1.00  0.00    -0.237 OA
ATOM     82  O   UNL A   1      38.139  31.373  40.623  1.00  0.00    -0.237 OA
ATOM     83  O   UNL A   1      36.925  33.517  40.531  1.00  0.00    -0.744 OA
ENDBRANCH  76  80
ENDBRANCH  49  73
BRANCH  61  84
ATOM     84  C   UNL A   1      44.371  27.889  34.534  1.00  0.00     0.023 A 
ATOM     85  C   UNL A   1      44.301  26.635  35.165  1.00  0.00     0.031 A 
ATOM     86  C   UNL A   1      45.589  28.591  34.589  1.00  0.00     0.131 A 
ATOM     87  C   UNL A   1      45.410  26.146  35.871  1.00  0.00     0.055 A 
ATOM     88  C   UNL A   1      46.707  28.073  35.241  1.00  0.00     0.041 A 
ATOM     89  F   UNL A   1      45.711  29.794  34.005  1.00  0.00    -0.206 F 
ATOM     90  C   UNL A   1      46.618  26.848  35.898  1.00  0.00     0.022 A 
BRANCH  87  91
ATOM     91  S   UNL A   1      45.230  24.615  36.828  1.00  0.00     0.124 S 
ATOM     92  O   UNL A   1      46.539  23.993  36.655  1.00  0.00    -0.237 OA
ATOM     93  O   UNL A   1      44.934  25.116  38.166  1.00  0.00    -0.237 OA
ATOM     94  O   UNL A   1      44.122  23.925  36.166  1.00  0.00    -0.744 OA
ENDBRANCH  87  91
ENDBRANCH  61  84
ENDBRANCH  35  36
ENDBRANCH  27  30
ENDBRANCH  25  26
ENDBRANCH   1  25
TORSDOF 16
ENDMDL
