MODEL 1
REMARK VINA RESULT:     -12.5      0.000      0.000
REMARK SMILES C/C(=N\NC(N)=S)c1nnn(-c2ccc(C(=O)NCCCCNC(=O)c3ccc(-c4c5nc(c(-c6cc(S(=O)(=O)[O-])ccc6F)c6ccc([nH]6)c(-c6cc(S(=O)(=O)[O-])ccc6F)c6nc(c(-c7cc(S(=O)(=O)[O-])ccc7F)c7ccc4[nH]7)C=C6)C=C5)cc3)cc2)c1C
REMARK SMILES IDX 19 1 18 2 16 3 17 4 15 6 12 7 13 8 90 9 14 10 89 11 11 12
REMARK SMILES IDX 8 13 9 14 91 15 10 16 92 17 2 18 1 19 3 20 4 21 5 23 7 24
REMARK SMILES IDX 6 25 20 28 21 29 22 30 23 31 24 32 25 34 26 35 27 36 88 37
REMARK SMILES IDX 28 38 87 39 29 40 30 41 31 42 81 43 32 44 86 45 80 46 82 47
REMARK SMILES IDX 33 48 85 49 79 50 78 51 34 53 66 54 46 55 65 56 47 57 50 58
REMARK SMILES IDX 64 59 83 60 48 61 49 62 63 64 84 65 51 66 35 67 36 68 44 69
REMARK SMILES IDX 37 70 43 71 45 72 42 73 38 74 39 75 40 76 41 77 67 78 68 79
REMARK SMILES IDX 76 80 69 81 75 82 77 83 74 84 70 85 71 86 72 87 73 88 52 89
REMARK SMILES IDX 53 90 61 91 54 92 60 93 62 94 59 95 55 96 56 97 57 98 58 99
REMARK H PARENT 18 5 4 22 6 26 6 27 23 33 82 52 50 63
REMARK Flexibility Score: inf
ROOT
ATOM      1  C   UNL A   1      31.657  30.325  26.203  1.00  0.00     0.116 C 
ENDROOT
BRANCH   1   2
ATOM      2  N   UNL A   1      31.049  30.312  24.881  1.00  0.00    -0.352 N 
ATOM      3  C   UNL A   1      30.895  29.333  23.928  1.00  0.00     0.251 C 
ATOM      4  O   UNL A   1      30.266  29.620  22.910  1.00  0.00    -0.269 OA
ATOM      5  H   UNL A   1      30.670  31.182  24.616  1.00  0.00     0.163 HD
BRANCH   3   6
ATOM      6  C   UNL A   1      31.402  27.939  24.088  1.00  0.00     0.039 A 
ATOM      7  C   UNL A   1      32.387  25.398  24.696  1.00  0.00     0.067 A 
ATOM      8  C   UNL A   1      31.152  25.780  25.214  1.00  0.00     0.029 A 
ATOM      9  C   UNL A   1      33.071  26.211  23.793  1.00  0.00     0.029 A 
ATOM     10  C   UNL A   1      30.677  27.067  24.927  1.00  0.00     0.016 A 
ATOM     11  C   UNL A   1      32.549  27.457  23.458  1.00  0.00     0.016 A 
BRANCH   7  12
ATOM     12  N   UNL A   1      33.039  24.254  25.179  1.00  0.00    -0.217 N 
ATOM     13  C   UNL A   1      33.682  22.216  25.556  1.00  0.00     0.132 A 
ATOM     14  N   UNL A   1      34.228  23.039  26.511  1.00  0.00    -0.128 NA
ATOM     15  C   UNL A   1      32.941  22.973  24.672  1.00  0.00     0.071 A 
ATOM     16  N   UNL A   1      33.886  24.291  26.227  1.00  0.00    -0.061 NA
ATOM     17  C   UNL A   1      32.278  22.634  23.391  1.00  0.00     0.069 C 
BRANCH  13  18
ATOM     18  C   UNL A   1      34.041  20.814  25.436  1.00  0.00     0.087 C 
ATOM     19  C   UNL A   1      35.453  20.534  24.997  1.00  0.00     0.071 C 
ATOM     20  N   UNL A   1      33.114  19.963  25.768  1.00  0.00    -0.176 NA
BRANCH  20  21
ATOM     21  N   UNL A   1      33.329  18.615  25.773  1.00  0.00    -0.254 N 
ATOM     22  H   UNL A   1      33.231  18.172  26.647  1.00  0.00     0.193 HD
BRANCH  21  23
ATOM     23  C   UNL A   1      33.665  17.784  24.723  1.00  0.00     0.184 C 
ATOM     24  S   UNL A   1      33.018  17.678  23.196  1.00  0.00    -0.040 S 
BRANCH  23  25
ATOM     25  N   UNL A   1      34.693  16.937  25.046  1.00  0.00    -0.375 N 
ATOM     26  H   UNL A   1      34.932  16.791  25.991  1.00  0.00     0.159 HD
ATOM     27  H   UNL A   1      35.192  16.476  24.335  1.00  0.00     0.159 HD
ENDBRANCH  23  25
ENDBRANCH  21  23
ENDBRANCH  20  21
ENDBRANCH  13  18
ENDBRANCH   7  12
ENDBRANCH   3   6
ENDBRANCH   1   2
BRANCH   1  28
ATOM     28  C   UNL A   1      33.170  30.081  26.134  1.00  0.00     0.023 C 
BRANCH  28  29
ATOM     29  C   UNL A   1      33.695  28.951  27.032  1.00  0.00     0.023 C 
BRANCH  29  30
ATOM     30  C   UNL A   1      35.179  29.035  27.377  1.00  0.00     0.116 C 
BRANCH  30  31
ATOM     31  N   UNL A   1      35.439  29.848  28.559  1.00  0.00    -0.352 N 
ATOM     32  C   UNL A   1      36.492  29.740  29.450  1.00  0.00     0.251 C 
ATOM     33  H   UNL A   1      34.785  30.560  28.746  1.00  0.00     0.163 HD
ATOM     34  O   UNL A   1      36.365  30.149  30.595  1.00  0.00    -0.269 OA
BRANCH  32  35
ATOM     35  C   UNL A   1      37.758  29.120  29.004  1.00  0.00     0.039 A 
ATOM     36  C   UNL A   1      38.436  29.623  27.895  1.00  0.00     0.014 A 
ATOM     37  C   UNL A   1      38.273  28.027  29.705  1.00  0.00     0.014 A 
ATOM     38  C   UNL A   1      39.680  29.085  27.567  1.00  0.00     0.010 A 
ATOM     39  C   UNL A   1      39.548  27.558  29.441  1.00  0.00     0.010 A 
ATOM     40  C   UNL A   1      40.261  28.079  28.369  1.00  0.00    -0.014 A 
BRANCH  40  41
ATOM     41  C   UNL A   1      41.682  27.747  28.190  1.00  0.00     0.031 A 
ATOM     42  C   UNL A   1      41.894  26.493  27.421  1.00  0.00     0.074 A 
ATOM     43  C   UNL A   1      42.752  28.503  28.526  1.00  0.00     0.049 A 
ATOM     44  N   UNL A   1      42.228  25.349  27.915  1.00  0.00    -0.248 NA
ATOM     45  C   UNL A   1      41.510  26.436  26.003  1.00  0.00     0.031 C 
ATOM     46  C   UNL A   1      42.773  29.860  29.070  1.00  0.00     0.029 A 
ATOM     47  N   UNL A   1      44.085  28.223  28.377  1.00  0.00    -0.354 N 
ATOM     48  C   UNL A   1      42.374  24.494  26.834  1.00  0.00     0.074 A 
ATOM     49  C   UNL A   1      41.714  25.143  25.732  1.00  0.00     0.031 C 
ATOM     50  C   UNL A   1      44.030  30.359  29.006  1.00  0.00     0.029 A 
ATOM     51  C   UNL A   1      44.937  29.314  28.558  1.00  0.00     0.049 A 
ATOM     52  H   UNL A   1      44.417  27.321  28.161  1.00  0.00     0.167 HD
ATOM     53  C   UNL A   1      43.256  23.459  26.895  1.00  0.00     0.034 A 
ATOM     54  C   UNL A   1      46.286  29.369  28.366  1.00  0.00     0.034 A 
ATOM     55  C   UNL A   1      43.637  23.181  28.268  1.00  0.00     0.049 A 
ATOM     56  C   UNL A   1      46.796  27.987  28.544  1.00  0.00     0.074 A 
ATOM     57  C   UNL A   1      42.924  22.941  29.432  1.00  0.00     0.029 A 
ATOM     58  N   UNL A   1      44.899  23.543  28.690  1.00  0.00    -0.354 N 
ATOM     59  N   UNL A   1      46.765  27.364  29.690  1.00  0.00    -0.248 NA
ATOM     60  C   UNL A   1      46.875  27.127  27.375  1.00  0.00     0.031 C 
ATOM     61  C   UNL A   1      43.603  23.695  30.435  1.00  0.00     0.029 A 
ATOM     62  C   UNL A   1      44.750  24.247  29.862  1.00  0.00     0.049 A 
ATOM     63  H   UNL A   1      45.748  23.335  28.238  1.00  0.00     0.167 HD
ATOM     64  C   UNL A   1      46.343  26.081  29.382  1.00  0.00     0.074 A 
ATOM     65  C   UNL A   1      46.523  25.965  27.934  1.00  0.00     0.031 C 
ATOM     66  C   UNL A   1      45.624  25.332  30.272  1.00  0.00     0.034 A 
BRANCH  53  67
ATOM     67  C   UNL A   1      44.078  22.974  25.720  1.00  0.00     0.023 A 
ATOM     68  C   UNL A   1      44.105  21.587  25.492  1.00  0.00     0.031 A 
ATOM     69  C   UNL A   1      45.056  23.729  25.032  1.00  0.00     0.131 A 
ATOM     70  C   UNL A   1      45.136  21.000  24.739  1.00  0.00     0.055 A 
ATOM     71  C   UNL A   1      46.033  23.147  24.219  1.00  0.00     0.041 A 
ATOM     72  F   UNL A   1      45.190  25.052  25.174  1.00  0.00    -0.206 F 
ATOM     73  C   UNL A   1      46.102  21.771  24.099  1.00  0.00     0.022 A 
BRANCH  70  74
ATOM     74  S   UNL A   1      45.302  19.199  24.786  1.00  0.00     0.124 S 
ATOM     75  O   UNL A   1      46.606  19.050  25.424  1.00  0.00    -0.237 OA
ATOM     76  O   UNL A   1      44.146  18.812  25.587  1.00  0.00    -0.237 OA
ATOM     77  O   UNL A   1      45.243  18.816  23.379  1.00  0.00    -0.744 OA
ENDBRANCH  70  74
ENDBRANCH  53  67
BRANCH  54  78
ATOM     78  C   UNL A   1      47.103  30.484  27.791  1.00  0.00     0.023 A 
ATOM     79  C   UNL A   1      46.546  31.578  27.083  1.00  0.00     0.031 A 
ATOM     80  C   UNL A   1      48.458  30.611  28.168  1.00  0.00     0.131 A 
ATOM     81  C   UNL A   1      47.333  32.724  26.793  1.00  0.00     0.055 A 
ATOM     82  C   UNL A   1      49.228  31.743  27.881  1.00  0.00     0.041 A 
ATOM     83  F   UNL A   1      49.066  29.673  28.910  1.00  0.00    -0.206 F 
ATOM     84  C   UNL A   1      48.665  32.809  27.203  1.00  0.00     0.022 A 
BRANCH  81  85
ATOM     85  S   UNL A   1      46.615  34.183  25.958  1.00  0.00     0.124 S 
ATOM     86  O   UNL A   1      46.204  35.016  27.082  1.00  0.00    -0.237 OA
ATOM     87  O   UNL A   1      47.732  34.672  25.158  1.00  0.00    -0.237 OA
ATOM     88  O   UNL A   1      45.510  33.621  25.178  1.00  0.00    -0.744 OA
ENDBRANCH  81  85
ENDBRANCH  54  78
BRANCH  66  89
ATOM     89  C   UNL A   1      45.564  25.762  31.729  1.00  0.00     0.023 A 
ATOM     90  C   UNL A   1      46.513  25.434  32.725  1.00  0.00     0.031 A 
ATOM     91  C   UNL A   1      44.523  26.638  32.096  1.00  0.00     0.131 A 
ATOM     92  C   UNL A   1      46.386  25.964  34.027  1.00  0.00     0.055 A 
ATOM     93  C   UNL A   1      44.417  27.182  33.375  1.00  0.00     0.041 A 
ATOM     94  F   UNL A   1      43.593  27.008  31.200  1.00  0.00    -0.206 F 
ATOM     95  C   UNL A   1      45.345  26.839  34.350  1.00  0.00     0.022 A 
BRANCH  92  96
ATOM     96  S   UNL A   1      47.555  25.495  35.347  1.00  0.00     0.124 S 
ATOM     97  O   UNL A   1      47.376  24.053  35.468  1.00  0.00    -0.237 OA
ATOM     98  O   UNL A   1      48.836  25.938  34.805  1.00  0.00    -0.237 OA
ATOM     99  O   UNL A   1      47.086  26.265  36.501  1.00  0.00    -0.744 OA
ENDBRANCH  92  96
ENDBRANCH  66  89
ENDBRANCH  40  41
ENDBRANCH  32  35
ENDBRANCH  30  31
ENDBRANCH  29  30
ENDBRANCH  28  29
ENDBRANCH   1  28
TORSDOF 19
ENDMDL
MODEL 2
REMARK VINA RESULT:     -12.1      4.153      9.339
REMARK SMILES C/C(=N\NC(N)=S)c1nnn(-c2ccc(C(=O)NCCCCNC(=O)c3ccc(-c4c5nc(c(-c6cc(S(=O)(=O)[O-])ccc6F)c6ccc([nH]6)c(-c6cc(S(=O)(=O)[O-])ccc6F)c6nc(c(-c7cc(S(=O)(=O)[O-])ccc7F)c7ccc4[nH]7)C=C6)C=C5)cc3)cc2)c1C
REMARK SMILES IDX 19 1 18 2 16 3 17 4 15 6 12 7 13 8 90 9 14 10 89 11 11 12
REMARK SMILES IDX 8 13 9 14 91 15 10 16 92 17 2 18 1 19 3 20 4 21 5 23 7 24
REMARK SMILES IDX 6 25 20 28 21 29 22 30 23 31 24 32 25 34 26 35 27 36 88 37
REMARK SMILES IDX 28 38 87 39 29 40 30 41 31 42 81 43 32 44 86 45 80 46 82 47
REMARK SMILES IDX 33 48 85 49 79 50 78 51 34 53 66 54 46 55 65 56 47 57 50 58
REMARK SMILES IDX 64 59 83 60 48 61 49 62 63 64 84 65 51 66 35 67 36 68 44 69
REMARK SMILES IDX 37 70 43 71 45 72 42 73 38 74 39 75 40 76 41 77 67 78 68 79
REMARK SMILES IDX 76 80 69 81 75 82 77 83 74 84 70 85 71 86 72 87 73 88 52 89
REMARK SMILES IDX 53 90 61 91 54 92 60 93 62 94 59 95 55 96 56 97 57 98 58 99
REMARK H PARENT 18 5 4 22 6 26 6 27 23 33 82 52 50 63
REMARK Flexibility Score: inf
ROOT
ATOM      1  C   UNL A   1      36.574  20.777  24.626  1.00  0.00     0.116 C 
ENDROOT
BRANCH   1   2
ATOM      2  N   UNL A   1      35.393  20.025  25.018  1.00  0.00    -0.352 N 
ATOM      3  C   UNL A   1      34.068  20.365  25.161  1.00  0.00     0.251 C 
ATOM      4  O   UNL A   1      33.276  19.468  25.454  1.00  0.00    -0.269 OA
ATOM      5  H   UNL A   1      35.580  19.080  25.221  1.00  0.00     0.163 HD
BRANCH   3   6
ATOM      6  C   UNL A   1      33.539  21.740  24.931  1.00  0.00     0.039 A 
ATOM      7  C   UNL A   1      32.754  24.333  24.257  1.00  0.00     0.067 A 
ATOM      8  C   UNL A   1      32.481  23.297  23.367  1.00  0.00     0.029 A 
ATOM      9  C   UNL A   1      33.299  24.077  25.515  1.00  0.00     0.029 A 
ATOM     10  C   UNL A   1      32.903  22.004  23.700  1.00  0.00     0.016 A 
ATOM     11  C   UNL A   1      33.644  22.774  25.861  1.00  0.00     0.016 A 
BRANCH   7  12
ATOM     12  N   UNL A   1      32.622  25.670  23.855  1.00  0.00    -0.217 N 
ATOM     13  C   UNL A   1      31.858  27.646  23.379  1.00  0.00     0.132 A 
ATOM     14  N   UNL A   1      33.131  27.528  22.877  1.00  0.00    -0.128 NA
ATOM     15  C   UNL A   1      31.519  26.481  24.037  1.00  0.00     0.071 A 
ATOM     16  N   UNL A   1      33.613  26.343  23.237  1.00  0.00    -0.061 NA
ATOM     17  C   UNL A   1      30.354  26.123  24.881  1.00  0.00     0.069 C 
BRANCH  13  18
ATOM     18  C   UNL A   1      31.125  28.899  23.363  1.00  0.00     0.087 C 
ATOM     19  C   UNL A   1      31.135  29.681  24.649  1.00  0.00     0.071 C 
ATOM     20  N   UNL A   1      30.585  29.223  22.225  1.00  0.00    -0.176 NA
BRANCH  20  21
ATOM     21  N   UNL A   1      29.926  30.405  22.041  1.00  0.00    -0.254 N 
ATOM     22  H   UNL A   1      30.491  31.172  21.791  1.00  0.00     0.193 HD
BRANCH  21  23
ATOM     23  C   UNL A   1      28.576  30.676  22.155  1.00  0.00     0.184 C 
ATOM     24  S   UNL A   1      27.706  31.230  23.458  1.00  0.00    -0.040 S 
BRANCH  23  25
ATOM     25  N   UNL A   1      27.902  30.430  20.988  1.00  0.00    -0.375 N 
ATOM     26  H   UNL A   1      27.014  30.004  21.013  1.00  0.00     0.159 HD
ATOM     27  H   UNL A   1      28.305  30.679  20.126  1.00  0.00     0.159 HD
ENDBRANCH  23  25
ENDBRANCH  21  23
ENDBRANCH  20  21
ENDBRANCH  13  18
ENDBRANCH   7  12
ENDBRANCH   3   6
ENDBRANCH   1   2
BRANCH   1  28
ATOM     28  C   UNL A   1      37.334  21.318  25.844  1.00  0.00     0.023 C 
BRANCH  28  29
ATOM     29  C   UNL A   1      38.744  21.852  25.557  1.00  0.00     0.023 C 
BRANCH  29  30
ATOM     30  C   UNL A   1      39.748  21.673  26.691  1.00  0.00     0.116 C 
BRANCH  30  31
ATOM     31  N   UNL A   1      41.132  21.758  26.239  1.00  0.00    -0.352 N 
ATOM     32  C   UNL A   1      41.920  22.888  26.123  1.00  0.00     0.251 C 
ATOM     33  H   UNL A   1      41.556  20.906  25.985  1.00  0.00     0.163 HD
ATOM     34  O   UNL A   1      42.858  22.898  25.339  1.00  0.00    -0.269 OA
BRANCH  32  35
ATOM     35  C   UNL A   1      41.609  24.077  26.946  1.00  0.00     0.039 A 
ATOM     36  C   UNL A   1      42.473  24.473  27.965  1.00  0.00     0.014 A 
ATOM     37  C   UNL A   1      40.444  24.804  26.692  1.00  0.00     0.014 A 
ATOM     38  C   UNL A   1      42.206  25.658  28.650  1.00  0.00     0.010 A 
ATOM     39  C   UNL A   1      40.230  26.028  27.301  1.00  0.00     0.010 A 
ATOM     40  C   UNL A   1      41.105  26.464  28.287  1.00  0.00    -0.014 A 
BRANCH  40  41
ATOM     41  C   UNL A   1      41.018  27.837  28.804  1.00  0.00     0.031 A 
ATOM     42  C   UNL A   1      42.037  28.746  28.217  1.00  0.00     0.074 A 
ATOM     43  C   UNL A   1      40.068  28.351  29.619  1.00  0.00     0.049 A 
ATOM     44  N   UNL A   1      43.114  29.153  28.799  1.00  0.00    -0.248 NA
ATOM     45  C   UNL A   1      41.973  29.082  26.787  1.00  0.00     0.031 C 
ATOM     46  C   UNL A   1      38.855  27.708  30.122  1.00  0.00     0.029 A 
ATOM     47  N   UNL A   1      39.960  29.622  30.121  1.00  0.00    -0.354 N 
ATOM     48  C   UNL A   1      43.722  30.024  27.909  1.00  0.00     0.074 A 
ATOM     49  C   UNL A   1      43.108  29.771  26.633  1.00  0.00     0.031 C 
ATOM     50  C   UNL A   1      38.038  28.638  30.670  1.00  0.00     0.029 A 
ATOM     51  C   UNL A   1      38.724  29.920  30.697  1.00  0.00     0.049 A 
ATOM     52  H   UNL A   1      40.697  30.273  30.080  1.00  0.00     0.167 HD
ATOM     53  C   UNL A   1      44.484  31.054  28.373  1.00  0.00     0.034 A 
ATOM     54  C   UNL A   1      38.286  31.121  31.174  1.00  0.00     0.034 A 
ATOM     55  C   UNL A   1      44.861  30.838  29.758  1.00  0.00     0.049 A 
ATOM     56  C   UNL A   1      39.494  31.890  31.559  1.00  0.00     0.074 A 
ATOM     57  C   UNL A   1      45.458  29.788  30.438  1.00  0.00     0.029 A 
ATOM     58  N   UNL A   1      44.249  31.594  30.735  1.00  0.00    -0.354 N 
ATOM     59  N   UNL A   1      40.273  31.537  32.544  1.00  0.00    -0.248 NA
ATOM     60  C   UNL A   1      40.111  32.747  30.560  1.00  0.00     0.031 C 
ATOM     61  C   UNL A   1      44.716  29.673  31.652  1.00  0.00     0.029 A 
ATOM     62  C   UNL A   1      43.799  30.725  31.701  1.00  0.00     0.049 A 
ATOM     63  H   UNL A   1      44.153  32.574  30.741  1.00  0.00     0.167 HD
ATOM     64  C   UNL A   1      41.558  31.716  32.059  1.00  0.00     0.074 A 
ATOM     65  C   UNL A   1      41.397  32.556  30.872  1.00  0.00     0.031 C 
ATOM     66  C   UNL A   1      42.599  30.940  32.490  1.00  0.00     0.034 A 
BRANCH  53  67
ATOM     67  C   UNL A   1      44.547  32.421  27.728  1.00  0.00     0.023 A 
ATOM     68  C   UNL A   1      43.935  33.480  28.420  1.00  0.00     0.031 A 
ATOM     69  C   UNL A   1      44.876  32.680  26.377  1.00  0.00     0.131 A 
ATOM     70  C   UNL A   1      43.556  34.656  27.752  1.00  0.00     0.055 A 
ATOM     71  C   UNL A   1      44.568  33.883  25.736  1.00  0.00     0.041 A 
ATOM     72  F   UNL A   1      45.423  31.764  25.571  1.00  0.00    -0.206 F 
ATOM     73  C   UNL A   1      43.868  34.867  26.412  1.00  0.00     0.022 A 
BRANCH  70  74
ATOM     74  S   UNL A   1      42.468  35.813  28.618  1.00  0.00     0.124 S 
ATOM     75  O   UNL A   1      41.153  35.314  28.227  1.00  0.00    -0.237 OA
ATOM     76  O   UNL A   1      42.850  35.600  30.010  1.00  0.00    -0.237 OA
ATOM     77  O   UNL A   1      42.839  37.110  28.061  1.00  0.00    -0.744 OA
ENDBRANCH  70  74
ENDBRANCH  53  67
BRANCH  54  78
ATOM     78  C   UNL A   1      36.920  31.724  31.070  1.00  0.00     0.023 A 
ATOM     79  C   UNL A   1      36.206  32.243  32.180  1.00  0.00     0.031 A 
ATOM     80  C   UNL A   1      36.397  32.031  29.795  1.00  0.00     0.131 A 
ATOM     81  C   UNL A   1      35.041  33.031  31.982  1.00  0.00     0.055 A 
ATOM     82  C   UNL A   1      35.250  32.809  29.607  1.00  0.00     0.041 A 
ATOM     83  F   UNL A   1      37.033  31.660  28.673  1.00  0.00    -0.206 F 
ATOM     84  C   UNL A   1      34.574  33.322  30.699  1.00  0.00     0.022 A 
BRANCH  81  85
ATOM     85  S   UNL A   1      34.154  33.784  33.392  1.00  0.00     0.124 S 
ATOM     86  O   UNL A   1      35.033  33.477  34.515  1.00  0.00    -0.237 OA
ATOM     87  O   UNL A   1      34.065  35.185  32.999  1.00  0.00    -0.237 OA
ATOM     88  O   UNL A   1      32.873  33.075  33.408  1.00  0.00    -0.744 OA
ENDBRANCH  81  85
ENDBRANCH  54  78
BRANCH  66  89
ATOM     89  C   UNL A   1      42.431  30.100  33.746  1.00  0.00     0.023 A 
ATOM     90  C   UNL A   1      42.457  28.687  33.802  1.00  0.00     0.031 A 
ATOM     91  C   UNL A   1      42.333  30.791  34.970  1.00  0.00     0.131 A 
ATOM     92  C   UNL A   1      42.369  28.025  35.045  1.00  0.00     0.055 A 
ATOM     93  C   UNL A   1      42.276  30.133  36.199  1.00  0.00     0.041 A 
ATOM     94  F   UNL A   1      42.319  32.134  34.998  1.00  0.00    -0.206 F 
ATOM     95  C   UNL A   1      42.284  28.746  36.240  1.00  0.00     0.022 A 
BRANCH  92  96
ATOM     96  S   UNL A   1      42.326  26.204  35.136  1.00  0.00     0.124 S 
ATOM     97  O   UNL A   1      43.044  25.783  33.939  1.00  0.00    -0.237 OA
ATOM     98  O   UNL A   1      42.990  25.935  36.408  1.00  0.00    -0.237 OA
ATOM     99  O   UNL A   1      40.893  25.900  35.124  1.00  0.00    -0.744 OA
ENDBRANCH  92  96
ENDBRANCH  66  89
ENDBRANCH  40  41
ENDBRANCH  32  35
ENDBRANCH  30  31
ENDBRANCH  29  30
ENDBRANCH  28  29
ENDBRANCH   1  28
TORSDOF 19
ENDMDL
MODEL 3
REMARK VINA RESULT:     -11.7      4.837     10.968
REMARK SMILES C/C(=N\NC(N)=S)c1nnn(-c2ccc(C(=O)NCCCCNC(=O)c3ccc(-c4c5nc(c(-c6cc(S(=O)(=O)[O-])ccc6F)c6ccc([nH]6)c(-c6cc(S(=O)(=O)[O-])ccc6F)c6nc(c(-c7cc(S(=O)(=O)[O-])ccc7F)c7ccc4[nH]7)C=C6)C=C5)cc3)cc2)c1C
REMARK SMILES IDX 19 1 18 2 16 3 17 4 15 6 12 7 13 8 90 9 14 10 89 11 11 12
REMARK SMILES IDX 8 13 9 14 91 15 10 16 92 17 2 18 1 19 3 20 4 21 5 23 7 24
REMARK SMILES IDX 6 25 20 28 21 29 22 30 23 31 24 32 25 34 26 35 27 36 88 37
REMARK SMILES IDX 28 38 87 39 29 40 30 41 31 42 81 43 32 44 86 45 80 46 82 47
REMARK SMILES IDX 33 48 85 49 79 50 78 51 34 53 66 54 46 55 65 56 47 57 50 58
REMARK SMILES IDX 64 59 83 60 48 61 49 62 63 64 84 65 51 66 35 67 36 68 44 69
REMARK SMILES IDX 37 70 43 71 45 72 42 73 38 74 39 75 40 76 41 77 67 78 68 79
REMARK SMILES IDX 76 80 69 81 75 82 77 83 74 84 70 85 71 86 72 87 73 88 52 89
REMARK SMILES IDX 53 90 61 91 54 92 60 93 62 94 59 95 55 96 56 97 57 98 58 99
REMARK H PARENT 18 5 4 22 6 26 6 27 23 33 82 52 50 63
REMARK Flexibility Score: inf
ROOT
ATOM      1  C   UNL A   1      36.890  21.567  24.440  1.00  0.00     0.116 C 
ENDROOT
BRANCH   1   2
ATOM      2  N   UNL A   1      36.061  20.395  24.671  1.00  0.00    -0.352 N 
ATOM      3  C   UNL A   1      34.713  20.226  24.882  1.00  0.00     0.251 C 
ATOM      4  O   UNL A   1      34.290  19.074  24.986  1.00  0.00    -0.269 OA
ATOM      5  H   UNL A   1      36.568  19.551  24.675  1.00  0.00     0.163 HD
BRANCH   3   6
ATOM      6  C   UNL A   1      33.738  21.353  24.940  1.00  0.00     0.039 A 
ATOM      7  C   UNL A   1      32.085  23.600  24.816  1.00  0.00     0.067 A 
ATOM      8  C   UNL A   1      32.119  22.731  23.727  1.00  0.00     0.029 A 
ATOM      9  C   UNL A   1      32.764  23.301  25.997  1.00  0.00     0.029 A 
ATOM     10  C   UNL A   1      32.972  21.621  23.787  1.00  0.00     0.016 A 
ATOM     11  C   UNL A   1      33.549  22.154  26.066  1.00  0.00     0.016 A 
BRANCH   7  12
ATOM     12  N   UNL A   1      31.485  24.862  24.700  1.00  0.00    -0.217 N 
ATOM     13  C   UNL A   1      31.106  26.979  24.403  1.00  0.00     0.132 A 
ATOM     14  N   UNL A   1      29.987  26.399  24.950  1.00  0.00    -0.128 NA
ATOM     15  C   UNL A   1      32.070  26.011  24.204  1.00  0.00     0.071 A 
ATOM     16  N   UNL A   1      30.206  25.093  25.059  1.00  0.00    -0.061 NA
ATOM     17  C   UNL A   1      33.382  26.046  23.516  1.00  0.00     0.069 C 
BRANCH  13  18
ATOM     18  C   UNL A   1      31.126  28.355  23.941  1.00  0.00     0.087 C 
ATOM     19  C   UNL A   1      31.998  29.297  24.727  1.00  0.00     0.071 C 
ATOM     20  N   UNL A   1      30.425  28.604  22.874  1.00  0.00    -0.176 NA
BRANCH  20  21
ATOM     21  N   UNL A   1      30.405  29.835  22.285  1.00  0.00    -0.254 N 
ATOM     22  H   UNL A   1      31.223  30.087  21.799  1.00  0.00     0.193 HD
BRANCH  21  23
ATOM     23  C   UNL A   1      29.396  30.779  22.275  1.00  0.00     0.184 C 
ATOM     24  S   UNL A   1      28.534  31.432  23.536  1.00  0.00    -0.040 S 
BRANCH  23  25
ATOM     25  N   UNL A   1      29.104  31.204  21.006  1.00  0.00    -0.375 N 
ATOM     26  H   UNL A   1      29.238  32.149  20.760  1.00  0.00     0.159 HD
ATOM     27  H   UNL A   1      28.758  30.567  20.341  1.00  0.00     0.159 HD
ENDBRANCH  23  25
ENDBRANCH  21  23
ENDBRANCH  20  21
ENDBRANCH  13  18
ENDBRANCH   7  12
ENDBRANCH   3   6
ENDBRANCH   1   2
BRANCH   1  28
ATOM     28  C   UNL A   1      37.535  22.071  25.739  1.00  0.00     0.023 C 
BRANCH  28  29
ATOM     29  C   UNL A   1      36.904  23.335  26.339  1.00  0.00     0.023 C 
BRANCH  29  30
ATOM     30  C   UNL A   1      37.756  24.596  26.237  1.00  0.00     0.116 C 
BRANCH  30  31
ATOM     31  N   UNL A   1      39.186  24.314  26.247  1.00  0.00    -0.352 N 
ATOM     32  C   UNL A   1      40.217  25.161  26.612  1.00  0.00     0.251 C 
ATOM     33  H   UNL A   1      39.451  23.410  25.959  1.00  0.00     0.163 HD
ATOM     34  O   UNL A   1      41.340  24.982  26.164  1.00  0.00    -0.269 OA
BRANCH  32  35
ATOM     35  C   UNL A   1      39.940  26.284  27.534  1.00  0.00     0.039 A 
ATOM     36  C   UNL A   1      39.499  26.035  28.833  1.00  0.00     0.014 A 
ATOM     37  C   UNL A   1      40.130  27.597  27.097  1.00  0.00     0.014 A 
ATOM     38  C   UNL A   1      39.353  27.109  29.710  1.00  0.00     0.010 A 
ATOM     39  C   UNL A   1      40.079  28.652  27.991  1.00  0.00     0.010 A 
ATOM     40  C   UNL A   1      39.687  28.419  29.303  1.00  0.00    -0.014 A 
BRANCH  40  41
ATOM     41  C   UNL A   1      39.818  29.475  30.317  1.00  0.00     0.031 A 
ATOM     42  C   UNL A   1      38.546  30.202  30.567  1.00  0.00     0.074 A 
ATOM     43  C   UNL A   1      40.893  29.743  31.092  1.00  0.00     0.049 A 
ATOM     44  N   UNL A   1      38.249  31.380  30.133  1.00  0.00    -0.248 NA
ATOM     45  C   UNL A   1      37.414  29.495  31.182  1.00  0.00     0.031 C 
ATOM     46  C   UNL A   1      42.156  29.011  31.181  1.00  0.00     0.029 A 
ATOM     47  N   UNL A   1      41.050  30.720  32.040  1.00  0.00    -0.354 N 
ATOM     48  C   UNL A   1      37.002  31.678  30.659  1.00  0.00     0.074 A 
ATOM     49  C   UNL A   1      36.454  30.421  31.097  1.00  0.00     0.031 C 
ATOM     50  C   UNL A   1      42.853  29.431  32.264  1.00  0.00     0.029 A 
ATOM     51  C   UNL A   1      42.165  30.563  32.865  1.00  0.00     0.049 A 
ATOM     52  H   UNL A   1      40.425  31.475  32.132  1.00  0.00     0.167 HD
ATOM     53  C   UNL A   1      36.661  32.970  30.922  1.00  0.00     0.034 A 
ATOM     54  C   UNL A   1      42.516  31.303  33.956  1.00  0.00     0.034 A 
ATOM     55  C   UNL A   1      37.543  33.891  30.229  1.00  0.00     0.049 A 
ATOM     56  C   UNL A   1      41.907  32.642  33.773  1.00  0.00     0.074 A 
ATOM     57  C   UNL A   1      37.946  34.026  28.910  1.00  0.00     0.029 A 
ATOM     58  N   UNL A   1      38.484  34.583  30.963  1.00  0.00    -0.354 N 
ATOM     59  N   UNL A   1      42.272  33.463  32.827  1.00  0.00    -0.248 NA
ATOM     60  C   UNL A   1      40.574  32.870  34.306  1.00  0.00     0.031 C 
ATOM     61  C   UNL A   1      39.347  34.287  28.984  1.00  0.00     0.029 A 
ATOM     62  C   UNL A   1      39.694  34.420  30.330  1.00  0.00     0.049 A 
ATOM     63  H   UNL A   1      38.321  35.098  31.785  1.00  0.00     0.167 HD
ATOM     64  C   UNL A   1      41.087  33.978  32.328  1.00  0.00     0.074 A 
ATOM     65  C   UNL A   1      40.082  33.654  33.341  1.00  0.00     0.031 C 
ATOM     66  C   UNL A   1      40.969  34.363  31.021  1.00  0.00     0.034 A 
BRANCH  53  67
ATOM     67  C   UNL A   1      35.814  33.401  32.099  1.00  0.00     0.023 A 
ATOM     68  C   UNL A   1      34.782  34.320  31.839  1.00  0.00     0.031 A 
ATOM     69  C   UNL A   1      36.146  33.222  33.462  1.00  0.00     0.131 A 
ATOM     70  C   UNL A   1      34.233  35.101  32.870  1.00  0.00     0.055 A 
ATOM     71  C   UNL A   1      35.541  33.945  34.494  1.00  0.00     0.041 A 
ATOM     72  F   UNL A   1      37.132  32.417  33.873  1.00  0.00    -0.206 F 
ATOM     73  C   UNL A   1      34.606  34.920  34.198  1.00  0.00     0.022 A 
BRANCH  70  74
ATOM     74  S   UNL A   1      33.176  36.494  32.409  1.00  0.00     0.124 S 
ATOM     75  O   UNL A   1      33.656  37.529  33.320  1.00  0.00    -0.237 OA
ATOM     76  O   UNL A   1      33.510  36.671  31.000  1.00  0.00    -0.237 OA
ATOM     77  O   UNL A   1      31.828  36.000  32.675  1.00  0.00    -0.744 OA
ENDBRANCH  70  74
ENDBRANCH  53  67
BRANCH  54  78
ATOM     78  C   UNL A   1      43.120  30.838  35.244  1.00  0.00     0.023 A 
ATOM     79  C   UNL A   1      43.085  29.491  35.685  1.00  0.00     0.031 A 
ATOM     80  C   UNL A   1      43.984  31.702  35.953  1.00  0.00     0.131 A 
ATOM     81  C   UNL A   1      43.892  29.067  36.773  1.00  0.00     0.055 A 
ATOM     82  C   UNL A   1      44.777  31.279  37.023  1.00  0.00     0.041 A 
ATOM     83  F   UNL A   1      44.158  32.977  35.573  1.00  0.00    -0.206 F 
ATOM     84  C   UNL A   1      44.744  29.957  37.430  1.00  0.00     0.022 A 
BRANCH  81  85
ATOM     85  S   UNL A   1      43.929  27.319  37.304  1.00  0.00     0.124 S 
ATOM     86  O   UNL A   1      42.514  26.966  37.322  1.00  0.00    -0.237 OA
ATOM     87  O   UNL A   1      44.744  26.691  36.270  1.00  0.00    -0.237 OA
ATOM     88  O   UNL A   1      44.561  27.375  38.624  1.00  0.00    -0.744 OA
ENDBRANCH  81  85
ENDBRANCH  54  78
BRANCH  66  89
ATOM     89  C   UNL A   1      42.225  34.547  30.184  1.00  0.00     0.023 A 
ATOM     90  C   UNL A   1      42.983  35.737  30.086  1.00  0.00     0.031 A 
ATOM     91  C   UNL A   1      42.727  33.409  29.522  1.00  0.00     0.131 A 
ATOM     92  C   UNL A   1      44.178  35.757  29.336  1.00  0.00     0.055 A 
ATOM     93  C   UNL A   1      43.923  33.425  28.806  1.00  0.00     0.041 A 
ATOM     94  F   UNL A   1      42.070  32.239  29.583  1.00  0.00    -0.206 F 
ATOM     95  C   UNL A   1      44.649  34.604  28.702  1.00  0.00     0.022 A 
BRANCH  92  96
ATOM     96  S   UNL A   1      45.132  37.299  29.134  1.00  0.00     0.124 S 
ATOM     97  O   UNL A   1      46.029  37.301  30.283  1.00  0.00    -0.237 OA
ATOM     98  O   UNL A   1      45.762  37.111  27.830  1.00  0.00    -0.237 OA
ATOM     99  O   UNL A   1      44.102  38.339  29.165  1.00  0.00    -0.744 OA
ENDBRANCH  92  96
ENDBRANCH  66  89
ENDBRANCH  40  41
ENDBRANCH  32  35
ENDBRANCH  30  31
ENDBRANCH  29  30
ENDBRANCH  28  29
ENDBRANCH   1  28
TORSDOF 19
ENDMDL
