MODEL 1
REMARK VINA RESULT:     -13.0      0.000      0.000
REMARK SMILES Cc1noc2c1-c1c(c(C(=O)NCCCCNC(=O)c3ccc(-c4c5nc(c(-c6cc(S(=O)(=O)[O-])ccc6F)c6ccc([nH]6)c(-c6cc(S(=O)(=O)[O-])ccc6F)c6nc(c(-c7cc(S(=O)(=O)[O-])ccc7F)c7ccc4[nH]7)C=C6)C=C5)cc3)nn1C)CC2
REMARK SMILES IDX 16 1 15 2 14 3 13 4 12 5 10 6 11 7 9 9 1 10 2 11 3 12 6 13
REMARK SMILES IDX 4 14 5 15 7 16 87 17 8 18 84 19 86 20 83 21 85 22 17 23
REMARK SMILES IDX 18 24 19 26 20 27 21 28 82 29 22 30 81 31 23 32 24 33 25 34
REMARK SMILES IDX 75 35 26 36 80 37 74 38 76 39 27 40 79 41 73 42 72 43 28 45
REMARK SMILES IDX 60 46 40 47 59 48 41 49 44 50 58 51 77 52 42 53 43 54 57 56
REMARK SMILES IDX 78 57 45 58 29 59 30 60 38 61 31 62 37 63 39 64 36 65 32 66
REMARK SMILES IDX 33 67 34 68 35 69 61 70 62 71 70 72 63 73 69 74 71 75 68 76
REMARK SMILES IDX 64 77 65 78 66 79 67 80 46 81 47 82 55 83 48 84 54 85 56 86
REMARK SMILES IDX 53 87 49 88 50 89 51 90 52 91
REMARK H PARENT 12 8 17 25 76 44 44 55
REMARK Flexibility Score: inf
ROOT
ATOM      1  C   UNL A   1      32.840  32.165  27.158  1.00  0.00     0.116 C 
ENDROOT
BRANCH   1   2
ATOM      2  C   UNL A   1      31.679  31.206  26.950  1.00  0.00     0.023 C 
BRANCH   2   3
ATOM      3  C   UNL A   1      31.807  30.271  25.750  1.00  0.00     0.023 C 
BRANCH   3   4
ATOM      4  C   UNL A   1      33.180  29.716  25.381  1.00  0.00     0.116 C 
BRANCH   4   5
ATOM      5  N   UNL A   1      33.503  29.497  24.001  1.00  0.00    -0.351 N 
ATOM      6  C   UNL A   1      33.520  28.290  23.313  1.00  0.00     0.272 C 
ATOM      7  O   UNL A   1      33.831  28.362  22.119  1.00  0.00    -0.267 OA
ATOM      8  H   UNL A   1      33.742  30.297  23.479  1.00  0.00     0.163 HD
BRANCH   6   9
ATOM      9  C   UNL A   1      33.273  26.971  23.982  1.00  0.00     0.154 A 
ATOM     10  C   UNL A   1      33.020  22.345  27.170  1.00  0.00     0.071 C 
ATOM     11  C   UNL A   1      31.872  23.232  26.890  1.00  0.00     0.090 A 
ATOM     12  N   UNL A   1      30.712  23.005  27.535  1.00  0.00    -0.084 NA
ATOM     13  C   UNL A   1      31.763  24.355  26.050  1.00  0.00     0.066 A 
ATOM     14  O   UNL A   1      29.819  23.964  27.076  1.00  0.00    -0.360 OA
ATOM     15  C   UNL A   1      30.458  24.750  26.186  1.00  0.00     0.146 A 
ATOM     16  C   UNL A   1      32.609  25.168  25.153  1.00  0.00     0.077 A 
ATOM     17  C   UNL A   1      29.742  25.825  25.468  1.00  0.00     0.084 C 
ATOM     18  C   UNL A   1      32.141  26.389  24.672  1.00  0.00     0.012 A 
ATOM     19  N   UNL A   1      33.853  25.002  24.644  1.00  0.00    -0.267 N 
ATOM     20  C   UNL A   1      30.747  26.896  24.987  1.00  0.00     0.048 C 
ATOM     21  N   UNL A   1      34.294  26.081  23.982  1.00  0.00    -0.167 NA
ATOM     22  C   UNL A   1      34.692  23.831  24.685  1.00  0.00     0.174 C 
ENDBRANCH   6   9
ENDBRANCH   4   5
ENDBRANCH   3   4
ENDBRANCH   2   3
ENDBRANCH   1   2
BRANCH   1  23
ATOM     23  N   UNL A   1      32.469  33.564  27.390  1.00  0.00    -0.352 N 
ATOM     24  C   UNL A   1      32.982  34.403  28.387  1.00  0.00     0.251 C 
ATOM     25  H   UNL A   1      31.794  33.952  26.787  1.00  0.00     0.163 HD
ATOM     26  O   UNL A   1      32.424  35.423  28.719  1.00  0.00    -0.269 OA
BRANCH  24  27
ATOM     27  C   UNL A   1      34.266  33.986  28.996  1.00  0.00     0.039 A 
ATOM     28  C   UNL A   1      34.360  33.199  30.147  1.00  0.00     0.014 A 
ATOM     29  C   UNL A   1      35.390  34.296  28.247  1.00  0.00     0.014 A 
ATOM     30  C   UNL A   1      35.602  32.642  30.471  1.00  0.00     0.010 A 
ATOM     31  C   UNL A   1      36.519  33.551  28.422  1.00  0.00     0.010 A 
ATOM     32  C   UNL A   1      36.677  32.805  29.583  1.00  0.00    -0.014 A 
BRANCH  32  33
ATOM     33  C   UNL A   1      37.975  32.161  29.764  1.00  0.00     0.031 A 
ATOM     34  C   UNL A   1      38.050  30.738  29.339  1.00  0.00     0.074 A 
ATOM     35  C   UNL A   1      39.091  32.884  30.026  1.00  0.00     0.049 A 
ATOM     36  N   UNL A   1      38.214  29.695  30.083  1.00  0.00    -0.248 NA
ATOM     37  C   UNL A   1      37.776  30.413  27.928  1.00  0.00     0.031 C 
ATOM     38  C   UNL A   1      39.222  34.344  30.165  1.00  0.00     0.029 A 
ATOM     39  N   UNL A   1      40.386  32.476  30.092  1.00  0.00    -0.354 N 
ATOM     40  C   UNL A   1      38.330  28.614  29.212  1.00  0.00     0.074 A 
ATOM     41  C   UNL A   1      37.833  29.079  27.946  1.00  0.00     0.031 C 
ATOM     42  C   UNL A   1      40.517  34.708  30.039  1.00  0.00     0.029 A 
ATOM     43  C   UNL A   1      41.325  33.506  30.033  1.00  0.00     0.049 A 
ATOM     44  H   UNL A   1      40.641  31.529  30.174  1.00  0.00     0.167 HD
ATOM     45  C   UNL A   1      39.071  27.518  29.545  1.00  0.00     0.034 A 
ATOM     46  C   UNL A   1      42.679  33.393  30.000  1.00  0.00     0.034 A 
ATOM     47  C   UNL A   1      39.356  27.503  30.965  1.00  0.00     0.049 A 
ATOM     48  C   UNL A   1      42.990  32.061  30.570  1.00  0.00     0.074 A 
ATOM     49  C   UNL A   1      38.586  27.496  32.112  1.00  0.00     0.029 A 
ATOM     50  N   UNL A   1      40.605  27.917  31.374  1.00  0.00    -0.354 N 
ATOM     51  N   UNL A   1      42.709  31.731  31.801  1.00  0.00    -0.248 NA
ATOM     52  C   UNL A   1      43.143  30.945  29.650  1.00  0.00     0.031 C 
ATOM     53  C   UNL A   1      39.249  28.396  33.002  1.00  0.00     0.029 A 
ATOM     54  C   UNL A   1      40.429  28.826  32.389  1.00  0.00     0.049 A 
ATOM     55  H   UNL A   1      41.467  27.615  31.005  1.00  0.00     0.167 HD
ATOM     56  C   UNL A   1      42.213  30.438  31.722  1.00  0.00     0.074 A 
ATOM     57  C   UNL A   1      42.606  29.971  30.391  1.00  0.00     0.031 C 
ATOM     58  C   UNL A   1      41.292  29.973  32.620  1.00  0.00     0.034 A 
BRANCH  45  59
ATOM     59  C   UNL A   1      39.857  26.664  28.568  1.00  0.00     0.023 A 
ATOM     60  C   UNL A   1      41.005  27.239  27.983  1.00  0.00     0.031 A 
ATOM     61  C   UNL A   1      39.408  25.463  27.972  1.00  0.00     0.131 A 
ATOM     62  C   UNL A   1      41.579  26.694  26.821  1.00  0.00     0.055 A 
ATOM     63  C   UNL A   1      40.023  24.888  26.855  1.00  0.00     0.041 A 
ATOM     64  F   UNL A   1      38.301  24.826  28.367  1.00  0.00    -0.206 F 
ATOM     65  C   UNL A   1      41.095  25.520  26.251  1.00  0.00     0.022 A 
BRANCH  62  66
ATOM     66  S   UNL A   1      42.854  27.649  25.958  1.00  0.00     0.124 S 
ATOM     67  O   UNL A   1      42.958  28.834  26.801  1.00  0.00    -0.237 OA
ATOM     68  O   UNL A   1      43.988  26.731  25.992  1.00  0.00    -0.237 OA
ATOM     69  O   UNL A   1      42.273  27.873  24.637  1.00  0.00    -0.744 OA
ENDBRANCH  62  66
ENDBRANCH  45  59
BRANCH  46  70
ATOM     70  C   UNL A   1      43.619  34.179  29.154  1.00  0.00     0.023 A 
ATOM     71  C   UNL A   1      44.037  33.760  27.873  1.00  0.00     0.031 A 
ATOM     72  C   UNL A   1      43.925  35.510  29.518  1.00  0.00     0.131 A 
ATOM     73  C   UNL A   1      44.720  34.659  27.018  1.00  0.00     0.055 A 
ATOM     74  C   UNL A   1      44.594  36.393  28.668  1.00  0.00     0.041 A 
ATOM     75  F   UNL A   1      43.505  36.020  30.688  1.00  0.00    -0.206 F 
ATOM     76  C   UNL A   1      44.986  35.974  27.407  1.00  0.00     0.022 A 
BRANCH  73  77
ATOM     77  S   UNL A   1      45.210  34.147  25.336  1.00  0.00     0.124 S 
ATOM     78  O   UNL A   1      45.232  32.693  25.449  1.00  0.00    -0.237 OA
ATOM     79  O   UNL A   1      44.150  34.717  24.514  1.00  0.00    -0.237 OA
ATOM     80  O   UNL A   1      46.523  34.769  25.158  1.00  0.00    -0.744 OA
ENDBRANCH  73  77
ENDBRANCH  46  70
BRANCH  58  81
ATOM     81  C   UNL A   1      41.012  30.812  33.857  1.00  0.00     0.023 A 
ATOM     82  C   UNL A   1      39.938  31.725  34.003  1.00  0.00     0.031 A 
ATOM     83  C   UNL A   1      41.823  30.586  34.983  1.00  0.00     0.131 A 
ATOM     84  C   UNL A   1      39.720  32.376  35.236  1.00  0.00     0.055 A 
ATOM     85  C   UNL A   1      41.593  31.218  36.206  1.00  0.00     0.041 A 
ATOM     86  F   UNL A   1      42.841  29.713  34.922  1.00  0.00    -0.206 F 
ATOM     87  C   UNL A   1      40.545  32.120  36.336  1.00  0.00     0.022 A 
BRANCH  84  88
ATOM     88  S   UNL A   1      38.370  33.589  35.433  1.00  0.00     0.124 S 
ATOM     89  O   UNL A   1      38.880  34.513  36.439  1.00  0.00    -0.237 OA
ATOM     90  O   UNL A   1      38.228  34.131  34.084  1.00  0.00    -0.237 OA
ATOM     91  O   UNL A   1      37.239  32.771  35.877  1.00  0.00    -0.744 OA
ENDBRANCH  84  88
ENDBRANCH  58  81
ENDBRANCH  32  33
ENDBRANCH  24  27
ENDBRANCH   1  23
TORSDOF 14
ENDMDL
MODEL 2
REMARK VINA RESULT:     -12.7      4.435      9.799
REMARK SMILES Cc1noc2c1-c1c(c(C(=O)NCCCCNC(=O)c3ccc(-c4c5nc(c(-c6cc(S(=O)(=O)[O-])ccc6F)c6ccc([nH]6)c(-c6cc(S(=O)(=O)[O-])ccc6F)c6nc(c(-c7cc(S(=O)(=O)[O-])ccc7F)c7ccc4[nH]7)C=C6)C=C5)cc3)nn1C)CC2
REMARK SMILES IDX 16 1 15 2 14 3 13 4 12 5 10 6 11 7 9 9 1 10 2 11 3 12 6 13
REMARK SMILES IDX 4 14 5 15 7 16 87 17 8 18 84 19 86 20 83 21 85 22 17 23
REMARK SMILES IDX 18 24 19 26 20 27 21 28 82 29 22 30 81 31 23 32 24 33 25 34
REMARK SMILES IDX 75 35 26 36 80 37 74 38 76 39 27 40 79 41 73 42 72 43 28 45
REMARK SMILES IDX 60 46 40 47 59 48 41 49 44 50 58 51 77 52 42 53 43 54 57 56
REMARK SMILES IDX 78 57 45 58 29 59 30 60 38 61 31 62 37 63 39 64 36 65 32 66
REMARK SMILES IDX 33 67 34 68 35 69 61 70 62 71 70 72 63 73 69 74 71 75 68 76
REMARK SMILES IDX 64 77 65 78 66 79 67 80 46 81 47 82 55 83 48 84 54 85 56 86
REMARK SMILES IDX 53 87 49 88 50 89 51 90 52 91
REMARK H PARENT 12 8 17 25 76 44 44 55
REMARK Flexibility Score: inf
ROOT
ATOM      1  C   UNL A   1      38.853  20.655  25.711  1.00  0.00     0.116 C 
ENDROOT
BRANCH   1   2
ATOM      2  C   UNL A   1      37.547  20.517  24.947  1.00  0.00     0.023 C 
BRANCH   2   3
ATOM      3  C   UNL A   1      36.568  21.678  25.105  1.00  0.00     0.023 C 
BRANCH   3   4
ATOM      4  C   UNL A   1      35.426  21.559  26.109  1.00  0.00     0.116 C 
BRANCH   4   5
ATOM      5  N   UNL A   1      34.431  20.542  25.927  1.00  0.00    -0.351 N 
ATOM      6  C   UNL A   1      33.136  20.696  25.446  1.00  0.00     0.272 C 
ATOM      7  O   UNL A   1      32.467  19.659  25.378  1.00  0.00    -0.267 OA
ATOM      8  H   UNL A   1      34.697  19.626  26.171  1.00  0.00     0.163 HD
BRANCH   6   9
ATOM      9  C   UNL A   1      32.546  22.035  25.120  1.00  0.00     0.154 A 
ATOM     10  C   UNL A   1      30.883  27.388  24.669  1.00  0.00     0.071 C 
ATOM     11  C   UNL A   1      31.593  26.641  23.612  1.00  0.00     0.090 A 
ATOM     12  N   UNL A   1      31.989  27.306  22.509  1.00  0.00    -0.084 NA
ATOM     13  C   UNL A   1      31.984  25.291  23.545  1.00  0.00     0.066 A 
ATOM     14  O   UNL A   1      32.607  26.369  21.691  1.00  0.00    -0.360 OA
ATOM     15  C   UNL A   1      32.584  25.176  22.318  1.00  0.00     0.146 A 
ATOM     16  C   UNL A   1      31.946  24.072  24.378  1.00  0.00     0.077 A 
ATOM     17  C   UNL A   1      33.109  23.962  21.661  1.00  0.00     0.084 C 
ATOM     18  C   UNL A   1      32.687  22.953  24.009  1.00  0.00     0.012 A 
ATOM     19  N   UNL A   1      31.311  23.754  25.531  1.00  0.00    -0.267 N 
ATOM     20  C   UNL A   1      33.496  22.911  22.727  1.00  0.00     0.048 C 
ATOM     21  N   UNL A   1      31.686  22.564  26.022  1.00  0.00    -0.167 NA
ATOM     22  C   UNL A   1      30.284  24.491  26.225  1.00  0.00     0.174 C 
ENDBRANCH   6   9
ENDBRANCH   4   5
ENDBRANCH   3   4
ENDBRANCH   2   3
ENDBRANCH   1   2
BRANCH   1  23
ATOM     23  N   UNL A   1      39.673  19.441  25.784  1.00  0.00    -0.352 N 
ATOM     24  C   UNL A   1      41.060  19.388  25.976  1.00  0.00     0.251 C 
ATOM     25  H   UNL A   1      39.204  18.581  25.688  1.00  0.00     0.163 HD
ATOM     26  O   UNL A   1      41.707  18.400  25.719  1.00  0.00    -0.269 OA
BRANCH  24  27
ATOM     27  C   UNL A   1      41.689  20.604  26.541  1.00  0.00     0.039 A 
ATOM     28  C   UNL A   1      42.377  21.549  25.775  1.00  0.00     0.014 A 
ATOM     29  C   UNL A   1      41.407  20.834  27.878  1.00  0.00     0.014 A 
ATOM     30  C   UNL A   1      42.688  22.780  26.361  1.00  0.00     0.010 A 
ATOM     31  C   UNL A   1      41.483  22.111  28.352  1.00  0.00     0.010 A 
ATOM     32  C   UNL A   1      42.211  23.063  27.651  1.00  0.00    -0.014 A 
BRANCH  32  33
ATOM     33  C   UNL A   1      42.371  24.361  28.301  1.00  0.00     0.031 A 
ATOM     34  C   UNL A   1      41.283  25.343  28.049  1.00  0.00     0.074 A 
ATOM     35  C   UNL A   1      43.286  24.550  29.284  1.00  0.00     0.049 A 
ATOM     36  N   UNL A   1      41.352  26.451  27.390  1.00  0.00    -0.248 NA
ATOM     37  C   UNL A   1      39.914  24.993  28.466  1.00  0.00     0.031 C 
ATOM     38  C   UNL A   1      44.226  23.572  29.858  1.00  0.00     0.029 A 
ATOM     39  N   UNL A   1      43.482  25.632  30.082  1.00  0.00    -0.354 N 
ATOM     40  C   UNL A   1      40.109  27.063  27.534  1.00  0.00     0.074 A 
ATOM     41  C   UNL A   1      39.220  26.034  27.999  1.00  0.00     0.031 C 
ATOM     42  C   UNL A   1      44.689  24.016  31.046  1.00  0.00     0.029 A 
ATOM     43  C   UNL A   1      44.259  25.389  31.213  1.00  0.00     0.049 A 
ATOM     44  H   UNL A   1      43.104  26.519  29.877  1.00  0.00     0.167 HD
ATOM     45  C   UNL A   1      39.986  28.422  27.510  1.00  0.00     0.034 A 
ATOM     46  C   UNL A   1      44.554  26.254  32.219  1.00  0.00     0.034 A 
ATOM     47  C   UNL A   1      41.181  29.036  26.970  1.00  0.00     0.049 A 
ATOM     48  C   UNL A   1      44.369  27.612  31.655  1.00  0.00     0.074 A 
ATOM     49  C   UNL A   1      41.868  28.944  25.774  1.00  0.00     0.029 A 
ATOM     50  N   UNL A   1      42.082  29.580  27.860  1.00  0.00    -0.354 N 
ATOM     51  N   UNL A   1      45.084  28.075  30.666  1.00  0.00    -0.248 NA
ATOM     52  C   UNL A   1      43.079  28.257  31.840  1.00  0.00     0.031 C 
ATOM     53  C   UNL A   1      43.247  28.929  26.146  1.00  0.00     0.029 A 
ATOM     54  C   UNL A   1      43.329  29.106  27.530  1.00  0.00     0.049 A 
ATOM     55  H   UNL A   1      41.869  30.197  28.598  1.00  0.00     0.167 HD
ATOM     56  C   UNL A   1      44.180  28.732  29.845  1.00  0.00     0.074 A 
ATOM     57  C   UNL A   1      42.985  28.903  30.673  1.00  0.00     0.031 C 
ATOM     58  C   UNL A   1      44.378  28.819  28.495  1.00  0.00     0.034 A 
BRANCH  45  59
ATOM     59  C   UNL A   1      38.972  29.222  28.305  1.00  0.00     0.023 A 
ATOM     60  C   UNL A   1      39.138  29.271  29.705  1.00  0.00     0.031 A 
ATOM     61  C   UNL A   1      37.726  29.687  27.825  1.00  0.00     0.131 A 
ATOM     62  C   UNL A   1      38.083  29.658  30.549  1.00  0.00     0.055 A 
ATOM     63  C   UNL A   1      36.701  30.135  28.666  1.00  0.00     0.041 A 
ATOM     64  F   UNL A   1      37.386  29.651  26.532  1.00  0.00    -0.206 F 
ATOM     65  C   UNL A   1      36.862  30.091  30.039  1.00  0.00     0.022 A 
BRANCH  62  66
ATOM     66  S   UNL A   1      38.269  29.408  32.335  1.00  0.00     0.124 S 
ATOM     67  O   UNL A   1      39.513  28.650  32.399  1.00  0.00    -0.237 OA
ATOM     68  O   UNL A   1      38.324  30.781  32.824  1.00  0.00    -0.237 OA
ATOM     69  O   UNL A   1      37.066  28.663  32.699  1.00  0.00    -0.744 OA
ENDBRANCH  62  66
ENDBRANCH  45  59
BRANCH  46  70
ATOM     70  C   UNL A   1      44.576  25.953  33.677  1.00  0.00     0.023 A 
ATOM     71  C   UNL A   1      43.488  26.214  34.535  1.00  0.00     0.031 A 
ATOM     72  C   UNL A   1      45.618  25.152  34.199  1.00  0.00     0.131 A 
ATOM     73  C   UNL A   1      43.469  25.677  35.846  1.00  0.00     0.055 A 
ATOM     74  C   UNL A   1      45.591  24.620  35.490  1.00  0.00     0.041 A 
ATOM     75  F   UNL A   1      46.661  24.790  33.434  1.00  0.00    -0.206 F 
ATOM     76  C   UNL A   1      44.509  24.873  36.318  1.00  0.00     0.022 A 
BRANCH  73  77
ATOM     77  S   UNL A   1      42.037  25.958  36.942  1.00  0.00     0.124 S 
ATOM     78  O   UNL A   1      42.677  26.248  38.220  1.00  0.00    -0.237 OA
ATOM     79  O   UNL A   1      41.358  27.070  36.290  1.00  0.00    -0.237 OA
ATOM     80  O   UNL A   1      41.314  24.686  36.893  1.00  0.00    -0.744 OA
ENDBRANCH  73  77
ENDBRANCH  46  70
BRANCH  58  81
ATOM     81  C   UNL A   1      45.733  28.406  27.942  1.00  0.00     0.023 A 
ATOM     82  C   UNL A   1      46.078  27.102  27.507  1.00  0.00     0.031 A 
ATOM     83  C   UNL A   1      46.685  29.422  27.750  1.00  0.00     0.131 A 
ATOM     84  C   UNL A   1      47.337  26.858  26.919  1.00  0.00     0.055 A 
ATOM     85  C   UNL A   1      47.922  29.181  27.151  1.00  0.00     0.041 A 
ATOM     86  F   UNL A   1      46.412  30.685  28.114  1.00  0.00    -0.206 F 
ATOM     87  C   UNL A   1      48.256  27.898  26.739  1.00  0.00     0.022 A 
BRANCH  84  88
ATOM     88  S   UNL A   1      47.820  25.178  26.392  1.00  0.00     0.124 S 
ATOM     89  O   UNL A   1      49.019  24.903  27.174  1.00  0.00    -0.237 OA
ATOM     90  O   UNL A   1      46.640  24.386  26.731  1.00  0.00    -0.237 OA
ATOM     91  O   UNL A   1      48.054  25.326  24.953  1.00  0.00    -0.744 OA
ENDBRANCH  84  88
ENDBRANCH  58  81
ENDBRANCH  32  33
ENDBRANCH  24  27
ENDBRANCH   1  23
TORSDOF 14
ENDMDL
MODEL 3
REMARK VINA RESULT:     -12.6      4.564      8.002
REMARK SMILES Cc1noc2c1-c1c(c(C(=O)NCCCCNC(=O)c3ccc(-c4c5nc(c(-c6cc(S(=O)(=O)[O-])ccc6F)c6ccc([nH]6)c(-c6cc(S(=O)(=O)[O-])ccc6F)c6nc(c(-c7cc(S(=O)(=O)[O-])ccc7F)c7ccc4[nH]7)C=C6)C=C5)cc3)nn1C)CC2
REMARK SMILES IDX 16 1 15 2 14 3 13 4 12 5 10 6 11 7 9 9 1 10 2 11 3 12 6 13
REMARK SMILES IDX 4 14 5 15 7 16 87 17 8 18 84 19 86 20 83 21 85 22 17 23
REMARK SMILES IDX 18 24 19 26 20 27 21 28 82 29 22 30 81 31 23 32 24 33 25 34
REMARK SMILES IDX 75 35 26 36 80 37 74 38 76 39 27 40 79 41 73 42 72 43 28 45
REMARK SMILES IDX 60 46 40 47 59 48 41 49 44 50 58 51 77 52 42 53 43 54 57 56
REMARK SMILES IDX 78 57 45 58 29 59 30 60 38 61 31 62 37 63 39 64 36 65 32 66
REMARK SMILES IDX 33 67 34 68 35 69 61 70 62 71 70 72 63 73 69 74 71 75 68 76
REMARK SMILES IDX 64 77 65 78 66 79 67 80 46 81 47 82 55 83 48 84 54 85 56 86
REMARK SMILES IDX 53 87 49 88 50 89 51 90 52 91
REMARK H PARENT 12 8 17 25 76 44 44 55
REMARK Flexibility Score: inf
ROOT
ATOM      1  C   UNL A   1      37.369  29.919  31.201  1.00  0.00     0.116 C 
ENDROOT
BRANCH   1   2
ATOM      2  C   UNL A   1      36.984  30.505  32.549  1.00  0.00     0.023 C 
BRANCH   2   3
ATOM      3  C   UNL A   1      38.100  30.543  33.590  1.00  0.00     0.023 C 
BRANCH   3   4
ATOM      4  C   UNL A   1      38.453  31.870  34.256  1.00  0.00     0.116 C 
BRANCH   4   5
ATOM      5  N   UNL A   1      39.307  32.796  33.572  1.00  0.00    -0.351 N 
ATOM      6  C   UNL A   1      38.931  33.881  32.788  1.00  0.00     0.272 C 
ATOM      7  O   UNL A   1      39.861  34.536  32.304  1.00  0.00    -0.267 OA
ATOM      8  H   UNL A   1      40.276  32.646  33.667  1.00  0.00     0.163 HD
BRANCH   6   9
ATOM      9  C   UNL A   1      37.500  34.192  32.466  1.00  0.00     0.154 A 
ATOM     10  C   UNL A   1      32.434  36.322  31.272  1.00  0.00     0.071 C 
ATOM     11  C   UNL A   1      33.183  35.401  30.393  1.00  0.00     0.090 A 
ATOM     12  N   UNL A   1      32.694  35.144  29.164  1.00  0.00    -0.084 NA
ATOM     13  C   UNL A   1      34.399  34.724  30.595  1.00  0.00     0.066 A 
ATOM     14  O   UNL A   1      33.578  34.252  28.573  1.00  0.00    -0.360 OA
ATOM     15  C   UNL A   1      34.579  34.005  29.442  1.00  0.00     0.146 A 
ATOM     16  C   UNL A   1      35.458  34.605  31.618  1.00  0.00     0.077 A 
ATOM     17  C   UNL A   1      35.643  33.032  29.120  1.00  0.00     0.084 C 
ATOM     18  C   UNL A   1      36.661  33.977  31.305  1.00  0.00     0.012 A 
ATOM     19  N   UNL A   1      35.553  35.006  32.908  1.00  0.00    -0.267 N 
ATOM     20  C   UNL A   1      36.908  33.342  29.951  1.00  0.00     0.048 C 
ATOM     21  N   UNL A   1      36.776  34.817  33.424  1.00  0.00    -0.167 NA
ATOM     22  C   UNL A   1      34.521  35.537  33.763  1.00  0.00     0.174 C 
ENDBRANCH   6   9
ENDBRANCH   4   5
ENDBRANCH   3   4
ENDBRANCH   2   3
ENDBRANCH   1   2
BRANCH   1  23
ATOM     23  N   UNL A   1      36.265  29.743  30.251  1.00  0.00    -0.352 N 
ATOM     24  C   UNL A   1      36.385  29.466  28.883  1.00  0.00     0.251 C 
ATOM     25  H   UNL A   1      35.352  29.828  30.609  1.00  0.00     0.163 HD
ATOM     26  O   UNL A   1      35.471  29.639  28.111  1.00  0.00    -0.269 OA
BRANCH  24  27
ATOM     27  C   UNL A   1      37.688  28.921  28.438  1.00  0.00     0.039 A 
ATOM     28  C   UNL A   1      38.510  29.548  27.498  1.00  0.00     0.014 A 
ATOM     29  C   UNL A   1      38.123  27.812  29.145  1.00  0.00     0.014 A 
ATOM     30  C   UNL A   1      39.825  29.093  27.358  1.00  0.00     0.010 A 
ATOM     31  C   UNL A   1      39.461  27.548  29.188  1.00  0.00     0.010 A 
ATOM     32  C   UNL A   1      40.302  28.102  28.231  1.00  0.00    -0.014 A 
BRANCH  32  33
ATOM     33  C   UNL A   1      41.690  27.648  28.253  1.00  0.00     0.031 A 
ATOM     34  C   UNL A   1      41.963  26.383  27.520  1.00  0.00     0.074 A 
ATOM     35  C   UNL A   1      42.693  28.465  28.659  1.00  0.00     0.049 A 
ATOM     36  N   UNL A   1      42.318  25.243  28.012  1.00  0.00    -0.248 NA
ATOM     37  C   UNL A   1      41.681  26.335  26.076  1.00  0.00     0.031 C 
ATOM     38  C   UNL A   1      42.605  29.862  29.119  1.00  0.00     0.029 A 
ATOM     39  N   UNL A   1      44.037  28.264  28.620  1.00  0.00    -0.354 N 
ATOM     40  C   UNL A   1      42.560  24.411  26.921  1.00  0.00     0.074 A 
ATOM     41  C   UNL A   1      41.941  25.057  25.795  1.00  0.00     0.031 C 
ATOM     42  C   UNL A   1      43.822  30.446  29.065  1.00  0.00     0.029 A 
ATOM     43  C   UNL A   1      44.803  29.418  28.784  1.00  0.00     0.049 A 
ATOM     44  H   UNL A   1      44.438  27.375  28.487  1.00  0.00     0.167 HD
ATOM     45  C   UNL A   1      43.473  23.401  26.995  1.00  0.00     0.034 A 
ATOM     46  C   UNL A   1      46.156  29.531  28.715  1.00  0.00     0.034 A 
ATOM     47  C   UNL A   1      43.820  23.121  28.373  1.00  0.00     0.049 A 
ATOM     48  C   UNL A   1      46.692  28.174  28.970  1.00  0.00     0.074 A 
ATOM     49  C   UNL A   1      43.111  22.741  29.497  1.00  0.00     0.029 A 
ATOM     50  N   UNL A   1      45.008  23.629  28.852  1.00  0.00    -0.354 N 
ATOM     51  N   UNL A   1      46.520  27.543  30.100  1.00  0.00    -0.248 NA
ATOM     52  C   UNL A   1      46.974  27.325  27.824  1.00  0.00     0.031 C 
ATOM     53  C   UNL A   1      43.668  23.519  30.559  1.00  0.00     0.029 A 
ATOM     54  C   UNL A   1      44.740  24.255  30.046  1.00  0.00     0.049 A 
ATOM     55  H   UNL A   1      45.888  23.556  28.418  1.00  0.00     0.167 HD
ATOM     56  C   UNL A   1      46.224  26.236  29.739  1.00  0.00     0.074 A 
ATOM     57  C   UNL A   1      46.626  26.140  28.334  1.00  0.00     0.031 C 
ATOM     58  C   UNL A   1      45.426  25.446  30.519  1.00  0.00     0.034 A 
BRANCH  45  59
ATOM     59  C   UNL A   1      44.337  22.917  25.846  1.00  0.00     0.023 A 
ATOM     60  C   UNL A   1      44.373  21.529  25.601  1.00  0.00     0.031 A 
ATOM     61  C   UNL A   1      45.324  23.678  25.176  1.00  0.00     0.131 A 
ATOM     62  C   UNL A   1      45.396  20.953  24.826  1.00  0.00     0.055 A 
ATOM     63  C   UNL A   1      46.300  23.107  24.352  1.00  0.00     0.041 A 
ATOM     64  F   UNL A   1      45.466  24.996  25.348  1.00  0.00    -0.206 F 
ATOM     65  C   UNL A   1      46.362  21.734  24.199  1.00  0.00     0.022 A 
BRANCH  62  66
ATOM     66  S   UNL A   1      45.551  19.148  24.805  1.00  0.00     0.124 S 
ATOM     67  O   UNL A   1      44.298  18.736  25.429  1.00  0.00    -0.237 OA
ATOM     68  O   UNL A   1      45.680  18.876  23.377  1.00  0.00    -0.237 OA
ATOM     69  O   UNL A   1      46.753  18.902  25.598  1.00  0.00    -0.744 OA
ENDBRANCH  62  66
ENDBRANCH  45  59
BRANCH  46  70
ATOM     70  C   UNL A   1      46.926  30.622  28.056  1.00  0.00     0.023 A 
ATOM     71  C   UNL A   1      46.321  31.635  27.283  1.00  0.00     0.031 A 
ATOM     72  C   UNL A   1      48.283  30.814  28.403  1.00  0.00     0.131 A 
ATOM     73  C   UNL A   1      47.064  32.778  26.899  1.00  0.00     0.055 A 
ATOM     74  C   UNL A   1      49.009  31.945  28.026  1.00  0.00     0.041 A 
ATOM     75  F   UNL A   1      48.924  29.939  29.195  1.00  0.00    -0.206 F 
ATOM     76  C   UNL A   1      48.399  32.940  27.279  1.00  0.00     0.022 A 
BRANCH  73  77
ATOM     77  S   UNL A   1      46.274  34.123  25.952  1.00  0.00     0.124 S 
ATOM     78  O   UNL A   1      45.233  33.415  25.216  1.00  0.00    -0.237 OA
ATOM     79  O   UNL A   1      45.824  35.025  27.006  1.00  0.00    -0.237 OA
ATOM     80  O   UNL A   1      47.363  34.645  25.124  1.00  0.00    -0.744 OA
ENDBRANCH  73  77
ENDBRANCH  46  70
BRANCH  58  81
ATOM     81  C   UNL A   1      45.076  25.939  31.915  1.00  0.00     0.023 A 
ATOM     82  C   UNL A   1      43.893  26.637  32.265  1.00  0.00     0.031 A 
ATOM     83  C   UNL A   1      45.946  25.582  32.959  1.00  0.00     0.131 A 
ATOM     84  C   UNL A   1      43.630  26.958  33.613  1.00  0.00     0.055 A 
ATOM     85  C   UNL A   1      45.674  25.885  34.293  1.00  0.00     0.041 A 
ATOM     86  F   UNL A   1      47.071  24.895  32.700  1.00  0.00    -0.206 F 
ATOM     87  C   UNL A   1      44.519  26.580  34.625  1.00  0.00     0.022 A 
BRANCH  84  88
ATOM     88  S   UNL A   1      42.136  27.896  34.082  1.00  0.00     0.124 S 
ATOM     89  O   UNL A   1      42.652  28.972  34.920  1.00  0.00    -0.237 OA
ATOM     90  O   UNL A   1      41.592  28.299  32.788  1.00  0.00    -0.237 OA
ATOM     91  O   UNL A   1      41.323  26.908  34.796  1.00  0.00    -0.744 OA
ENDBRANCH  84  88
ENDBRANCH  58  81
ENDBRANCH  32  33
ENDBRANCH  24  27
ENDBRANCH   1  23
TORSDOF 14
ENDMDL
