MODEL 1
REMARK VINA RESULT:     -11.5      0.000      0.000
REMARK SMILES C=Cc1cncc(-c2ccc([C@@H](C)C(=O)NCCCCNC(=O)c3ccc(-c4c5nc(c(-c6cc(S(=O)(=O)[O-])ccc6F)c6ccc([nH]6)c(-c6cc(S(=O)(=O)[O-])ccc6F)c6nc(c(-c7cc(S(=O)(=O)[O-])ccc7F)c7ccc4[nH]7)C=C6)C=C5)cc3)cc2)c1
REMARK SMILES IDX 18 1 17 2 16 3 14 4 15 5 12 7 13 8 11 9 8 10 9 11 88 12
REMARK SMILES IDX 10 13 87 14 7 15 3 16 4 17 89 18 5 19 6 20 2 21 1 22 19 23
REMARK SMILES IDX 20 24 21 25 22 26 23 28 24 29 25 30 86 31 26 32 85 33 27 34
REMARK SMILES IDX 28 35 29 36 79 37 30 38 84 39 78 40 80 41 31 42 83 43 77 44
REMARK SMILES IDX 76 45 32 47 64 48 44 49 63 50 45 51 48 52 62 53 81 54 46 55
REMARK SMILES IDX 47 56 61 58 82 59 49 60 33 61 34 62 42 63 35 64 41 65 43 66
REMARK SMILES IDX 40 67 36 68 37 69 38 70 39 71 65 72 66 73 74 74 67 75 73 76
REMARK SMILES IDX 75 77 72 78 68 79 69 80 70 81 71 82 50 83 51 84 59 85 52 86
REMARK SMILES IDX 58 87 60 88 57 89 53 90 54 91 55 92 56 93
REMARK H PARENT 16 6 21 27 80 46 48 57
REMARK Flexibility Score: inf
ROOT
ATOM      1  C   UNL A   1      34.891  21.139  24.528  1.00  0.00     0.023 C 
ENDROOT
BRANCH   1   2
ATOM      2  C   UNL A   1      33.419  20.724  24.550  1.00  0.00     0.116 C 
BRANCH   2   3
ATOM      3  N   UNL A   1      32.584  21.634  23.794  1.00  0.00    -0.356 N 
ATOM      4  C   UNL A   1      31.762  22.644  24.195  1.00  0.00     0.227 C 
ATOM      5  O   UNL A   1      31.105  23.208  23.312  1.00  0.00    -0.274 OA
ATOM      6  H   UNL A   1      32.615  21.500  22.820  1.00  0.00     0.163 HD
BRANCH   4   7
ATOM      7  C   UNL A   1      31.632  23.108  25.654  1.00  0.00     0.105 C 
ATOM      8  C   UNL A   1      30.322  22.691  26.322  1.00  0.00     0.023 C 
BRANCH   7   9
ATOM      9  C   UNL A   1      32.073  24.547  25.875  1.00  0.00    -0.036 A 
ATOM     10  C   UNL A   1      32.838  27.239  26.484  1.00  0.00    -0.017 A 
ATOM     11  C   UNL A   1      33.773  26.280  26.063  1.00  0.00     0.009 A 
ATOM     12  C   UNL A   1      31.499  26.823  26.559  1.00  0.00     0.009 A 
ATOM     13  C   UNL A   1      33.396  24.972  25.732  1.00  0.00     0.005 A 
ATOM     14  C   UNL A   1      31.126  25.500  26.280  1.00  0.00     0.005 A 
BRANCH  10  15
ATOM     15  C   UNL A   1      33.253  28.617  26.835  1.00  0.00     0.001 A 
ATOM     16  C   UNL A   1      34.944  30.267  27.471  1.00  0.00    -0.007 A 
ATOM     17  C   UNL A   1      33.935  31.222  27.460  1.00  0.00     0.119 A 
ATOM     18  C   UNL A   1      34.581  28.949  27.155  1.00  0.00     0.020 A 
ATOM     19  N   UNL A   1      32.643  30.965  27.165  1.00  0.00    -0.263 NA
ATOM     20  C   UNL A   1      32.343  29.678  26.863  1.00  0.00     0.119 A 
BRANCH  16  21
ATOM     21  C   UNL A   1      36.304  30.650  27.865  1.00  0.00     0.002 C 
ATOM     22  C   UNL A   1      37.412  30.001  27.485  1.00  0.00     0.009 C 
ENDBRANCH  16  21
ENDBRANCH  10  15
ENDBRANCH   7   9
ENDBRANCH   4   7
ENDBRANCH   2   3
ENDBRANCH   1   2
BRANCH   1  23
ATOM     23  C   UNL A   1      35.405  21.767  25.823  1.00  0.00     0.023 C 
BRANCH  23  24
ATOM     24  C   UNL A   1      36.825  22.319  25.763  1.00  0.00     0.116 C 
BRANCH  24  25
ATOM     25  N   UNL A   1      37.860  21.297  25.792  1.00  0.00    -0.352 N 
ATOM     26  C   UNL A   1      39.170  21.419  26.201  1.00  0.00     0.251 C 
ATOM     27  H   UNL A   1      37.590  20.404  25.478  1.00  0.00     0.163 HD
ATOM     28  O   UNL A   1      39.939  20.473  26.084  1.00  0.00    -0.269 OA
BRANCH  26  29
ATOM     29  C   UNL A   1      39.645  22.718  26.729  1.00  0.00     0.039 A 
ATOM     30  C   UNL A   1      40.648  22.723  27.700  1.00  0.00     0.014 A 
ATOM     31  C   UNL A   1      39.142  23.920  26.228  1.00  0.00     0.014 A 
ATOM     32  C   UNL A   1      41.204  23.937  28.111  1.00  0.00     0.010 A 
ATOM     33  C   UNL A   1      39.749  25.122  26.581  1.00  0.00     0.010 A 
ATOM     34  C   UNL A   1      40.788  25.144  27.523  1.00  0.00    -0.014 A 
BRANCH  34  35
ATOM     35  C   UNL A   1      41.429  26.436  27.880  1.00  0.00     0.031 A 
ATOM     36  C   UNL A   1      42.833  26.730  27.426  1.00  0.00     0.074 A 
ATOM     37  C   UNL A   1      40.776  27.309  28.671  1.00  0.00     0.049 A 
ATOM     38  N   UNL A   1      43.591  27.763  27.689  1.00  0.00    -0.248 NA
ATOM     39  C   UNL A   1      43.484  25.705  26.596  1.00  0.00     0.031 C 
ATOM     40  C   UNL A   1      39.434  27.108  29.226  1.00  0.00     0.029 A 
ATOM     41  N   UNL A   1      41.151  28.536  29.156  1.00  0.00    -0.354 N 
ATOM     42  C   UNL A   1      44.810  27.506  27.073  1.00  0.00     0.074 A 
ATOM     43  C   UNL A   1      44.710  26.188  26.481  1.00  0.00     0.031 C 
ATOM     44  C   UNL A   1      39.090  28.185  29.949  1.00  0.00     0.029 A 
ATOM     45  C   UNL A   1      40.196  29.137  29.944  1.00  0.00     0.049 A 
ATOM     46  H   UNL A   1      42.023  28.949  28.959  1.00  0.00     0.167 HD
ATOM     47  C   UNL A   1      45.904  28.306  26.985  1.00  0.00     0.034 A 
ATOM     48  C   UNL A   1      40.212  30.320  30.589  1.00  0.00     0.034 A 
ATOM     49  C   UNL A   1      45.977  29.625  27.563  1.00  0.00     0.049 A 
ATOM     50  C   UNL A   1      41.430  31.199  30.465  1.00  0.00     0.074 A 
ATOM     51  C   UNL A   1      47.009  30.545  27.487  1.00  0.00     0.029 A 
ATOM     52  N   UNL A   1      44.978  30.213  28.329  1.00  0.00    -0.354 N 
ATOM     53  N   UNL A   1      42.554  30.967  29.828  1.00  0.00    -0.248 NA
ATOM     54  C   UNL A   1      41.373  32.506  31.132  1.00  0.00     0.031 C 
ATOM     55  C   UNL A   1      46.657  31.665  28.250  1.00  0.00     0.029 A 
ATOM     56  C   UNL A   1      45.378  31.474  28.748  1.00  0.00     0.049 A 
ATOM     57  H   UNL A   1      44.113  29.796  28.542  1.00  0.00     0.167 HD
ATOM     58  C   UNL A   1      43.327  32.113  29.993  1.00  0.00     0.074 A 
ATOM     59  C   UNL A   1      42.533  33.038  30.777  1.00  0.00     0.031 C 
ATOM     60  C   UNL A   1      44.576  32.380  29.535  1.00  0.00     0.034 A 
BRANCH  47  61
ATOM     61  C   UNL A   1      47.104  27.756  26.252  1.00  0.00     0.023 A 
ATOM     62  C   UNL A   1      47.327  28.033  24.892  1.00  0.00     0.031 A 
ATOM     63  C   UNL A   1      48.017  26.909  26.907  1.00  0.00     0.131 A 
ATOM     64  C   UNL A   1      48.379  27.404  24.210  1.00  0.00     0.055 A 
ATOM     65  C   UNL A   1      49.113  26.355  26.243  1.00  0.00     0.041 A 
ATOM     66  F   UNL A   1      47.847  26.592  28.201  1.00  0.00    -0.206 F 
ATOM     67  C   UNL A   1      49.289  26.586  24.883  1.00  0.00     0.022 A 
BRANCH  64  68
ATOM     68  S   UNL A   1      48.447  27.546  22.403  1.00  0.00     0.124 S 
ATOM     69  O   UNL A   1      47.135  28.117  22.105  1.00  0.00    -0.237 OA
ATOM     70  O   UNL A   1      49.588  28.430  22.199  1.00  0.00    -0.237 OA
ATOM     71  O   UNL A   1      48.635  26.168  21.957  1.00  0.00    -0.744 OA
ENDBRANCH  64  68
ENDBRANCH  47  61
BRANCH  48  72
ATOM     72  C   UNL A   1      39.040  30.753  31.403  1.00  0.00     0.023 A 
ATOM     73  C   UNL A   1      38.045  31.576  30.855  1.00  0.00     0.031 A 
ATOM     74  C   UNL A   1      38.917  30.377  32.752  1.00  0.00     0.131 A 
ATOM     75  C   UNL A   1      36.994  32.036  31.662  1.00  0.00     0.055 A 
ATOM     76  C   UNL A   1      37.844  30.799  33.540  1.00  0.00     0.041 A 
ATOM     77  F   UNL A   1      39.838  29.582  33.323  1.00  0.00    -0.206 F 
ATOM     78  C   UNL A   1      36.881  31.644  32.998  1.00  0.00     0.022 A 
BRANCH  75  79
ATOM     79  S   UNL A   1      35.813  33.221  30.959  1.00  0.00     0.124 S 
ATOM     80  O   UNL A   1      34.636  32.383  30.758  1.00  0.00    -0.237 OA
ATOM     81  O   UNL A   1      35.717  34.218  32.020  1.00  0.00    -0.237 OA
ATOM     82  O   UNL A   1      36.474  33.674  29.737  1.00  0.00    -0.744 OA
ENDBRANCH  75  79
ENDBRANCH  48  72
BRANCH  60  83
ATOM     83  C   UNL A   1      45.134  33.749  29.834  1.00  0.00     0.023 A 
ATOM     84  C   UNL A   1      44.869  34.854  29.005  1.00  0.00     0.031 A 
ATOM     85  C   UNL A   1      45.956  33.944  30.957  1.00  0.00     0.131 A 
ATOM     86  C   UNL A   1      45.467  36.093  29.282  1.00  0.00     0.055 A 
ATOM     87  C   UNL A   1      46.502  35.192  31.259  1.00  0.00     0.041 A 
ATOM     88  F   UNL A   1      46.242  32.922  31.781  1.00  0.00    -0.206 F 
ATOM     89  C   UNL A   1      46.269  36.271  30.412  1.00  0.00     0.022 A 
BRANCH  86  90
ATOM     90  S   UNL A   1      45.254  37.446  28.095  1.00  0.00     0.124 S 
ATOM     91  O   UNL A   1      44.676  38.495  28.930  1.00  0.00    -0.237 OA
ATOM     92  O   UNL A   1      46.619  37.677  27.635  1.00  0.00    -0.237 OA
ATOM     93  O   UNL A   1      44.349  36.884  27.093  1.00  0.00    -0.744 OA
ENDBRANCH  86  90
ENDBRANCH  60  83
ENDBRANCH  34  35
ENDBRANCH  26  29
ENDBRANCH  24  25
ENDBRANCH  23  24
ENDBRANCH   1  23
TORSDOF 17
ENDMDL
MODEL 2
REMARK VINA RESULT:     -11.5      3.619      6.634
REMARK SMILES C=Cc1cncc(-c2ccc([C@@H](C)C(=O)NCCCCNC(=O)c3ccc(-c4c5nc(c(-c6cc(S(=O)(=O)[O-])ccc6F)c6ccc([nH]6)c(-c6cc(S(=O)(=O)[O-])ccc6F)c6nc(c(-c7cc(S(=O)(=O)[O-])ccc7F)c7ccc4[nH]7)C=C6)C=C5)cc3)cc2)c1
REMARK SMILES IDX 18 1 17 2 16 3 14 4 15 5 12 7 13 8 11 9 8 10 9 11 88 12
REMARK SMILES IDX 10 13 87 14 7 15 3 16 4 17 89 18 5 19 6 20 2 21 1 22 19 23
REMARK SMILES IDX 20 24 21 25 22 26 23 28 24 29 25 30 86 31 26 32 85 33 27 34
REMARK SMILES IDX 28 35 29 36 79 37 30 38 84 39 78 40 80 41 31 42 83 43 77 44
REMARK SMILES IDX 76 45 32 47 64 48 44 49 63 50 45 51 48 52 62 53 81 54 46 55
REMARK SMILES IDX 47 56 61 58 82 59 49 60 33 61 34 62 42 63 35 64 41 65 43 66
REMARK SMILES IDX 40 67 36 68 37 69 38 70 39 71 65 72 66 73 74 74 67 75 73 76
REMARK SMILES IDX 75 77 72 78 68 79 69 80 70 81 71 82 50 83 51 84 59 85 52 86
REMARK SMILES IDX 58 87 60 88 57 89 53 90 54 91 55 92 56 93
REMARK H PARENT 16 6 21 27 80 46 48 57
REMARK Flexibility Score: inf
ROOT
ATOM      1  C   UNL A   1      42.291  19.549  27.159  1.00  0.00     0.023 C 
ENDROOT
BRANCH   1   2
ATOM      2  C   UNL A   1      42.841  19.415  25.738  1.00  0.00     0.116 C 
BRANCH   2   3
ATOM      3  N   UNL A   1      44.236  19.794  25.654  1.00  0.00    -0.356 N 
ATOM      4  C   UNL A   1      44.831  21.015  25.546  1.00  0.00     0.227 C 
ATOM      5  O   UNL A   1      46.061  21.023  25.415  1.00  0.00    -0.274 OA
ATOM      6  H   UNL A   1      44.865  19.037  25.681  1.00  0.00     0.163 HD
BRANCH   4   7
ATOM      7  C   UNL A   1      44.062  22.344  25.593  1.00  0.00     0.105 C 
ATOM      8  C   UNL A   1      44.269  23.223  24.358  1.00  0.00     0.023 C 
BRANCH   7   9
ATOM      9  C   UNL A   1      44.143  23.045  26.940  1.00  0.00    -0.036 A 
ATOM     10  C   UNL A   1      44.221  24.195  29.562  1.00  0.00    -0.017 A 
ATOM     11  C   UNL A   1      45.380  24.045  28.783  1.00  0.00     0.009 A 
ATOM     12  C   UNL A   1      43.012  23.784  28.978  1.00  0.00     0.009 A 
ATOM     13  C   UNL A   1      45.339  23.514  27.488  1.00  0.00     0.005 A 
ATOM     14  C   UNL A   1      42.975  23.203  27.702  1.00  0.00     0.005 A 
BRANCH  10  15
ATOM     15  C   UNL A   1      44.280  24.752  30.933  1.00  0.00     0.001 A 
ATOM     16  C   UNL A   1      44.539  24.509  33.354  1.00  0.00    -0.007 A 
ATOM     17  C   UNL A   1      44.397  25.888  33.451  1.00  0.00     0.119 A 
ATOM     18  C   UNL A   1      44.474  23.949  32.070  1.00  0.00     0.020 A 
ATOM     19  N   UNL A   1      44.207  26.712  32.398  1.00  0.00    -0.263 NA
ATOM     20  C   UNL A   1      44.154  26.123  31.179  1.00  0.00     0.119 A 
BRANCH  16  21
ATOM     21  C   UNL A   1      44.684  23.705  34.572  1.00  0.00     0.002 C 
ATOM     22  C   UNL A   1      43.784  22.811  34.999  1.00  0.00     0.009 C 
ENDBRANCH  16  21
ENDBRANCH  10  15
ENDBRANCH   7   9
ENDBRANCH   4   7
ENDBRANCH   2   3
ENDBRANCH   1   2
BRANCH   1  23
ATOM     23  C   UNL A   1      40.977  20.320  27.274  1.00  0.00     0.023 C 
BRANCH  23  24
ATOM     24  C   UNL A   1      40.701  21.312  26.151  1.00  0.00     0.116 C 
BRANCH  24  25
ATOM     25  N   UNL A   1      39.286  21.537  25.892  1.00  0.00    -0.352 N 
ATOM     26  C   UNL A   1      38.546  22.677  26.121  1.00  0.00     0.251 C 
ATOM     27  H   UNL A   1      38.795  20.777  25.505  1.00  0.00     0.163 HD
ATOM     28  O   UNL A   1      37.338  22.673  25.922  1.00  0.00    -0.269 OA
BRANCH  26  29
ATOM     29  C   UNL A   1      39.219  23.879  26.661  1.00  0.00     0.039 A 
ATOM     30  C   UNL A   1      39.907  24.718  25.780  1.00  0.00     0.014 A 
ATOM     31  C   UNL A   1      39.126  24.205  28.016  1.00  0.00     0.014 A 
ATOM     32  C   UNL A   1      40.432  25.925  26.246  1.00  0.00     0.010 A 
ATOM     33  C   UNL A   1      39.581  25.442  28.461  1.00  0.00     0.010 A 
ATOM     34  C   UNL A   1      40.236  26.317  27.581  1.00  0.00    -0.014 A 
BRANCH  34  35
ATOM     35  C   UNL A   1      40.707  27.638  28.074  1.00  0.00     0.031 A 
ATOM     36  C   UNL A   1      42.176  27.967  28.056  1.00  0.00     0.074 A 
ATOM     37  C   UNL A   1      39.824  28.508  28.601  1.00  0.00     0.049 A 
ATOM     38  N   UNL A   1      42.793  29.030  28.503  1.00  0.00    -0.248 NA
ATOM     39  C   UNL A   1      43.071  26.944  27.495  1.00  0.00     0.031 C 
ATOM     40  C   UNL A   1      38.383  28.276  28.730  1.00  0.00     0.029 A 
ATOM     41  N   UNL A   1      40.005  29.758  29.137  1.00  0.00    -0.354 N 
ATOM     42  C   UNL A   1      44.147  28.798  28.293  1.00  0.00     0.074 A 
ATOM     43  C   UNL A   1      44.263  27.465  27.741  1.00  0.00     0.031 C 
ATOM     44  C   UNL A   1      37.810  29.358  29.280  1.00  0.00     0.029 A 
ATOM     45  C   UNL A   1      38.841  30.345  29.579  1.00  0.00     0.049 A 
ATOM     46  H   UNL A   1      40.885  30.193  29.200  1.00  0.00     0.167 HD
ATOM     47  C   UNL A   1      45.196  29.631  28.514  1.00  0.00     0.034 A 
ATOM     48  C   UNL A   1      38.633  31.543  30.161  1.00  0.00     0.034 A 
ATOM     49  C   UNL A   1      45.059  30.965  29.044  1.00  0.00     0.049 A 
ATOM     50  C   UNL A   1      39.809  32.458  30.382  1.00  0.00     0.074 A 
ATOM     51  C   UNL A   1      46.043  31.916  29.254  1.00  0.00     0.029 A 
ATOM     52  N   UNL A   1      43.861  31.539  29.453  1.00  0.00    -0.354 N 
ATOM     53  N   UNL A   1      41.079  32.248  30.123  1.00  0.00    -0.248 NA
ATOM     54  C   UNL A   1      39.522  33.778  30.958  1.00  0.00     0.031 C 
ATOM     55  C   UNL A   1      45.449  33.042  29.838  1.00  0.00     0.029 A 
ATOM     56  C   UNL A   1      44.084  32.821  29.932  1.00  0.00     0.049 A 
ATOM     57  H   UNL A   1      42.982  31.098  29.408  1.00  0.00     0.167 HD
ATOM     58  C   UNL A   1      41.738  33.422  30.477  1.00  0.00     0.074 A 
ATOM     59  C   UNL A   1      40.721  34.339  30.954  1.00  0.00     0.031 C 
ATOM     60  C   UNL A   1      43.060  33.719  30.410  1.00  0.00     0.034 A 
BRANCH  47  61
ATOM     61  C   UNL A   1      46.575  29.104  28.197  1.00  0.00     0.023 A 
ATOM     62  C   UNL A   1      46.977  28.841  26.876  1.00  0.00     0.031 A 
ATOM     63  C   UNL A   1      47.488  28.820  29.229  1.00  0.00     0.131 A 
ATOM     64  C   UNL A   1      48.216  28.232  26.626  1.00  0.00     0.055 A 
ATOM     65  C   UNL A   1      48.755  28.293  28.967  1.00  0.00     0.041 A 
ATOM     66  F   UNL A   1      47.155  29.031  30.513  1.00  0.00    -0.206 F 
ATOM     67  C   UNL A   1      49.118  27.979  27.661  1.00  0.00     0.022 A 
BRANCH  64  68
ATOM     68  S   UNL A   1      48.564  27.633  24.950  1.00  0.00     0.124 S 
ATOM     69  O   UNL A   1      48.561  26.185  25.150  1.00  0.00    -0.237 OA
ATOM     70  O   UNL A   1      47.448  28.174  24.183  1.00  0.00    -0.237 OA
ATOM     71  O   UNL A   1      49.871  28.209  24.644  1.00  0.00    -0.744 OA
ENDBRANCH  64  68
ENDBRANCH  47  61
BRANCH  48  72
ATOM     72  C   UNL A   1      37.259  31.956  30.567  1.00  0.00     0.023 A 
ATOM     73  C   UNL A   1      36.395  32.584  29.658  1.00  0.00     0.031 A 
ATOM     74  C   UNL A   1      36.804  31.760  31.883  1.00  0.00     0.131 A 
ATOM     75  C   UNL A   1      35.138  33.037  30.085  1.00  0.00     0.055 A 
ATOM     76  C   UNL A   1      35.533  32.169  32.291  1.00  0.00     0.041 A 
ATOM     77  F   UNL A   1      37.588  31.154  32.790  1.00  0.00    -0.206 F 
ATOM     78  C   UNL A   1      34.696  32.823  31.392  1.00  0.00     0.022 A 
BRANCH  75  79
ATOM     79  S   UNL A   1      34.113  33.980  28.922  1.00  0.00     0.124 S 
ATOM     80  O   UNL A   1      35.092  34.882  28.326  1.00  0.00    -0.237 OA
ATOM     81  O   UNL A   1      33.596  32.928  28.053  1.00  0.00    -0.237 OA
ATOM     82  O   UNL A   1      33.119  34.617  29.784  1.00  0.00    -0.744 OA
ENDBRANCH  75  79
ENDBRANCH  48  72
BRANCH  60  83
ATOM     83  C   UNL A   1      43.469  35.112  30.820  1.00  0.00     0.023 A 
ATOM     84  C   UNL A   1      43.688  35.453  32.166  1.00  0.00     0.031 A 
ATOM     85  C   UNL A   1      43.624  36.114  29.847  1.00  0.00     0.131 A 
ATOM     86  C   UNL A   1      43.997  36.778  32.508  1.00  0.00     0.055 A 
ATOM     87  C   UNL A   1      43.987  37.418  30.188  1.00  0.00     0.041 A 
ATOM     88  F   UNL A   1      43.426  35.842  28.547  1.00  0.00    -0.206 F 
ATOM     89  C   UNL A   1      44.163  37.758  31.526  1.00  0.00     0.022 A 
BRANCH  86  90
ATOM     90  S   UNL A   1      44.093  37.224  34.263  1.00  0.00     0.124 S 
ATOM     91  O   UNL A   1      45.526  37.132  34.522  1.00  0.00    -0.237 OA
ATOM     92  O   UNL A   1      43.527  38.570  34.275  1.00  0.00    -0.237 OA
ATOM     93  O   UNL A   1      43.277  36.204  34.921  1.00  0.00    -0.744 OA
ENDBRANCH  86  90
ENDBRANCH  60  83
ENDBRANCH  34  35
ENDBRANCH  26  29
ENDBRANCH  24  25
ENDBRANCH  23  24
ENDBRANCH   1  23
TORSDOF 17
ENDMDL
MODEL 3
REMARK VINA RESULT:     -11.5      3.455      6.639
REMARK SMILES C=Cc1cncc(-c2ccc([C@@H](C)C(=O)NCCCCNC(=O)c3ccc(-c4c5nc(c(-c6cc(S(=O)(=O)[O-])ccc6F)c6ccc([nH]6)c(-c6cc(S(=O)(=O)[O-])ccc6F)c6nc(c(-c7cc(S(=O)(=O)[O-])ccc7F)c7ccc4[nH]7)C=C6)C=C5)cc3)cc2)c1
REMARK SMILES IDX 18 1 17 2 16 3 14 4 15 5 12 7 13 8 11 9 8 10 9 11 88 12
REMARK SMILES IDX 10 13 87 14 7 15 3 16 4 17 89 18 5 19 6 20 2 21 1 22 19 23
REMARK SMILES IDX 20 24 21 25 22 26 23 28 24 29 25 30 86 31 26 32 85 33 27 34
REMARK SMILES IDX 28 35 29 36 79 37 30 38 84 39 78 40 80 41 31 42 83 43 77 44
REMARK SMILES IDX 76 45 32 47 64 48 44 49 63 50 45 51 48 52 62 53 81 54 46 55
REMARK SMILES IDX 47 56 61 58 82 59 49 60 33 61 34 62 42 63 35 64 41 65 43 66
REMARK SMILES IDX 40 67 36 68 37 69 38 70 39 71 65 72 66 73 74 74 67 75 73 76
REMARK SMILES IDX 75 77 72 78 68 79 69 80 70 81 71 82 50 83 51 84 59 85 52 86
REMARK SMILES IDX 58 87 60 88 57 89 53 90 54 91 55 92 56 93
REMARK H PARENT 16 6 21 27 80 46 48 57
REMARK Flexibility Score: inf
ROOT
ATOM      1  C   UNL A   1      42.466  19.450  26.770  1.00  0.00     0.023 C 
ENDROOT
BRANCH   1   2
ATOM      2  C   UNL A   1      43.058  19.584  25.367  1.00  0.00     0.116 C 
BRANCH   2   3
ATOM      3  N   UNL A   1      44.437  20.027  25.395  1.00  0.00    -0.356 N 
ATOM      4  C   UNL A   1      44.980  21.268  25.544  1.00  0.00     0.227 C 
ATOM      5  O   UNL A   1      46.210  21.349  25.450  1.00  0.00    -0.274 OA
ATOM      6  H   UNL A   1      45.097  19.305  25.290  1.00  0.00     0.163 HD
BRANCH   4   7
ATOM      7  C   UNL A   1      44.154  22.531  25.831  1.00  0.00     0.105 C 
ATOM      8  C   UNL A   1      44.337  23.639  24.793  1.00  0.00     0.023 C 
BRANCH   7   9
ATOM      9  C   UNL A   1      44.186  22.960  27.290  1.00  0.00    -0.036 A 
ATOM     10  C   UNL A   1      44.285  23.958  29.972  1.00  0.00    -0.017 A 
ATOM     11  C   UNL A   1      43.135  23.343  29.451  1.00  0.00     0.009 A 
ATOM     12  C   UNL A   1      45.401  24.029  29.122  1.00  0.00     0.009 A 
ATOM     13  C   UNL A   1      43.096  22.825  28.151  1.00  0.00     0.005 A 
ATOM     14  C   UNL A   1      45.347  23.558  27.803  1.00  0.00     0.005 A 
BRANCH  10  15
ATOM     15  C   UNL A   1      44.309  24.507  31.347  1.00  0.00     0.001 A 
ATOM     16  C   UNL A   1      44.214  24.247  33.778  1.00  0.00    -0.007 A 
ATOM     17  C   UNL A   1      44.386  25.623  33.876  1.00  0.00     0.119 A 
ATOM     18  C   UNL A   1      44.174  23.698  32.488  1.00  0.00     0.020 A 
ATOM     19  N   UNL A   1      44.519  26.452  32.819  1.00  0.00    -0.263 NA
ATOM     20  C   UNL A   1      44.476  25.873  31.594  1.00  0.00     0.119 A 
BRANCH  16  21
ATOM     21  C   UNL A   1      44.022  23.450  34.994  1.00  0.00     0.002 C 
ATOM     22  C   UNL A   1      44.759  23.576  36.105  1.00  0.00     0.009 C 
ENDBRANCH  16  21
ENDBRANCH  10  15
ENDBRANCH   7   9
ENDBRANCH   4   7
ENDBRANCH   2   3
ENDBRANCH   1   2
BRANCH   1  23
ATOM     23  C   UNL A   1      41.069  20.044  26.943  1.00  0.00     0.023 C 
BRANCH  23  24
ATOM     24  C   UNL A   1      40.794  21.312  26.142  1.00  0.00     0.116 C 
BRANCH  24  25
ATOM     25  N   UNL A   1      39.385  21.538  25.855  1.00  0.00    -0.352 N 
ATOM     26  C   UNL A   1      38.640  22.675  26.078  1.00  0.00     0.251 C 
ATOM     27  H   UNL A   1      38.903  20.781  25.451  1.00  0.00     0.163 HD
ATOM     28  O   UNL A   1      37.436  22.673  25.852  1.00  0.00    -0.269 OA
BRANCH  26  29
ATOM     29  C   UNL A   1      39.301  23.874  26.642  1.00  0.00     0.039 A 
ATOM     30  C   UNL A   1      39.885  24.794  25.768  1.00  0.00     0.014 A 
ATOM     31  C   UNL A   1      39.295  24.114  28.017  1.00  0.00     0.014 A 
ATOM     32  C   UNL A   1      40.392  25.995  26.271  1.00  0.00     0.010 A 
ATOM     33  C   UNL A   1      39.730  25.342  28.506  1.00  0.00     0.010 A 
ATOM     34  C   UNL A   1      40.280  26.297  27.638  1.00  0.00    -0.014 A 
BRANCH  34  35
ATOM     35  C   UNL A   1      40.731  27.606  28.177  1.00  0.00     0.031 A 
ATOM     36  C   UNL A   1      42.201  27.895  28.318  1.00  0.00     0.074 A 
ATOM     37  C   UNL A   1      39.820  28.502  28.606  1.00  0.00     0.049 A 
ATOM     38  N   UNL A   1      42.795  28.944  28.828  1.00  0.00    -0.248 NA
ATOM     39  C   UNL A   1      43.124  26.847  27.858  1.00  0.00     0.031 C 
ATOM     40  C   UNL A   1      38.368  28.309  28.578  1.00  0.00     0.029 A 
ATOM     41  N   UNL A   1      39.976  29.748  29.157  1.00  0.00    -0.354 N 
ATOM     42  C   UNL A   1      44.158  28.675  28.766  1.00  0.00     0.074 A 
ATOM     43  C   UNL A   1      44.296  27.336  28.231  1.00  0.00     0.031 C 
ATOM     44  C   UNL A   1      37.768  29.408  29.062  1.00  0.00     0.029 A 
ATOM     45  C   UNL A   1      38.788  30.368  29.470  1.00  0.00     0.049 A 
ATOM     46  H   UNL A   1      40.856  30.160  29.314  1.00  0.00     0.167 HD
ATOM     47  C   UNL A   1      45.199  29.480  29.098  1.00  0.00     0.034 A 
ATOM     48  C   UNL A   1      38.550  31.574  30.025  1.00  0.00     0.034 A 
ATOM     49  C   UNL A   1      45.042  30.819  29.609  1.00  0.00     0.049 A 
ATOM     50  C   UNL A   1      39.721  32.457  30.371  1.00  0.00     0.074 A 
ATOM     51  C   UNL A   1      46.022  31.744  29.924  1.00  0.00     0.029 A 
ATOM     52  N   UNL A   1      43.823  31.426  29.886  1.00  0.00    -0.354 N 
ATOM     53  N   UNL A   1      41.005  32.212  30.251  1.00  0.00    -0.248 NA
ATOM     54  C   UNL A   1      39.409  33.787  30.912  1.00  0.00     0.031 C 
ATOM     55  C   UNL A   1      45.400  32.887  30.439  1.00  0.00     0.029 A 
ATOM     56  C   UNL A   1      44.028  32.704  30.385  1.00  0.00     0.049 A 
ATOM     57  H   UNL A   1      42.942  31.009  29.746  1.00  0.00     0.167 HD
ATOM     58  C   UNL A   1      41.653  33.370  30.673  1.00  0.00     0.074 A 
ATOM     59  C   UNL A   1      40.617  34.315  31.037  1.00  0.00     0.031 C 
ATOM     60  C   UNL A   1      42.983  33.631  30.749  1.00  0.00     0.034 A 
BRANCH  47  61
ATOM     61  C   UNL A   1      46.590  28.914  28.932  1.00  0.00     0.023 A 
ATOM     62  C   UNL A   1      47.232  28.894  27.682  1.00  0.00     0.031 A 
ATOM     63  C   UNL A   1      47.268  28.350  30.027  1.00  0.00     0.131 A 
ATOM     64  C   UNL A   1      48.467  28.246  27.537  1.00  0.00     0.055 A 
ATOM     65  C   UNL A   1      48.538  27.784  29.894  1.00  0.00     0.041 A 
ATOM     66  F   UNL A   1      46.700  28.323  31.243  1.00  0.00    -0.206 F 
ATOM     67  C   UNL A   1      49.137  27.713  28.640  1.00  0.00     0.022 A 
BRANCH  64  68
ATOM     68  S   UNL A   1      49.112  27.974  25.864  1.00  0.00     0.124 S 
ATOM     69  O   UNL A   1      47.933  28.257  25.046  1.00  0.00    -0.237 OA
ATOM     70  O   UNL A   1      50.194  28.947  25.781  1.00  0.00    -0.237 OA
ATOM     71  O   UNL A   1      49.528  26.574  25.880  1.00  0.00    -0.744 OA
ENDBRANCH  64  68
ENDBRANCH  47  61
BRANCH  48  72
ATOM     72  C   UNL A   1      37.153  32.025  30.280  1.00  0.00     0.023 A 
ATOM     73  C   UNL A   1      36.399  32.646  29.273  1.00  0.00     0.031 A 
ATOM     74  C   UNL A   1      36.564  31.873  31.548  1.00  0.00     0.131 A 
ATOM     75  C   UNL A   1      35.116  33.135  29.560  1.00  0.00     0.055 A 
ATOM     76  C   UNL A   1      35.267  32.319  31.816  1.00  0.00     0.041 A 
ATOM     77  F   UNL A   1      37.239  31.277  32.544  1.00  0.00    -0.206 F 
ATOM     78  C   UNL A   1      34.540  32.966  30.821  1.00  0.00     0.022 A 
BRANCH  75  79
ATOM     79  S   UNL A   1      34.234  34.066  28.276  1.00  0.00     0.124 S 
ATOM     80  O   UNL A   1      33.817  35.258  29.007  1.00  0.00    -0.237 OA
ATOM     81  O   UNL A   1      35.276  34.260  27.274  1.00  0.00    -0.237 OA
ATOM     82  O   UNL A   1      33.153  33.164  27.884  1.00  0.00    -0.744 OA
ENDBRANCH  75  79
ENDBRANCH  48  72
BRANCH  60  83
ATOM     83  C   UNL A   1      43.382  35.014  31.199  1.00  0.00     0.023 A 
ATOM     84  C   UNL A   1      43.555  36.068  30.285  1.00  0.00     0.031 A 
ATOM     85  C   UNL A   1      43.607  35.273  32.562  1.00  0.00     0.131 A 
ATOM     86  C   UNL A   1      43.996  37.320  30.740  1.00  0.00     0.055 A 
ATOM     87  C   UNL A   1      43.991  36.535  33.015  1.00  0.00     0.041 A 
ATOM     88  F   UNL A   1      43.457  34.301  33.477  1.00  0.00    -0.206 F 
ATOM     89  C   UNL A   1      44.200  37.564  32.101  1.00  0.00     0.022 A 
BRANCH  86  90
ATOM     90  S   UNL A   1      44.385  38.602  29.519  1.00  0.00     0.124 S 
ATOM     91  O   UNL A   1      43.059  39.109  29.178  1.00  0.00    -0.237 OA
ATOM     92  O   UNL A   1      45.239  39.509  30.279  1.00  0.00    -0.237 OA
ATOM     93  O   UNL A   1      45.060  37.866  28.452  1.00  0.00    -0.744 OA
ENDBRANCH  86  90
ENDBRANCH  60  83
ENDBRANCH  34  35
ENDBRANCH  26  29
ENDBRANCH  24  25
ENDBRANCH  23  24
ENDBRANCH   1  23
TORSDOF 17
ENDMDL
