MODEL 1
REMARK VINA RESULT:     -11.1      0.000      0.000
REMARK SMILES C[C@H](C(=O)NCCCCNC(=O)c1ccc(-c2c3nc(c(-c4cc(S(=O)(=O)[O-])ccc4F)c4ccc([nH]4)c(-c4cc(S(=O)(=O)[O-])ccc4F)c4nc(c(-c5cc(S(=O)(=O)[O-])ccc5F)c5ccc2[nH]5)C=C4)C=C3)cc1)c1ccc2ncccc2c1
REMARK SMILES IDX 8 1 7 2 6 3 5 4 3 5 4 6 2 8 1 9 76 10 77 11 85 12 78 13
REMARK SMILES IDX 84 14 79 15 83 16 80 17 82 18 81 19 9 20 10 21 11 22 12 24
REMARK SMILES IDX 13 25 14 26 75 27 15 28 74 29 16 30 17 31 18 32 68 33 19 34
REMARK SMILES IDX 73 35 67 36 69 37 20 38 72 39 66 40 65 41 21 43 53 44 33 45
REMARK SMILES IDX 52 46 34 47 37 48 51 49 70 50 35 51 36 52 50 54 71 55 38 56
REMARK SMILES IDX 22 57 23 58 31 59 24 60 30 61 32 62 29 63 25 64 26 65 27 66
REMARK SMILES IDX 28 67 54 68 55 69 63 70 56 71 62 72 64 73 61 74 57 75 58 76
REMARK SMILES IDX 59 77 60 78 39 79 40 80 48 81 41 82 47 83 49 84 46 85 42 86
REMARK SMILES IDX 43 87 44 88 45 89
REMARK H PARENT 5 7 10 23 69 42 37 53
REMARK Flexibility Score: inf
ROOT
ATOM      1  C   UNL A   1      34.484  35.666  28.445  1.00  0.00     0.023 C 
ENDROOT
BRANCH   1   2
ATOM      2  C   UNL A   1      33.126  35.835  29.118  1.00  0.00     0.023 C 
BRANCH   2   3
ATOM      3  C   UNL A   1      33.156  35.904  30.645  1.00  0.00     0.116 C 
BRANCH   3   4
ATOM      4  N   UNL A   1      33.311  34.587  31.234  1.00  0.00    -0.356 N 
ATOM      5  C   UNL A   1      34.198  34.048  32.106  1.00  0.00     0.227 C 
ATOM      6  O   UNL A   1      34.030  32.839  32.328  1.00  0.00    -0.274 OA
ATOM      7  H   UNL A   1      32.625  33.947  30.935  1.00  0.00     0.163 HD
BRANCH   5   8
ATOM      8  C   UNL A   1      35.308  34.792  32.876  1.00  0.00     0.105 C 
ATOM      9  C   UNL A   1      35.094  34.575  34.382  1.00  0.00     0.023 C 
BRANCH   8  10
ATOM     10  C   UNL A   1      36.762  34.574  32.500  1.00  0.00    -0.035 A 
ATOM     11  C   UNL A   1      37.744  34.575  33.499  1.00  0.00     0.007 A 
ATOM     12  C   UNL A   1      37.176  34.409  31.172  1.00  0.00     0.015 A 
ATOM     13  C   UNL A   1      39.103  34.518  33.165  1.00  0.00     0.029 A 
ATOM     14  C   UNL A   1      38.544  34.423  30.836  1.00  0.00     0.000 A 
ATOM     15  C   UNL A   1      39.526  34.488  31.846  1.00  0.00     0.070 A 
ATOM     16  C   UNL A   1      38.973  34.455  29.503  1.00  0.00     0.012 A 
ATOM     17  N   UNL A   1      40.839  34.568  31.572  1.00  0.00    -0.256 NA
ATOM     18  C   UNL A   1      40.326  34.584  29.215  1.00  0.00     0.021 A 
ATOM     19  C   UNL A   1      41.212  34.636  30.274  1.00  0.00     0.112 A 
ENDBRANCH   8  10
ENDBRANCH   5   8
ENDBRANCH   3   4
ENDBRANCH   2   3
ENDBRANCH   1   2
BRANCH   1  20
ATOM     20  C   UNL A   1      34.931  34.222  28.255  1.00  0.00     0.116 C 
BRANCH  20  21
ATOM     21  N   UNL A   1      33.864  33.323  27.836  1.00  0.00    -0.352 N 
ATOM     22  C   UNL A   1      33.911  31.953  27.680  1.00  0.00     0.251 C 
ATOM     23  H   UNL A   1      32.998  33.747  27.636  1.00  0.00     0.163 HD
ATOM     24  O   UNL A   1      32.949  31.344  27.236  1.00  0.00    -0.269 OA
BRANCH  22  25
ATOM     25  C   UNL A   1      35.170  31.246  28.005  1.00  0.00     0.039 A 
ATOM     26  C   UNL A   1      36.347  31.987  28.136  1.00  0.00     0.014 A 
ATOM     27  C   UNL A   1      35.162  29.875  28.273  1.00  0.00     0.014 A 
ATOM     28  C   UNL A   1      37.493  31.373  28.645  1.00  0.00     0.010 A 
ATOM     29  C   UNL A   1      36.280  29.285  28.851  1.00  0.00     0.010 A 
ATOM     30  C   UNL A   1      37.449  30.033  29.063  1.00  0.00    -0.014 A 
BRANCH  30  31
ATOM     31  C   UNL A   1      38.592  29.393  29.766  1.00  0.00     0.031 A 
ATOM     32  C   UNL A   1      39.006  29.891  31.122  1.00  0.00     0.074 A 
ATOM     33  C   UNL A   1      39.327  28.459  29.129  1.00  0.00     0.049 A 
ATOM     34  N   UNL A   1      40.069  29.594  31.824  1.00  0.00    -0.248 NA
ATOM     35  C   UNL A   1      38.128  30.888  31.752  1.00  0.00     0.031 C 
ATOM     36  C   UNL A   1      39.056  27.938  27.787  1.00  0.00     0.029 A 
ATOM     37  N   UNL A   1      40.472  27.804  29.510  1.00  0.00    -0.354 N 
ATOM     38  C   UNL A   1      40.006  30.391  32.961  1.00  0.00     0.074 A 
ATOM     39  C   UNL A   1      38.820  31.213  32.833  1.00  0.00     0.031 C 
ATOM     40  C   UNL A   1      40.003  27.043  27.460  1.00  0.00     0.029 A 
ATOM     41  C   UNL A   1      40.976  26.962  28.544  1.00  0.00     0.049 A 
ATOM     42  H   UNL A   1      40.893  27.925  30.392  1.00  0.00     0.167 HD
ATOM     43  C   UNL A   1      40.853  30.423  34.019  1.00  0.00     0.034 A 
ATOM     44  C   UNL A   1      42.107  26.230  28.522  1.00  0.00     0.034 A 
ATOM     45  C   UNL A   1      42.004  29.565  34.149  1.00  0.00     0.049 A 
ATOM     46  C   UNL A   1      43.027  26.276  29.716  1.00  0.00     0.074 A 
ATOM     47  C   UNL A   1      42.861  29.432  35.227  1.00  0.00     0.029 A 
ATOM     48  N   UNL A   1      42.466  28.702  33.164  1.00  0.00    -0.354 N 
ATOM     49  N   UNL A   1      42.912  26.980  30.818  1.00  0.00    -0.248 NA
ATOM     50  C   UNL A   1      44.225  25.428  29.663  1.00  0.00     0.031 C 
ATOM     51  C   UNL A   1      43.874  28.532  34.873  1.00  0.00     0.029 A 
ATOM     52  C   UNL A   1      43.615  28.060  33.597  1.00  0.00     0.049 A 
ATOM     53  H   UNL A   1      42.039  28.566  32.288  1.00  0.00     0.167 HD
ATOM     54  C   UNL A   1      44.013  26.642  31.598  1.00  0.00     0.074 A 
ATOM     55  C   UNL A   1      44.772  25.663  30.848  1.00  0.00     0.031 C 
ATOM     56  C   UNL A   1      44.364  27.096  32.827  1.00  0.00     0.034 A 
BRANCH  43  57
ATOM     57  C   UNL A   1      40.576  31.432  35.104  1.00  0.00     0.023 A 
ATOM     58  C   UNL A   1      39.529  31.261  36.026  1.00  0.00     0.031 A 
ATOM     59  C   UNL A   1      41.361  32.594  35.205  1.00  0.00     0.131 A 
ATOM     60  C   UNL A   1      39.251  32.268  36.962  1.00  0.00     0.055 A 
ATOM     61  C   UNL A   1      41.126  33.557  36.188  1.00  0.00     0.041 A 
ATOM     62  F   UNL A   1      42.362  32.819  34.340  1.00  0.00    -0.206 F 
ATOM     63  C   UNL A   1      40.057  33.404  37.065  1.00  0.00     0.022 A 
BRANCH  60  64
ATOM     64  S   UNL A   1      37.744  32.126  37.961  1.00  0.00     0.124 S 
ATOM     65  O   UNL A   1      36.854  33.069  37.286  1.00  0.00    -0.237 OA
ATOM     66  O   UNL A   1      37.403  30.716  37.822  1.00  0.00    -0.237 OA
ATOM     67  O   UNL A   1      38.178  32.536  39.295  1.00  0.00    -0.744 OA
ENDBRANCH  60  64
ENDBRANCH  43  57
BRANCH  44  68
ATOM     68  C   UNL A   1      42.460  25.416  27.324  1.00  0.00     0.023 A 
ATOM     69  C   UNL A   1      42.081  24.068  27.229  1.00  0.00     0.031 A 
ATOM     70  C   UNL A   1      43.227  25.963  26.280  1.00  0.00     0.131 A 
ATOM     71  C   UNL A   1      42.506  23.298  26.135  1.00  0.00     0.055 A 
ATOM     72  C   UNL A   1      43.608  25.205  25.170  1.00  0.00     0.041 A 
ATOM     73  F   UNL A   1      43.611  27.249  26.319  1.00  0.00    -0.206 F 
ATOM     74  C   UNL A   1      43.258  23.859  25.101  1.00  0.00     0.022 A 
BRANCH  71  75
ATOM     75  S   UNL A   1      42.133  21.523  26.126  1.00  0.00     0.124 S 
ATOM     76  O   UNL A   1      43.052  21.031  25.105  1.00  0.00    -0.237 OA
ATOM     77  O   UNL A   1      42.438  21.144  27.500  1.00  0.00    -0.237 OA
ATOM     78  O   UNL A   1      40.717  21.475  25.766  1.00  0.00    -0.744 OA
ENDBRANCH  71  75
ENDBRANCH  44  68
BRANCH  56  79
ATOM     79  C   UNL A   1      45.605  26.506  33.443  1.00  0.00     0.023 A 
ATOM     80  C   UNL A   1      45.571  25.292  34.148  1.00  0.00     0.031 A 
ATOM     81  C   UNL A   1      46.839  27.171  33.319  1.00  0.00     0.131 A 
ATOM     82  C   UNL A   1      46.742  24.797  34.740  1.00  0.00     0.055 A 
ATOM     83  C   UNL A   1      48.010  26.649  33.867  1.00  0.00     0.041 A 
ATOM     84  F   UNL A   1      46.923  28.334  32.655  1.00  0.00    -0.206 F 
ATOM     85  C   UNL A   1      47.964  25.459  34.589  1.00  0.00     0.022 A 
BRANCH  82  86
ATOM     86  S   UNL A   1      46.640  23.298  35.756  1.00  0.00     0.124 S 
ATOM     87  O   UNL A   1      47.189  23.758  37.027  1.00  0.00    -0.237 OA
ATOM     88  O   UNL A   1      45.211  23.007  35.745  1.00  0.00    -0.237 OA
ATOM     89  O   UNL A   1      47.472  22.337  35.033  1.00  0.00    -0.744 OA
ENDBRANCH  82  86
ENDBRANCH  56  79
ENDBRANCH  30  31
ENDBRANCH  22  25
ENDBRANCH  20  21
ENDBRANCH   1  20
TORSDOF 15
ENDMDL
MODEL 2
REMARK VINA RESULT:     -11.1      6.523     12.625
REMARK SMILES C[C@H](C(=O)NCCCCNC(=O)c1ccc(-c2c3nc(c(-c4cc(S(=O)(=O)[O-])ccc4F)c4ccc([nH]4)c(-c4cc(S(=O)(=O)[O-])ccc4F)c4nc(c(-c5cc(S(=O)(=O)[O-])ccc5F)c5ccc2[nH]5)C=C4)C=C3)cc1)c1ccc2ncccc2c1
REMARK SMILES IDX 8 1 7 2 6 3 5 4 3 5 4 6 2 8 1 9 76 10 77 11 85 12 78 13
REMARK SMILES IDX 84 14 79 15 83 16 80 17 82 18 81 19 9 20 10 21 11 22 12 24
REMARK SMILES IDX 13 25 14 26 75 27 15 28 74 29 16 30 17 31 18 32 68 33 19 34
REMARK SMILES IDX 73 35 67 36 69 37 20 38 72 39 66 40 65 41 21 43 53 44 33 45
REMARK SMILES IDX 52 46 34 47 37 48 51 49 70 50 35 51 36 52 50 54 71 55 38 56
REMARK SMILES IDX 22 57 23 58 31 59 24 60 30 61 32 62 29 63 25 64 26 65 27 66
REMARK SMILES IDX 28 67 54 68 55 69 63 70 56 71 62 72 64 73 61 74 57 75 58 76
REMARK SMILES IDX 59 77 60 78 39 79 40 80 48 81 41 82 47 83 49 84 46 85 42 86
REMARK SMILES IDX 43 87 44 88 45 89
REMARK H PARENT 5 7 10 23 69 42 37 53
REMARK Flexibility Score: inf
ROOT
ATOM      1  C   UNL A   1      36.063  21.276  24.937  1.00  0.00     0.023 C 
ENDROOT
BRANCH   1   2
ATOM      2  C   UNL A   1      35.417  21.825  26.205  1.00  0.00     0.023 C 
BRANCH   2   3
ATOM      3  C   UNL A   1      34.652  23.138  26.034  1.00  0.00     0.116 C 
BRANCH   3   4
ATOM      4  N   UNL A   1      33.456  23.168  26.854  1.00  0.00    -0.356 N 
ATOM      5  C   UNL A   1      32.149  22.893  26.619  1.00  0.00     0.227 C 
ATOM      6  O   UNL A   1      31.398  23.098  27.585  1.00  0.00    -0.274 OA
ATOM      7  H   UNL A   1      33.630  23.447  27.782  1.00  0.00     0.163 HD
BRANCH   5   8
ATOM      8  C   UNL A   1      31.545  22.301  25.329  1.00  0.00     0.105 C 
ATOM      9  C   UNL A   1      31.490  23.403  24.259  1.00  0.00     0.023 C 
BRANCH   8  10
ATOM     10  C   UNL A   1      32.112  21.016  24.752  1.00  0.00    -0.035 A 
ATOM     11  C   UNL A   1      32.211  20.865  23.363  1.00  0.00     0.007 A 
ATOM     12  C   UNL A   1      32.507  19.943  25.560  1.00  0.00     0.015 A 
ATOM     13  C   UNL A   1      32.596  19.640  22.804  1.00  0.00     0.029 A 
ATOM     14  C   UNL A   1      32.826  18.693  24.994  1.00  0.00     0.000 A 
ATOM     15  C   UNL A   1      32.862  18.533  23.593  1.00  0.00     0.070 A 
ATOM     16  C   UNL A   1      33.035  17.558  25.788  1.00  0.00     0.012 A 
ATOM     17  N   UNL A   1      33.097  17.347  23.008  1.00  0.00    -0.256 NA
ATOM     18  C   UNL A   1      33.232  16.321  25.187  1.00  0.00     0.021 A 
ATOM     19  C   UNL A   1      33.255  16.267  23.807  1.00  0.00     0.112 A 
ENDBRANCH   8  10
ENDBRANCH   5   8
ENDBRANCH   3   4
ENDBRANCH   2   3
ENDBRANCH   1   2
BRANCH   1  20
ATOM     20  C   UNL A   1      37.538  21.619  24.769  1.00  0.00     0.116 C 
BRANCH  20  21
ATOM     21  N   UNL A   1      38.445  20.605  25.289  1.00  0.00    -0.352 N 
ATOM     22  C   UNL A   1      39.523  20.773  26.133  1.00  0.00     0.251 C 
ATOM     23  H   UNL A   1      38.267  19.680  25.000  1.00  0.00     0.163 HD
ATOM     24  O   UNL A   1      40.246  19.828  26.414  1.00  0.00    -0.269 OA
BRANCH  22  25
ATOM     25  C   UNL A   1      39.821  22.131  26.640  1.00  0.00     0.039 A 
ATOM     26  C   UNL A   1      40.885  22.302  27.528  1.00  0.00     0.014 A 
ATOM     27  C   UNL A   1      39.111  23.235  26.162  1.00  0.00     0.014 A 
ATOM     28  C   UNL A   1      41.311  23.593  27.850  1.00  0.00     0.010 A 
ATOM     29  C   UNL A   1      39.584  24.516  26.424  1.00  0.00     0.010 A 
ATOM     30  C   UNL A   1      40.701  24.707  27.252  1.00  0.00    -0.014 A 
BRANCH  30  31
ATOM     31  C   UNL A   1      41.232  26.083  27.434  1.00  0.00     0.031 A 
ATOM     32  C   UNL A   1      42.588  26.437  26.891  1.00  0.00     0.074 A 
ATOM     33  C   UNL A   1      40.551  26.965  28.194  1.00  0.00     0.049 A 
ATOM     34  N   UNL A   1      43.303  27.514  27.088  1.00  0.00    -0.248 NA
ATOM     35  C   UNL A   1      43.243  25.424  26.049  1.00  0.00     0.031 C 
ATOM     36  C   UNL A   1      39.251  26.715  28.822  1.00  0.00     0.029 A 
ATOM     37  N   UNL A   1      40.870  28.238  28.596  1.00  0.00    -0.354 N 
ATOM     38  C   UNL A   1      44.505  27.296  26.425  1.00  0.00     0.074 A 
ATOM     39  C   UNL A   1      44.436  25.966  25.854  1.00  0.00     0.031 C 
ATOM     40  C   UNL A   1      38.883  27.799  29.523  1.00  0.00     0.029 A 
ATOM     41  C   UNL A   1      39.939  28.802  29.439  1.00  0.00     0.049 A 
ATOM     42  H   UNL A   1      41.688  28.705  28.307  1.00  0.00     0.167 HD
ATOM     43  C   UNL A   1      45.563  28.134  26.293  1.00  0.00     0.034 A 
ATOM     44  C   UNL A   1      39.948  29.981  30.093  1.00  0.00     0.034 A 
ATOM     45  C   UNL A   1      45.595  29.472  26.830  1.00  0.00     0.049 A 
ATOM     46  C   UNL A   1      41.132  30.899  29.922  1.00  0.00     0.074 A 
ATOM     47  C   UNL A   1      46.564  30.444  26.659  1.00  0.00     0.029 A 
ATOM     48  N   UNL A   1      44.621  30.020  27.654  1.00  0.00    -0.354 N 
ATOM     49  N   UNL A   1      42.229  30.707  29.227  1.00  0.00    -0.248 NA
ATOM     50  C   UNL A   1      41.077  32.190  30.620  1.00  0.00     0.031 C 
ATOM     51  C   UNL A   1      46.204  31.560  27.424  1.00  0.00     0.029 A 
ATOM     52  C   UNL A   1      44.983  31.305  28.026  1.00  0.00     0.049 A 
ATOM     53  H   UNL A   1      43.795  29.564  27.931  1.00  0.00     0.167 HD
ATOM     54  C   UNL A   1      42.984  31.865  29.388  1.00  0.00     0.074 A 
ATOM     55  C   UNL A   1      42.213  32.753  30.234  1.00  0.00     0.031 C 
ATOM     56  C   UNL A   1      44.205  32.170  28.880  1.00  0.00     0.034 A 
BRANCH  43  57
ATOM     57  C   UNL A   1      46.775  27.619  25.559  1.00  0.00     0.023 A 
ATOM     58  C   UNL A   1      47.049  27.985  24.231  1.00  0.00     0.031 A 
ATOM     59  C   UNL A   1      47.660  26.731  26.195  1.00  0.00     0.131 A 
ATOM     60  C   UNL A   1      48.138  27.412  23.558  1.00  0.00     0.055 A 
ATOM     61  C   UNL A   1      48.785  26.221  25.543  1.00  0.00     0.041 A 
ATOM     62  F   UNL A   1      47.438  26.330  27.457  1.00  0.00    -0.206 F 
ATOM     63  C   UNL A   1      49.022  26.551  24.212  1.00  0.00     0.022 A 
BRANCH  60  64
ATOM     64  S   UNL A   1      48.310  27.714  21.778  1.00  0.00     0.124 S 
ATOM     65  O   UNL A   1      49.377  28.712  21.751  1.00  0.00    -0.237 OA
ATOM     66  O   UNL A   1      48.658  26.394  21.266  1.00  0.00    -0.237 OA
ATOM     67  O   UNL A   1      46.993  28.209  21.385  1.00  0.00    -0.744 OA
ENDBRANCH  60  64
ENDBRANCH  43  57
BRANCH  44  68
ATOM     68  C   UNL A   1      38.824  30.355  30.997  1.00  0.00     0.023 A 
ATOM     69  C   UNL A   1      37.695  31.030  30.506  1.00  0.00     0.031 A 
ATOM     70  C   UNL A   1      38.885  30.086  32.376  1.00  0.00     0.131 A 
ATOM     71  C   UNL A   1      36.694  31.455  31.393  1.00  0.00     0.055 A 
ATOM     72  C   UNL A   1      37.863  30.469  33.248  1.00  0.00     0.041 A 
ATOM     73  F   UNL A   1      39.939  29.437  32.896  1.00  0.00    -0.206 F 
ATOM     74  C   UNL A   1      36.765  31.170  32.759  1.00  0.00     0.022 A 
BRANCH  71  75
ATOM     75  S   UNL A   1      35.332  32.463  30.746  1.00  0.00     0.124 S 
ATOM     76  O   UNL A   1      34.333  32.326  31.801  1.00  0.00    -0.237 OA
ATOM     77  O   UNL A   1      35.959  33.774  30.623  1.00  0.00    -0.237 OA
ATOM     78  O   UNL A   1      34.997  31.812  29.481  1.00  0.00    -0.744 OA
ENDBRANCH  71  75
ENDBRANCH  44  68
BRANCH  56  79
ATOM     79  C   UNL A   1      44.756  33.533  29.201  1.00  0.00     0.023 A 
ATOM     80  C   UNL A   1      44.429  34.659  28.427  1.00  0.00     0.031 A 
ATOM     81  C   UNL A   1      45.618  33.706  30.299  1.00  0.00     0.131 A 
ATOM     82  C   UNL A   1      44.995  35.904  28.736  1.00  0.00     0.055 A 
ATOM     83  C   UNL A   1      46.139  34.956  30.631  1.00  0.00     0.041 A 
ATOM     84  F   UNL A   1      45.960  32.661  31.068  1.00  0.00    -0.206 F 
ATOM     85  C   UNL A   1      45.834  36.063  29.843  1.00  0.00     0.022 A 
BRANCH  82  86
ATOM     86  S   UNL A   1      44.661  37.311  27.641  1.00  0.00     0.124 S 
ATOM     87  O   UNL A   1      45.860  37.337  26.810  1.00  0.00    -0.237 OA
ATOM     88  O   UNL A   1      43.431  36.903  26.971  1.00  0.00    -0.237 OA
ATOM     89  O   UNL A   1      44.519  38.437  28.562  1.00  0.00    -0.744 OA
ENDBRANCH  82  86
ENDBRANCH  56  79
ENDBRANCH  30  31
ENDBRANCH  22  25
ENDBRANCH  20  21
ENDBRANCH   1  20
TORSDOF 15
ENDMDL
MODEL 3
REMARK VINA RESULT:     -11.0      5.726      9.485
REMARK SMILES C[C@H](C(=O)NCCCCNC(=O)c1ccc(-c2c3nc(c(-c4cc(S(=O)(=O)[O-])ccc4F)c4ccc([nH]4)c(-c4cc(S(=O)(=O)[O-])ccc4F)c4nc(c(-c5cc(S(=O)(=O)[O-])ccc5F)c5ccc2[nH]5)C=C4)C=C3)cc1)c1ccc2ncccc2c1
REMARK SMILES IDX 8 1 7 2 6 3 5 4 3 5 4 6 2 8 1 9 76 10 77 11 85 12 78 13
REMARK SMILES IDX 84 14 79 15 83 16 80 17 82 18 81 19 9 20 10 21 11 22 12 24
REMARK SMILES IDX 13 25 14 26 75 27 15 28 74 29 16 30 17 31 18 32 68 33 19 34
REMARK SMILES IDX 73 35 67 36 69 37 20 38 72 39 66 40 65 41 21 43 53 44 33 45
REMARK SMILES IDX 52 46 34 47 37 48 51 49 70 50 35 51 36 52 50 54 71 55 38 56
REMARK SMILES IDX 22 57 23 58 31 59 24 60 30 61 32 62 29 63 25 64 26 65 27 66
REMARK SMILES IDX 28 67 54 68 55 69 63 70 56 71 62 72 64 73 61 74 57 75 58 76
REMARK SMILES IDX 59 77 60 78 39 79 40 80 48 81 41 82 47 83 49 84 46 85 42 86
REMARK SMILES IDX 43 87 44 88 45 89
REMARK H PARENT 5 7 10 23 69 42 37 53
REMARK Flexibility Score: inf
ROOT
ATOM      1  C   UNL A   1      35.964  21.450  25.757  1.00  0.00     0.023 C 
ENDROOT
BRANCH   1   2
ATOM      2  C   UNL A   1      34.859  21.193  24.738  1.00  0.00     0.023 C 
BRANCH   2   3
ATOM      3  C   UNL A   1      33.554  20.640  25.312  1.00  0.00     0.116 C 
BRANCH   3   4
ATOM      4  N   UNL A   1      33.292  21.165  26.639  1.00  0.00    -0.356 N 
ATOM      5  C   UNL A   1      32.645  22.263  27.104  1.00  0.00     0.227 C 
ATOM      6  O   UNL A   1      32.687  22.400  28.336  1.00  0.00    -0.274 OA
ATOM      7  H   UNL A   1      33.665  20.604  27.357  1.00  0.00     0.163 HD
BRANCH   5   8
ATOM      8  C   UNL A   1      31.829  23.276  26.276  1.00  0.00     0.105 C 
ATOM      9  C   UNL A   1      30.380  23.276  26.785  1.00  0.00     0.023 C 
BRANCH   8  10
ATOM     10  C   UNL A   1      32.342  24.695  26.103  1.00  0.00    -0.035 A 
ATOM     11  C   UNL A   1      33.608  24.911  25.544  1.00  0.00     0.007 A 
ATOM     12  C   UNL A   1      31.609  25.812  26.522  1.00  0.00     0.015 A 
ATOM     13  C   UNL A   1      34.160  26.196  25.504  1.00  0.00     0.029 A 
ATOM     14  C   UNL A   1      32.196  27.093  26.544  1.00  0.00     0.000 A 
ATOM     15  C   UNL A   1      33.496  27.290  26.036  1.00  0.00     0.070 A 
ATOM     16  C   UNL A   1      31.552  28.186  27.137  1.00  0.00     0.012 A 
ATOM     17  N   UNL A   1      34.122  28.477  26.094  1.00  0.00    -0.256 NA
ATOM     18  C   UNL A   1      32.212  29.404  27.241  1.00  0.00     0.021 A 
ATOM     19  C   UNL A   1      33.484  29.499  26.709  1.00  0.00     0.112 A 
ENDBRANCH   8  10
ENDBRANCH   5   8
ENDBRANCH   3   4
ENDBRANCH   2   3
ENDBRANCH   1   2
BRANCH   1  20
ATOM     20  C   UNL A   1      37.338  21.724  25.158  1.00  0.00     0.116 C 
BRANCH  20  21
ATOM     21  N   UNL A   1      38.307  20.660  25.387  1.00  0.00    -0.352 N 
ATOM     22  C   UNL A   1      39.510  20.729  26.059  1.00  0.00     0.251 C 
ATOM     23  H   UNL A   1      38.075  19.780  25.012  1.00  0.00     0.163 HD
ATOM     24  O   UNL A   1      40.258  19.763  26.094  1.00  0.00    -0.269 OA
BRANCH  22  25
ATOM     25  C   UNL A   1      39.900  22.012  26.684  1.00  0.00     0.039 A 
ATOM     26  C   UNL A   1      40.801  21.997  27.751  1.00  0.00     0.014 A 
ATOM     27  C   UNL A   1      39.450  23.223  26.153  1.00  0.00     0.014 A 
ATOM     28  C   UNL A   1      41.340  23.201  28.212  1.00  0.00     0.010 A 
ATOM     29  C   UNL A   1      40.043  24.411  26.562  1.00  0.00     0.010 A 
ATOM     30  C   UNL A   1      41.010  24.410  27.580  1.00  0.00    -0.014 A 
BRANCH  30  31
ATOM     31  C   UNL A   1      41.689  25.686  27.926  1.00  0.00     0.031 A 
ATOM     32  C   UNL A   1      40.921  26.773  28.625  1.00  0.00     0.074 A 
ATOM     33  C   UNL A   1      42.948  25.909  27.498  1.00  0.00     0.049 A 
ATOM     34  N   UNL A   1      41.268  28.012  28.860  1.00  0.00    -0.248 NA
ATOM     35  C   UNL A   1      39.566  26.430  29.081  1.00  0.00     0.031 C 
ATOM     36  C   UNL A   1      43.774  24.949  26.761  1.00  0.00     0.029 A 
ATOM     37  N   UNL A   1      43.745  27.023  27.593  1.00  0.00    -0.354 N 
ATOM     38  C   UNL A   1      40.164  28.606  29.460  1.00  0.00     0.074 A 
ATOM     39  C   UNL A   1      39.123  27.601  29.514  1.00  0.00     0.031 C 
ATOM     40  C   UNL A   1      44.958  25.513  26.474  1.00  0.00     0.029 A 
ATOM     41  C   UNL A   1      44.961  26.888  26.962  1.00  0.00     0.049 A 
ATOM     42  H   UNL A   1      43.472  27.841  28.069  1.00  0.00     0.167 HD
ATOM     43  C   UNL A   1      40.037  29.871  29.933  1.00  0.00     0.034 A 
ATOM     44  C   UNL A   1      45.955  27.780  26.773  1.00  0.00     0.034 A 
ATOM     45  C   UNL A   1      41.100  30.844  29.909  1.00  0.00     0.049 A 
ATOM     46  C   UNL A   1      45.792  29.176  27.317  1.00  0.00     0.074 A 
ATOM     47  C   UNL A   1      41.118  32.112  30.464  1.00  0.00     0.029 A 
ATOM     48  N   UNL A   1      42.329  30.663  29.289  1.00  0.00    -0.354 N 
ATOM     49  N   UNL A   1      44.768  29.700  27.950  1.00  0.00    -0.248 NA
ATOM     50  C   UNL A   1      46.918  30.099  27.123  1.00  0.00     0.031 C 
ATOM     51  C   UNL A   1      42.336  32.718  30.130  1.00  0.00     0.029 A 
ATOM     52  C   UNL A   1      43.100  31.808  29.418  1.00  0.00     0.049 A 
ATOM     53  H   UNL A   1      42.613  29.841  28.828  1.00  0.00     0.167 HD
ATOM     54  C   UNL A   1      45.138  31.007  28.249  1.00  0.00     0.074 A 
ATOM     55  C   UNL A   1      46.482  31.189  27.739  1.00  0.00     0.031 C 
ATOM     56  C   UNL A   1      44.433  31.972  28.891  1.00  0.00     0.034 A 
BRANCH  43  57
ATOM     57  C   UNL A   1      38.697  30.275  30.492  1.00  0.00     0.023 A 
ATOM     58  C   UNL A   1      37.789  31.051  29.752  1.00  0.00     0.031 A 
ATOM     59  C   UNL A   1      38.331  29.894  31.794  1.00  0.00     0.131 A 
ATOM     60  C   UNL A   1      36.591  31.480  30.344  1.00  0.00     0.055 A 
ATOM     61  C   UNL A   1      37.104  30.261  32.351  1.00  0.00     0.041 A 
ATOM     62  F   UNL A   1      39.167  29.168  32.555  1.00  0.00    -0.206 F 
ATOM     63  C   UNL A   1      36.232  31.070  31.630  1.00  0.00     0.022 A 
BRANCH  60  64
ATOM     64  S   UNL A   1      35.569  32.682  29.452  1.00  0.00     0.124 S 
ATOM     65  O   UNL A   1      34.406  31.872  29.095  1.00  0.00    -0.237 OA
ATOM     66  O   UNL A   1      35.344  33.714  30.457  1.00  0.00    -0.237 OA
ATOM     67  O   UNL A   1      36.411  33.081  28.326  1.00  0.00    -0.744 OA
ENDBRANCH  60  64
ENDBRANCH  43  57
BRANCH  44  68
ATOM     68  C   UNL A   1      47.177  27.402  26.008  1.00  0.00     0.023 A 
ATOM     69  C   UNL A   1      47.304  27.720  24.646  1.00  0.00     0.031 A 
ATOM     70  C   UNL A   1      48.213  26.672  26.615  1.00  0.00     0.131 A 
ATOM     71  C   UNL A   1      48.421  27.271  23.925  1.00  0.00     0.055 A 
ATOM     72  C   UNL A   1      49.346  26.268  25.905  1.00  0.00     0.041 A 
ATOM     73  F   UNL A   1      48.144  26.347  27.917  1.00  0.00    -0.206 F 
ATOM     74  C   UNL A   1      49.447  26.555  24.547  1.00  0.00     0.022 A 
BRANCH  71  75
ATOM     75  S   UNL A   1      48.473  27.562  22.136  1.00  0.00     0.124 S 
ATOM     76  O   UNL A   1      49.611  28.468  22.014  1.00  0.00    -0.237 OA
ATOM     77  O   UNL A   1      48.670  26.214  21.616  1.00  0.00    -0.237 OA
ATOM     78  O   UNL A   1      47.169  28.156  21.849  1.00  0.00    -0.744 OA
ENDBRANCH  71  75
ENDBRANCH  44  68
BRANCH  56  79
ATOM     79  C   UNL A   1      45.123  33.293  29.105  1.00  0.00     0.023 A 
ATOM     80  C   UNL A   1      45.036  34.329  28.160  1.00  0.00     0.031 A 
ATOM     81  C   UNL A   1      45.874  33.517  30.273  1.00  0.00     0.131 A 
ATOM     82  C   UNL A   1      45.726  35.530  28.379  1.00  0.00     0.055 A 
ATOM     83  C   UNL A   1      46.517  34.731  30.508  1.00  0.00     0.041 A 
ATOM     84  F   UNL A   1      45.987  32.558  31.205  1.00  0.00    -0.206 F 
ATOM     85  C   UNL A   1      46.451  35.744  29.555  1.00  0.00     0.022 A 
BRANCH  82  86
ATOM     86  S   UNL A   1      45.706  36.797  27.081  1.00  0.00     0.124 S 
ATOM     87  O   UNL A   1      46.528  37.847  27.672  1.00  0.00    -0.237 OA
ATOM     88  O   UNL A   1      46.289  36.093  25.944  1.00  0.00    -0.237 OA
ATOM     89  O   UNL A   1      44.287  37.124  26.943  1.00  0.00    -0.744 OA
ENDBRANCH  82  86
ENDBRANCH  56  79
ENDBRANCH  30  31
ENDBRANCH  22  25
ENDBRANCH  20  21
ENDBRANCH   1  20
TORSDOF 15
ENDMDL
