MODEL 1
REMARK VINA RESULT:     -10.4      0.000      0.000
REMARK SMILES CC(C)CC[C@@H](C)[C@@](C)(O)C(=O)NCCCCNC(=O)c1ccc(-c2c3nc(c(-c4cc(S(=O)(=O)[O-])ccc4F)c4ccc([nH]4)c(-c4cc(S(=O)(=O)[O-])ccc4F)c4nc(c(-c5cc(S(=O)(=O)[O-])ccc5F)c5ccc2[nH]5)C=C4)C=C3)cc1
REMARK SMILES IDX 15 1 14 2 13 3 11 4 12 5 8 7 9 8 6 9 7 10 5 11 4 12 2 13
REMARK SMILES IDX 1 14 3 15 10 16 16 18 17 19 18 20 19 21 20 23 21 24 22 25
REMARK SMILES IDX 83 26 23 27 82 28 24 29 25 30 26 31 76 32 27 33 81 34 75 35
REMARK SMILES IDX 77 36 28 37 80 38 74 39 73 40 29 42 61 43 41 44 60 45 42 46
REMARK SMILES IDX 45 47 59 48 78 49 43 50 44 51 58 53 79 54 46 55 30 56 31 57
REMARK SMILES IDX 39 58 32 59 38 60 40 61 37 62 33 63 34 64 35 65 36 66 62 67
REMARK SMILES IDX 63 68 71 69 64 70 70 71 72 72 69 73 65 74 66 75 67 76 68 77
REMARK SMILES IDX 47 78 48 79 56 80 49 81 55 82 57 83 54 84 50 85 51 86 52 87
REMARK SMILES IDX 53 88
REMARK H PARENT 13 6 10 17 18 22 77 41 45 52
REMARK Flexibility Score: inf
ROOT
ATOM      1  C   UNL A   1      37.418  22.047  24.423  1.00  0.00     0.023 C 
ENDROOT
BRANCH   1   2
ATOM      2  C   UNL A   1      35.976  22.475  24.685  1.00  0.00     0.116 C 
BRANCH   2   3
ATOM      3  N   UNL A   1      35.501  22.035  25.982  1.00  0.00    -0.354 N 
ATOM      4  C   UNL A   1      34.244  21.707  26.403  1.00  0.00     0.251 C 
ATOM      5  O   UNL A   1      34.130  21.400  27.593  1.00  0.00    -0.272 OA
ATOM      6  H   UNL A   1      36.198  21.960  26.672  1.00  0.00     0.163 HD
BRANCH   4   7
ATOM      7  C   UNL A   1      33.050  21.656  25.400  1.00  0.00     0.142 C 
ATOM      8  C   UNL A   1      32.849  23.055  24.791  1.00  0.00     0.053 C 
BRANCH   7   9
ATOM      9  C   UNL A   1      33.246  20.591  24.262  1.00  0.00     0.027 C 
ATOM     10  C   UNL A   1      32.209  20.745  23.137  1.00  0.00     0.011 C 
BRANCH   9  11
ATOM     11  C   UNL A   1      33.324  19.126  24.758  1.00  0.00     0.007 C 
BRANCH  11  12
ATOM     12  C   UNL A   1      34.702  18.458  24.625  1.00  0.00     0.003 C 
BRANCH  12  13
ATOM     13  C   UNL A   1      34.685  16.963  24.253  1.00  0.00    -0.017 C 
ATOM     14  C   UNL A   1      33.983  16.107  25.308  1.00  0.00     0.007 C 
ATOM     15  C   UNL A   1      34.004  16.775  22.895  1.00  0.00     0.007 C 
ENDBRANCH  12  13
ENDBRANCH  11  12
ENDBRANCH   9  11
ENDBRANCH   7   9
BRANCH   7  16
ATOM     16  O   UNL A   1      31.834  21.314  26.089  1.00  0.00    -0.380 OA
ATOM     17  H   UNL A   1      32.050  20.858  26.918  1.00  0.00     0.212 HD
ENDBRANCH   7  16
ENDBRANCH   4   7
ENDBRANCH   2   3
ENDBRANCH   1   2
BRANCH   1  18
ATOM     18  C   UNL A   1      37.839  20.741  25.098  1.00  0.00     0.023 C 
BRANCH  18  19
ATOM     19  C   UNL A   1      38.979  20.860  26.105  1.00  0.00     0.116 C 
BRANCH  19  20
ATOM     20  N   UNL A   1      39.923  19.757  26.029  1.00  0.00    -0.352 N 
ATOM     21  C   UNL A   1      41.295  19.782  26.104  1.00  0.00     0.251 C 
ATOM     22  H   UNL A   1      39.523  18.866  25.904  1.00  0.00     0.163 HD
ATOM     23  O   UNL A   1      41.936  18.757  25.887  1.00  0.00    -0.269 OA
BRANCH  21  24
ATOM     24  C   UNL A   1      41.990  21.051  26.408  1.00  0.00     0.039 A 
ATOM     25  C   UNL A   1      42.397  21.866  25.350  1.00  0.00     0.014 A 
ATOM     26  C   UNL A   1      42.214  21.448  27.729  1.00  0.00     0.014 A 
ATOM     27  C   UNL A   1      42.960  23.117  25.618  1.00  0.00     0.010 A 
ATOM     28  C   UNL A   1      42.705  22.724  27.993  1.00  0.00     0.010 A 
ATOM     29  C   UNL A   1      43.080  23.574  26.942  1.00  0.00    -0.014 A 
BRANCH  29  30
ATOM     30  C   UNL A   1      43.592  24.937  27.243  1.00  0.00     0.031 A 
ATOM     31  C   UNL A   1      42.662  25.990  27.782  1.00  0.00     0.074 A 
ATOM     32  C   UNL A   1      44.876  25.246  26.967  1.00  0.00     0.049 A 
ATOM     33  N   UNL A   1      42.894  27.253  28.030  1.00  0.00    -0.248 NA
ATOM     34  C   UNL A   1      41.278  25.570  28.046  1.00  0.00     0.031 C 
ATOM     35  C   UNL A   1      45.863  24.323  26.404  1.00  0.00     0.029 A 
ATOM     36  N   UNL A   1      45.568  26.421  27.114  1.00  0.00    -0.354 N 
ATOM     37  C   UNL A   1      41.684  27.783  28.466  1.00  0.00     0.074 A 
ATOM     38  C   UNL A   1      40.709  26.716  28.385  1.00  0.00     0.031 C 
ATOM     39  C   UNL A   1      47.038  24.960  26.275  1.00  0.00     0.029 A 
ATOM     40  C   UNL A   1      46.879  26.347  26.702  1.00  0.00     0.049 A 
ATOM     41  H   UNL A   1      45.165  27.241  27.480  1.00  0.00     0.167 HD
ATOM     42  C   UNL A   1      41.417  29.035  28.912  1.00  0.00     0.034 A 
ATOM     43  C   UNL A   1      47.840  27.292  26.660  1.00  0.00     0.034 A 
ATOM     44  C   UNL A   1      42.405  30.084  28.996  1.00  0.00     0.049 A 
ATOM     45  C   UNL A   1      47.515  28.684  27.139  1.00  0.00     0.074 A 
ATOM     46  C   UNL A   1      42.259  31.370  29.487  1.00  0.00     0.029 A 
ATOM     47  N   UNL A   1      43.723  29.972  28.570  1.00  0.00    -0.354 N 
ATOM     48  N   UNL A   1      46.378  29.155  27.597  1.00  0.00    -0.248 NA
ATOM     49  C   UNL A   1      48.605  29.667  27.103  1.00  0.00     0.031 C 
ATOM     50  C   UNL A   1      43.464  32.054  29.296  1.00  0.00     0.029 A 
ATOM     51  C   UNL A   1      44.390  31.174  28.758  1.00  0.00     0.049 A 
ATOM     52  H   UNL A   1      44.125  29.158  28.191  1.00  0.00     0.167 HD
ATOM     53  C   UNL A   1      46.627  30.483  27.934  1.00  0.00     0.074 A 
ATOM     54  C   UNL A   1      48.024  30.730  27.639  1.00  0.00     0.031 C 
ATOM     55  C   UNL A   1      45.781  31.412  28.448  1.00  0.00     0.034 A 
BRANCH  42  56
ATOM     56  C   UNL A   1      39.992  29.339  29.314  1.00  0.00     0.023 A 
ATOM     57  C   UNL A   1      39.608  29.426  30.664  1.00  0.00     0.031 A 
ATOM     58  C   UNL A   1      38.996  29.511  28.337  1.00  0.00     0.131 A 
ATOM     59  C   UNL A   1      38.256  29.594  31.000  1.00  0.00     0.055 A 
ATOM     60  C   UNL A   1      37.665  29.763  28.677  1.00  0.00     0.041 A 
ATOM     61  F   UNL A   1      39.295  29.419  27.032  1.00  0.00    -0.206 F 
ATOM     62  C   UNL A   1      37.285  29.789  30.016  1.00  0.00     0.022 A 
BRANCH  59  63
ATOM     63  S   UNL A   1      37.765  29.396  32.735  1.00  0.00     0.124 S 
ATOM     64  O   UNL A   1      37.689  27.942  32.856  1.00  0.00    -0.237 OA
ATOM     65  O   UNL A   1      38.860  30.042  33.449  1.00  0.00    -0.237 OA
ATOM     66  O   UNL A   1      36.478  30.086  32.807  1.00  0.00    -0.744 OA
ENDBRANCH  59  63
ENDBRANCH  42  56
BRANCH  43  67
ATOM     67  C   UNL A   1      49.199  26.964  26.141  1.00  0.00     0.023 A 
ATOM     68  C   UNL A   1      49.601  27.377  24.860  1.00  0.00     0.031 A 
ATOM     69  C   UNL A   1      50.101  26.199  26.901  1.00  0.00     0.131 A 
ATOM     70  C   UNL A   1      50.853  26.985  24.360  1.00  0.00     0.055 A 
ATOM     71  C   UNL A   1      51.366  25.856  26.419  1.00  0.00     0.041 A 
ATOM     72  F   UNL A   1      49.768  25.783  28.133  1.00  0.00    -0.206 F 
ATOM     73  C   UNL A   1      51.743  26.239  25.136  1.00  0.00     0.022 A 
BRANCH  70  74
ATOM     74  S   UNL A   1      51.271  27.399  22.644  1.00  0.00     0.124 S 
ATOM     75  O   UNL A   1      51.291  28.857  22.686  1.00  0.00    -0.237 OA
ATOM     76  O   UNL A   1      52.564  26.745  22.482  1.00  0.00    -0.237 OA
ATOM     77  O   UNL A   1      50.175  26.812  21.876  1.00  0.00    -0.744 OA
ENDBRANCH  70  74
ENDBRANCH  43  67
BRANCH  55  78
ATOM     78  C   UNL A   1      46.362  32.768  28.765  1.00  0.00     0.023 A 
ATOM     79  C   UNL A   1      46.291  33.838  27.854  1.00  0.00     0.031 A 
ATOM     80  C   UNL A   1      47.006  32.989  29.995  1.00  0.00     0.131 A 
ATOM     81  C   UNL A   1      46.904  35.061  28.166  1.00  0.00     0.055 A 
ATOM     82  C   UNL A   1      47.561  34.226  30.324  1.00  0.00     0.041 A 
ATOM     83  F   UNL A   1      47.105  32.003  30.901  1.00  0.00    -0.206 F 
ATOM     84  C   UNL A   1      47.523  35.268  29.401  1.00  0.00     0.022 A 
BRANCH  81  85
ATOM     85  S   UNL A   1      46.963  36.355  26.895  1.00  0.00     0.124 S 
ATOM     86  O   UNL A   1      47.730  35.706  25.836  1.00  0.00    -0.237 OA
ATOM     87  O   UNL A   1      45.549  36.578  26.612  1.00  0.00    -0.237 OA
ATOM     88  O   UNL A   1      47.643  37.462  27.564  1.00  0.00    -0.744 OA
ENDBRANCH  81  85
ENDBRANCH  55  78
ENDBRANCH  29  30
ENDBRANCH  21  24
ENDBRANCH  19  20
ENDBRANCH  18  19
ENDBRANCH   1  18
TORSDOF 19
ENDMDL
MODEL 2
REMARK VINA RESULT:     -10.2      6.654     11.119
REMARK SMILES CC(C)CC[C@@H](C)[C@@](C)(O)C(=O)NCCCCNC(=O)c1ccc(-c2c3nc(c(-c4cc(S(=O)(=O)[O-])ccc4F)c4ccc([nH]4)c(-c4cc(S(=O)(=O)[O-])ccc4F)c4nc(c(-c5cc(S(=O)(=O)[O-])ccc5F)c5ccc2[nH]5)C=C4)C=C3)cc1
REMARK SMILES IDX 15 1 14 2 13 3 11 4 12 5 8 7 9 8 6 9 7 10 5 11 4 12 2 13
REMARK SMILES IDX 1 14 3 15 10 16 16 18 17 19 18 20 19 21 20 23 21 24 22 25
REMARK SMILES IDX 83 26 23 27 82 28 24 29 25 30 26 31 76 32 27 33 81 34 75 35
REMARK SMILES IDX 77 36 28 37 80 38 74 39 73 40 29 42 61 43 41 44 60 45 42 46
REMARK SMILES IDX 45 47 59 48 78 49 43 50 44 51 58 53 79 54 46 55 30 56 31 57
REMARK SMILES IDX 39 58 32 59 38 60 40 61 37 62 33 63 34 64 35 65 36 66 62 67
REMARK SMILES IDX 63 68 71 69 64 70 70 71 72 72 69 73 65 74 66 75 67 76 68 77
REMARK SMILES IDX 47 78 48 79 56 80 49 81 55 82 57 83 54 84 50 85 51 86 52 87
REMARK SMILES IDX 53 88
REMARK H PARENT 13 6 10 17 18 22 77 41 45 52
REMARK Flexibility Score: inf
ROOT
ATOM      1  C   UNL A   1      32.945  35.052  28.734  1.00  0.00     0.023 C 
ENDROOT
BRANCH   1   2
ATOM      2  C   UNL A   1      33.122  36.301  29.593  1.00  0.00     0.116 C 
BRANCH   2   3
ATOM      3  N   UNL A   1      32.185  36.344  30.697  1.00  0.00    -0.354 N 
ATOM      4  C   UNL A   1      32.402  36.348  32.046  1.00  0.00     0.251 C 
ATOM      5  O   UNL A   1      31.395  36.349  32.760  1.00  0.00    -0.272 OA
ATOM      6  H   UNL A   1      31.238  36.373  30.434  1.00  0.00     0.163 HD
BRANCH   4   7
ATOM      7  C   UNL A   1      33.848  36.428  32.626  1.00  0.00     0.142 C 
ATOM      8  C   UNL A   1      33.765  36.679  34.142  1.00  0.00     0.053 C 
BRANCH   7   9
ATOM      9  C   UNL A   1      34.701  35.142  32.333  1.00  0.00     0.027 C 
ATOM     10  C   UNL A   1      33.900  33.849  32.564  1.00  0.00     0.011 C 
BRANCH   9  11
ATOM     11  C   UNL A   1      36.065  35.094  33.063  1.00  0.00     0.007 C 
BRANCH  11  12
ATOM     12  C   UNL A   1      37.047  34.025  32.556  1.00  0.00     0.003 C 
BRANCH  12  13
ATOM     13  C   UNL A   1      38.083  34.507  31.524  1.00  0.00    -0.017 C 
ATOM     14  C   UNL A   1      39.516  34.422  32.052  1.00  0.00     0.007 C 
ATOM     15  C   UNL A   1      37.954  33.685  30.239  1.00  0.00     0.007 C 
ENDBRANCH  12  13
ENDBRANCH  11  12
ENDBRANCH   9  11
ENDBRANCH   7   9
BRANCH   7  16
ATOM     16  O   UNL A   1      34.556  37.540  32.050  1.00  0.00    -0.380 OA
ATOM     17  H   UNL A   1      35.508  37.434  32.208  1.00  0.00     0.212 HD
ENDBRANCH   7  16
ENDBRANCH   4   7
ENDBRANCH   2   3
ENDBRANCH   1   2
BRANCH   1  18
ATOM     18  C   UNL A   1      34.205  34.580  28.007  1.00  0.00     0.023 C 
BRANCH  18  19
ATOM     19  C   UNL A   1      34.759  33.233  28.461  1.00  0.00     0.116 C 
BRANCH  19  20
ATOM     20  N   UNL A   1      34.115  32.104  27.810  1.00  0.00    -0.352 N 
ATOM     21  C   UNL A   1      34.581  30.823  27.633  1.00  0.00     0.251 C 
ATOM     22  H   UNL A   1      33.219  32.283  27.443  1.00  0.00     0.163 HD
ATOM     23  O   UNL A   1      33.946  30.035  26.938  1.00  0.00    -0.269 OA
BRANCH  21  24
ATOM     24  C   UNL A   1      35.863  30.417  28.247  1.00  0.00     0.039 A 
ATOM     25  C   UNL A   1      35.841  29.751  29.475  1.00  0.00     0.014 A 
ATOM     26  C   UNL A   1      37.079  30.664  27.602  1.00  0.00     0.014 A 
ATOM     27  C   UNL A   1      37.033  29.266  30.019  1.00  0.00     0.010 A 
ATOM     28  C   UNL A   1      38.254  30.115  28.109  1.00  0.00     0.010 A 
ATOM     29  C   UNL A   1      38.244  29.407  29.320  1.00  0.00    -0.014 A 
BRANCH  29  30
ATOM     30  C   UNL A   1      39.507  28.818  29.840  1.00  0.00     0.031 A 
ATOM     31  C   UNL A   1      40.209  29.453  31.009  1.00  0.00     0.074 A 
ATOM     32  C   UNL A   1      40.056  27.756  29.216  1.00  0.00     0.049 A 
ATOM     33  N   UNL A   1      41.356  29.141  31.556  1.00  0.00    -0.248 NA
ATOM     34  C   UNL A   1      39.546  30.612  31.623  1.00  0.00     0.031 C 
ATOM     35  C   UNL A   1      39.491  27.079  28.046  1.00  0.00     0.029 A 
ATOM     36  N   UNL A   1      41.213  27.064  29.470  1.00  0.00    -0.354 N 
ATOM     37  C   UNL A   1      41.560  30.073  32.569  1.00  0.00     0.074 A 
ATOM     38  C   UNL A   1      40.446  30.997  32.514  1.00  0.00     0.031 C 
ATOM     39  C   UNL A   1      40.290  26.057  27.701  1.00  0.00     0.029 A 
ATOM     40  C   UNL A   1      41.446  26.031  28.592  1.00  0.00     0.049 A 
ATOM     41  H   UNL A   1      41.820  27.286  30.213  1.00  0.00     0.167 HD
ATOM     42  C   UNL A   1      42.569  30.139  33.472  1.00  0.00     0.034 A 
ATOM     43  C   UNL A   1      42.479  25.170  28.505  1.00  0.00     0.034 A 
ATOM     44  C   UNL A   1      43.665  29.201  33.518  1.00  0.00     0.049 A 
ATOM     45  C   UNL A   1      43.603  25.275  29.505  1.00  0.00     0.074 A 
ATOM     46  C   UNL A   1      44.708  29.138  34.426  1.00  0.00     0.029 A 
ATOM     47  N   UNL A   1      43.868  28.167  32.612  1.00  0.00    -0.354 N 
ATOM     48  N   UNL A   1      43.754  26.131  30.490  1.00  0.00    -0.248 NA
ATOM     49  C   UNL A   1      44.687  24.294  29.387  1.00  0.00     0.031 C 
ATOM     50  C   UNL A   1      45.575  28.114  34.030  1.00  0.00     0.029 A 
ATOM     51  C   UNL A   1      45.034  27.483  32.921  1.00  0.00     0.049 A 
ATOM     52  H   UNL A   1      43.270  27.952  31.860  1.00  0.00     0.167 HD
ATOM     53  C   UNL A   1      44.937  25.768  31.129  1.00  0.00     0.074 A 
ATOM     54  C   UNL A   1      45.449  24.610  30.425  1.00  0.00     0.031 C 
ATOM     55  C   UNL A   1      45.542  26.336  32.203  1.00  0.00     0.034 A 
BRANCH  42  56
ATOM     56  C   UNL A   1      42.540  31.279  34.463  1.00  0.00     0.023 A 
ATOM     57  C   UNL A   1      41.590  31.336  35.498  1.00  0.00     0.031 A 
ATOM     58  C   UNL A   1      43.453  32.343  34.352  1.00  0.00     0.131 A 
ATOM     59  C   UNL A   1      41.520  32.467  36.326  1.00  0.00     0.055 A 
ATOM     60  C   UNL A   1      43.433  33.426  35.234  1.00  0.00     0.041 A 
ATOM     61  F   UNL A   1      44.371  32.358  33.373  1.00  0.00    -0.206 F 
ATOM     62  C   UNL A   1      42.451  33.501  36.217  1.00  0.00     0.022 A 
BRANCH  59  63
ATOM     63  S   UNL A   1      40.099  32.636  37.440  1.00  0.00     0.124 S 
ATOM     64  O   UNL A   1      40.727  32.461  38.748  1.00  0.00    -0.237 OA
ATOM     65  O   UNL A   1      39.617  33.978  37.137  1.00  0.00    -0.237 OA
ATOM     66  O   UNL A   1      39.213  31.547  37.033  1.00  0.00    -0.744 OA
ENDBRANCH  59  63
ENDBRANCH  42  56
BRANCH  43  67
ATOM     67  C   UNL A   1      42.513  24.137  27.430  1.00  0.00     0.023 A 
ATOM     68  C   UNL A   1      41.819  22.924  27.572  1.00  0.00     0.031 A 
ATOM     69  C   UNL A   1      43.272  24.330  26.262  1.00  0.00     0.131 A 
ATOM     70  C   UNL A   1      41.933  21.933  26.585  1.00  0.00     0.055 A 
ATOM     71  C   UNL A   1      43.340  23.361  25.258  1.00  0.00     0.041 A 
ATOM     72  F   UNL A   1      43.950  25.472  26.074  1.00  0.00    -0.206 F 
ATOM     73  C   UNL A   1      42.679  22.148  25.423  1.00  0.00     0.022 A 
BRANCH  70  74
ATOM     74  S   UNL A   1      41.156  20.320  26.879  1.00  0.00     0.124 S 
ATOM     75  O   UNL A   1      42.224  19.402  26.497  1.00  0.00    -0.237 OA
ATOM     76  O   UNL A   1      40.849  20.388  28.303  1.00  0.00    -0.237 OA
ATOM     77  O   UNL A   1      39.997  20.334  25.990  1.00  0.00    -0.744 OA
ENDBRANCH  70  74
ENDBRANCH  43  67
BRANCH  55  78
ATOM     78  C   UNL A   1      46.802  25.677  32.707  1.00  0.00     0.023 A 
ATOM     79  C   UNL A   1      46.775  24.693  33.712  1.00  0.00     0.031 A 
ATOM     80  C   UNL A   1      48.052  26.049  32.180  1.00  0.00     0.131 A 
ATOM     81  C   UNL A   1      47.978  24.156  34.196  1.00  0.00     0.055 A 
ATOM     82  C   UNL A   1      49.240  25.468  32.622  1.00  0.00     0.041 A 
ATOM     83  F   UNL A   1      48.137  26.985  31.221  1.00  0.00    -0.206 F 
ATOM     84  C   UNL A   1      49.209  24.524  33.646  1.00  0.00     0.022 A 
BRANCH  81  85
ATOM     85  S   UNL A   1      47.921  23.035  35.621  1.00  0.00     0.124 S 
ATOM     86  O   UNL A   1      49.191  22.325  35.500  1.00  0.00    -0.237 OA
ATOM     87  O   UNL A   1      47.814  23.962  36.743  1.00  0.00    -0.237 OA
ATOM     88  O   UNL A   1      46.732  22.224  35.373  1.00  0.00    -0.744 OA
ENDBRANCH  81  85
ENDBRANCH  55  78
ENDBRANCH  29  30
ENDBRANCH  21  24
ENDBRANCH  19  20
ENDBRANCH  18  19
ENDBRANCH   1  18
TORSDOF 19
ENDMDL
MODEL 3
REMARK VINA RESULT:     -10.1      2.428      8.361
REMARK SMILES CC(C)CC[C@@H](C)[C@@](C)(O)C(=O)NCCCCNC(=O)c1ccc(-c2c3nc(c(-c4cc(S(=O)(=O)[O-])ccc4F)c4ccc([nH]4)c(-c4cc(S(=O)(=O)[O-])ccc4F)c4nc(c(-c5cc(S(=O)(=O)[O-])ccc5F)c5ccc2[nH]5)C=C4)C=C3)cc1
REMARK SMILES IDX 15 1 14 2 13 3 11 4 12 5 8 7 9 8 6 9 7 10 5 11 4 12 2 13
REMARK SMILES IDX 1 14 3 15 10 16 16 18 17 19 18 20 19 21 20 23 21 24 22 25
REMARK SMILES IDX 83 26 23 27 82 28 24 29 25 30 26 31 76 32 27 33 81 34 75 35
REMARK SMILES IDX 77 36 28 37 80 38 74 39 73 40 29 42 61 43 41 44 60 45 42 46
REMARK SMILES IDX 45 47 59 48 78 49 43 50 44 51 58 53 79 54 46 55 30 56 31 57
REMARK SMILES IDX 39 58 32 59 38 60 40 61 37 62 33 63 34 64 35 65 36 66 62 67
REMARK SMILES IDX 63 68 71 69 64 70 70 71 72 72 69 73 65 74 66 75 67 76 68 77
REMARK SMILES IDX 47 78 48 79 56 80 49 81 55 82 57 83 54 84 50 85 51 86 52 87
REMARK SMILES IDX 53 88
REMARK H PARENT 13 6 10 17 18 22 77 41 45 52
REMARK Flexibility Score: inf
ROOT
ATOM      1  C   UNL A   1      35.934  23.596  23.698  1.00  0.00     0.023 C 
ENDROOT
BRANCH   1   2
ATOM      2  C   UNL A   1      34.436  23.673  23.977  1.00  0.00     0.116 C 
BRANCH   2   3
ATOM      3  N   UNL A   1      34.124  23.405  25.367  1.00  0.00    -0.354 N 
ATOM      4  C   UNL A   1      33.069  22.744  25.928  1.00  0.00     0.251 C 
ATOM      5  O   UNL A   1      33.044  22.703  27.162  1.00  0.00    -0.272 OA
ATOM      6  H   UNL A   1      34.778  23.757  26.012  1.00  0.00     0.163 HD
BRANCH   4   7
ATOM      7  C   UNL A   1      32.009  22.021  25.040  1.00  0.00     0.142 C 
ATOM      8  C   UNL A   1      31.228  23.077  24.237  1.00  0.00     0.053 C 
BRANCH   7   9
ATOM      9  C   UNL A   1      32.640  20.958  24.071  1.00  0.00     0.027 C 
ATOM     10  C   UNL A   1      32.142  21.122  22.625  1.00  0.00     0.011 C 
BRANCH   9  11
ATOM     11  C   UNL A   1      32.505  19.491  24.548  1.00  0.00     0.007 C 
BRANCH  11  12
ATOM     12  C   UNL A   1      32.636  18.426  23.448  1.00  0.00     0.003 C 
BRANCH  12  13
ATOM     13  C   UNL A   1      33.766  17.398  23.646  1.00  0.00    -0.017 C 
ATOM     14  C   UNL A   1      34.973  17.990  24.376  1.00  0.00     0.007 C 
ATOM     15  C   UNL A   1      33.235  16.187  24.417  1.00  0.00     0.007 C 
ENDBRANCH  12  13
ENDBRANCH  11  12
ENDBRANCH   9  11
ENDBRANCH   7   9
BRANCH   7  16
ATOM     16  O   UNL A   1      31.058  21.325  25.864  1.00  0.00    -0.380 OA
ATOM     17  H   UNL A   1      31.359  20.413  26.004  1.00  0.00     0.212 HD
ENDBRANCH   7  16
ENDBRANCH   4   7
ENDBRANCH   2   3
ENDBRANCH   1   2
BRANCH   1  18
ATOM     18  C   UNL A   1      36.615  22.307  24.161  1.00  0.00     0.023 C 
BRANCH  18  19
ATOM     19  C   UNL A   1      37.184  22.337  25.576  1.00  0.00     0.116 C 
BRANCH  19  20
ATOM     20  N   UNL A   1      38.301  21.426  25.760  1.00  0.00    -0.352 N 
ATOM     21  C   UNL A   1      39.571  21.690  26.214  1.00  0.00     0.251 C 
ATOM     22  H   UNL A   1      38.123  20.486  25.524  1.00  0.00     0.163 HD
ATOM     23  O   UNL A   1      40.427  20.809  26.178  1.00  0.00    -0.269 OA
BRANCH  21  24
ATOM     24  C   UNL A   1      39.908  23.043  26.706  1.00  0.00     0.039 A 
ATOM     25  C   UNL A   1      40.621  23.167  27.900  1.00  0.00     0.014 A 
ATOM     26  C   UNL A   1      39.548  24.181  25.980  1.00  0.00     0.014 A 
ATOM     27  C   UNL A   1      41.041  24.430  28.326  1.00  0.00     0.010 A 
ATOM     28  C   UNL A   1      40.030  25.429  26.366  1.00  0.00     0.010 A 
ATOM     29  C   UNL A   1      40.785  25.567  27.541  1.00  0.00    -0.014 A 
BRANCH  29  30
ATOM     30  C   UNL A   1      41.301  26.906  27.932  1.00  0.00     0.031 A 
ATOM     31  C   UNL A   1      42.744  27.258  27.690  1.00  0.00     0.074 A 
ATOM     32  C   UNL A   1      40.489  27.777  28.565  1.00  0.00     0.049 A 
ATOM     33  N   UNL A   1      43.403  28.336  28.030  1.00  0.00    -0.248 NA
ATOM     34  C   UNL A   1      43.559  26.247  27.002  1.00  0.00     0.031 C 
ATOM     35  C   UNL A   1      39.082  27.535  28.893  1.00  0.00     0.029 A 
ATOM     36  N   UNL A   1      40.730  29.037  29.054  1.00  0.00    -0.354 N 
ATOM     37  C   UNL A   1      44.713  28.128  27.611  1.00  0.00     0.074 A 
ATOM     38  C   UNL A   1      44.763  26.794  27.050  1.00  0.00     0.031 C 
ATOM     39  C   UNL A   1      38.580  28.619  29.506  1.00  0.00     0.029 A 
ATOM     40  C   UNL A   1      39.637  29.615  29.658  1.00  0.00     0.049 A 
ATOM     41  H   UNL A   1      41.603  29.485  28.978  1.00  0.00     0.167 HD
ATOM     42  C   UNL A   1      45.768  28.977  27.669  1.00  0.00     0.034 A 
ATOM     43  C   UNL A   1      39.504  30.806  30.275  1.00  0.00     0.034 A 
ATOM     44  C   UNL A   1      45.694  30.309  28.222  1.00  0.00     0.049 A 
ATOM     45  C   UNL A   1      40.696  31.726  30.349  1.00  0.00     0.074 A 
ATOM     46  C   UNL A   1      46.685  31.275  28.278  1.00  0.00     0.029 A 
ATOM     47  N   UNL A   1      44.571  30.861  28.824  1.00  0.00    -0.354 N 
ATOM     48  N   UNL A   1      41.915  31.535  29.901  1.00  0.00    -0.248 NA
ATOM     49  C   UNL A   1      40.490  33.024  31.002  1.00  0.00     0.031 C 
ATOM     50  C   UNL A   1      46.182  32.381  28.972  1.00  0.00     0.029 A 
ATOM     51  C   UNL A   1      44.853  32.140  29.282  1.00  0.00     0.049 A 
ATOM     52  H   UNL A   1      43.700  30.410  28.913  1.00  0.00     0.167 HD
ATOM     53  C   UNL A   1      42.614  32.704  30.191  1.00  0.00     0.074 A 
ATOM     54  C   UNL A   1      41.674  33.597  30.840  1.00  0.00     0.031 C 
ATOM     55  C   UNL A   1      43.910  33.016  29.939  1.00  0.00     0.034 A 
BRANCH  42  56
ATOM     56  C   UNL A   1      47.092  28.476  27.144  1.00  0.00     0.023 A 
ATOM     57  C   UNL A   1      47.297  28.220  25.776  1.00  0.00     0.031 A 
ATOM     58  C   UNL A   1      48.157  28.215  28.025  1.00  0.00     0.131 A 
ATOM     59  C   UNL A   1      48.500  27.645  25.341  1.00  0.00     0.055 A 
ATOM     60  C   UNL A   1      49.384  27.723  27.574  1.00  0.00     0.041 A 
ATOM     61  F   UNL A   1      48.018  28.419  29.344  1.00  0.00    -0.206 F 
ATOM     62  C   UNL A   1      49.555  27.418  26.227  1.00  0.00     0.022 A 
BRANCH  59  63
ATOM     63  S   UNL A   1      48.607  27.053  23.630  1.00  0.00     0.124 S 
ATOM     64  O   UNL A   1      48.006  28.165  22.896  1.00  0.00    -0.237 OA
ATOM     65  O   UNL A   1      50.042  26.869  23.448  1.00  0.00    -0.237 OA
ATOM     66  O   UNL A   1      47.815  25.825  23.642  1.00  0.00    -0.744 OA
ENDBRANCH  59  63
ENDBRANCH  42  56
BRANCH  43  67
ATOM     67  C   UNL A   1      38.200  31.201  30.882  1.00  0.00     0.023 A 
ATOM     68  C   UNL A   1      37.202  31.820  30.111  1.00  0.00     0.031 A 
ATOM     69  C   UNL A   1      37.947  31.000  32.251  1.00  0.00     0.131 A 
ATOM     70  C   UNL A   1      36.017  32.258  30.723  1.00  0.00     0.055 A 
ATOM     71  C   UNL A   1      36.744  31.391  32.844  1.00  0.00     0.041 A 
ATOM     72  F   UNL A   1      38.865  30.409  33.031  1.00  0.00    -0.206 F 
ATOM     73  C   UNL A   1      35.776  32.036  32.081  1.00  0.00     0.022 A 
BRANCH  70  74
ATOM     74  S   UNL A   1      34.824  33.197  29.730  1.00  0.00     0.124 S 
ATOM     75  O   UNL A   1      33.919  33.704  30.756  1.00  0.00    -0.237 OA
ATOM     76  O   UNL A   1      35.680  34.186  29.085  1.00  0.00    -0.237 OA
ATOM     77  O   UNL A   1      34.255  32.190  28.839  1.00  0.00    -0.744 OA
ENDBRANCH  70  74
ENDBRANCH  43  67
BRANCH  55  78
ATOM     78  C   UNL A   1      44.371  34.400  30.327  1.00  0.00     0.023 A 
ATOM     79  C   UNL A   1      44.178  35.509  29.484  1.00  0.00     0.031 A 
ATOM     80  C   UNL A   1      45.023  34.608  31.555  1.00  0.00     0.131 A 
ATOM     81  C   UNL A   1      44.682  36.765  29.857  1.00  0.00     0.055 A 
ATOM     82  C   UNL A   1      45.468  35.870  31.948  1.00  0.00     0.041 A 
ATOM     83  F   UNL A   1      45.236  33.584  32.398  1.00  0.00    -0.206 F 
ATOM     84  C   UNL A   1      45.310  36.956  31.091  1.00  0.00     0.022 A 
BRANCH  81  85
ATOM     85  S   UNL A   1      44.588  38.131  28.667  1.00  0.00     0.124 S 
ATOM     86  O   UNL A   1      43.208  38.579  28.828  1.00  0.00    -0.237 OA
ATOM     87  O   UNL A   1      45.616  39.043  29.158  1.00  0.00    -0.237 OA
ATOM     88  O   UNL A   1      44.887  37.493  27.387  1.00  0.00    -0.744 OA
ENDBRANCH  81  85
ENDBRANCH  55  78
ENDBRANCH  29  30
ENDBRANCH  21  24
ENDBRANCH  19  20
ENDBRANCH  18  19
ENDBRANCH   1  18
TORSDOF 19
ENDMDL
