MODEL 1
REMARK VINA RESULT:     -13.6      0.000      0.000
REMARK SMILES Cc1ccc(-c2cc(Cl)cc3c2O[C@@H](C(F)(F)F)C(C(=O)NCCCCNC(=O)c2ccc(-c4c5nc(c(-c6cc(S(=O)(=O)[O-])ccc6F)c6ccc([nH]6)c(-c6cc(S(=O)(=O)[O-])ccc6F)c6nc(c(-c7cc(S(=O)(=O)[O-])ccc7F)c7ccc4[nH]7)C=C6)C=C5)cc2)=C3)cc1
REMARK SMILES IDX 25 1 24 2 23 3 22 4 20 5 21 6 19 8 6 9 7 10 12 11 8 12 11 13
REMARK SMILES IDX 13 14 9 15 10 16 93 17 14 18 5 19 1 20 2 21 3 22 95 23 4 24
REMARK SMILES IDX 94 25 15 26 16 27 17 28 18 29 26 30 27 31 28 32 29 34 30 35
REMARK SMILES IDX 31 36 92 37 32 38 91 39 33 40 34 41 35 42 85 43 36 44 90 45
REMARK SMILES IDX 84 46 86 47 37 48 89 49 83 50 82 51 38 53 70 54 50 55 69 56
REMARK SMILES IDX 51 57 54 58 68 59 87 60 52 61 53 62 67 64 88 65 55 66 39 67
REMARK SMILES IDX 40 68 48 69 41 70 47 71 49 72 46 73 42 74 43 75 44 76 45 77
REMARK SMILES IDX 71 78 72 79 80 80 73 81 79 82 81 83 78 84 74 85 75 86 76 87
REMARK SMILES IDX 77 88 56 89 57 90 65 91 58 92 64 93 66 94 63 95 59 96 60 97
REMARK SMILES IDX 61 98 62 99
REMARK H PARENT 22 7 27 33 86 52 54 63
REMARK Flexibility Score: inf
ROOT
ATOM      1  C   UNL A   1      33.455  29.931  27.469  1.00  0.00     0.023 C 
ENDROOT
BRANCH   1   2
ATOM      2  C   UNL A   1      33.723  28.483  27.051  1.00  0.00     0.023 C 
BRANCH   2   3
ATOM      3  C   UNL A   1      33.294  28.032  25.641  1.00  0.00     0.116 C 
BRANCH   3   4
ATOM      4  N   UNL A   1      33.968  26.838  25.140  1.00  0.00    -0.352 N 
ATOM      5  C   UNL A   1      33.645  25.943  24.157  1.00  0.00     0.251 C 
ATOM      6  O   UNL A   1      34.594  25.394  23.586  1.00  0.00    -0.270 OA
ATOM      7  H   UNL A   1      34.818  26.639  25.597  1.00  0.00     0.163 HD
BRANCH   5   8
ATOM      8  C   UNL A   1      32.215  25.493  23.842  1.00  0.00     0.067 C 
ATOM      9  C   UNL A   1      33.559  21.985  25.216  1.00  0.00     0.026 A 
ATOM     10  C   UNL A   1      33.148  20.766  24.646  1.00  0.00     0.033 A 
ATOM     11  C   UNL A   1      32.824  23.094  24.802  1.00  0.00     0.135 A 
ATOM     12  C   UNL A   1      32.388  20.763  23.470  1.00  0.00     0.042 A 
ATOM     13  C   UNL A   1      32.377  23.162  23.461  1.00  0.00     0.019 A 
ATOM     14  O   UNL A   1      32.370  24.053  25.735  1.00  0.00    -0.475 OA
ATOM     15  Cl  UNL A   1      31.963  19.259  22.747  1.00  0.00    -0.084 Cl
ATOM     16  C   UNL A   1      32.094  21.963  22.814  1.00  0.00     0.032 A 
ATOM     17  C   UNL A   1      32.171  24.534  22.872  1.00  0.00     0.025 C 
ATOM     18  C   UNL A   1      31.448  24.958  25.040  1.00  0.00     0.314 C 
BRANCH   9  19
ATOM     19  C   UNL A   1      35.049  22.119  25.301  1.00  0.00    -0.015 A 
ATOM     20  C   UNL A   1      39.345  21.953  25.928  1.00  0.00     0.044 C 
ATOM     21  C   UNL A   1      37.868  22.032  25.674  1.00  0.00    -0.051 A 
ATOM     22  C   UNL A   1      37.115  23.151  26.064  1.00  0.00     0.004 A 
ATOM     23  C   UNL A   1      37.219  20.983  25.033  1.00  0.00     0.004 A 
ATOM     24  C   UNL A   1      35.717  23.196  25.884  1.00  0.00     0.009 A 
ATOM     25  C   UNL A   1      35.838  21.033  24.846  1.00  0.00     0.009 A 
ENDBRANCH   9  19
BRANCH  18  26
ATOM     26  C   UNL A   1      30.510  25.934  25.763  1.00  0.00     0.429 C 
ATOM     27  F   UNL A   1      29.370  25.275  26.130  1.00  0.00    -0.167 F 
ATOM     28  F   UNL A   1      31.023  26.455  26.888  1.00  0.00    -0.167 F 
ATOM     29  F   UNL A   1      30.094  26.924  24.947  1.00  0.00    -0.167 F 
ENDBRANCH  18  26
ENDBRANCH   5   8
ENDBRANCH   3   4
ENDBRANCH   2   3
ENDBRANCH   1   2
BRANCH   1  30
ATOM     30  C   UNL A   1      34.616  30.907  27.342  1.00  0.00     0.116 C 
BRANCH  30  31
ATOM     31  N   UNL A   1      35.090  31.570  28.547  1.00  0.00    -0.352 N 
ATOM     32  C   UNL A   1      35.950  31.064  29.522  1.00  0.00     0.251 C 
ATOM     33  H   UNL A   1      34.764  32.488  28.692  1.00  0.00     0.163 HD
ATOM     34  O   UNL A   1      36.154  31.664  30.564  1.00  0.00    -0.269 OA
BRANCH  32  35
ATOM     35  C   UNL A   1      36.729  29.827  29.223  1.00  0.00     0.039 A 
ATOM     36  C   UNL A   1      37.040  28.982  30.294  1.00  0.00     0.014 A 
ATOM     37  C   UNL A   1      37.364  29.654  27.998  1.00  0.00     0.014 A 
ATOM     38  C   UNL A   1      38.173  28.173  30.221  1.00  0.00     0.010 A 
ATOM     39  C   UNL A   1      38.556  28.961  27.965  1.00  0.00     0.010 A 
ATOM     40  C   UNL A   1      38.994  28.271  29.098  1.00  0.00    -0.014 A 
BRANCH  40  41
ATOM     41  C   UNL A   1      40.374  27.802  29.071  1.00  0.00     0.031 A 
ATOM     42  C   UNL A   1      40.703  26.460  28.560  1.00  0.00     0.074 A 
ATOM     43  C   UNL A   1      41.372  28.626  29.459  1.00  0.00     0.049 A 
ATOM     44  N   UNL A   1      41.698  25.752  28.975  1.00  0.00    -0.248 NA
ATOM     45  C   UNL A   1      39.906  25.794  27.539  1.00  0.00     0.031 C 
ATOM     46  C   UNL A   1      42.809  28.417  29.307  1.00  0.00     0.029 A 
ATOM     47  N   UNL A   1      41.269  29.739  30.291  1.00  0.00    -0.354 N 
ATOM     48  C   UNL A   1      41.852  24.703  28.099  1.00  0.00     0.074 A 
ATOM     49  C   UNL A   1      40.670  24.732  27.268  1.00  0.00     0.031 C 
ATOM     50  C   UNL A   1      43.453  29.172  30.211  1.00  0.00     0.029 A 
ATOM     51  C   UNL A   1      42.449  29.793  31.054  1.00  0.00     0.049 A 
ATOM     52  H   UNL A   1      40.513  30.369  30.335  1.00  0.00     0.167 HD
ATOM     53  C   UNL A   1      43.028  24.014  28.065  1.00  0.00     0.034 A 
ATOM     54  C   UNL A   1      42.396  29.710  32.414  1.00  0.00     0.034 A 
ATOM     55  C   UNL A   1      43.991  24.543  29.031  1.00  0.00     0.049 A 
ATOM     56  C   UNL A   1      43.112  28.496  32.969  1.00  0.00     0.074 A 
ATOM     57  C   UNL A   1      45.087  25.380  28.897  1.00  0.00     0.029 A 
ATOM     58  N   UNL A   1      43.724  24.463  30.393  1.00  0.00    -0.354 N 
ATOM     59  N   UNL A   1      43.492  27.472  32.254  1.00  0.00    -0.248 NA
ATOM     60  C   UNL A   1      43.443  28.337  34.380  1.00  0.00     0.031 C 
ATOM     61  C   UNL A   1      45.449  25.843  30.188  1.00  0.00     0.029 A 
ATOM     62  C   UNL A   1      44.594  25.264  31.111  1.00  0.00     0.049 A 
ATOM     63  H   UNL A   1      43.015  23.911  30.793  1.00  0.00     0.167 HD
ATOM     64  C   UNL A   1      44.078  26.528  33.063  1.00  0.00     0.074 A 
ATOM     65  C   UNL A   1      44.046  27.135  34.382  1.00  0.00     0.031 C 
ATOM     66  C   UNL A   1      44.523  25.330  32.567  1.00  0.00     0.034 A 
BRANCH  53  67
ATOM     67  C   UNL A   1      43.410  23.082  26.934  1.00  0.00     0.023 A 
ATOM     68  C   UNL A   1      42.942  21.751  26.940  1.00  0.00     0.031 A 
ATOM     69  C   UNL A   1      44.247  23.421  25.853  1.00  0.00     0.131 A 
ATOM     70  C   UNL A   1      43.395  20.809  25.996  1.00  0.00     0.055 A 
ATOM     71  C   UNL A   1      44.751  22.472  24.955  1.00  0.00     0.041 A 
ATOM     72  F   UNL A   1      44.572  24.696  25.593  1.00  0.00    -0.206 F 
ATOM     73  C   UNL A   1      44.338  21.152  25.033  1.00  0.00     0.022 A 
BRANCH  70  74
ATOM     74  S   UNL A   1      42.714  19.129  26.035  1.00  0.00     0.124 S 
ATOM     75  O   UNL A   1      41.420  19.300  25.382  1.00  0.00    -0.237 OA
ATOM     76  O   UNL A   1      43.717  18.372  25.294  1.00  0.00    -0.237 OA
ATOM     77  O   UNL A   1      42.647  18.823  27.465  1.00  0.00    -0.744 OA
ENDBRANCH  70  74
ENDBRANCH  53  67
BRANCH  54  78
ATOM     78  C   UNL A   1      41.175  30.352  32.986  1.00  0.00     0.023 A 
ATOM     79  C   UNL A   1      41.124  31.764  32.965  1.00  0.00     0.031 A 
ATOM     80  C   UNL A   1      39.970  29.656  33.133  1.00  0.00     0.131 A 
ATOM     81  C   UNL A   1      39.890  32.429  32.916  1.00  0.00     0.055 A 
ATOM     82  C   UNL A   1      38.741  30.329  33.154  1.00  0.00     0.041 A 
ATOM     83  F   UNL A   1      39.949  28.315  33.122  1.00  0.00    -0.206 F 
ATOM     84  C   UNL A   1      38.694  31.715  32.996  1.00  0.00     0.022 A 
BRANCH  81  85
ATOM     85  S   UNL A   1      39.856  34.192  32.465  1.00  0.00     0.124 S 
ATOM     86  O   UNL A   1      40.033  34.840  33.760  1.00  0.00    -0.237 OA
ATOM     87  O   UNL A   1      40.974  34.312  31.532  1.00  0.00    -0.237 OA
ATOM     88  O   UNL A   1      38.546  34.362  31.843  1.00  0.00    -0.744 OA
ENDBRANCH  81  85
ENDBRANCH  54  78
BRANCH  66  89
ATOM     89  C   UNL A   1      45.021  24.136  33.370  1.00  0.00     0.023 A 
ATOM     90  C   UNL A   1      46.291  24.061  33.960  1.00  0.00     0.031 A 
ATOM     91  C   UNL A   1      44.178  23.020  33.621  1.00  0.00     0.131 A 
ATOM     92  C   UNL A   1      46.707  22.918  34.672  1.00  0.00     0.055 A 
ATOM     93  C   UNL A   1      44.565  21.919  34.392  1.00  0.00     0.041 A 
ATOM     94  F   UNL A   1      42.931  22.947  33.134  1.00  0.00    -0.206 F 
ATOM     95  C   UNL A   1      45.844  21.854  34.912  1.00  0.00     0.022 A 
BRANCH  92  96
ATOM     96  S   UNL A   1      48.430  22.833  35.227  1.00  0.00     0.124 S 
ATOM     97  O   UNL A   1      49.136  23.462  34.114  1.00  0.00    -0.237 OA
ATOM     98  O   UNL A   1      48.398  23.598  36.469  1.00  0.00    -0.237 OA
ATOM     99  O   UNL A   1      48.673  21.399  35.385  1.00  0.00    -0.744 OA
ENDBRANCH  92  96
ENDBRANCH  66  89
ENDBRANCH  40  41
ENDBRANCH  32  35
ENDBRANCH  30  31
ENDBRANCH   1  30
TORSDOF 16
ENDMDL
MODEL 2
REMARK VINA RESULT:     -13.2      2.200      2.629
REMARK SMILES Cc1ccc(-c2cc(Cl)cc3c2O[C@@H](C(F)(F)F)C(C(=O)NCCCCNC(=O)c2ccc(-c4c5nc(c(-c6cc(S(=O)(=O)[O-])ccc6F)c6ccc([nH]6)c(-c6cc(S(=O)(=O)[O-])ccc6F)c6nc(c(-c7cc(S(=O)(=O)[O-])ccc7F)c7ccc4[nH]7)C=C6)C=C5)cc2)=C3)cc1
REMARK SMILES IDX 25 1 24 2 23 3 22 4 20 5 21 6 19 8 6 9 7 10 12 11 8 12 11 13
REMARK SMILES IDX 13 14 9 15 10 16 93 17 14 18 5 19 1 20 2 21 3 22 95 23 4 24
REMARK SMILES IDX 94 25 15 26 16 27 17 28 18 29 26 30 27 31 28 32 29 34 30 35
REMARK SMILES IDX 31 36 92 37 32 38 91 39 33 40 34 41 35 42 85 43 36 44 90 45
REMARK SMILES IDX 84 46 86 47 37 48 89 49 83 50 82 51 38 53 70 54 50 55 69 56
REMARK SMILES IDX 51 57 54 58 68 59 87 60 52 61 53 62 67 64 88 65 55 66 39 67
REMARK SMILES IDX 40 68 48 69 41 70 47 71 49 72 46 73 42 74 43 75 44 76 45 77
REMARK SMILES IDX 71 78 72 79 80 80 73 81 79 82 81 83 78 84 74 85 75 86 76 87
REMARK SMILES IDX 77 88 56 89 57 90 65 91 58 92 64 93 66 94 63 95 59 96 60 97
REMARK SMILES IDX 61 98 62 99
REMARK H PARENT 22 7 27 33 86 52 54 63
REMARK Flexibility Score: inf
ROOT
ATOM      1  C   UNL A   1      33.161  29.964  26.167  1.00  0.00     0.023 C 
ENDROOT
BRANCH   1   2
ATOM      2  C   UNL A   1      33.933  28.786  25.567  1.00  0.00     0.023 C 
BRANCH   2   3
ATOM      3  C   UNL A   1      33.193  27.830  24.611  1.00  0.00     0.116 C 
BRANCH   3   4
ATOM      4  N   UNL A   1      33.893  26.585  24.314  1.00  0.00    -0.352 N 
ATOM      5  C   UNL A   1      33.553  25.494  23.561  1.00  0.00     0.251 C 
ATOM      6  O   UNL A   1      34.489  24.875  23.043  1.00  0.00    -0.270 OA
ATOM      7  H   UNL A   1      34.781  26.516  24.736  1.00  0.00     0.163 HD
BRANCH   5   8
ATOM      8  C   UNL A   1      32.130  24.936  23.452  1.00  0.00     0.067 C 
ATOM      9  C   UNL A   1      33.704  21.911  25.542  1.00  0.00     0.026 A 
ATOM     10  C   UNL A   1      33.320  20.578  25.309  1.00  0.00     0.033 A 
ATOM     11  C   UNL A   1      32.898  22.862  24.920  1.00  0.00     0.135 A 
ATOM     12  C   UNL A   1      32.500  20.266  24.217  1.00  0.00     0.042 A 
ATOM     13  C   UNL A   1      32.378  22.589  23.633  1.00  0.00     0.019 A 
ATOM     14  O   UNL A   1      32.451  24.004  25.622  1.00  0.00    -0.475 OA
ATOM     15  Cl  UNL A   1      32.106  18.619  23.903  1.00  0.00    -0.084 Cl
ATOM     16  C   UNL A   1      32.117  21.261  23.312  1.00  0.00     0.032 A 
ATOM     17  C   UNL A   1      32.080  23.770  22.746  1.00  0.00     0.025 C 
ATOM     18  C   UNL A   1      31.453  24.684  24.789  1.00  0.00     0.314 C 
BRANCH   9  19
ATOM     19  C   UNL A   1      35.189  22.108  25.499  1.00  0.00    -0.015 A 
ATOM     20  C   UNL A   1      39.522  22.169  25.811  1.00  0.00     0.044 C 
ATOM     21  C   UNL A   1      38.028  22.166  25.663  1.00  0.00    -0.051 A 
ATOM     22  C   UNL A   1      37.256  23.290  25.996  1.00  0.00     0.004 A 
ATOM     23  C   UNL A   1      37.383  21.033  25.182  1.00  0.00     0.004 A 
ATOM     24  C   UNL A   1      35.848  23.263  25.920  1.00  0.00     0.009 A 
ATOM     25  C   UNL A   1      35.991  21.012  25.095  1.00  0.00     0.009 A 
ENDBRANCH   9  19
BRANCH  18  26
ATOM     26  C   UNL A   1      30.510  25.776  25.314  1.00  0.00     0.429 C 
ATOM     27  F   UNL A   1      31.118  26.442  26.341  1.00  0.00    -0.167 F 
ATOM     28  F   UNL A   1      30.188  26.705  24.401  1.00  0.00    -0.167 F 
ATOM     29  F   UNL A   1      29.390  25.252  25.852  1.00  0.00    -0.167 F 
ENDBRANCH  18  26
ENDBRANCH   5   8
ENDBRANCH   3   4
ENDBRANCH   2   3
ENDBRANCH   1   2
BRANCH   1  30
ATOM     30  C   UNL A   1      33.261  30.151  27.675  1.00  0.00     0.116 C 
BRANCH  30  31
ATOM     31  N   UNL A   1      33.982  31.310  28.176  1.00  0.00    -0.352 N 
ATOM     32  C   UNL A   1      35.226  31.340  28.808  1.00  0.00     0.251 C 
ATOM     33  H   UNL A   1      33.538  32.182  28.055  1.00  0.00     0.163 HD
ATOM     34  O   UNL A   1      35.657  32.360  29.317  1.00  0.00    -0.269 OA
BRANCH  32  35
ATOM     35  C   UNL A   1      36.093  30.128  28.743  1.00  0.00     0.039 A 
ATOM     36  C   UNL A   1      36.563  29.602  29.952  1.00  0.00     0.014 A 
ATOM     37  C   UNL A   1      36.648  29.702  27.541  1.00  0.00     0.014 A 
ATOM     38  C   UNL A   1      37.759  28.885  29.968  1.00  0.00     0.010 A 
ATOM     39  C   UNL A   1      37.895  29.111  27.563  1.00  0.00     0.010 A 
ATOM     40  C   UNL A   1      38.480  28.760  28.781  1.00  0.00    -0.014 A 
BRANCH  40  41
ATOM     41  C   UNL A   1      39.892  28.402  28.736  1.00  0.00     0.031 A 
ATOM     42  C   UNL A   1      40.308  26.996  28.593  1.00  0.00     0.074 A 
ATOM     43  C   UNL A   1      40.833  29.371  28.761  1.00  0.00     0.049 A 
ATOM     44  N   UNL A   1      41.400  26.511  29.079  1.00  0.00    -0.248 NA
ATOM     45  C   UNL A   1      39.497  26.006  27.897  1.00  0.00     0.031 C 
ATOM     46  C   UNL A   1      42.266  29.228  28.517  1.00  0.00     0.029 A 
ATOM     47  N   UNL A   1      40.692  30.668  29.250  1.00  0.00    -0.354 N 
ATOM     48  C   UNL A   1      41.582  25.266  28.524  1.00  0.00     0.074 A 
ATOM     49  C   UNL A   1      40.336  24.968  27.855  1.00  0.00     0.031 C 
ATOM     50  C   UNL A   1      42.906  30.257  29.094  1.00  0.00     0.029 A 
ATOM     51  C   UNL A   1      41.921  31.025  29.832  1.00  0.00     0.049 A 
ATOM     52  H   UNL A   1      39.884  31.229  29.198  1.00  0.00     0.167 HD
ATOM     53  C   UNL A   1      42.813  24.681  28.557  1.00  0.00     0.034 A 
ATOM     54  C   UNL A   1      41.994  31.339  31.157  1.00  0.00     0.034 A 
ATOM     55  C   UNL A   1      43.798  25.535  29.221  1.00  0.00     0.049 A 
ATOM     56  C   UNL A   1      42.872  30.393  31.949  1.00  0.00     0.074 A 
ATOM     57  C   UNL A   1      44.790  26.371  28.735  1.00  0.00     0.029 A 
ATOM     58  N   UNL A   1      43.658  25.838  30.571  1.00  0.00    -0.354 N 
ATOM     59  N   UNL A   1      43.288  29.235  31.516  1.00  0.00    -0.248 NA
ATOM     60  C   UNL A   1      43.337  30.677  33.302  1.00  0.00     0.031 C 
ATOM     61  C   UNL A   1      45.213  27.215  29.794  1.00  0.00     0.029 A 
ATOM     62  C   UNL A   1      44.502  26.873  30.931  1.00  0.00     0.049 A 
ATOM     63  H   UNL A   1      43.043  25.378  31.187  1.00  0.00     0.167 HD
ATOM     64  C   UNL A   1      44.032  28.611  32.490  1.00  0.00     0.074 A 
ATOM     65  C   UNL A   1      44.053  29.574  33.578  1.00  0.00     0.031 C 
ATOM     66  C   UNL A   1      44.550  27.355  32.308  1.00  0.00     0.034 A 
BRANCH  53  67
ATOM     67  C   UNL A   1      43.188  23.489  27.702  1.00  0.00     0.023 A 
ATOM     68  C   UNL A   1      44.292  23.577  26.828  1.00  0.00     0.031 A 
ATOM     69  C   UNL A   1      42.492  22.265  27.672  1.00  0.00     0.131 A 
ATOM     70  C   UNL A   1      44.583  22.553  25.906  1.00  0.00     0.055 A 
ATOM     71  C   UNL A   1      42.736  21.275  26.711  1.00  0.00     0.041 A 
ATOM     72  F   UNL A   1      41.579  21.955  28.603  1.00  0.00    -0.206 F 
ATOM     73  C   UNL A   1      43.778  21.423  25.808  1.00  0.00     0.022 A 
BRANCH  70  74
ATOM     74  S   UNL A   1      46.046  22.714  24.847  1.00  0.00     0.124 S 
ATOM     75  O   UNL A   1      45.480  23.241  23.610  1.00  0.00    -0.237 OA
ATOM     76  O   UNL A   1      46.885  23.627  25.615  1.00  0.00    -0.237 OA
ATOM     77  O   UNL A   1      46.552  21.343  24.758  1.00  0.00    -0.744 OA
ENDBRANCH  70  74
ENDBRANCH  53  67
BRANCH  54  78
ATOM     78  C   UNL A   1      40.769  32.033  31.654  1.00  0.00     0.023 A 
ATOM     79  C   UNL A   1      39.948  31.319  32.555  1.00  0.00     0.031 A 
ATOM     80  C   UNL A   1      40.637  33.426  31.611  1.00  0.00     0.131 A 
ATOM     81  C   UNL A   1      39.160  32.003  33.492  1.00  0.00     0.055 A 
ATOM     82  C   UNL A   1      39.794  34.102  32.504  1.00  0.00     0.041 A 
ATOM     83  F   UNL A   1      41.414  34.163  30.804  1.00  0.00    -0.206 F 
ATOM     84  C   UNL A   1      39.090  33.396  33.481  1.00  0.00     0.022 A 
BRANCH  81  85
ATOM     85  S   UNL A   1      38.457  31.079  34.894  1.00  0.00     0.124 S 
ATOM     86  O   UNL A   1      37.297  31.891  35.242  1.00  0.00    -0.237 OA
ATOM     87  O   UNL A   1      38.171  29.771  34.311  1.00  0.00    -0.237 OA
ATOM     88  O   UNL A   1      39.540  31.066  35.874  1.00  0.00    -0.744 OA
ENDBRANCH  81  85
ENDBRANCH  54  78
BRANCH  66  89
ATOM     89  C   UNL A   1      45.231  26.486  33.356  1.00  0.00     0.023 A 
ATOM     90  C   UNL A   1      44.729  25.255  33.802  1.00  0.00     0.031 A 
ATOM     91  C   UNL A   1      46.482  26.860  33.917  1.00  0.00     0.131 A 
ATOM     92  C   UNL A   1      45.392  24.505  34.794  1.00  0.00     0.055 A 
ATOM     93  C   UNL A   1      47.176  26.078  34.845  1.00  0.00     0.041 A 
ATOM     94  F   UNL A   1      47.097  28.005  33.584  1.00  0.00    -0.206 F 
ATOM     95  C   UNL A   1      46.625  24.896  35.304  1.00  0.00     0.022 A 
BRANCH  92  96
ATOM     96  S   UNL A   1      44.567  23.028  35.447  1.00  0.00     0.124 S 
ATOM     97  O   UNL A   1      44.960  22.011  34.477  1.00  0.00    -0.237 OA
ATOM     98  O   UNL A   1      45.159  22.900  36.774  1.00  0.00    -0.237 OA
ATOM     99  O   UNL A   1      43.149  23.387  35.430  1.00  0.00    -0.744 OA
ENDBRANCH  92  96
ENDBRANCH  66  89
ENDBRANCH  40  41
ENDBRANCH  32  35
ENDBRANCH  30  31
ENDBRANCH   1  30
TORSDOF 16
ENDMDL
MODEL 3
REMARK VINA RESULT:     -13.2      4.103      9.825
REMARK SMILES Cc1ccc(-c2cc(Cl)cc3c2O[C@@H](C(F)(F)F)C(C(=O)NCCCCNC(=O)c2ccc(-c4c5nc(c(-c6cc(S(=O)(=O)[O-])ccc6F)c6ccc([nH]6)c(-c6cc(S(=O)(=O)[O-])ccc6F)c6nc(c(-c7cc(S(=O)(=O)[O-])ccc7F)c7ccc4[nH]7)C=C6)C=C5)cc2)=C3)cc1
REMARK SMILES IDX 25 1 24 2 23 3 22 4 20 5 21 6 19 8 6 9 7 10 12 11 8 12 11 13
REMARK SMILES IDX 13 14 9 15 10 16 93 17 14 18 5 19 1 20 2 21 3 22 95 23 4 24
REMARK SMILES IDX 94 25 15 26 16 27 17 28 18 29 26 30 27 31 28 32 29 34 30 35
REMARK SMILES IDX 31 36 92 37 32 38 91 39 33 40 34 41 35 42 85 43 36 44 90 45
REMARK SMILES IDX 84 46 86 47 37 48 89 49 83 50 82 51 38 53 70 54 50 55 69 56
REMARK SMILES IDX 51 57 54 58 68 59 87 60 52 61 53 62 67 64 88 65 55 66 39 67
REMARK SMILES IDX 40 68 48 69 41 70 47 71 49 72 46 73 42 74 43 75 44 76 45 77
REMARK SMILES IDX 71 78 72 79 80 80 73 81 79 82 81 83 78 84 74 85 75 86 76 87
REMARK SMILES IDX 77 88 56 89 57 90 65 91 58 92 64 93 66 94 63 95 59 96 60 97
REMARK SMILES IDX 61 98 62 99
REMARK H PARENT 22 7 27 33 86 52 54 63
REMARK Flexibility Score: inf
ROOT
ATOM      1  C   UNL A   1      37.350  22.119  25.994  1.00  0.00     0.023 C 
ENDROOT
BRANCH   1   2
ATOM      2  C   UNL A   1      36.079  22.653  25.327  1.00  0.00     0.023 C 
BRANCH   2   3
ATOM      3  C   UNL A   1      34.769  22.662  26.138  1.00  0.00     0.116 C 
BRANCH   3   4
ATOM      4  N   UNL A   1      34.122  23.965  26.257  1.00  0.00    -0.352 N 
ATOM      5  C   UNL A   1      32.836  24.377  26.043  1.00  0.00     0.251 C 
ATOM      6  O   UNL A   1      32.450  25.337  26.719  1.00  0.00    -0.270 OA
ATOM      7  H   UNL A   1      34.728  24.685  26.548  1.00  0.00     0.163 HD
BRANCH   5   8
ATOM      8  C   UNL A   1      31.929  23.822  24.939  1.00  0.00     0.067 C 
ATOM      9  C   UNL A   1      31.771  27.665  23.842  1.00  0.00     0.026 A 
ATOM     10  C   UNL A   1      30.589  28.236  23.332  1.00  0.00     0.033 A 
ATOM     11  C   UNL A   1      31.743  26.275  23.943  1.00  0.00     0.135 A 
ATOM     12  C   UNL A   1      29.392  27.510  23.359  1.00  0.00     0.042 A 
ATOM     13  C   UNL A   1      30.540  25.636  24.320  1.00  0.00     0.019 A 
ATOM     14  O   UNL A   1      32.837  25.496  23.506  1.00  0.00    -0.475 OA
ATOM     15  Cl  UNL A   1      27.943  28.256  22.803  1.00  0.00    -0.084 Cl
ATOM     16  C   UNL A   1      29.344  26.246  23.956  1.00  0.00     0.032 A 
ATOM     17  C   UNL A   1      30.655  24.305  25.019  1.00  0.00     0.025 C 
ATOM     18  C   UNL A   1      32.426  24.088  23.528  1.00  0.00     0.314 C 
BRANCH   9  19
ATOM     19  C   UNL A   1      32.353  28.444  24.982  1.00  0.00    -0.015 A 
ATOM     20  C   UNL A   1      33.970  31.239  27.888  1.00  0.00     0.044 C 
ATOM     21  C   UNL A   1      33.399  30.247  26.917  1.00  0.00    -0.051 A 
ATOM     22  C   UNL A   1      34.154  29.160  26.451  1.00  0.00     0.004 A 
ATOM     23  C   UNL A   1      32.092  30.394  26.465  1.00  0.00     0.004 A 
ATOM     24  C   UNL A   1      33.640  28.266  25.489  1.00  0.00     0.009 A 
ATOM     25  C   UNL A   1      31.581  29.503  25.523  1.00  0.00     0.009 A 
ENDBRANCH   9  19
BRANCH  18  26
ATOM     26  C   UNL A   1      33.209  22.962  22.838  1.00  0.00     0.429 C 
ATOM     27  F   UNL A   1      32.689  22.748  21.592  1.00  0.00    -0.167 F 
ATOM     28  F   UNL A   1      34.512  23.231  22.661  1.00  0.00    -0.167 F 
ATOM     29  F   UNL A   1      33.066  21.786  23.483  1.00  0.00    -0.167 F 
ENDBRANCH  18  26
ENDBRANCH   5   8
ENDBRANCH   3   4
ENDBRANCH   2   3
ENDBRANCH   1   2
BRANCH   1  30
ATOM     30  C   UNL A   1      38.666  22.397  25.282  1.00  0.00     0.116 C 
BRANCH  30  31
ATOM     31  N   UNL A   1      39.902  22.194  26.021  1.00  0.00    -0.352 N 
ATOM     32  C   UNL A   1      40.690  23.154  26.657  1.00  0.00     0.251 C 
ATOM     33  H   UNL A   1      40.223  21.264  26.080  1.00  0.00     0.163 HD
ATOM     34  O   UNL A   1      41.785  22.877  27.116  1.00  0.00    -0.269 OA
BRANCH  32  35
ATOM     35  C   UNL A   1      40.120  24.514  26.887  1.00  0.00     0.039 A 
ATOM     36  C   UNL A   1      40.872  25.614  26.458  1.00  0.00     0.014 A 
ATOM     37  C   UNL A   1      39.035  24.707  27.735  1.00  0.00     0.014 A 
ATOM     38  C   UNL A   1      40.718  26.841  27.099  1.00  0.00     0.010 A 
ATOM     39  C   UNL A   1      38.968  25.876  28.464  1.00  0.00     0.010 A 
ATOM     40  C   UNL A   1      39.851  26.922  28.189  1.00  0.00    -0.014 A 
BRANCH  40  41
ATOM     41  C   UNL A   1      39.898  27.998  29.171  1.00  0.00     0.031 A 
ATOM     42  C   UNL A   1      38.963  29.134  29.088  1.00  0.00     0.074 A 
ATOM     43  C   UNL A   1      40.763  27.928  30.206  1.00  0.00     0.049 A 
ATOM     44  N   UNL A   1      39.237  30.328  29.491  1.00  0.00    -0.248 NA
ATOM     45  C   UNL A   1      37.631  29.011  28.512  1.00  0.00     0.031 C 
ATOM     46  C   UNL A   1      40.812  28.787  31.386  1.00  0.00     0.029 A 
ATOM     47  N   UNL A   1      41.936  27.179  30.273  1.00  0.00    -0.354 N 
ATOM     48  C   UNL A   1      38.059  31.039  29.509  1.00  0.00     0.074 A 
ATOM     49  C   UNL A   1      37.105  30.199  28.823  1.00  0.00     0.031 C 
ATOM     50  C   UNL A   1      42.046  28.729  31.910  1.00  0.00     0.029 A 
ATOM     51  C   UNL A   1      42.863  27.932  31.015  1.00  0.00     0.049 A 
ATOM     52  H   UNL A   1      42.087  26.291  29.875  1.00  0.00     0.167 HD
ATOM     53  C   UNL A   1      37.973  32.191  30.233  1.00  0.00     0.034 A 
ATOM     54  C   UNL A   1      44.040  28.330  30.452  1.00  0.00     0.034 A 
ATOM     55  C   UNL A   1      39.232  32.497  30.913  1.00  0.00     0.049 A 
ATOM     56  C   UNL A   1      44.184  29.835  30.366  1.00  0.00     0.074 A 
ATOM     57  C   UNL A   1      39.653  32.328  32.222  1.00  0.00     0.029 A 
ATOM     58  N   UNL A   1      40.372  32.784  30.169  1.00  0.00    -0.354 N 
ATOM     59  N   UNL A   1      43.203  30.681  30.527  1.00  0.00    -0.248 NA
ATOM     60  C   UNL A   1      45.448  30.503  30.077  1.00  0.00     0.031 C 
ATOM     61  C   UNL A   1      41.064  32.469  32.253  1.00  0.00     0.029 A 
ATOM     62  C   UNL A   1      41.499  32.753  30.970  1.00  0.00     0.049 A 
ATOM     63  H   UNL A   1      40.375  32.984  29.205  1.00  0.00     0.167 HD
ATOM     64  C   UNL A   1      43.659  31.966  30.349  1.00  0.00     0.074 A 
ATOM     65  C   UNL A   1      45.080  31.796  30.097  1.00  0.00     0.031 C 
ATOM     66  C   UNL A   1      42.818  33.045  30.417  1.00  0.00     0.034 A 
BRANCH  53  67
ATOM     67  C   UNL A   1      36.657  32.854  30.581  1.00  0.00     0.023 A 
ATOM     68  C   UNL A   1      35.935  33.538  29.580  1.00  0.00     0.031 A 
ATOM     69  C   UNL A   1      36.079  32.881  31.865  1.00  0.00     0.131 A 
ATOM     70  C   UNL A   1      34.790  34.297  29.889  1.00  0.00     0.055 A 
ATOM     71  C   UNL A   1      34.982  33.689  32.188  1.00  0.00     0.041 A 
ATOM     72  F   UNL A   1      36.524  32.088  32.850  1.00  0.00    -0.206 F 
ATOM     73  C   UNL A   1      34.339  34.417  31.199  1.00  0.00     0.022 A 
BRANCH  70  74
ATOM     74  S   UNL A   1      33.886  35.112  28.545  1.00  0.00     0.124 S 
ATOM     75  O   UNL A   1      33.921  36.513  28.948  1.00  0.00    -0.237 OA
ATOM     76  O   UNL A   1      34.682  34.754  27.376  1.00  0.00    -0.237 OA
ATOM     77  O   UNL A   1      32.563  34.488  28.600  1.00  0.00    -0.744 OA
ENDBRANCH  70  74
ENDBRANCH  53  67
BRANCH  54  78
ATOM     78  C   UNL A   1      44.581  27.334  29.480  1.00  0.00     0.023 A 
ATOM     79  C   UNL A   1      44.349  27.584  28.109  1.00  0.00     0.031 A 
ATOM     80  C   UNL A   1      45.615  26.453  29.819  1.00  0.00     0.131 A 
ATOM     81  C   UNL A   1      45.239  27.101  27.139  1.00  0.00     0.055 A 
ATOM     82  C   UNL A   1      46.460  25.916  28.839  1.00  0.00     0.041 A 
ATOM     83  F   UNL A   1      45.908  26.204  31.104  1.00  0.00    -0.206 F 
ATOM     84  C   UNL A   1      46.306  26.277  27.500  1.00  0.00     0.022 A 
BRANCH  81  85
ATOM     85  S   UNL A   1      45.160  27.782  25.453  1.00  0.00     0.124 S 
ATOM     86  O   UNL A   1      45.819  29.072  25.615  1.00  0.00    -0.237 OA
ATOM     87  O   UNL A   1      45.885  26.787  24.666  1.00  0.00    -0.237 OA
ATOM     88  O   UNL A   1      43.728  27.830  25.170  1.00  0.00    -0.744 OA
ENDBRANCH  81  85
ENDBRANCH  54  78
BRANCH  66  89
ATOM     89  C   UNL A   1      43.152  34.489  30.067  1.00  0.00     0.023 A 
ATOM     90  C   UNL A   1      42.863  35.085  28.831  1.00  0.00     0.031 A 
ATOM     91  C   UNL A   1      43.745  35.355  31.025  1.00  0.00     0.131 A 
ATOM     92  C   UNL A   1      43.219  36.420  28.555  1.00  0.00     0.055 A 
ATOM     93  C   UNL A   1      44.029  36.702  30.775  1.00  0.00     0.041 A 
ATOM     94  F   UNL A   1      44.072  34.938  32.256  1.00  0.00    -0.206 F 
ATOM     95  C   UNL A   1      43.780  37.242  29.527  1.00  0.00     0.022 A 
BRANCH  92  96
ATOM     96  S   UNL A   1      42.983  37.039  26.868  1.00  0.00     0.124 S 
ATOM     97  O   UNL A   1      42.853  35.800  26.108  1.00  0.00    -0.237 OA
ATOM     98  O   UNL A   1      41.767  37.835  26.993  1.00  0.00    -0.237 OA
ATOM     99  O   UNL A   1      44.202  37.804  26.606  1.00  0.00    -0.744 OA
ENDBRANCH  92  96
ENDBRANCH  66  89
ENDBRANCH  40  41
ENDBRANCH  32  35
ENDBRANCH  30  31
ENDBRANCH   1  30
TORSDOF 16
ENDMDL
