MODEL 1
REMARK VINA RESULT:     -10.3      0.000      0.000
REMARK SMILES CCN(CC(C)(C)O)C(=O)N1CCC(OCC(=O)NCCCCNC(=O)c2ccc(-c3c4nc(c(-c5cc(S(=O)(=O)[O-])ccc5F)c5ccc([nH]5)c(-c5cc(S(=O)(=O)[O-])ccc5F)c5nc(c(-c6cc(S(=O)(=O)[O-])ccc6F)c6ccc3[nH]6)C=C5)C=C4)cc2)CC1
REMARK SMILES IDX 20 1 19 2 17 3 18 4 16 6 15 7 14 8 9 9 10 10 11 11 12 12
REMARK SMILES IDX 91 13 13 14 90 15 3 16 2 17 1 18 4 19 5 20 6 21 7 22 8 23
REMARK SMILES IDX 21 25 22 26 23 27 24 28 25 29 26 31 27 32 28 33 89 34 29 35
REMARK SMILES IDX 88 36 30 37 31 38 32 39 82 40 33 41 87 42 81 43 83 44 34 45
REMARK SMILES IDX 86 46 80 47 79 48 35 50 67 51 47 52 66 53 48 54 51 55 65 56
REMARK SMILES IDX 84 57 49 58 50 59 64 61 85 62 52 63 36 64 37 65 45 66 38 67
REMARK SMILES IDX 44 68 46 69 43 70 39 71 40 72 41 73 42 74 68 75 69 76 77 77
REMARK SMILES IDX 70 78 76 79 78 80 75 81 71 82 72 83 73 84 74 85 53 86 54 87
REMARK SMILES IDX 62 88 55 89 61 90 63 91 60 92 56 93 57 94 58 95 59 96
REMARK H PARENT 19 5 8 24 24 30 83 49 51 60
REMARK Flexibility Score: inf
ROOT
ATOM      1  C   UNL A   1      36.375  21.051  25.352  1.00  0.00     0.116 C 
ENDROOT
BRANCH   1   2
ATOM      2  N   UNL A   1      35.335  20.157  24.877  1.00  0.00    -0.354 N 
ATOM      3  C   UNL A   1      33.981  20.328  24.892  1.00  0.00     0.246 C 
ATOM      4  O   UNL A   1      33.277  19.500  24.310  1.00  0.00    -0.272 OA
ATOM      5  H   UNL A   1      35.652  19.310  24.489  1.00  0.00     0.163 HD
BRANCH   3   6
ATOM      6  C   UNL A   1      33.366  21.542  25.601  1.00  0.00     0.260 C 
BRANCH   6   7
ATOM      7  O   UNL A   1      33.654  22.842  25.120  1.00  0.00    -0.368 OA
BRANCH   7   8
ATOM      8  C   UNL A   1      32.574  23.772  24.992  1.00  0.00     0.122 C 
ATOM      9  C   UNL A   1      31.609  27.598  25.410  1.00  0.00     0.320 C 
ATOM     10  O   UNL A   1      31.805  27.787  26.618  1.00  0.00    -0.248 OA
ATOM     11  N   UNL A   1      31.244  26.331  24.996  1.00  0.00    -0.324 N 
ATOM     12  C   UNL A   1      30.904  25.346  26.030  1.00  0.00     0.124 C 
ATOM     13  C   UNL A   1      31.604  25.710  23.739  1.00  0.00     0.124 C 
ATOM     14  C   UNL A   1      32.089  24.411  26.302  1.00  0.00     0.054 C 
ATOM     15  C   UNL A   1      32.832  24.833  23.924  1.00  0.00     0.054 C 
BRANCH   9  16
ATOM     16  N   UNL A   1      31.720  28.653  24.511  1.00  0.00    -0.322 N 
BRANCH  16  17
ATOM     17  C   UNL A   1      33.087  29.188  24.370  1.00  0.00     0.118 C 
ATOM     18  C   UNL A   1      33.866  28.534  23.227  1.00  0.00     0.027 C 
ENDBRANCH  16  17
BRANCH  16  19
ATOM     19  C   UNL A   1      30.649  29.537  23.981  1.00  0.00     0.155 C 
BRANCH  19  20
ATOM     20  C   UNL A   1      29.787  29.010  22.771  1.00  0.00     0.077 C 
ATOM     21  C   UNL A   1      28.723  27.965  23.127  1.00  0.00     0.043 C 
ATOM     22  C   UNL A   1      29.089  30.211  22.116  1.00  0.00     0.043 C 
BRANCH  20  23
ATOM     23  O   UNL A   1      30.629  28.445  21.759  1.00  0.00    -0.389 OA
ATOM     24  H   UNL A   1      30.287  27.575  21.502  1.00  0.00     0.211 HD
ENDBRANCH  20  23
ENDBRANCH  19  20
ENDBRANCH  16  19
ENDBRANCH   9  16
ENDBRANCH   7   8
ENDBRANCH   6   7
ENDBRANCH   3   6
ENDBRANCH   1   2
BRANCH   1  25
ATOM     25  C   UNL A   1      37.706  20.879  24.620  1.00  0.00     0.023 C 
BRANCH  25  26
ATOM     26  C   UNL A   1      38.538  19.657  25.023  1.00  0.00     0.023 C 
BRANCH  26  27
ATOM     27  C   UNL A   1      39.416  19.835  26.259  1.00  0.00     0.116 C 
BRANCH  27  28
ATOM     28  N   UNL A   1      40.741  19.256  26.099  1.00  0.00    -0.352 N 
ATOM     29  C   UNL A   1      41.974  19.856  26.129  1.00  0.00     0.251 C 
ATOM     30  H   UNL A   1      40.754  18.283  25.946  1.00  0.00     0.163 HD
ATOM     31  O   UNL A   1      42.969  19.189  25.835  1.00  0.00    -0.269 OA
BRANCH  29  32
ATOM     32  C   UNL A   1      42.119  21.288  26.474  1.00  0.00     0.039 A 
ATOM     33  C   UNL A   1      42.280  21.642  27.818  1.00  0.00     0.014 A 
ATOM     34  C   UNL A   1      42.078  22.283  25.495  1.00  0.00     0.014 A 
ATOM     35  C   UNL A   1      42.471  22.982  28.170  1.00  0.00     0.010 A 
ATOM     36  C   UNL A   1      42.332  23.611  25.840  1.00  0.00     0.010 A 
ATOM     37  C   UNL A   1      42.536  23.974  27.180  1.00  0.00    -0.014 A 
BRANCH  37  38
ATOM     38  C   UNL A   1      42.811  25.396  27.520  1.00  0.00     0.031 A 
ATOM     39  C   UNL A   1      44.205  25.946  27.387  1.00  0.00     0.074 A 
ATOM     40  C   UNL A   1      41.825  26.171  28.015  1.00  0.00     0.049 A 
ATOM     41  N   UNL A   1      44.677  27.110  27.752  1.00  0.00    -0.248 NA
ATOM     42  C   UNL A   1      45.206  25.051  26.786  1.00  0.00     0.031 C 
ATOM     43  C   UNL A   1      40.436  25.751  28.209  1.00  0.00     0.029 A 
ATOM     44  N   UNL A   1      41.843  27.470  28.459  1.00  0.00    -0.354 N 
ATOM     45  C   UNL A   1      46.033  27.086  27.438  1.00  0.00     0.074 A 
ATOM     46  C   UNL A   1      46.313  25.768  26.906  1.00  0.00     0.031 C 
ATOM     47  C   UNL A   1      39.733  26.777  28.717  1.00  0.00     0.029 A 
ATOM     48  C   UNL A   1      40.627  27.910  28.933  1.00  0.00     0.049 A 
ATOM     49  H   UNL A   1      42.649  28.035  28.440  1.00  0.00     0.167 HD
ATOM     50  C   UNL A   1      46.952  28.076  27.563  1.00  0.00     0.034 A 
ATOM     51  C   UNL A   1      40.278  29.085  29.495  1.00  0.00     0.034 A 
ATOM     52  C   UNL A   1      46.657  29.388  28.085  1.00  0.00     0.049 A 
ATOM     53  C   UNL A   1      41.326  30.156  29.660  1.00  0.00     0.074 A 
ATOM     54  C   UNL A   1      47.505  30.473  28.230  1.00  0.00     0.029 A 
ATOM     55  N   UNL A   1      45.413  29.796  28.552  1.00  0.00    -0.354 N 
ATOM     56  N   UNL A   1      42.601  30.123  29.343  1.00  0.00    -0.248 NA
ATOM     57  C   UNL A   1      40.887  31.427  30.255  1.00  0.00     0.031 C 
ATOM     58  C   UNL A   1      46.791  31.515  28.832  1.00  0.00     0.029 A 
ATOM     59  C   UNL A   1      45.479  31.107  29.002  1.00  0.00     0.049 A 
ATOM     60  H   UNL A   1      44.603  29.237  28.562  1.00  0.00     0.167 HD
ATOM     61  C   UNL A   1      43.103  31.381  29.664  1.00  0.00     0.074 A 
ATOM     62  C   UNL A   1      41.996  32.150  30.194  1.00  0.00     0.031 C 
ATOM     63  C   UNL A   1      44.365  31.860  29.526  1.00  0.00     0.034 A 
BRANCH  50  64
ATOM     64  C   UNL A   1      48.368  27.759  27.146  1.00  0.00     0.023 A 
ATOM     65  C   UNL A   1      48.855  28.107  25.873  1.00  0.00     0.031 A 
ATOM     66  C   UNL A   1      49.234  27.073  28.017  1.00  0.00     0.131 A 
ATOM     67  C   UNL A   1      50.137  27.698  25.478  1.00  0.00     0.055 A 
ATOM     68  C   UNL A   1      50.539  26.742  27.646  1.00  0.00     0.041 A 
ATOM     69  F   UNL A   1      48.820  26.698  29.237  1.00  0.00    -0.206 F 
ATOM     70  C   UNL A   1      50.993  27.040  26.364  1.00  0.00     0.022 A 
BRANCH  67  71
ATOM     71  S   UNL A   1      50.612  27.911  23.741  1.00  0.00     0.124 S 
ATOM     72  O   UNL A   1      51.386  26.695  23.497  1.00  0.00    -0.237 OA
ATOM     73  O   UNL A   1      49.324  27.996  23.068  1.00  0.00    -0.237 OA
ATOM     74  O   UNL A   1      51.396  29.146  23.750  1.00  0.00    -0.744 OA
ENDBRANCH  67  71
ENDBRANCH  50  64
BRANCH  51  75
ATOM     75  C   UNL A   1      38.880  29.318  29.957  1.00  0.00     0.023 A 
ATOM     76  C   UNL A   1      37.953  29.982  29.138  1.00  0.00     0.031 A 
ATOM     77  C   UNL A   1      38.466  28.931  31.243  1.00  0.00     0.131 A 
ATOM     78  C   UNL A   1      36.675  30.284  29.630  1.00  0.00     0.055 A 
ATOM     79  C   UNL A   1      37.176  29.189  31.711  1.00  0.00     0.041 A 
ATOM     80  F   UNL A   1      39.311  28.288  32.065  1.00  0.00    -0.206 F 
ATOM     81  C   UNL A   1      36.276  29.883  30.907  1.00  0.00     0.022 A 
BRANCH  78  82
ATOM     82  S   UNL A   1      35.569  31.294  28.607  1.00  0.00     0.124 S 
ATOM     83  O   UNL A   1      36.518  32.117  27.867  1.00  0.00    -0.237 OA
ATOM     84  O   UNL A   1      34.860  30.279  27.836  1.00  0.00    -0.237 OA
ATOM     85  O   UNL A   1      34.756  32.008  29.590  1.00  0.00    -0.744 OA
ENDBRANCH  78  82
ENDBRANCH  51  75
BRANCH  63  86
ATOM     86  C   UNL A   1      44.593  33.304  29.897  1.00  0.00     0.023 A 
ATOM     87  C   UNL A   1      44.397  34.347  28.975  1.00  0.00     0.031 A 
ATOM     88  C   UNL A   1      45.021  33.636  31.195  1.00  0.00     0.131 A 
ATOM     89  C   UNL A   1      44.677  35.671  29.351  1.00  0.00     0.055 A 
ATOM     90  C   UNL A   1      45.247  34.958  31.578  1.00  0.00     0.041 A 
ATOM     91  F   UNL A   1      45.224  32.677  32.112  1.00  0.00    -0.206 F 
ATOM     92  C   UNL A   1      45.085  35.983  30.650  1.00  0.00     0.022 A 
BRANCH  89  93
ATOM     93  S   UNL A   1      44.569  36.975  28.095  1.00  0.00     0.124 S 
ATOM     94  O   UNL A   1      43.161  37.354  28.173  1.00  0.00    -0.237 OA
ATOM     95  O   UNL A   1      45.522  37.963  28.588  1.00  0.00    -0.237 OA
ATOM     96  O   UNL A   1      44.961  36.298  26.861  1.00  0.00    -0.744 OA
ENDBRANCH  89  93
ENDBRANCH  63  86
ENDBRANCH  37  38
ENDBRANCH  29  32
ENDBRANCH  27  28
ENDBRANCH  26  27
ENDBRANCH  25  26
ENDBRANCH   1  25
TORSDOF 21
ENDMDL
MODEL 2
REMARK VINA RESULT:     -10.2      4.620      9.754
REMARK SMILES CCN(CC(C)(C)O)C(=O)N1CCC(OCC(=O)NCCCCNC(=O)c2ccc(-c3c4nc(c(-c5cc(S(=O)(=O)[O-])ccc5F)c5ccc([nH]5)c(-c5cc(S(=O)(=O)[O-])ccc5F)c5nc(c(-c6cc(S(=O)(=O)[O-])ccc6F)c6ccc3[nH]6)C=C5)C=C4)cc2)CC1
REMARK SMILES IDX 20 1 19 2 17 3 18 4 16 6 15 7 14 8 9 9 10 10 11 11 12 12
REMARK SMILES IDX 91 13 13 14 90 15 3 16 2 17 1 18 4 19 5 20 6 21 7 22 8 23
REMARK SMILES IDX 21 25 22 26 23 27 24 28 25 29 26 31 27 32 28 33 89 34 29 35
REMARK SMILES IDX 88 36 30 37 31 38 32 39 82 40 33 41 87 42 81 43 83 44 34 45
REMARK SMILES IDX 86 46 80 47 79 48 35 50 67 51 47 52 66 53 48 54 51 55 65 56
REMARK SMILES IDX 84 57 49 58 50 59 64 61 85 62 52 63 36 64 37 65 45 66 38 67
REMARK SMILES IDX 44 68 46 69 43 70 39 71 40 72 41 73 42 74 68 75 69 76 77 77
REMARK SMILES IDX 70 78 76 79 78 80 75 81 71 82 72 83 73 84 74 85 53 86 54 87
REMARK SMILES IDX 62 88 55 89 61 90 63 91 60 92 56 93 57 94 58 95 59 96
REMARK H PARENT 19 5 8 24 24 30 83 49 51 60
REMARK Flexibility Score: inf
ROOT
ATOM      1  C   UNL A   1      31.122  27.618  25.434  1.00  0.00     0.116 C 
ENDROOT
BRANCH   1   2
ATOM      2  N   UNL A   1      30.539  28.819  24.865  1.00  0.00    -0.354 N 
ATOM      3  C   UNL A   1      30.353  29.145  23.553  1.00  0.00     0.246 C 
ATOM      4  O   UNL A   1      29.710  30.163  23.286  1.00  0.00    -0.272 OA
ATOM      5  H   UNL A   1      30.237  29.491  25.517  1.00  0.00     0.163 HD
BRANCH   3   6
ATOM      6  C   UNL A   1      30.915  28.243  22.446  1.00  0.00     0.260 C 
BRANCH   6   7
ATOM      7  O   UNL A   1      30.509  26.887  22.388  1.00  0.00    -0.368 OA
BRANCH   7   8
ATOM      8  C   UNL A   1      31.521  25.877  22.372  1.00  0.00     0.122 C 
ATOM      9  C   UNL A   1      34.162  23.990  24.654  1.00  0.00     0.320 C 
ATOM     10  O   UNL A   1      34.903  24.914  25.016  1.00  0.00    -0.248 OA
ATOM     11  N   UNL A   1      33.530  24.098  23.430  1.00  0.00    -0.324 N 
ATOM     12  C   UNL A   1      33.939  25.195  22.544  1.00  0.00     0.124 C 
ATOM     13  C   UNL A   1      32.216  23.586  23.102  1.00  0.00     0.124 C 
ATOM     14  C   UNL A   1      32.952  26.366  22.636  1.00  0.00     0.054 C 
ATOM     15  C   UNL A   1      31.175  24.682  23.258  1.00  0.00     0.054 C 
BRANCH   9  16
ATOM     16  N   UNL A   1      34.012  22.861  25.452  1.00  0.00    -0.322 N 
BRANCH  16  17
ATOM     17  C   UNL A   1      33.540  23.146  26.820  1.00  0.00     0.118 C 
ATOM     18  C   UNL A   1      32.074  23.580  26.864  1.00  0.00     0.027 C 
ENDBRANCH  16  17
BRANCH  16  19
ATOM     19  C   UNL A   1      34.596  21.507  25.266  1.00  0.00     0.155 C 
BRANCH  19  20
ATOM     20  C   UNL A   1      36.161  21.394  25.104  1.00  0.00     0.077 C 
ATOM     21  C   UNL A   1      36.709  19.966  24.997  1.00  0.00     0.043 C 
ATOM     22  C   UNL A   1      36.574  22.170  23.844  1.00  0.00     0.043 C 
BRANCH  20  23
ATOM     23  O   UNL A   1      36.829  22.035  26.198  1.00  0.00    -0.389 OA
ATOM     24  H   UNL A   1      37.427  22.717  25.856  1.00  0.00     0.211 HD
ENDBRANCH  20  23
ENDBRANCH  19  20
ENDBRANCH  16  19
ENDBRANCH   9  16
ENDBRANCH   7   8
ENDBRANCH   6   7
ENDBRANCH   3   6
ENDBRANCH   1   2
BRANCH   1  25
ATOM     25  C   UNL A   1      31.919  27.875  26.713  1.00  0.00     0.023 C 
BRANCH  25  26
ATOM     26  C   UNL A   1      33.436  27.683  26.606  1.00  0.00     0.023 C 
BRANCH  26  27
ATOM     27  C   UNL A   1      34.215  28.876  26.058  1.00  0.00     0.116 C 
BRANCH  27  28
ATOM     28  N   UNL A   1      33.845  30.132  26.693  1.00  0.00    -0.352 N 
ATOM     29  C   UNL A   1      34.471  30.831  27.693  1.00  0.00     0.251 C 
ATOM     30  H   UNL A   1      33.019  30.543  26.350  1.00  0.00     0.163 HD
ATOM     31  O   UNL A   1      33.906  31.816  28.175  1.00  0.00    -0.269 OA
BRANCH  29  32
ATOM     32  C   UNL A   1      35.786  30.401  28.219  1.00  0.00     0.039 A 
ATOM     33  C   UNL A   1      35.828  29.702  29.430  1.00  0.00     0.014 A 
ATOM     34  C   UNL A   1      36.974  30.695  27.546  1.00  0.00     0.014 A 
ATOM     35  C   UNL A   1      37.050  29.237  29.927  1.00  0.00     0.010 A 
ATOM     36  C   UNL A   1      38.183  30.176  28.009  1.00  0.00     0.010 A 
ATOM     37  C   UNL A   1      38.234  29.438  29.202  1.00  0.00    -0.014 A 
BRANCH  37  38
ATOM     38  C   UNL A   1      39.536  28.891  29.670  1.00  0.00     0.031 A 
ATOM     39  C   UNL A   1      40.303  29.597  30.755  1.00  0.00     0.074 A 
ATOM     40  C   UNL A   1      40.061  27.803  29.073  1.00  0.00     0.049 A 
ATOM     41  N   UNL A   1      41.506  29.361  31.211  1.00  0.00    -0.248 NA
ATOM     42  C   UNL A   1      39.632  30.742  31.391  1.00  0.00     0.031 C 
ATOM     43  C   UNL A   1      39.426  27.038  27.998  1.00  0.00     0.029 A 
ATOM     44  N   UNL A   1      41.257  27.158  29.275  1.00  0.00    -0.354 N 
ATOM     45  C   UNL A   1      41.744  30.332  32.178  1.00  0.00     0.074 A 
ATOM     46  C   UNL A   1      40.580  31.194  32.198  1.00  0.00     0.031 C 
ATOM     47  C   UNL A   1      40.229  26.021  27.647  1.00  0.00     0.029 A 
ATOM     48  C   UNL A   1      41.458  26.087  28.432  1.00  0.00     0.049 A 
ATOM     49  H   UNL A   1      41.909  27.434  29.957  1.00  0.00     0.167 HD
ATOM     50  C   UNL A   1      42.823  30.479  32.987  1.00  0.00     0.034 A 
ATOM     51  C   UNL A   1      42.518  25.266  28.296  1.00  0.00     0.034 A 
ATOM     52  C   UNL A   1      43.972  29.607  32.965  1.00  0.00     0.049 A 
ATOM     53  C   UNL A   1      43.722  25.473  29.179  1.00  0.00     0.074 A 
ATOM     54  C   UNL A   1      45.106  29.650  33.757  1.00  0.00     0.029 A 
ATOM     55  N   UNL A   1      44.136  28.532  32.100  1.00  0.00    -0.354 N 
ATOM     56  N   UNL A   1      43.925  26.388  30.100  1.00  0.00    -0.248 NA
ATOM     57  C   UNL A   1      44.840  24.535  29.007  1.00  0.00     0.031 C 
ATOM     58  C   UNL A   1      45.977  28.638  33.339  1.00  0.00     0.029 A 
ATOM     59  C   UNL A   1      45.360  27.919  32.328  1.00  0.00     0.049 A 
ATOM     60  H   UNL A   1      43.481  28.247  31.423  1.00  0.00     0.167 HD
ATOM     61  C   UNL A   1      45.175  26.107  30.643  1.00  0.00     0.074 A 
ATOM     62  C   UNL A   1      45.678  24.939  29.951  1.00  0.00     0.031 C 
ATOM     63  C   UNL A   1      45.846  26.753  31.631  1.00  0.00     0.034 A 
BRANCH  50  64
ATOM     64  C   UNL A   1      42.811  31.645  33.947  1.00  0.00     0.023 A 
ATOM     65  C   UNL A   1      42.286  31.523  35.246  1.00  0.00     0.031 A 
ATOM     66  C   UNL A   1      43.300  32.903  33.551  1.00  0.00     0.131 A 
ATOM     67  C   UNL A   1      42.188  32.652  36.071  1.00  0.00     0.055 A 
ATOM     68  C   UNL A   1      43.275  34.005  34.409  1.00  0.00     0.041 A 
ATOM     69  F   UNL A   1      43.795  33.087  32.318  1.00  0.00    -0.206 F 
ATOM     70  C   UNL A   1      42.701  33.888  35.672  1.00  0.00     0.022 A 
BRANCH  67  71
ATOM     71  S   UNL A   1      41.246  32.513  37.615  1.00  0.00     0.124 S 
ATOM     72  O   UNL A   1      41.170  33.910  38.039  1.00  0.00    -0.237 OA
ATOM     73  O   UNL A   1      39.998  31.910  37.172  1.00  0.00    -0.237 OA
ATOM     74  O   UNL A   1      42.089  31.661  38.454  1.00  0.00    -0.744 OA
ENDBRANCH  67  71
ENDBRANCH  50  64
BRANCH  51  75
ATOM     75  C   UNL A   1      42.505  24.175  27.279  1.00  0.00     0.023 A 
ATOM     76  C   UNL A   1      41.876  22.949  27.548  1.00  0.00     0.031 A 
ATOM     77  C   UNL A   1      43.169  24.321  26.049  1.00  0.00     0.131 A 
ATOM     78  C   UNL A   1      41.965  21.900  26.622  1.00  0.00     0.055 A 
ATOM     79  C   UNL A   1      43.211  23.290  25.108  1.00  0.00     0.041 A 
ATOM     80  F   UNL A   1      43.782  25.475  25.740  1.00  0.00    -0.206 F 
ATOM     81  C   UNL A   1      42.619  22.065  25.399  1.00  0.00     0.022 A 
BRANCH  78  82
ATOM     82  S   UNL A   1      41.289  20.280  27.080  1.00  0.00     0.124 S 
ATOM     83  O   UNL A   1      40.209  20.124  26.112  1.00  0.00    -0.237 OA
ATOM     84  O   UNL A   1      42.445  19.408  26.900  1.00  0.00    -0.237 OA
ATOM     85  O   UNL A   1      40.864  20.470  28.466  1.00  0.00    -0.744 OA
ENDBRANCH  78  82
ENDBRANCH  51  75
BRANCH  63  86
ATOM     86  C   UNL A   1      47.167  26.165  32.059  1.00  0.00     0.023 A 
ATOM     87  C   UNL A   1      47.265  25.268  33.136  1.00  0.00     0.031 A 
ATOM     88  C   UNL A   1      48.346  26.519  31.379  1.00  0.00     0.131 A 
ATOM     89  C   UNL A   1      48.524  24.791  33.533  1.00  0.00     0.055 A 
ATOM     90  C   UNL A   1      49.588  26.001  31.745  1.00  0.00     0.041 A 
ATOM     91  F   UNL A   1      48.307  27.373  30.344  1.00  0.00    -0.206 F 
ATOM     92  C   UNL A   1      49.683  25.140  32.835  1.00  0.00     0.022 A 
BRANCH  89  93
ATOM     93  S   UNL A   1      48.638  23.762  35.023  1.00  0.00     0.124 S 
ATOM     94  O   UNL A   1      50.080  23.583  35.158  1.00  0.00    -0.237 OA
ATOM     95  O   UNL A   1      48.003  24.603  36.032  1.00  0.00    -0.237 OA
ATOM     96  O   UNL A   1      47.894  22.556  34.665  1.00  0.00    -0.744 OA
ENDBRANCH  89  93
ENDBRANCH  63  86
ENDBRANCH  37  38
ENDBRANCH  29  32
ENDBRANCH  27  28
ENDBRANCH  26  27
ENDBRANCH  25  26
ENDBRANCH   1  25
TORSDOF 21
ENDMDL
MODEL 3
REMARK VINA RESULT:     -10.2      5.416     11.079
REMARK SMILES CCN(CC(C)(C)O)C(=O)N1CCC(OCC(=O)NCCCCNC(=O)c2ccc(-c3c4nc(c(-c5cc(S(=O)(=O)[O-])ccc5F)c5ccc([nH]5)c(-c5cc(S(=O)(=O)[O-])ccc5F)c5nc(c(-c6cc(S(=O)(=O)[O-])ccc6F)c6ccc3[nH]6)C=C5)C=C4)cc2)CC1
REMARK SMILES IDX 20 1 19 2 17 3 18 4 16 6 15 7 14 8 9 9 10 10 11 11 12 12
REMARK SMILES IDX 91 13 13 14 90 15 3 16 2 17 1 18 4 19 5 20 6 21 7 22 8 23
REMARK SMILES IDX 21 25 22 26 23 27 24 28 25 29 26 31 27 32 28 33 89 34 29 35
REMARK SMILES IDX 88 36 30 37 31 38 32 39 82 40 33 41 87 42 81 43 83 44 34 45
REMARK SMILES IDX 86 46 80 47 79 48 35 50 67 51 47 52 66 53 48 54 51 55 65 56
REMARK SMILES IDX 84 57 49 58 50 59 64 61 85 62 52 63 36 64 37 65 45 66 38 67
REMARK SMILES IDX 44 68 46 69 43 70 39 71 40 72 41 73 42 74 68 75 69 76 77 77
REMARK SMILES IDX 70 78 76 79 78 80 75 81 71 82 72 83 73 84 74 85 53 86 54 87
REMARK SMILES IDX 62 88 55 89 61 90 63 91 60 92 56 93 57 94 58 95 59 96
REMARK H PARENT 19 5 8 24 24 30 83 49 51 60
REMARK Flexibility Score: inf
ROOT
ATOM      1  C   UNL A   1      30.732  30.204  24.740  1.00  0.00     0.116 C 
ENDROOT
BRANCH   1   2
ATOM      2  N   UNL A   1      30.479  30.254  23.313  1.00  0.00    -0.354 N 
ATOM      3  C   UNL A   1      29.775  29.381  22.534  1.00  0.00     0.246 C 
ATOM      4  O   UNL A   1      29.564  29.683  21.357  1.00  0.00    -0.272 OA
ATOM      5  H   UNL A   1      30.869  31.024  22.841  1.00  0.00     0.163 HD
BRANCH   3   6
ATOM      6  C   UNL A   1      29.245  28.070  23.130  1.00  0.00     0.260 C 
BRANCH   6   7
ATOM      7  O   UNL A   1      30.058  27.346  24.035  1.00  0.00    -0.368 OA
BRANCH   7   8
ATOM      8  C   UNL A   1      30.718  26.169  23.560  1.00  0.00     0.122 C 
ATOM      9  C   UNL A   1      33.564  23.548  24.441  1.00  0.00     0.320 C 
ATOM     10  O   UNL A   1      34.575  24.262  24.479  1.00  0.00    -0.248 OA
ATOM     11  N   UNL A   1      32.528  23.924  23.607  1.00  0.00    -0.324 N 
ATOM     12  C   UNL A   1      32.774  25.022  22.664  1.00  0.00     0.124 C 
ATOM     13  C   UNL A   1      31.117  23.716  23.856  1.00  0.00     0.124 C 
ATOM     14  C   UNL A   1      32.202  26.340  23.202  1.00  0.00     0.054 C 
ATOM     15  C   UNL A   1      30.507  24.964  24.473  1.00  0.00     0.054 C 
BRANCH   9  16
ATOM     16  N   UNL A   1      33.504  22.380  25.194  1.00  0.00    -0.322 N 
BRANCH  16  17
ATOM     17  C   UNL A   1      33.274  22.599  26.634  1.00  0.00     0.118 C 
ATOM     18  C   UNL A   1      34.325  21.921  27.513  1.00  0.00     0.027 C 
ENDBRANCH  16  17
BRANCH  16  19
ATOM     19  C   UNL A   1      33.999  21.023  24.843  1.00  0.00     0.155 C 
BRANCH  19  20
ATOM     20  C   UNL A   1      32.937  19.937  24.417  1.00  0.00     0.077 C 
ATOM     21  C   UNL A   1      32.293  20.151  23.042  1.00  0.00     0.043 C 
ATOM     22  C   UNL A   1      33.624  18.563  24.425  1.00  0.00     0.043 C 
BRANCH  20  23
ATOM     23  O   UNL A   1      31.883  19.856  25.383  1.00  0.00    -0.389 OA
ATOM     24  H   UNL A   1      31.451  18.991  25.318  1.00  0.00     0.211 HD
ENDBRANCH  20  23
ENDBRANCH  19  20
ENDBRANCH  16  19
ENDBRANCH   9  16
ENDBRANCH   7   8
ENDBRANCH   6   7
ENDBRANCH   3   6
ENDBRANCH   1   2
BRANCH   1  25
ATOM     25  C   UNL A   1      30.678  31.575  25.416  1.00  0.00     0.023 C 
BRANCH  25  26
ATOM     26  C   UNL A   1      31.317  31.661  26.806  1.00  0.00     0.023 C 
BRANCH  26  27
ATOM     27  C   UNL A   1      32.650  32.400  26.874  1.00  0.00     0.116 C 
BRANCH  27  28
ATOM     28  N   UNL A   1      32.516  33.764  27.363  1.00  0.00    -0.352 N 
ATOM     29  C   UNL A   1      33.195  34.412  28.363  1.00  0.00     0.251 C 
ATOM     30  H   UNL A   1      31.833  34.304  26.904  1.00  0.00     0.163 HD
ATOM     31  O   UNL A   1      32.824  35.538  28.703  1.00  0.00    -0.269 OA
BRANCH  29  32
ATOM     32  C   UNL A   1      34.334  33.768  29.056  1.00  0.00     0.039 A 
ATOM     33  C   UNL A   1      34.066  32.867  30.094  1.00  0.00     0.014 A 
ATOM     34  C   UNL A   1      35.656  34.053  28.711  1.00  0.00     0.014 A 
ATOM     35  C   UNL A   1      35.117  32.204  30.733  1.00  0.00     0.010 A 
ATOM     36  C   UNL A   1      36.700  33.343  29.305  1.00  0.00     0.010 A 
ATOM     37  C   UNL A   1      36.442  32.408  30.318  1.00  0.00    -0.014 A 
BRANCH  37  38
ATOM     38  C   UNL A   1      37.573  31.660  30.931  1.00  0.00     0.031 A 
ATOM     39  C   UNL A   1      38.021  31.985  32.330  1.00  0.00     0.074 A 
ATOM     40  C   UNL A   1      38.242  30.742  30.206  1.00  0.00     0.049 A 
ATOM     41  N   UNL A   1      39.059  31.546  32.994  1.00  0.00    -0.248 NA
ATOM     42  C   UNL A   1      37.202  32.958  33.069  1.00  0.00     0.031 C 
ATOM     43  C   UNL A   1      37.919  30.348  28.833  1.00  0.00     0.029 A 
ATOM     44  N   UNL A   1      39.342  29.981  30.517  1.00  0.00    -0.354 N 
ATOM     45  C   UNL A   1      39.027  32.195  34.223  1.00  0.00     0.074 A 
ATOM     46  C   UNL A   1      37.898  33.102  34.186  1.00  0.00     0.031 C 
ATOM     47  C   UNL A   1      38.790  29.410  28.427  1.00  0.00     0.029 A 
ATOM     48  C   UNL A   1      39.763  29.169  29.487  1.00  0.00     0.049 A 
ATOM     49  H   UNL A   1      39.788  30.011  31.393  1.00  0.00     0.167 HD
ATOM     50  C   UNL A   1      39.851  32.037  35.290  1.00  0.00     0.034 A 
ATOM     51  C   UNL A   1      40.824  28.341  29.401  1.00  0.00     0.034 A 
ATOM     52  C   UNL A   1      40.967  31.123  35.317  1.00  0.00     0.049 A 
ATOM     53  C   UNL A   1      41.748  28.211  30.585  1.00  0.00     0.074 A 
ATOM     54  C   UNL A   1      41.848  30.864  36.353  1.00  0.00     0.029 A 
ATOM     55  N   UNL A   1      41.359  30.316  34.256  1.00  0.00    -0.354 N 
ATOM     56  N   UNL A   1      41.695  28.822  31.747  1.00  0.00    -0.248 NA
ATOM     57  C   UNL A   1      42.874  27.276  30.448  1.00  0.00     0.031 C 
ATOM     58  C   UNL A   1      42.802  29.945  35.904  1.00  0.00     0.029 A 
ATOM     59  C   UNL A   1      42.478  29.577  34.608  1.00  0.00     0.049 A 
ATOM     60  H   UNL A   1      40.908  30.276  33.382  1.00  0.00     0.167 HD
ATOM     61  C   UNL A   1      42.756  28.313  32.491  1.00  0.00     0.074 A 
ATOM     62  C   UNL A   1      43.428  27.345  31.650  1.00  0.00     0.031 C 
ATOM     63  C   UNL A   1      43.137  28.614  33.758  1.00  0.00     0.034 A 
BRANCH  50  64
ATOM     64  C   UNL A   1      39.580  32.894  36.503  1.00  0.00     0.023 A 
ATOM     65  C   UNL A   1      38.816  32.417  37.584  1.00  0.00     0.031 A 
ATOM     66  C   UNL A   1      40.063  34.213  36.570  1.00  0.00     0.131 A 
ATOM     67  C   UNL A   1      38.489  33.276  38.643  1.00  0.00     0.055 A 
ATOM     68  C   UNL A   1      39.803  35.036  37.668  1.00  0.00     0.041 A 
ATOM     69  F   UNL A   1      40.781  34.730  35.562  1.00  0.00    -0.206 F 
ATOM     70  C   UNL A   1      38.998  34.575  38.706  1.00  0.00     0.022 A 
BRANCH  67  71
ATOM     71  S   UNL A   1      37.270  32.715  39.863  1.00  0.00     0.124 S 
ATOM     72  O   UNL A   1      37.850  31.443  40.293  1.00  0.00    -0.237 OA
ATOM     73  O   UNL A   1      37.287  33.789  40.845  1.00  0.00    -0.237 OA
ATOM     74  O   UNL A   1      36.037  32.597  39.086  1.00  0.00    -0.744 OA
ENDBRANCH  67  71
ENDBRANCH  50  64
BRANCH  51  75
ATOM     75  C   UNL A   1      41.086  27.574  28.150  1.00  0.00     0.023 A 
ATOM     76  C   UNL A   1      40.831  26.195  28.086  1.00  0.00     0.031 A 
ATOM     77  C   UNL A   1      41.646  28.195  27.021  1.00  0.00     0.131 A 
ATOM     78  C   UNL A   1      41.183  25.472  26.936  1.00  0.00     0.055 A 
ATOM     79  C   UNL A   1      41.948  27.480  25.859  1.00  0.00     0.041 A 
ATOM     80  F   UNL A   1      41.905  29.513  27.027  1.00  0.00    -0.206 F 
ATOM     81  C   UNL A   1      41.729  26.106  25.819  1.00  0.00     0.022 A 
BRANCH  78  82
ATOM     82  S   UNL A   1      40.999  23.667  26.958  1.00  0.00     0.124 S 
ATOM     83  O   UNL A   1      41.707  23.311  28.182  1.00  0.00    -0.237 OA
ATOM     84  O   UNL A   1      39.549  23.512  26.985  1.00  0.00    -0.237 OA
ATOM     85  O   UNL A   1      41.647  23.246  25.717  1.00  0.00    -0.744 OA
ENDBRANCH  78  82
ENDBRANCH  51  75
BRANCH  63  86
ATOM     86  C   UNL A   1      44.296  27.836  34.327  1.00  0.00     0.023 A 
ATOM     87  C   UNL A   1      44.112  26.624  35.014  1.00  0.00     0.031 A 
ATOM     88  C   UNL A   1      45.607  28.326  34.183  1.00  0.00     0.131 A 
ATOM     89  C   UNL A   1      45.218  25.965  35.574  1.00  0.00     0.055 A 
ATOM     90  C   UNL A   1      46.708  27.640  34.697  1.00  0.00     0.041 A 
ATOM     91  F   UNL A   1      45.838  29.480  33.537  1.00  0.00    -0.206 F 
ATOM     92  C   UNL A   1      46.515  26.457  35.407  1.00  0.00     0.022 A 
BRANCH  89  93
ATOM     93  S   UNL A   1      44.932  24.490  36.590  1.00  0.00     0.124 S 
ATOM     94  O   UNL A   1      46.210  24.344  37.280  1.00  0.00    -0.237 OA
ATOM     95  O   UNL A   1      43.802  24.895  37.419  1.00  0.00    -0.237 OA
ATOM     96  O   UNL A   1      44.636  23.449  35.607  1.00  0.00    -0.744 OA
ENDBRANCH  89  93
ENDBRANCH  63  86
ENDBRANCH  37  38
ENDBRANCH  29  32
ENDBRANCH  27  28
ENDBRANCH  26  27
ENDBRANCH  25  26
ENDBRANCH   1  25
TORSDOF 21
ENDMDL
