MODEL 1
REMARK VINA RESULT:     -12.8      0.000      0.000
REMARK SMILES O=C(NCCCCNC(=O)[C@H]1C[C@](O)(c2ccc(F)cc2)[C@@H](c2ccc(F)cc2)O1)c1ccc(-c2c3nc(c(-c4cc(S(=O)(=O)[O-])ccc4F)c4ccc([nH]4)c(-c4cc(S(=O)(=O)[O-])ccc4F)c4nc(c(-c5cc(S(=O)(=O)[O-])ccc5F)c5ccc2[nH]5)C=C4)C=C3)cc1
REMARK SMILES IDX 4 1 3 2 1 3 2 4 31 6 32 7 93 8 33 9 92 10 34 11 35 12 36 13
REMARK SMILES IDX 86 14 37 15 91 16 85 17 87 18 38 19 90 20 84 21 83 22 39 24
REMARK SMILES IDX 71 25 51 26 70 27 52 28 55 29 69 30 88 31 53 32 54 33 68 35
REMARK SMILES IDX 89 36 56 37 40 38 41 39 49 40 42 41 48 42 50 43 47 44 43 45
REMARK SMILES IDX 44 46 45 47 46 48 72 49 73 50 81 51 74 52 80 53 82 54 79 55
REMARK SMILES IDX 75 56 76 57 77 58 78 59 57 60 58 61 66 62 59 63 65 64 67 65
REMARK SMILES IDX 64 66 60 67 61 68 62 69 63 70 5 71 6 72 7 73 8 74 9 75 10 77
REMARK SMILES IDX 11 78 12 79 30 80 13 81 22 82 15 83 16 84 21 85 17 86 20 87
REMARK SMILES IDX 18 88 19 89 14 90 23 92 24 93 29 94 25 95 28 96 26 97 27 98
REMARK H PARENT 3 5 87 23 55 34 8 76 14 91
REMARK Flexibility Score: inf
ROOT
ATOM      1  C   UNL A   1      32.965  32.103  27.242  1.00  0.00     0.116 C 
ENDROOT
BRANCH   1   2
ATOM      2  N   UNL A   1      32.532  33.478  27.445  1.00  0.00    -0.352 N 
ATOM      3  O   UNL A   1      32.578  35.504  28.472  1.00  0.00    -0.269 OA
ATOM      4  C   UNL A   1      33.055  34.386  28.344  1.00  0.00     0.251 C 
ATOM      5  H   UNL A   1      31.788  33.794  26.882  1.00  0.00     0.163 HD
BRANCH   4   6
ATOM      6  C   UNL A   1      34.192  33.945  29.181  1.00  0.00     0.039 A 
ATOM      7  C   UNL A   1      35.499  34.178  28.747  1.00  0.00     0.014 A 
ATOM      8  C   UNL A   1      33.945  33.189  30.329  1.00  0.00     0.014 A 
ATOM      9  C   UNL A   1      36.554  33.536  29.385  1.00  0.00     0.010 A 
ATOM     10  C   UNL A   1      35.016  32.605  31.012  1.00  0.00     0.010 A 
ATOM     11  C   UNL A   1      36.325  32.745  30.525  1.00  0.00    -0.014 A 
BRANCH  11  12
ATOM     12  C   UNL A   1      37.480  32.120  31.218  1.00  0.00     0.031 A 
ATOM     13  C   UNL A   1      38.284  31.025  30.572  1.00  0.00     0.074 A 
ATOM     14  C   UNL A   1      37.826  32.589  32.432  1.00  0.00     0.049 A 
ATOM     15  N   UNL A   1      39.314  30.372  31.049  1.00  0.00    -0.248 NA
ATOM     16  C   UNL A   1      37.880  30.605  29.224  1.00  0.00     0.031 C 
ATOM     17  C   UNL A   1      37.128  33.662  33.144  1.00  0.00     0.029 A 
ATOM     18  N   UNL A   1      38.860  32.255  33.264  1.00  0.00    -0.354 N 
ATOM     19  C   UNL A   1      39.672  29.452  30.070  1.00  0.00     0.074 A 
ATOM     20  C   UNL A   1      38.734  29.620  28.978  1.00  0.00     0.031 C 
ATOM     21  C   UNL A   1      37.791  33.942  34.275  1.00  0.00     0.029 A 
ATOM     22  C   UNL A   1      38.914  33.021  34.403  1.00  0.00     0.049 A 
ATOM     23  H   UNL A   1      39.503  31.536  33.067  1.00  0.00     0.167 HD
ATOM     24  C   UNL A   1      40.690  28.554  30.084  1.00  0.00     0.034 A 
ATOM     25  C   UNL A   1      39.759  32.979  35.451  1.00  0.00     0.034 A 
ATOM     26  C   UNL A   1      41.621  28.408  31.177  1.00  0.00     0.049 A 
ATOM     27  C   UNL A   1      40.847  31.947  35.465  1.00  0.00     0.074 A 
ATOM     28  C   UNL A   1      42.695  27.540  31.286  1.00  0.00     0.029 A 
ATOM     29  N   UNL A   1      41.591  29.146  32.354  1.00  0.00    -0.354 N 
ATOM     30  N   UNL A   1      41.138  31.050  34.554  1.00  0.00    -0.248 NA
ATOM     31  C   UNL A   1      41.707  31.910  36.654  1.00  0.00     0.031 C 
ATOM     32  C   UNL A   1      43.278  27.715  32.546  1.00  0.00     0.029 A 
ATOM     33  C   UNL A   1      42.610  28.736  33.202  1.00  0.00     0.049 A 
ATOM     34  H   UNL A   1      40.943  29.858  32.556  1.00  0.00     0.167 HD
ATOM     35  C   UNL A   1      42.217  30.336  35.060  1.00  0.00     0.074 A 
ATOM     36  C   UNL A   1      42.532  30.917  36.351  1.00  0.00     0.031 C 
ATOM     37  C   UNL A   1      42.888  29.299  34.501  1.00  0.00     0.034 A 
BRANCH  24  38
ATOM     38  C   UNL A   1      40.822  27.626  28.902  1.00  0.00     0.023 A 
ATOM     39  C   UNL A   1      41.800  27.821  27.912  1.00  0.00     0.031 A 
ATOM     40  C   UNL A   1      39.961  26.522  28.773  1.00  0.00     0.131 A 
ATOM     41  C   UNL A   1      41.861  26.951  26.810  1.00  0.00     0.055 A 
ATOM     42  C   UNL A   1      40.067  25.625  27.708  1.00  0.00     0.041 A 
ATOM     43  F   UNL A   1      38.997  26.298  29.681  1.00  0.00    -0.206 F 
ATOM     44  C   UNL A   1      41.016  25.842  26.714  1.00  0.00     0.022 A 
BRANCH  41  45
ATOM     45  S   UNL A   1      43.002  27.340  25.455  1.00  0.00     0.124 S 
ATOM     46  O   UNL A   1      43.169  26.033  24.826  1.00  0.00    -0.237 OA
ATOM     47  O   UNL A   1      42.254  28.328  24.686  1.00  0.00    -0.237 OA
ATOM     48  O   UNL A   1      44.187  27.852  26.140  1.00  0.00    -0.744 OA
ENDBRANCH  41  45
ENDBRANCH  24  38
BRANCH  25  49
ATOM     49  C   UNL A   1      39.568  33.931  36.574  1.00  0.00     0.023 A 
ATOM     50  C   UNL A   1      39.015  33.508  37.791  1.00  0.00     0.031 A 
ATOM     51  C   UNL A   1      40.006  35.263  36.464  1.00  0.00     0.131 A 
ATOM     52  C   UNL A   1      38.915  34.413  38.858  1.00  0.00     0.055 A 
ATOM     53  C   UNL A   1      39.933  36.149  37.538  1.00  0.00     0.041 A 
ATOM     54  F   UNL A   1      40.558  35.701  35.322  1.00  0.00    -0.206 F 
ATOM     55  C   UNL A   1      39.383  35.726  38.744  1.00  0.00     0.022 A 
BRANCH  52  56
ATOM     56  S   UNL A   1      38.175  33.850  40.415  1.00  0.00     0.124 S 
ATOM     57  O   UNL A   1      38.018  35.105  41.140  1.00  0.00    -0.237 OA
ATOM     58  O   UNL A   1      36.944  33.213  39.959  1.00  0.00    -0.237 OA
ATOM     59  O   UNL A   1      39.178  32.936  40.956  1.00  0.00    -0.744 OA
ENDBRANCH  52  56
ENDBRANCH  25  49
BRANCH  37  60
ATOM     60  C   UNL A   1      44.039  28.734  35.287  1.00  0.00     0.023 A 
ATOM     61  C   UNL A   1      43.851  27.704  36.224  1.00  0.00     0.031 A 
ATOM     62  C   UNL A   1      45.340  29.225  35.085  1.00  0.00     0.131 A 
ATOM     63  C   UNL A   1      44.946  27.219  36.952  1.00  0.00     0.055 A 
ATOM     64  C   UNL A   1      46.432  28.711  35.782  1.00  0.00     0.041 A 
ATOM     65  F   UNL A   1      45.568  30.209  34.200  1.00  0.00    -0.206 F 
ATOM     66  C   UNL A   1      46.238  27.705  36.726  1.00  0.00     0.022 A 
BRANCH  63  67
ATOM     67  S   UNL A   1      44.662  25.962  38.228  1.00  0.00     0.124 S 
ATOM     68  O   UNL A   1      45.989  25.371  38.368  1.00  0.00    -0.237 OA
ATOM     69  O   UNL A   1      44.195  26.757  39.358  1.00  0.00    -0.237 OA
ATOM     70  O   UNL A   1      43.654  25.088  37.629  1.00  0.00    -0.744 OA
ENDBRANCH  63  67
ENDBRANCH  37  60
ENDBRANCH  11  12
ENDBRANCH   4   6
ENDBRANCH   1   2
BRANCH   1  71
ATOM     71  C   UNL A   1      31.834  31.135  26.913  1.00  0.00     0.023 C 
BRANCH  71  72
ATOM     72  C   UNL A   1      31.918  30.484  25.534  1.00  0.00     0.023 C 
BRANCH  72  73
ATOM     73  C   UNL A   1      33.108  29.539  25.380  1.00  0.00     0.116 C 
BRANCH  73  74
ATOM     74  N   UNL A   1      33.635  29.497  24.033  1.00  0.00    -0.354 N 
ATOM     75  C   UNL A   1      33.828  28.460  23.176  1.00  0.00     0.249 C 
ATOM     76  H   UNL A   1      33.902  30.375  23.675  1.00  0.00     0.163 HD
ATOM     77  O   UNL A   1      34.126  28.756  22.012  1.00  0.00    -0.272 OA
BRANCH  75  78
ATOM     78  C   UNL A   1      33.689  26.966  23.571  1.00  0.00     0.211 C 
ATOM     79  C   UNL A   1      33.724  26.651  25.048  1.00  0.00     0.085 C 
ATOM     80  O   UNL A   1      32.619  26.249  22.974  1.00  0.00    -0.357 OA
ATOM     81  C   UNL A   1      32.435  25.876  25.366  1.00  0.00     0.123 C 
ATOM     82  C   UNL A   1      31.687  25.805  23.978  1.00  0.00     0.186 C 
BRANCH  81  83
ATOM     83  C   UNL A   1      32.810  24.575  26.095  1.00  0.00    -0.013 A 
ATOM     84  C   UNL A   1      34.163  24.153  26.036  1.00  0.00     0.010 A 
ATOM     85  C   UNL A   1      31.917  23.780  26.826  1.00  0.00     0.010 A 
ATOM     86  C   UNL A   1      34.597  22.978  26.650  1.00  0.00     0.039 A 
ATOM     87  C   UNL A   1      32.354  22.604  27.449  1.00  0.00     0.039 A 
ATOM     88  C   UNL A   1      33.684  22.211  27.351  1.00  0.00     0.123 A 
ATOM     89  F   UNL A   1      34.088  21.079  27.944  1.00  0.00    -0.207 F 
ENDBRANCH  81  83
BRANCH  81  90
ATOM     90  O   UNL A   1      31.700  26.638  26.340  1.00  0.00    -0.382 OA
ATOM     91  H   UNL A   1      32.310  27.208  26.833  1.00  0.00     0.212 HD
ENDBRANCH  81  90
BRANCH  82  92
ATOM     92  C   UNL A   1      30.379  26.582  23.802  1.00  0.00    -0.016 A 
ATOM     93  C   UNL A   1      29.132  26.010  24.138  1.00  0.00     0.009 A 
ATOM     94  C   UNL A   1      30.383  27.900  23.316  1.00  0.00     0.009 A 
ATOM     95  C   UNL A   1      27.934  26.687  23.903  1.00  0.00     0.039 A 
ATOM     96  C   UNL A   1      29.183  28.582  23.087  1.00  0.00     0.039 A 
ATOM     97  C   UNL A   1      27.971  27.963  23.367  1.00  0.00     0.123 A 
ATOM     98  F   UNL A   1      26.825  28.608  23.117  1.00  0.00    -0.207 F 
ENDBRANCH  82  92
ENDBRANCH  75  78
ENDBRANCH  73  74
ENDBRANCH  72  73
ENDBRANCH  71  72
ENDBRANCH   1  71
TORSDOF 17
ENDMDL
MODEL 2
REMARK VINA RESULT:     -12.8      1.750      7.438
REMARK SMILES O=C(NCCCCNC(=O)[C@H]1C[C@](O)(c2ccc(F)cc2)[C@@H](c2ccc(F)cc2)O1)c1ccc(-c2c3nc(c(-c4cc(S(=O)(=O)[O-])ccc4F)c4ccc([nH]4)c(-c4cc(S(=O)(=O)[O-])ccc4F)c4nc(c(-c5cc(S(=O)(=O)[O-])ccc5F)c5ccc2[nH]5)C=C4)C=C3)cc1
REMARK SMILES IDX 4 1 3 2 1 3 2 4 31 6 32 7 93 8 33 9 92 10 34 11 35 12 36 13
REMARK SMILES IDX 86 14 37 15 91 16 85 17 87 18 38 19 90 20 84 21 83 22 39 24
REMARK SMILES IDX 71 25 51 26 70 27 52 28 55 29 69 30 88 31 53 32 54 33 68 35
REMARK SMILES IDX 89 36 56 37 40 38 41 39 49 40 42 41 48 42 50 43 47 44 43 45
REMARK SMILES IDX 44 46 45 47 46 48 72 49 73 50 81 51 74 52 80 53 82 54 79 55
REMARK SMILES IDX 75 56 76 57 77 58 78 59 57 60 58 61 66 62 59 63 65 64 67 65
REMARK SMILES IDX 64 66 60 67 61 68 62 69 63 70 5 71 6 72 7 73 8 74 9 75 10 77
REMARK SMILES IDX 11 78 12 79 30 80 13 81 22 82 15 83 16 84 21 85 17 86 20 87
REMARK SMILES IDX 18 88 19 89 14 90 23 92 24 93 29 94 25 95 28 96 26 97 27 98
REMARK H PARENT 3 5 87 23 55 34 8 76 14 91
REMARK Flexibility Score: inf
ROOT
ATOM      1  C   UNL A   1      32.474  32.211  26.808  1.00  0.00     0.116 C 
ENDROOT
BRANCH   1   2
ATOM      2  N   UNL A   1      32.350  33.581  27.285  1.00  0.00    -0.352 N 
ATOM      3  O   UNL A   1      32.968  35.372  28.539  1.00  0.00    -0.269 OA
ATOM      4  C   UNL A   1      33.197  34.232  28.159  1.00  0.00     0.251 C 
ATOM      5  H   UNL A   1      31.581  34.097  26.949  1.00  0.00     0.163 HD
BRANCH   4   6
ATOM      6  C   UNL A   1      34.375  33.489  28.655  1.00  0.00     0.039 A 
ATOM      7  C   UNL A   1      34.190  32.324  29.403  1.00  0.00     0.014 A 
ATOM      8  C   UNL A   1      35.650  34.029  28.477  1.00  0.00     0.014 A 
ATOM      9  C   UNL A   1      35.267  31.779  30.092  1.00  0.00     0.010 A 
ATOM     10  C   UNL A   1      36.744  33.433  29.112  1.00  0.00     0.010 A 
ATOM     11  C   UNL A   1      36.555  32.324  29.953  1.00  0.00    -0.014 A 
BRANCH  11  12
ATOM     12  C   UNL A   1      37.695  31.683  30.655  1.00  0.00     0.031 A 
ATOM     13  C   UNL A   1      38.003  31.990  32.095  1.00  0.00     0.074 A 
ATOM     14  C   UNL A   1      38.429  30.774  29.984  1.00  0.00     0.049 A 
ATOM     15  N   UNL A   1      38.966  31.520  32.847  1.00  0.00    -0.248 NA
ATOM     16  C   UNL A   1      37.123  32.949  32.777  1.00  0.00     0.031 C 
ATOM     17  C   UNL A   1      38.208  30.384  28.590  1.00  0.00     0.029 A 
ATOM     18  N   UNL A   1      39.481  29.994  30.384  1.00  0.00    -0.354 N 
ATOM     19  C   UNL A   1      38.823  32.137  34.085  1.00  0.00     0.074 A 
ATOM     20  C   UNL A   1      37.687  33.031  33.975  1.00  0.00     0.031 C 
ATOM     21  C   UNL A   1      39.052  29.394  28.271  1.00  0.00     0.029 A 
ATOM     22  C   UNL A   1      39.922  29.131  29.411  1.00  0.00     0.049 A 
ATOM     23  H   UNL A   1      39.882  30.046  31.282  1.00  0.00     0.167 HD
ATOM     24  C   UNL A   1      39.569  31.969  35.207  1.00  0.00     0.034 A 
ATOM     25  C   UNL A   1      40.929  28.238  29.421  1.00  0.00     0.034 A 
ATOM     26  C   UNL A   1      40.691  31.066  35.300  1.00  0.00     0.049 A 
ATOM     27  C   UNL A   1      41.769  28.104  30.656  1.00  0.00     0.074 A 
ATOM     28  C   UNL A   1      41.504  30.811  36.392  1.00  0.00     0.029 A 
ATOM     29  N   UNL A   1      41.162  30.269  34.264  1.00  0.00    -0.354 N 
ATOM     30  N   UNL A   1      41.652  28.735  31.800  1.00  0.00    -0.248 NA
ATOM     31  C   UNL A   1      42.887  27.155  30.595  1.00  0.00     0.031 C 
ATOM     32  C   UNL A   1      42.496  29.904  36.001  1.00  0.00     0.029 A 
ATOM     33  C   UNL A   1      42.267  29.544  34.684  1.00  0.00     0.049 A 
ATOM     34  H   UNL A   1      40.767  30.224  33.364  1.00  0.00     0.167 HD
ATOM     35  C   UNL A   1      42.683  28.259  32.599  1.00  0.00     0.074 A 
ATOM     36  C   UNL A   1      43.405  27.280  31.810  1.00  0.00     0.031 C 
ATOM     37  C   UNL A   1      42.998  28.600  33.874  1.00  0.00     0.034 A 
BRANCH  24  38
ATOM     38  C   UNL A   1      39.227  32.814  36.408  1.00  0.00     0.023 A 
ATOM     39  C   UNL A   1      39.765  34.100  36.588  1.00  0.00     0.031 A 
ATOM     40  C   UNL A   1      38.337  32.329  37.383  1.00  0.00     0.131 A 
ATOM     41  C   UNL A   1      39.445  34.837  37.740  1.00  0.00     0.055 A 
ATOM     42  C   UNL A   1      37.975  33.090  38.495  1.00  0.00     0.041 A 
ATOM     43  F   UNL A   1      37.807  31.100  37.271  1.00  0.00    -0.206 F 
ATOM     44  C   UNL A   1      38.536  34.349  38.683  1.00  0.00     0.022 A 
BRANCH  41  45
ATOM     45  S   UNL A   1      40.305  36.406  38.038  1.00  0.00     0.124 S 
ATOM     46  O   UNL A   1      40.653  36.814  36.680  1.00  0.00    -0.237 OA
ATOM     47  O   UNL A   1      39.283  37.205  38.703  1.00  0.00    -0.237 OA
ATOM     48  O   UNL A   1      41.439  36.022  38.877  1.00  0.00    -0.744 OA
ENDBRANCH  41  45
ENDBRANCH  24  38
BRANCH  25  49
ATOM     49  C   UNL A   1      41.200  27.438  28.199  1.00  0.00     0.023 A 
ATOM     50  C   UNL A   1      40.826  26.089  28.124  1.00  0.00     0.031 A 
ATOM     51  C   UNL A   1      41.773  28.039  27.065  1.00  0.00     0.131 A 
ATOM     52  C   UNL A   1      41.029  25.379  26.931  1.00  0.00     0.055 A 
ATOM     53  C   UNL A   1      41.942  27.338  25.871  1.00  0.00     0.041 A 
ATOM     54  F   UNL A   1      42.126  29.333  27.090  1.00  0.00    -0.206 F 
ATOM     55  C   UNL A   1      41.571  25.999  25.800  1.00  0.00     0.022 A 
BRANCH  52  56
ATOM     56  S   UNL A   1      40.559  23.629  26.865  1.00  0.00     0.124 S 
ATOM     57  O   UNL A   1      39.138  23.716  26.553  1.00  0.00    -0.237 OA
ATOM     58  O   UNL A   1      41.421  23.118  25.803  1.00  0.00    -0.237 OA
ATOM     59  O   UNL A   1      40.877  23.142  28.205  1.00  0.00    -0.744 OA
ENDBRANCH  52  56
ENDBRANCH  25  49
BRANCH  37  60
ATOM     60  C   UNL A   1      44.174  27.895  34.493  1.00  0.00     0.023 A 
ATOM     61  C   UNL A   1      44.020  26.679  35.178  1.00  0.00     0.031 A 
ATOM     62  C   UNL A   1      45.463  28.442  34.382  1.00  0.00     0.131 A 
ATOM     63  C   UNL A   1      45.137  26.063  35.760  1.00  0.00     0.055 A 
ATOM     64  C   UNL A   1      46.577  27.804  34.927  1.00  0.00     0.041 A 
ATOM     65  F   UNL A   1      45.658  29.603  33.736  1.00  0.00    -0.206 F 
ATOM     66  C   UNL A   1      46.417  26.610  35.625  1.00  0.00     0.022 A 
BRANCH  63  67
ATOM     67  S   UNL A   1      44.897  24.547  36.727  1.00  0.00     0.124 S 
ATOM     68  O   UNL A   1      46.269  24.196  37.080  1.00  0.00    -0.237 OA
ATOM     69  O   UNL A   1      44.053  25.002  37.826  1.00  0.00    -0.237 OA
ATOM     70  O   UNL A   1      44.248  23.638  35.784  1.00  0.00    -0.744 OA
ENDBRANCH  63  67
ENDBRANCH  37  60
ENDBRANCH  11  12
ENDBRANCH   4   6
ENDBRANCH   1   2
BRANCH   1  71
ATOM     71  C   UNL A   1      31.148  31.558  26.432  1.00  0.00     0.023 C 
BRANCH  71  72
ATOM     72  C   UNL A   1      31.243  30.461  25.374  1.00  0.00     0.023 C 
BRANCH  72  73
ATOM     73  C   UNL A   1      32.515  29.622  25.482  1.00  0.00     0.116 C 
BRANCH  73  74
ATOM     74  N   UNL A   1      33.330  29.664  24.287  1.00  0.00    -0.354 N 
ATOM     75  C   UNL A   1      33.784  28.673  23.474  1.00  0.00     0.249 C 
ATOM     76  H   UNL A   1      33.603  30.570  24.014  1.00  0.00     0.163 HD
ATOM     77  O   UNL A   1      34.311  29.029  22.412  1.00  0.00    -0.272 OA
BRANCH  75  78
ATOM     78  C   UNL A   1      33.672  27.160  23.799  1.00  0.00     0.211 C 
ATOM     79  C   UNL A   1      33.572  26.788  25.260  1.00  0.00     0.085 C 
ATOM     80  O   UNL A   1      32.699  26.426  23.070  1.00  0.00    -0.357 OA
ATOM     81  C   UNL A   1      32.293  25.950  25.417  1.00  0.00     0.123 C 
ATOM     82  C   UNL A   1      31.692  25.905  23.958  1.00  0.00     0.186 C 
BRANCH  81  83
ATOM     83  C   UNL A   1      32.649  24.636  26.133  1.00  0.00    -0.013 A 
ATOM     84  C   UNL A   1      34.005  24.220  26.109  1.00  0.00     0.010 A 
ATOM     85  C   UNL A   1      31.737  23.825  26.820  1.00  0.00     0.010 A 
ATOM     86  C   UNL A   1      34.424  23.035  26.715  1.00  0.00     0.039 A 
ATOM     87  C   UNL A   1      32.158  22.639  27.435  1.00  0.00     0.039 A 
ATOM     88  C   UNL A   1      33.492  22.252  27.372  1.00  0.00     0.123 A 
ATOM     89  F   UNL A   1      33.881  21.111  27.956  1.00  0.00    -0.207 F 
ENDBRANCH  81  83
BRANCH  81  90
ATOM     90  O   UNL A   1      31.431  26.642  26.337  1.00  0.00    -0.382 OA
ATOM     91  H   UNL A   1      31.508  27.598  26.196  1.00  0.00     0.212 HD
ENDBRANCH  81  90
BRANCH  82  92
ATOM     92  C   UNL A   1      30.375  26.636  23.677  1.00  0.00    -0.016 A 
ATOM     93  C   UNL A   1      30.351  27.876  23.001  1.00  0.00     0.009 A 
ATOM     94  C   UNL A   1      29.146  26.081  24.070  1.00  0.00     0.009 A 
ATOM     95  C   UNL A   1      29.160  28.580  22.815  1.00  0.00     0.039 A 
ATOM     96  C   UNL A   1      27.951  26.783  23.878  1.00  0.00     0.039 A 
ATOM     97  C   UNL A   1      27.972  28.032  23.268  1.00  0.00     0.123 A 
ATOM     98  F   UNL A   1      26.830  28.713  23.114  1.00  0.00    -0.207 F 
ENDBRANCH  82  92
ENDBRANCH  75  78
ENDBRANCH  73  74
ENDBRANCH  72  73
ENDBRANCH  71  72
ENDBRANCH   1  71
TORSDOF 17
ENDMDL
MODEL 3
REMARK VINA RESULT:     -12.7      1.563      7.816
REMARK SMILES O=C(NCCCCNC(=O)[C@H]1C[C@](O)(c2ccc(F)cc2)[C@@H](c2ccc(F)cc2)O1)c1ccc(-c2c3nc(c(-c4cc(S(=O)(=O)[O-])ccc4F)c4ccc([nH]4)c(-c4cc(S(=O)(=O)[O-])ccc4F)c4nc(c(-c5cc(S(=O)(=O)[O-])ccc5F)c5ccc2[nH]5)C=C4)C=C3)cc1
REMARK SMILES IDX 4 1 3 2 1 3 2 4 31 6 32 7 93 8 33 9 92 10 34 11 35 12 36 13
REMARK SMILES IDX 86 14 37 15 91 16 85 17 87 18 38 19 90 20 84 21 83 22 39 24
REMARK SMILES IDX 71 25 51 26 70 27 52 28 55 29 69 30 88 31 53 32 54 33 68 35
REMARK SMILES IDX 89 36 56 37 40 38 41 39 49 40 42 41 48 42 50 43 47 44 43 45
REMARK SMILES IDX 44 46 45 47 46 48 72 49 73 50 81 51 74 52 80 53 82 54 79 55
REMARK SMILES IDX 75 56 76 57 77 58 78 59 57 60 58 61 66 62 59 63 65 64 67 65
REMARK SMILES IDX 64 66 60 67 61 68 62 69 63 70 5 71 6 72 7 73 8 74 9 75 10 77
REMARK SMILES IDX 11 78 12 79 30 80 13 81 22 82 15 83 16 84 21 85 17 86 20 87
REMARK SMILES IDX 18 88 19 89 14 90 23 92 24 93 29 94 25 95 28 96 26 97 27 98
REMARK H PARENT 3 5 87 23 55 34 8 76 14 91
REMARK Flexibility Score: inf
ROOT
ATOM      1  C   UNL A   1      33.970  33.305  27.566  1.00  0.00     0.116 C 
ENDROOT
BRANCH   1   2
ATOM      2  N   UNL A   1      33.169  34.243  28.340  1.00  0.00    -0.352 N 
ATOM      3  O   UNL A   1      32.611  35.383  30.224  1.00  0.00    -0.269 OA
ATOM      4  C   UNL A   1      33.381  34.627  29.649  1.00  0.00     0.251 C 
ATOM      5  H   UNL A   1      32.395  34.644  27.882  1.00  0.00     0.163 HD
BRANCH   4   6
ATOM      6  C   UNL A   1      34.554  34.060  30.349  1.00  0.00     0.039 A 
ATOM      7  C   UNL A   1      35.835  34.505  30.019  1.00  0.00     0.014 A 
ATOM      8  C   UNL A   1      34.373  32.998  31.238  1.00  0.00     0.014 A 
ATOM      9  C   UNL A   1      36.941  33.794  30.471  1.00  0.00     0.010 A 
ATOM     10  C   UNL A   1      35.490  32.332  31.750  1.00  0.00     0.010 A 
ATOM     11  C   UNL A   1      36.782  32.703  31.342  1.00  0.00    -0.014 A 
BRANCH  11  12
ATOM     12  C   UNL A   1      37.985  32.000  31.854  1.00  0.00     0.031 A 
ATOM     13  C   UNL A   1      38.548  32.296  33.217  1.00  0.00     0.074 A 
ATOM     14  C   UNL A   1      38.545  31.048  31.082  1.00  0.00     0.049 A 
ATOM     15  N   UNL A   1      39.595  31.774  33.805  1.00  0.00    -0.248 NA
ATOM     16  C   UNL A   1      37.849  33.307  34.023  1.00  0.00     0.031 C 
ATOM     17  C   UNL A   1      38.071  30.665  29.750  1.00  0.00     0.029 A 
ATOM     18  N   UNL A   1      39.603  30.211  31.312  1.00  0.00    -0.354 N 
ATOM     19  C   UNL A   1      39.696  32.404  35.040  1.00  0.00     0.074 A 
ATOM     20  C   UNL A   1      38.610  33.362  35.109  1.00  0.00     0.031 C 
ATOM     21  C   UNL A   1      38.794  29.627  29.309  1.00  0.00     0.029 A 
ATOM     22  C   UNL A   1      39.826  29.319  30.291  1.00  0.00     0.049 A 
ATOM     23  H   UNL A   1      40.152  30.244  32.129  1.00  0.00     0.167 HD
ATOM     24  C   UNL A   1      40.608  32.199  36.024  1.00  0.00     0.034 A 
ATOM     25  C   UNL A   1      40.769  28.370  30.145  1.00  0.00     0.034 A 
ATOM     26  C   UNL A   1      41.678  31.233  35.941  1.00  0.00     0.049 A 
ATOM     27  C   UNL A   1      41.796  28.193  31.224  1.00  0.00     0.074 A 
ATOM     28  C   UNL A   1      42.647  30.937  36.885  1.00  0.00     0.029 A 
ATOM     29  N   UNL A   1      41.923  30.406  34.852  1.00  0.00    -0.354 N 
ATOM     30  N   UNL A   1      41.907  28.835  32.362  1.00  0.00    -0.248 NA
ATOM     31  C   UNL A   1      42.833  27.181  30.991  1.00  0.00     0.031 C 
ATOM     32  C   UNL A   1      43.508  29.973  36.347  1.00  0.00     0.029 A 
ATOM     33  C   UNL A   1      43.041  29.620  35.091  1.00  0.00     0.049 A 
ATOM     34  H   UNL A   1      41.382  30.380  34.031  1.00  0.00     0.167 HD
ATOM     35  C   UNL A   1      43.030  28.304  32.985  1.00  0.00     0.074 A 
ATOM     36  C   UNL A   1      43.553  27.282  32.100  1.00  0.00     0.031 C 
ATOM     37  C   UNL A   1      43.573  28.632  34.184  1.00  0.00     0.034 A 
BRANCH  24  38
ATOM     38  C   UNL A   1      40.520  33.068  37.253  1.00  0.00     0.023 A 
ATOM     39  C   UNL A   1      39.774  32.684  38.381  1.00  0.00     0.031 A 
ATOM     40  C   UNL A   1      41.206  34.295  37.301  1.00  0.00     0.131 A 
ATOM     41  C   UNL A   1      39.692  33.542  39.490  1.00  0.00     0.055 A 
ATOM     42  C   UNL A   1      41.171  35.115  38.430  1.00  0.00     0.041 A 
ATOM     43  F   UNL A   1      41.920  34.719  36.246  1.00  0.00    -0.206 F 
ATOM     44  C   UNL A   1      40.405  34.744  39.530  1.00  0.00     0.022 A 
BRANCH  41  45
ATOM     45  S   UNL A   1      38.568  33.110  40.845  1.00  0.00     0.124 S 
ATOM     46  O   UNL A   1      38.830  34.184  41.800  1.00  0.00    -0.237 OA
ATOM     47  O   UNL A   1      37.263  33.138  40.195  1.00  0.00    -0.237 OA
ATOM     48  O   UNL A   1      39.027  31.787  41.264  1.00  0.00    -0.744 OA
ENDBRANCH  41  45
ENDBRANCH  24  38
BRANCH  25  49
ATOM     49  C   UNL A   1      40.786  27.550  28.906  1.00  0.00     0.023 A 
ATOM     50  C   UNL A   1      41.733  27.784  27.900  1.00  0.00     0.031 A 
ATOM     51  C   UNL A   1      39.897  26.472  28.752  1.00  0.00     0.131 A 
ATOM     52  C   UNL A   1      41.770  26.947  26.775  1.00  0.00     0.055 A 
ATOM     53  C   UNL A   1      39.959  25.623  27.648  1.00  0.00     0.041 A 
ATOM     54  F   UNL A   1      38.988  26.203  29.702  1.00  0.00    -0.206 F 
ATOM     55  C   UNL A   1      40.899  25.860  26.650  1.00  0.00     0.022 A 
BRANCH  52  56
ATOM     56  S   UNL A   1      42.988  27.284  25.474  1.00  0.00     0.124 S 
ATOM     57  O   UNL A   1      44.112  27.797  26.248  1.00  0.00    -0.237 OA
ATOM     58  O   UNL A   1      43.169  25.967  24.873  1.00  0.00    -0.237 OA
ATOM     59  O   UNL A   1      42.314  28.263  24.624  1.00  0.00    -0.744 OA
ENDBRANCH  52  56
ENDBRANCH  25  49
BRANCH  37  60
ATOM     60  C   UNL A   1      44.794  27.863  34.608  1.00  0.00     0.023 A 
ATOM     61  C   UNL A   1      44.689  26.661  35.326  1.00  0.00     0.031 A 
ATOM     62  C   UNL A   1      46.075  28.335  34.277  1.00  0.00     0.131 A 
ATOM     63  C   UNL A   1      45.852  25.985  35.721  1.00  0.00     0.055 A 
ATOM     64  C   UNL A   1      47.227  27.638  34.636  1.00  0.00     0.041 A 
ATOM     65  F   UNL A   1      46.224  29.481  33.591  1.00  0.00    -0.206 F 
ATOM     66  C   UNL A   1      47.120  26.457  35.368  1.00  0.00     0.022 A 
BRANCH  63  67
ATOM     67  S   UNL A   1      45.693  24.490  36.736  1.00  0.00     0.124 S 
ATOM     68  O   UNL A   1      44.957  23.599  35.844  1.00  0.00    -0.237 OA
ATOM     69  O   UNL A   1      47.083  24.129  36.990  1.00  0.00    -0.237 OA
ATOM     70  O   UNL A   1      44.948  24.948  37.908  1.00  0.00    -0.744 OA
ENDBRANCH  63  67
ENDBRANCH  37  60
ENDBRANCH  11  12
ENDBRANCH   4   6
ENDBRANCH   1   2
BRANCH   1  71
ATOM     71  C   UNL A   1      33.660  31.838  27.848  1.00  0.00     0.023 C 
BRANCH  71  72
ATOM     72  C   UNL A   1      34.823  30.874  27.622  1.00  0.00     0.023 C 
BRANCH  72  73
ATOM     73  C   UNL A   1      34.376  29.462  27.248  1.00  0.00     0.116 C 
BRANCH  73  74
ATOM     74  N   UNL A   1      33.016  29.169  27.647  1.00  0.00    -0.354 N 
ATOM     75  C   UNL A   1      32.213  28.103  27.385  1.00  0.00     0.249 C 
ATOM     76  H   UNL A   1      32.599  29.863  28.206  1.00  0.00     0.163 HD
ATOM     77  O   UNL A   1      31.153  28.043  28.020  1.00  0.00    -0.272 OA
BRANCH  75  78
ATOM     78  C   UNL A   1      32.555  26.985  26.365  1.00  0.00     0.211 C 
ATOM     79  C   UNL A   1      31.804  25.683  26.513  1.00  0.00     0.085 C 
ATOM     80  O   UNL A   1      32.563  27.357  24.995  1.00  0.00    -0.357 OA
ATOM     81  C   UNL A   1      31.131  25.403  25.159  1.00  0.00     0.123 C 
ATOM     82  C   UNL A   1      31.544  26.641  24.272  1.00  0.00     0.186 C 
BRANCH  81  83
ATOM     83  C   UNL A   1      31.507  23.983  24.705  1.00  0.00    -0.013 A 
ATOM     84  C   UNL A   1      31.923  23.811  23.360  1.00  0.00     0.010 A 
ATOM     85  C   UNL A   1      31.485  22.847  25.525  1.00  0.00     0.010 A 
ATOM     86  C   UNL A   1      32.267  22.560  22.849  1.00  0.00     0.039 A 
ATOM     87  C   UNL A   1      31.838  21.591  25.013  1.00  0.00     0.039 A 
ATOM     88  C   UNL A   1      32.219  21.458  23.683  1.00  0.00     0.123 A 
ATOM     89  F   UNL A   1      32.546  20.250  23.204  1.00  0.00    -0.207 F 
ENDBRANCH  81  83
BRANCH  81  90
ATOM     90  O   UNL A   1      29.711  25.347  25.384  1.00  0.00    -0.382 OA
ATOM     91  H   UNL A   1      29.509  24.626  26.001  1.00  0.00     0.212 HD
ENDBRANCH  81  90
BRANCH  82  92
ATOM     92  C   UNL A   1      30.463  27.639  23.845  1.00  0.00    -0.016 A 
ATOM     93  C   UNL A   1      30.706  29.031  23.840  1.00  0.00     0.009 A 
ATOM     94  C   UNL A   1      29.198  27.195  23.425  1.00  0.00     0.009 A 
ATOM     95  C   UNL A   1      29.698  29.945  23.527  1.00  0.00     0.039 A 
ATOM     96  C   UNL A   1      28.189  28.110  23.105  1.00  0.00     0.039 A 
ATOM     97  C   UNL A   1      28.444  29.475  23.175  1.00  0.00     0.123 A 
ATOM     98  F   UNL A   1      27.466  30.347  22.897  1.00  0.00    -0.207 F 
ENDBRANCH  82  92
ENDBRANCH  75  78
ENDBRANCH  73  74
ENDBRANCH  72  73
ENDBRANCH  71  72
ENDBRANCH   1  71
TORSDOF 17
ENDMDL
