MODEL 1
REMARK VINA RESULT:     -12.6      0.000      0.000
REMARK SMILES Cc1cc(C)c2c(CCCC(=O)NCCCCNC(=O)c3ccc(-c4c5nc(c(-c6cc(S(=O)(=O)[O-])ccc6F)c6ccc([nH]6)c(-c6cc(S(=O)(=O)[O-])ccc6F)c6nc(c(-c7cc(S(=O)(=O)[O-])ccc7F)c7ccc4[nH]7)C=C6)C=C5)cc3)c(-c3ccccn3)[nH]c2c1
REMARK SMILES IDX 15 1 14 2 13 3 11 4 12 5 10 7 9 8 8 9 7 10 1 11 2 12 3 13
REMARK SMILES IDX 93 14 4 15 92 16 5 17 6 18 91 19 84 20 85 22 86 23 90 24
REMARK SMILES IDX 87 25 89 26 88 27 16 28 17 29 18 30 19 31 20 33 21 34 22 35
REMARK SMILES IDX 83 36 23 37 82 38 24 39 25 40 26 41 76 42 27 43 81 44 75 45
REMARK SMILES IDX 77 46 28 47 80 48 74 49 73 50 29 52 61 53 41 54 60 55 42 56
REMARK SMILES IDX 45 57 59 58 78 59 43 60 44 61 58 63 79 64 46 65 30 66 31 67
REMARK SMILES IDX 39 68 32 69 38 70 40 71 37 72 33 73 34 74 35 75 36 76 62 77
REMARK SMILES IDX 63 78 71 79 64 80 70 81 72 82 69 83 65 84 66 85 67 86 68 87
REMARK SMILES IDX 47 88 48 89 56 90 49 91 55 92 57 93 54 94 50 95 51 96 52 97
REMARK SMILES IDX 53 98
REMARK H PARENT 13 6 91 21 18 32 77 51 45 62
REMARK Flexibility Score: inf
ROOT
ATOM      1  C   UNL A   1      34.921  33.959  28.084  1.00  0.00     0.023 C 
ENDROOT
BRANCH   1   2
ATOM      2  C   UNL A   1      33.994  32.744  28.135  1.00  0.00     0.116 C 
BRANCH   2   3
ATOM      3  N   UNL A   1      34.677  31.495  27.884  1.00  0.00    -0.356 N 
ATOM      4  C   UNL A   1      34.236  30.262  27.535  1.00  0.00     0.220 C 
ATOM      5  O   UNL A   1      35.117  29.429  27.285  1.00  0.00    -0.275 OA
ATOM      6  H   UNL A   1      35.654  31.552  27.986  1.00  0.00     0.163 HD
BRANCH   4   7
ATOM      7  C   UNL A   1      32.784  29.874  27.318  1.00  0.00     0.100 C 
BRANCH   7   8
ATOM      8  C   UNL A   1      32.053  29.965  25.998  1.00  0.00     0.015 C 
BRANCH   8   9
ATOM      9  C   UNL A   1      32.677  29.514  24.694  1.00  0.00     0.039 C 
BRANCH   9  10
ATOM     10  C   UNL A   1      32.040  28.660  23.611  1.00  0.00    -0.013 A 
ATOM     11  C   UNL A   1      33.163  23.227  22.047  1.00  0.00     0.044 C 
ATOM     12  C   UNL A   1      32.901  24.614  22.556  1.00  0.00    -0.049 A 
ATOM     13  C   UNL A   1      33.632  25.125  23.627  1.00  0.00     0.007 A 
ATOM     14  C   UNL A   1      31.925  25.405  21.946  1.00  0.00     0.030 A 
ATOM     15  C   UNL A   1      33.435  26.434  24.120  1.00  0.00    -0.041 A 
ATOM     16  C   UNL A   1      31.751  26.714  22.410  1.00  0.00     0.047 A 
ATOM     17  C   UNL A   1      34.223  26.823  25.347  1.00  0.00     0.045 C 
ATOM     18  C   UNL A   1      32.491  27.272  23.447  1.00  0.00     0.006 A 
ATOM     19  N   UNL A   1      30.851  27.660  22.000  1.00  0.00    -0.353 N 
ATOM     20  C   UNL A   1      30.923  28.804  22.765  1.00  0.00     0.068 A 
ATOM     21  H   UNL A   1      30.228  27.537  21.249  1.00  0.00     0.167 HD
BRANCH  20  22
ATOM     22  C   UNL A   1      29.811  29.753  22.636  1.00  0.00     0.087 A 
ATOM     23  C   UNL A   1      29.503  30.627  23.681  1.00  0.00     0.030 A 
ATOM     24  N   UNL A   1      29.137  29.749  21.469  1.00  0.00    -0.255 NA
ATOM     25  C   UNL A   1      28.580  31.647  23.462  1.00  0.00     0.004 A 
ATOM     26  C   UNL A   1      28.247  30.760  21.283  1.00  0.00     0.112 A 
ATOM     27  C   UNL A   1      27.967  31.742  22.222  1.00  0.00     0.020 A 
ENDBRANCH  20  22
ENDBRANCH   9  10
ENDBRANCH   8   9
ENDBRANCH   7   8
ENDBRANCH   4   7
ENDBRANCH   2   3
ENDBRANCH   1   2
BRANCH   1  28
ATOM     28  C   UNL A   1      34.351  35.233  28.712  1.00  0.00     0.023 C 
BRANCH  28  29
ATOM     29  C   UNL A   1      33.005  35.045  29.405  1.00  0.00     0.116 C 
BRANCH  29  30
ATOM     30  N   UNL A   1      32.789  35.961  30.522  1.00  0.00    -0.352 N 
ATOM     31  C   UNL A   1      33.158  35.749  31.836  1.00  0.00     0.251 C 
ATOM     32  H   UNL A   1      32.336  36.812  30.318  1.00  0.00     0.163 HD
ATOM     33  O   UNL A   1      32.551  36.315  32.751  1.00  0.00    -0.269 OA
BRANCH  31  34
ATOM     34  C   UNL A   1      34.282  34.838  32.123  1.00  0.00     0.039 A 
ATOM     35  C   UNL A   1      34.157  33.460  31.955  1.00  0.00     0.014 A 
ATOM     36  C   UNL A   1      35.499  35.395  32.529  1.00  0.00     0.014 A 
ATOM     37  C   UNL A   1      35.292  32.666  32.109  1.00  0.00     0.010 A 
ATOM     38  C   UNL A   1      36.645  34.627  32.558  1.00  0.00     0.010 A 
ATOM     39  C   UNL A   1      36.550  33.255  32.366  1.00  0.00    -0.014 A 
BRANCH  39  40
ATOM     40  C   UNL A   1      37.775  32.459  32.211  1.00  0.00     0.031 A 
ATOM     41  C   UNL A   1      38.456  32.241  33.513  1.00  0.00     0.074 A 
ATOM     42  C   UNL A   1      38.209  31.846  31.085  1.00  0.00     0.049 A 
ATOM     43  N   UNL A   1      39.405  32.968  34.003  1.00  0.00    -0.248 NA
ATOM     44  C   UNL A   1      37.889  31.291  34.487  1.00  0.00     0.031 C 
ATOM     45  C   UNL A   1      37.513  31.736  29.800  1.00  0.00     0.029 A 
ATOM     46  N   UNL A   1      39.360  31.133  30.857  1.00  0.00    -0.354 N 
ATOM     47  C   UNL A   1      39.789  32.326  35.171  1.00  0.00     0.074 A 
ATOM     48  C   UNL A   1      38.673  31.505  35.550  1.00  0.00     0.031 C 
ATOM     49  C   UNL A   1      38.141  30.836  29.007  1.00  0.00     0.029 A 
ATOM     50  C   UNL A   1      39.383  30.431  29.647  1.00  0.00     0.049 A 
ATOM     51  H   UNL A   1      40.111  31.118  31.494  1.00  0.00     0.167 HD
ATOM     52  C   UNL A   1      41.116  32.234  35.466  1.00  0.00     0.034 A 
ATOM     53  C   UNL A   1      40.379  29.644  29.149  1.00  0.00     0.034 A 
ATOM     54  C   UNL A   1      41.878  33.114  34.608  1.00  0.00     0.049 A 
ATOM     55  C   UNL A   1      41.638  30.167  29.725  1.00  0.00     0.074 A 
ATOM     56  C   UNL A   1      42.104  34.467  34.477  1.00  0.00     0.029 A 
ATOM     57  N   UNL A   1      42.218  32.529  33.416  1.00  0.00    -0.354 N 
ATOM     58  N   UNL A   1      42.090  31.366  29.471  1.00  0.00    -0.248 NA
ATOM     59  C   UNL A   1      42.213  29.508  30.890  1.00  0.00     0.031 C 
ATOM     60  C   UNL A   1      42.471  34.682  33.112  1.00  0.00     0.029 A 
ATOM     61  C   UNL A   1      42.523  33.455  32.458  1.00  0.00     0.049 A 
ATOM     62  H   UNL A   1      42.238  31.556  33.267  1.00  0.00     0.167 HD
ATOM     63  C   UNL A   1      42.666  31.767  30.658  1.00  0.00     0.074 A 
ATOM     64  C   UNL A   1      42.860  30.544  31.431  1.00  0.00     0.031 C 
ATOM     65  C   UNL A   1      42.615  33.067  31.063  1.00  0.00     0.034 A 
BRANCH  52  66
ATOM     66  C   UNL A   1      41.793  31.017  36.074  1.00  0.00     0.023 A 
ATOM     67  C   UNL A   1      42.817  31.256  37.017  1.00  0.00     0.031 A 
ATOM     68  C   UNL A   1      41.727  29.701  35.565  1.00  0.00     0.131 A 
ATOM     69  C   UNL A   1      43.739  30.250  37.357  1.00  0.00     0.055 A 
ATOM     70  C   UNL A   1      42.619  28.693  35.939  1.00  0.00     0.041 A 
ATOM     71  F   UNL A   1      40.865  29.335  34.610  1.00  0.00    -0.206 F 
ATOM     72  C   UNL A   1      43.647  28.968  36.822  1.00  0.00     0.022 A 
BRANCH  69  73
ATOM     73  S   UNL A   1      45.134  30.671  38.436  1.00  0.00     0.124 S 
ATOM     74  O   UNL A   1      45.038  32.124  38.493  1.00  0.00    -0.237 OA
ATOM     75  O   UNL A   1      44.796  29.952  39.659  1.00  0.00    -0.237 OA
ATOM     76  O   UNL A   1      46.289  30.147  37.711  1.00  0.00    -0.744 OA
ENDBRANCH  69  73
ENDBRANCH  52  66
BRANCH  53  77
ATOM     77  C   UNL A   1      40.292  28.314  28.463  1.00  0.00     0.023 A 
ATOM     78  C   UNL A   1      41.191  27.928  27.435  1.00  0.00     0.031 A 
ATOM     79  C   UNL A   1      39.496  27.288  29.011  1.00  0.00     0.131 A 
ATOM     80  C   UNL A   1      41.290  26.571  27.032  1.00  0.00     0.055 A 
ATOM     81  C   UNL A   1      39.605  25.949  28.616  1.00  0.00     0.041 A 
ATOM     82  F   UNL A   1      38.642  27.532  30.016  1.00  0.00    -0.206 F 
ATOM     83  C   UNL A   1      40.515  25.582  27.637  1.00  0.00     0.022 A 
BRANCH  80  84
ATOM     84  S   UNL A   1      42.522  26.038  25.791  1.00  0.00     0.124 S 
ATOM     85  O   UNL A   1      42.275  26.968  24.696  1.00  0.00    -0.237 OA
ATOM     86  O   UNL A   1      43.784  26.197  26.505  1.00  0.00    -0.237 OA
ATOM     87  O   UNL A   1      42.147  24.650  25.516  1.00  0.00    -0.744 OA
ENDBRANCH  80  84
ENDBRANCH  53  77
BRANCH  65  88
ATOM     88  C   UNL A   1      42.605  34.152  30.026  1.00  0.00     0.023 A 
ATOM     89  C   UNL A   1      43.717  34.635  29.307  1.00  0.00     0.031 A 
ATOM     90  C   UNL A   1      41.330  34.638  29.683  1.00  0.00     0.131 A 
ATOM     91  C   UNL A   1      43.513  35.562  28.261  1.00  0.00     0.055 A 
ATOM     92  C   UNL A   1      41.132  35.534  28.639  1.00  0.00     0.041 A 
ATOM     93  F   UNL A   1      40.241  34.203  30.338  1.00  0.00    -0.206 F 
ATOM     94  C   UNL A   1      42.225  35.997  27.920  1.00  0.00     0.022 A 
BRANCH  91  95
ATOM     95  S   UNL A   1      44.920  36.198  27.293  1.00  0.00     0.124 S 
ATOM     96  O   UNL A   1      45.021  35.245  26.193  1.00  0.00    -0.237 OA
ATOM     97  O   UNL A   1      44.483  37.544  26.933  1.00  0.00    -0.237 OA
ATOM     98  O   UNL A   1      46.037  36.157  28.239  1.00  0.00    -0.744 OA
ENDBRANCH  91  95
ENDBRANCH  65  88
ENDBRANCH  39  40
ENDBRANCH  31  34
ENDBRANCH  29  30
ENDBRANCH  28  29
ENDBRANCH   1  28
TORSDOF 18
ENDMDL
MODEL 2
REMARK VINA RESULT:     -12.6      4.410      9.398
REMARK SMILES Cc1cc(C)c2c(CCCC(=O)NCCCCNC(=O)c3ccc(-c4c5nc(c(-c6cc(S(=O)(=O)[O-])ccc6F)c6ccc([nH]6)c(-c6cc(S(=O)(=O)[O-])ccc6F)c6nc(c(-c7cc(S(=O)(=O)[O-])ccc7F)c7ccc4[nH]7)C=C6)C=C5)cc3)c(-c3ccccn3)[nH]c2c1
REMARK SMILES IDX 15 1 14 2 13 3 11 4 12 5 10 7 9 8 8 9 7 10 1 11 2 12 3 13
REMARK SMILES IDX 93 14 4 15 92 16 5 17 6 18 91 19 84 20 85 22 86 23 90 24
REMARK SMILES IDX 87 25 89 26 88 27 16 28 17 29 18 30 19 31 20 33 21 34 22 35
REMARK SMILES IDX 83 36 23 37 82 38 24 39 25 40 26 41 76 42 27 43 81 44 75 45
REMARK SMILES IDX 77 46 28 47 80 48 74 49 73 50 29 52 61 53 41 54 60 55 42 56
REMARK SMILES IDX 45 57 59 58 78 59 43 60 44 61 58 63 79 64 46 65 30 66 31 67
REMARK SMILES IDX 39 68 32 69 38 70 40 71 37 72 33 73 34 74 35 75 36 76 62 77
REMARK SMILES IDX 63 78 71 79 64 80 70 81 72 82 69 83 65 84 66 85 67 86 68 87
REMARK SMILES IDX 47 88 48 89 56 90 49 91 55 92 57 93 54 94 50 95 51 96 52 97
REMARK SMILES IDX 53 98
REMARK H PARENT 13 6 91 21 18 32 77 51 45 62
REMARK Flexibility Score: inf
ROOT
ATOM      1  C   UNL A   1      32.738  29.893  27.335  1.00  0.00     0.023 C 
ENDROOT
BRANCH   1   2
ATOM      2  C   UNL A   1      31.913  29.274  26.206  1.00  0.00     0.116 C 
BRANCH   2   3
ATOM      3  N   UNL A   1      32.721  28.794  25.108  1.00  0.00    -0.356 N 
ATOM      4  C   UNL A   1      33.500  27.696  24.953  1.00  0.00     0.220 C 
ATOM      5  O   UNL A   1      33.973  27.528  23.822  1.00  0.00    -0.275 OA
ATOM      6  H   UNL A   1      32.701  29.379  24.317  1.00  0.00     0.163 HD
BRANCH   4   7
ATOM      7  C   UNL A   1      33.729  26.622  26.004  1.00  0.00     0.100 C 
BRANCH   7   8
ATOM      8  C   UNL A   1      34.288  25.247  25.726  1.00  0.00     0.015 C 
BRANCH   8   9
ATOM      9  C   UNL A   1      33.405  24.020  25.616  1.00  0.00     0.039 C 
BRANCH   9  10
ATOM     10  C   UNL A   1      32.747  23.466  24.365  1.00  0.00    -0.013 A 
ATOM     11  C   UNL A   1      32.410  18.036  22.461  1.00  0.00     0.044 C 
ATOM     12  C   UNL A   1      32.498  19.409  23.058  1.00  0.00    -0.049 A 
ATOM     13  C   UNL A   1      33.141  19.609  24.280  1.00  0.00     0.007 A 
ATOM     14  C   UNL A   1      31.945  20.498  22.382  1.00  0.00     0.030 A 
ATOM     15  C   UNL A   1      33.269  20.889  24.864  1.00  0.00    -0.041 A 
ATOM     16  C   UNL A   1      32.099  21.771  22.943  1.00  0.00     0.047 A 
ATOM     17  C   UNL A   1      33.898  20.949  26.234  1.00  0.00     0.045 C 
ATOM     18  C   UNL A   1      32.770  22.015  24.136  1.00  0.00     0.006 A 
ATOM     19  N   UNL A   1      31.627  22.973  22.490  1.00  0.00    -0.353 N 
ATOM     20  C   UNL A   1      31.906  23.998  23.369  1.00  0.00     0.068 A 
ATOM     21  H   UNL A   1      31.146  23.091  21.641  1.00  0.00     0.167 HD
BRANCH  20  22
ATOM     22  C   UNL A   1      31.183  25.259  23.159  1.00  0.00     0.087 A 
ATOM     23  C   UNL A   1      30.204  25.671  24.065  1.00  0.00     0.030 A 
ATOM     24  N   UNL A   1      31.532  25.991  22.082  1.00  0.00    -0.255 NA
ATOM     25  C   UNL A   1      29.677  26.956  23.957  1.00  0.00     0.004 A 
ATOM     26  C   UNL A   1      31.005  27.243  22.008  1.00  0.00     0.112 A 
ATOM     27  C   UNL A   1      30.117  27.776  22.929  1.00  0.00     0.020 A 
ENDBRANCH  20  22
ENDBRANCH   9  10
ENDBRANCH   8   9
ENDBRANCH   7   8
ENDBRANCH   4   7
ENDBRANCH   2   3
ENDBRANCH   1   2
BRANCH   1  28
ATOM     28  C   UNL A   1      34.148  30.334  26.938  1.00  0.00     0.023 C 
BRANCH  28  29
ATOM     29  C   UNL A   1      35.267  29.593  27.663  1.00  0.00     0.116 C 
BRANCH  29  30
ATOM     30  N   UNL A   1      35.537  30.105  29.003  1.00  0.00    -0.352 N 
ATOM     31  C   UNL A   1      36.542  29.685  29.852  1.00  0.00     0.251 C 
ATOM     32  H   UNL A   1      34.943  30.818  29.334  1.00  0.00     0.163 HD
ATOM     33  O   UNL A   1      36.418  29.814  31.074  1.00  0.00    -0.269 OA
BRANCH  31  34
ATOM     34  C   UNL A   1      37.757  29.082  29.274  1.00  0.00     0.039 A 
ATOM     35  C   UNL A   1      38.388  29.647  28.166  1.00  0.00     0.014 A 
ATOM     36  C   UNL A   1      38.292  27.947  29.891  1.00  0.00     0.014 A 
ATOM     37  C   UNL A   1      39.606  29.111  27.750  1.00  0.00     0.010 A 
ATOM     38  C   UNL A   1      39.554  27.499  29.559  1.00  0.00     0.010 A 
ATOM     39  C   UNL A   1      40.215  28.063  28.477  1.00  0.00    -0.014 A 
BRANCH  39  40
ATOM     40  C   UNL A   1      41.622  27.725  28.230  1.00  0.00     0.031 A 
ATOM     41  C   UNL A   1      41.757  26.473  27.444  1.00  0.00     0.074 A 
ATOM     42  C   UNL A   1      42.705  28.485  28.522  1.00  0.00     0.049 A 
ATOM     43  N   UNL A   1      41.918  25.287  27.929  1.00  0.00    -0.248 NA
ATOM     44  C   UNL A   1      41.442  26.474  26.003  1.00  0.00     0.031 C 
ATOM     45  C   UNL A   1      42.722  29.856  29.042  1.00  0.00     0.029 A 
ATOM     46  N   UNL A   1      44.041  28.213  28.367  1.00  0.00    -0.354 N 
ATOM     47  C   UNL A   1      42.096  24.463  26.827  1.00  0.00     0.074 A 
ATOM     48  C   UNL A   1      41.522  25.170  25.716  1.00  0.00     0.031 C 
ATOM     49  C   UNL A   1      43.974  30.368  28.959  1.00  0.00     0.029 A 
ATOM     50  C   UNL A   1      44.887  29.314  28.547  1.00  0.00     0.049 A 
ATOM     51  H   UNL A   1      44.378  27.315  28.147  1.00  0.00     0.167 HD
ATOM     52  C   UNL A   1      43.044  23.486  26.881  1.00  0.00     0.034 A 
ATOM     53  C   UNL A   1      46.247  29.353  28.459  1.00  0.00     0.034 A 
ATOM     54  C   UNL A   1      43.500  23.312  28.243  1.00  0.00     0.049 A 
ATOM     55  C   UNL A   1      46.717  27.993  28.807  1.00  0.00     0.074 A 
ATOM     56  C   UNL A   1      43.022  22.772  29.416  1.00  0.00     0.029 A 
ATOM     57  N   UNL A   1      44.520  24.165  28.574  1.00  0.00    -0.354 N 
ATOM     58  N   UNL A   1      46.539  27.461  29.986  1.00  0.00    -0.248 NA
ATOM     59  C   UNL A   1      47.051  27.062  27.736  1.00  0.00     0.031 C 
ATOM     60  C   UNL A   1      43.715  23.437  30.475  1.00  0.00     0.029 A 
ATOM     61  C   UNL A   1      44.642  24.319  29.927  1.00  0.00     0.049 A 
ATOM     62  H   UNL A   1      45.097  24.614  27.916  1.00  0.00     0.167 HD
ATOM     63  C   UNL A   1      46.316  26.126  29.722  1.00  0.00     0.074 A 
ATOM     64  C   UNL A   1      46.801  25.910  28.363  1.00  0.00     0.031 C 
ATOM     65  C   UNL A   1      45.449  25.393  30.475  1.00  0.00     0.034 A 
BRANCH  52  66
ATOM     66  C   UNL A   1      43.959  23.093  25.733  1.00  0.00     0.023 A 
ATOM     67  C   UNL A   1      43.993  21.728  25.378  1.00  0.00     0.031 A 
ATOM     68  C   UNL A   1      45.001  23.888  25.205  1.00  0.00     0.131 A 
ATOM     69  C   UNL A   1      45.046  21.205  24.605  1.00  0.00     0.055 A 
ATOM     70  C   UNL A   1      46.021  23.372  24.402  1.00  0.00     0.041 A 
ATOM     71  F   UNL A   1      45.154  25.182  25.510  1.00  0.00    -0.206 F 
ATOM     72  C   UNL A   1      46.062  22.019  24.115  1.00  0.00     0.022 A 
BRANCH  69  73
ATOM     73  S   UNL A   1      45.126  19.414  24.335  1.00  0.00     0.124 S 
ATOM     74  O   UNL A   1      44.653  19.298  22.960  1.00  0.00    -0.237 OA
ATOM     75  O   UNL A   1      46.541  19.138  24.557  1.00  0.00    -0.237 OA
ATOM     76  O   UNL A   1      44.226  18.879  25.354  1.00  0.00    -0.744 OA
ENDBRANCH  69  73
ENDBRANCH  52  66
BRANCH  53  77
ATOM     77  C   UNL A   1      47.132  30.378  27.819  1.00  0.00     0.023 A 
ATOM     78  C   UNL A   1      46.616  31.502  27.121  1.00  0.00     0.031 A 
ATOM     79  C   UNL A   1      48.507  30.418  28.131  1.00  0.00     0.131 A 
ATOM     80  C   UNL A   1      47.450  32.605  26.807  1.00  0.00     0.055 A 
ATOM     81  C   UNL A   1      49.323  31.515  27.827  1.00  0.00     0.041 A 
ATOM     82  F   UNL A   1      49.091  29.429  28.823  1.00  0.00    -0.206 F 
ATOM     83  C   UNL A   1      48.794  32.621  27.179  1.00  0.00     0.022 A 
BRANCH  80  84
ATOM     84  S   UNL A   1      46.776  34.108  26.013  1.00  0.00     0.124 S 
ATOM     85  O   UNL A   1      47.847  34.475  25.095  1.00  0.00    -0.237 OA
ATOM     86  O   UNL A   1      45.541  33.623  25.409  1.00  0.00    -0.237 OA
ATOM     87  O   UNL A   1      46.586  35.027  27.137  1.00  0.00    -0.744 OA
ENDBRANCH  80  84
ENDBRANCH  53  77
BRANCH  65  88
ATOM     88  C   UNL A   1      45.277  25.735  31.926  1.00  0.00     0.023 A 
ATOM     89  C   UNL A   1      46.134  25.366  32.982  1.00  0.00     0.031 A 
ATOM     90  C   UNL A   1      44.205  26.601  32.212  1.00  0.00     0.131 A 
ATOM     91  C   UNL A   1      45.906  25.893  34.272  1.00  0.00     0.055 A 
ATOM     92  C   UNL A   1      43.997  27.134  33.479  1.00  0.00     0.041 A 
ATOM     93  F   UNL A   1      43.364  26.984  31.237  1.00  0.00    -0.206 F 
ATOM     94  C   UNL A   1      44.851  26.783  34.516  1.00  0.00     0.022 A 
BRANCH  91  95
ATOM     95  S   UNL A   1      47.002  25.458  35.663  1.00  0.00     0.124 S 
ATOM     96  O   UNL A   1      46.514  26.305  36.745  1.00  0.00    -0.237 OA
ATOM     97  O   UNL A   1      46.771  24.024  35.820  1.00  0.00    -0.237 OA
ATOM     98  O   UNL A   1      48.337  25.805  35.171  1.00  0.00    -0.744 OA
ENDBRANCH  91  95
ENDBRANCH  65  88
ENDBRANCH  39  40
ENDBRANCH  31  34
ENDBRANCH  29  30
ENDBRANCH  28  29
ENDBRANCH   1  28
TORSDOF 18
ENDMDL
MODEL 3
REMARK VINA RESULT:     -12.6      4.627      9.898
REMARK SMILES Cc1cc(C)c2c(CCCC(=O)NCCCCNC(=O)c3ccc(-c4c5nc(c(-c6cc(S(=O)(=O)[O-])ccc6F)c6ccc([nH]6)c(-c6cc(S(=O)(=O)[O-])ccc6F)c6nc(c(-c7cc(S(=O)(=O)[O-])ccc7F)c7ccc4[nH]7)C=C6)C=C5)cc3)c(-c3ccccn3)[nH]c2c1
REMARK SMILES IDX 15 1 14 2 13 3 11 4 12 5 10 7 9 8 8 9 7 10 1 11 2 12 3 13
REMARK SMILES IDX 93 14 4 15 92 16 5 17 6 18 91 19 84 20 85 22 86 23 90 24
REMARK SMILES IDX 87 25 89 26 88 27 16 28 17 29 18 30 19 31 20 33 21 34 22 35
REMARK SMILES IDX 83 36 23 37 82 38 24 39 25 40 26 41 76 42 27 43 81 44 75 45
REMARK SMILES IDX 77 46 28 47 80 48 74 49 73 50 29 52 61 53 41 54 60 55 42 56
REMARK SMILES IDX 45 57 59 58 78 59 43 60 44 61 58 63 79 64 46 65 30 66 31 67
REMARK SMILES IDX 39 68 32 69 38 70 40 71 37 72 33 73 34 74 35 75 36 76 62 77
REMARK SMILES IDX 63 78 71 79 64 80 70 81 72 82 69 83 65 84 66 85 67 86 68 87
REMARK SMILES IDX 47 88 48 89 56 90 49 91 55 92 57 93 54 94 50 95 51 96 52 97
REMARK SMILES IDX 53 98
REMARK H PARENT 13 6 91 21 18 32 77 51 45 62
REMARK Flexibility Score: inf
ROOT
ATOM      1  C   UNL A   1      33.569  29.086  25.593  1.00  0.00     0.023 C 
ENDROOT
BRANCH   1   2
ATOM      2  C   UNL A   1      32.061  29.014  25.351  1.00  0.00     0.116 C 
BRANCH   2   3
ATOM      3  N   UNL A   1      31.418  27.945  26.080  1.00  0.00    -0.356 N 
ATOM      4  C   UNL A   1      31.540  26.597  26.031  1.00  0.00     0.220 C 
ATOM      5  O   UNL A   1      30.908  25.968  26.890  1.00  0.00    -0.275 OA
ATOM      6  H   UNL A   1      30.761  28.258  26.743  1.00  0.00     0.163 HD
BRANCH   4   7
ATOM      7  C   UNL A   1      32.465  25.829  25.101  1.00  0.00     0.100 C 
BRANCH   7   8
ATOM      8  C   UNL A   1      33.569  24.902  25.553  1.00  0.00     0.015 C 
BRANCH   8   9
ATOM      9  C   UNL A   1      34.251  23.934  24.607  1.00  0.00     0.039 C 
BRANCH   9  10
ATOM     10  C   UNL A   1      34.713  22.519  24.910  1.00  0.00    -0.013 A 
ATOM     11  C   UNL A   1      32.308  17.469  23.517  1.00  0.00     0.044 C 
ATOM     12  C   UNL A   1      32.891  18.824  23.787  1.00  0.00    -0.049 A 
ATOM     13  C   UNL A   1      32.249  19.975  23.330  1.00  0.00     0.007 A 
ATOM     14  C   UNL A   1      34.079  18.938  24.513  1.00  0.00     0.030 A 
ATOM     15  C   UNL A   1      32.751  21.270  23.585  1.00  0.00    -0.041 A 
ATOM     16  C   UNL A   1      34.559  20.222  24.796  1.00  0.00     0.047 A 
ATOM     17  C   UNL A   1      32.012  22.421  22.947  1.00  0.00     0.045 C 
ATOM     18  C   UNL A   1      33.924  21.391  24.394  1.00  0.00     0.006 A 
ATOM     19  N   UNL A   1      35.702  20.587  25.456  1.00  0.00    -0.353 N 
ATOM     20  C   UNL A   1      35.882  21.953  25.455  1.00  0.00     0.068 A 
ATOM     21  H   UNL A   1      36.320  19.949  25.880  1.00  0.00     0.167 HD
BRANCH  20  22
ATOM     22  C   UNL A   1      37.210  22.442  25.841  1.00  0.00     0.087 A 
ATOM     23  C   UNL A   1      37.390  23.772  26.227  1.00  0.00     0.030 A 
ATOM     24  N   UNL A   1      38.218  21.546  25.829  1.00  0.00    -0.255 NA
ATOM     25  C   UNL A   1      38.609  24.160  26.778  1.00  0.00     0.004 A 
ATOM     26  C   UNL A   1      39.394  21.953  26.378  1.00  0.00     0.112 A 
ATOM     27  C   UNL A   1      39.622  23.220  26.894  1.00  0.00     0.020 A 
ENDBRANCH  20  22
ENDBRANCH   9  10
ENDBRANCH   8   9
ENDBRANCH   7   8
ENDBRANCH   4   7
ENDBRANCH   2   3
ENDBRANCH   1   2
BRANCH   1  28
ATOM     28  C   UNL A   1      33.987  29.887  26.828  1.00  0.00     0.023 C 
BRANCH  28  29
ATOM     29  C   UNL A   1      35.192  29.316  27.570  1.00  0.00     0.116 C 
BRANCH  29  30
ATOM     30  N   UNL A   1      35.407  29.915  28.885  1.00  0.00    -0.352 N 
ATOM     31  C   UNL A   1      36.435  29.620  29.759  1.00  0.00     0.251 C 
ATOM     32  H   UNL A   1      34.756  30.595  29.176  1.00  0.00     0.163 HD
ATOM     33  O   UNL A   1      36.290  29.799  30.972  1.00  0.00    -0.269 OA
BRANCH  31  34
ATOM     34  C   UNL A   1      37.699  29.087  29.218  1.00  0.00     0.039 A 
ATOM     35  C   UNL A   1      38.346  29.706  28.149  1.00  0.00     0.014 A 
ATOM     36  C   UNL A   1      38.262  27.964  29.833  1.00  0.00     0.014 A 
ATOM     37  C   UNL A   1      39.604  29.237  27.773  1.00  0.00     0.010 A 
ATOM     38  C   UNL A   1      39.556  27.583  29.544  1.00  0.00     0.010 A 
ATOM     39  C   UNL A   1      40.232  28.202  28.501  1.00  0.00    -0.014 A 
BRANCH  39  40
ATOM     40  C   UNL A   1      41.663  27.936  28.306  1.00  0.00     0.031 A 
ATOM     41  C   UNL A   1      41.888  26.704  27.506  1.00  0.00     0.074 A 
ATOM     42  C   UNL A   1      42.695  28.741  28.652  1.00  0.00     0.049 A 
ATOM     43  N   UNL A   1      42.087  25.519  27.979  1.00  0.00    -0.248 NA
ATOM     44  C   UNL A   1      41.629  26.716  26.055  1.00  0.00     0.031 C 
ATOM     45  C   UNL A   1      42.627  30.102  29.193  1.00  0.00     0.029 A 
ATOM     46  N   UNL A   1      44.048  28.535  28.546  1.00  0.00    -0.354 N 
ATOM     47  C   UNL A   1      42.347  24.724  26.873  1.00  0.00     0.074 A 
ATOM     48  C   UNL A   1      41.783  25.422  25.751  1.00  0.00     0.031 C 
ATOM     49  C   UNL A   1      43.854  30.674  29.167  1.00  0.00     0.029 A 
ATOM     50  C   UNL A   1      44.832  29.671  28.775  1.00  0.00     0.049 A 
ATOM     51  H   UNL A   1      44.436  27.658  28.326  1.00  0.00     0.167 HD
ATOM     52  C   UNL A   1      43.338  23.793  26.950  1.00  0.00     0.034 A 
ATOM     53  C   UNL A   1      46.191  29.776  28.742  1.00  0.00     0.034 A 
ATOM     54  C   UNL A   1      43.749  23.616  28.326  1.00  0.00     0.049 A 
ATOM     55  C   UNL A   1      46.713  28.435  29.088  1.00  0.00     0.074 A 
ATOM     56  C   UNL A   1      43.252  23.035  29.471  1.00  0.00     0.029 A 
ATOM     57  N   UNL A   1      44.713  24.511  28.710  1.00  0.00    -0.354 N 
ATOM     58  N   UNL A   1      46.514  27.875  30.251  1.00  0.00    -0.248 NA
ATOM     59  C   UNL A   1      47.133  27.540  28.018  1.00  0.00     0.031 C 
ATOM     60  C   UNL A   1      43.870  23.714  30.566  1.00  0.00     0.029 A 
ATOM     61  C   UNL A   1      44.774  24.648  30.068  1.00  0.00     0.049 A 
ATOM     62  H   UNL A   1      45.293  24.999  28.082  1.00  0.00     0.167 HD
ATOM     63  C   UNL A   1      46.366  26.535  29.958  1.00  0.00     0.074 A 
ATOM     64  C   UNL A   1      46.914  26.366  28.616  1.00  0.00     0.031 C 
ATOM     65  C   UNL A   1      45.507  25.749  30.665  1.00  0.00     0.034 A 
BRANCH  52  66
ATOM     66  C   UNL A   1      44.315  23.463  25.833  1.00  0.00     0.023 A 
ATOM     67  C   UNL A   1      44.401  22.112  25.433  1.00  0.00     0.031 A 
ATOM     68  C   UNL A   1      45.359  24.301  25.382  1.00  0.00     0.131 A 
ATOM     69  C   UNL A   1      45.501  21.643  24.693  1.00  0.00     0.055 A 
ATOM     70  C   UNL A   1      46.428  23.839  24.610  1.00  0.00     0.041 A 
ATOM     71  F   UNL A   1      45.463  25.587  25.737  1.00  0.00    -0.206 F 
ATOM     72  C   UNL A   1      46.517  22.500  24.279  1.00  0.00     0.022 A 
BRANCH  69  73
ATOM     73  S   UNL A   1      45.641  19.866  24.365  1.00  0.00     0.124 S 
ATOM     74  O   UNL A   1      44.823  19.718  23.168  1.00  0.00    -0.237 OA
ATOM     75  O   UNL A   1      47.080  19.704  24.189  1.00  0.00    -0.237 OA
ATOM     76  O   UNL A   1      45.095  19.257  25.576  1.00  0.00    -0.744 OA
ENDBRANCH  69  73
ENDBRANCH  52  66
BRANCH  53  77
ATOM     77  C   UNL A   1      47.051  30.854  28.153  1.00  0.00     0.023 A 
ATOM     78  C   UNL A   1      46.536  31.844  27.276  1.00  0.00     0.031 A 
ATOM     79  C   UNL A   1      48.338  31.094  28.675  1.00  0.00     0.131 A 
ATOM     80  C   UNL A   1      47.281  33.017  26.992  1.00  0.00     0.055 A 
ATOM     81  C   UNL A   1      49.065  32.259  28.398  1.00  0.00     0.041 A 
ATOM     82  F   UNL A   1      48.905  30.245  29.545  1.00  0.00    -0.206 F 
ATOM     83  C   UNL A   1      48.532  33.234  27.570  1.00  0.00     0.022 A 
BRANCH  80  84
ATOM     84  S   UNL A   1      46.586  34.355  25.957  1.00  0.00     0.124 S 
ATOM     85  O   UNL A   1      46.237  35.361  26.953  1.00  0.00    -0.237 OA
ATOM     86  O   UNL A   1      47.693  34.679  25.066  1.00  0.00    -0.237 OA
ATOM     87  O   UNL A   1      45.443  33.715  25.302  1.00  0.00    -0.744 OA
ENDBRANCH  80  84
ENDBRANCH  53  77
BRANCH  65  88
ATOM     88  C   UNL A   1      45.262  26.058  32.113  1.00  0.00     0.023 A 
ATOM     89  C   UNL A   1      44.130  26.698  32.655  1.00  0.00     0.031 A 
ATOM     90  C   UNL A   1      46.227  25.549  33.003  1.00  0.00     0.131 A 
ATOM     91  C   UNL A   1      43.990  26.783  34.057  1.00  0.00     0.055 A 
ATOM     92  C   UNL A   1      46.074  25.616  34.382  1.00  0.00     0.041 A 
ATOM     93  F   UNL A   1      47.321  24.927  32.532  1.00  0.00    -0.206 F 
ATOM     94  C   UNL A   1      44.950  26.232  34.916  1.00  0.00     0.022 A 
BRANCH  91  95
ATOM     95  S   UNL A   1      42.531  27.584  34.801  1.00  0.00     0.124 S 
ATOM     96  O   UNL A   1      43.104  28.721  35.511  1.00  0.00    -0.237 OA
ATOM     97  O   UNL A   1      41.710  27.906  33.636  1.00  0.00    -0.237 OA
ATOM     98  O   UNL A   1      41.970  26.544  35.667  1.00  0.00    -0.744 OA
ENDBRANCH  91  95
ENDBRANCH  65  88
ENDBRANCH  39  40
ENDBRANCH  31  34
ENDBRANCH  29  30
ENDBRANCH  28  29
ENDBRANCH   1  28
TORSDOF 18
ENDMDL
