MODEL 1
REMARK VINA RESULT:     -11.8      0.000      0.000
REMARK SMILES O=C(CCn1ccnc1)N[C@H]1C=C[C@H](C(=O)NCCCCNC(=O)c2ccc(-c3c4nc(c(-c5cc(S(=O)(=O)[O-])ccc5F)c5ccc([nH]5)c(-c5cc(S(=O)(=O)[O-])ccc5F)c5nc(c(-c6cc(S(=O)(=O)[O-])ccc6F)c6ccc3[nH]6)C=C5)C=C4)cc2)C1
REMARK SMILES IDX 19 1 18 2 17 3 15 4 16 5 14 7 11 8 12 9 88 10 13 11 10 12
REMARK SMILES IDX 1 13 2 14 3 16 4 17 5 18 6 19 9 20 7 21 8 22 20 23 21 24
REMARK SMILES IDX 22 25 23 26 24 28 25 29 26 30 87 31 27 32 86 33 28 34 29 35
REMARK SMILES IDX 30 36 80 37 31 38 85 39 79 40 81 41 32 42 84 43 78 44 77 45
REMARK SMILES IDX 33 47 65 48 45 49 64 50 46 51 49 52 63 53 82 54 47 55 48 56
REMARK SMILES IDX 62 58 83 59 50 60 34 61 35 62 43 63 36 64 42 65 44 66 41 67
REMARK SMILES IDX 37 68 38 69 39 70 40 71 66 72 67 73 75 74 68 75 74 76 76 77
REMARK SMILES IDX 73 78 69 79 70 80 71 81 72 82 51 83 52 84 60 85 53 86 59 87
REMARK SMILES IDX 61 88 58 89 54 90 55 91 56 92 57 93
REMARK H PARENT 17 6 10 15 22 27 81 46 49 57
REMARK Flexibility Score: inf
ROOT
ATOM      1  C   UNL A   1      36.269  20.493  25.046  1.00  0.00     0.023 C 
ENDROOT
BRANCH   1   2
ATOM      2  C   UNL A   1      36.227  21.714  25.972  1.00  0.00     0.116 C 
BRANCH   2   3
ATOM      3  N   UNL A   1      34.868  22.061  26.343  1.00  0.00    -0.356 N 
ATOM      4  C   UNL A   1      34.148  23.207  26.232  1.00  0.00     0.227 C 
ATOM      5  O   UNL A   1      33.043  23.219  26.789  1.00  0.00    -0.274 OA
ATOM      6  H   UNL A   1      34.370  21.321  26.758  1.00  0.00     0.163 HD
BRANCH   4   7
ATOM      7  C   UNL A   1      34.564  24.420  25.386  1.00  0.00     0.103 C 
ATOM      8  C   UNL A   1      32.775  25.756  24.381  1.00  0.00     0.106 C 
ATOM      9  C   UNL A   1      33.609  25.065  23.345  1.00  0.00    -0.006 C 
ATOM     10  C   UNL A   1      33.627  25.611  25.644  1.00  0.00     0.047 C 
ATOM     11  C   UNL A   1      34.576  24.318  23.894  1.00  0.00    -0.016 C 
BRANCH   8  12
ATOM     12  N   UNL A   1      32.644  27.126  23.964  1.00  0.00    -0.350 N 
ATOM     13  O   UNL A   1      30.716  27.537  25.111  1.00  0.00    -0.275 OA
ATOM     14  C   UNL A   1      31.578  27.909  24.321  1.00  0.00     0.222 C 
ATOM     15  H   UNL A   1      33.351  27.517  23.401  1.00  0.00     0.164 HD
BRANCH  14  16
ATOM     16  C   UNL A   1      31.419  29.215  23.563  1.00  0.00     0.122 C 
BRANCH  16  17
ATOM     17  C   UNL A   1      30.458  29.201  22.379  1.00  0.00     0.133 C 
BRANCH  17  18
ATOM     18  N   UNL A   1      29.402  30.196  22.394  1.00  0.00    -0.337 N 
ATOM     19  C   UNL A   1      28.961  30.856  23.509  1.00  0.00     0.107 A 
ATOM     20  C   UNL A   1      28.736  30.722  21.322  1.00  0.00     0.199 A 
ATOM     21  C   UNL A   1      28.109  31.827  23.039  1.00  0.00     0.130 A 
ATOM     22  N   UNL A   1      27.986  31.742  21.677  1.00  0.00    -0.245 NA
ENDBRANCH  17  18
ENDBRANCH  16  17
ENDBRANCH  14  16
ENDBRANCH   8  12
ENDBRANCH   4   7
ENDBRANCH   2   3
ENDBRANCH   1   2
BRANCH   1  23
ATOM     23  C   UNL A   1      37.676  20.035  24.635  1.00  0.00     0.023 C 
BRANCH  23  24
ATOM     24  C   UNL A   1      38.779  20.378  25.632  1.00  0.00     0.116 C 
BRANCH  24  25
ATOM     25  N   UNL A   1      39.731  19.285  25.842  1.00  0.00    -0.352 N 
ATOM     26  C   UNL A   1      41.103  19.375  26.049  1.00  0.00     0.251 C 
ATOM     27  H   UNL A   1      39.354  18.376  25.836  1.00  0.00     0.163 HD
ATOM     28  O   UNL A   1      41.837  18.434  25.816  1.00  0.00    -0.269 OA
BRANCH  26  29
ATOM     29  C   UNL A   1      41.632  20.648  26.578  1.00  0.00     0.039 A 
ATOM     30  C   UNL A   1      42.346  21.559  25.792  1.00  0.00     0.014 A 
ATOM     31  C   UNL A   1      41.324  20.932  27.900  1.00  0.00     0.014 A 
ATOM     32  C   UNL A   1      42.671  22.803  26.337  1.00  0.00     0.010 A 
ATOM     33  C   UNL A   1      41.466  22.210  28.361  1.00  0.00     0.010 A 
ATOM     34  C   UNL A   1      42.215  23.124  27.622  1.00  0.00    -0.014 A 
BRANCH  34  35
ATOM     35  C   UNL A   1      42.428  24.429  28.241  1.00  0.00     0.031 A 
ATOM     36  C   UNL A   1      41.363  25.445  27.997  1.00  0.00     0.074 A 
ATOM     37  C   UNL A   1      43.338  24.567  29.234  1.00  0.00     0.049 A 
ATOM     38  N   UNL A   1      41.473  26.612  27.453  1.00  0.00    -0.248 NA
ATOM     39  C   UNL A   1      39.970  25.071  28.297  1.00  0.00     0.031 C 
ATOM     40  C   UNL A   1      44.209  23.529  29.811  1.00  0.00     0.029 A 
ATOM     41  N   UNL A   1      43.558  25.620  30.062  1.00  0.00    -0.354 N 
ATOM     42  C   UNL A   1      40.215  27.209  27.541  1.00  0.00     0.074 A 
ATOM     43  C   UNL A   1      39.304  26.147  27.873  1.00  0.00     0.031 C 
ATOM     44  C   UNL A   1      44.644  23.923  31.026  1.00  0.00     0.029 A 
ATOM     45  C   UNL A   1      44.249  25.304  31.230  1.00  0.00     0.049 A 
ATOM     46  H   UNL A   1      43.254  26.532  29.853  1.00  0.00     0.167 HD
ATOM     47  C   UNL A   1      40.066  28.566  27.553  1.00  0.00     0.034 A 
ATOM     48  C   UNL A   1      44.457  26.106  32.307  1.00  0.00     0.034 A 
ATOM     49  C   UNL A   1      41.282  29.214  27.110  1.00  0.00     0.049 A 
ATOM     50  C   UNL A   1      44.258  27.498  31.831  1.00  0.00     0.074 A 
ATOM     51  C   UNL A   1      42.023  29.186  25.945  1.00  0.00     0.029 A 
ATOM     52  N   UNL A   1      42.130  29.725  28.069  1.00  0.00    -0.354 N 
ATOM     53  N   UNL A   1      45.011  28.056  30.921  1.00  0.00    -0.248 NA
ATOM     54  C   UNL A   1      42.934  28.085  31.979  1.00  0.00     0.031 C 
ATOM     55  C   UNL A   1      43.382  29.162  26.382  1.00  0.00     0.029 A 
ATOM     56  C   UNL A   1      43.395  29.272  27.775  1.00  0.00     0.049 A 
ATOM     57  H   UNL A   1      41.878  30.304  28.823  1.00  0.00     0.167 HD
ATOM     58  C   UNL A   1      44.132  28.747  30.100  1.00  0.00     0.074 A 
ATOM     59  C   UNL A   1      42.884  28.816  30.861  1.00  0.00     0.031 C 
ATOM     60  C   UNL A   1      44.398  28.940  28.772  1.00  0.00     0.034 A 
BRANCH  47  61
ATOM     61  C   UNL A   1      38.973  29.335  28.275  1.00  0.00     0.023 A 
ATOM     62  C   UNL A   1      39.056  29.403  29.683  1.00  0.00     0.031 A 
ATOM     63  C   UNL A   1      37.745  29.763  27.723  1.00  0.00     0.131 A 
ATOM     64  C   UNL A   1      37.941  29.757  30.465  1.00  0.00     0.055 A 
ATOM     65  C   UNL A   1      36.659  30.179  28.502  1.00  0.00     0.041 A 
ATOM     66  F   UNL A   1      37.484  29.727  26.413  1.00  0.00    -0.206 F 
ATOM     67  C   UNL A   1      36.738  30.142  29.883  1.00  0.00     0.022 A 
BRANCH  64  68
ATOM     68  S   UNL A   1      38.033  29.516  32.258  1.00  0.00     0.124 S 
ATOM     69  O   UNL A   1      39.474  29.541  32.486  1.00  0.00    -0.237 OA
ATOM     70  O   UNL A   1      37.282  30.664  32.753  1.00  0.00    -0.237 OA
ATOM     71  O   UNL A   1      37.394  28.217  32.459  1.00  0.00    -0.744 OA
ENDBRANCH  64  68
ENDBRANCH  47  61
BRANCH  48  72
ATOM     72  C   UNL A   1      44.464  25.699  33.741  1.00  0.00     0.023 A 
ATOM     73  C   UNL A   1      43.449  26.053  34.653  1.00  0.00     0.031 A 
ATOM     74  C   UNL A   1      45.400  24.733  34.180  1.00  0.00     0.131 A 
ATOM     75  C   UNL A   1      43.402  25.454  35.937  1.00  0.00     0.055 A 
ATOM     76  C   UNL A   1      45.350  24.145  35.446  1.00  0.00     0.041 A 
ATOM     77  F   UNL A   1      46.351  24.265  33.355  1.00  0.00    -0.206 F 
ATOM     78  C   UNL A   1      44.343  24.499  36.329  1.00  0.00     0.022 A 
BRANCH  75  79
ATOM     79  S   UNL A   1      42.056  25.855  37.101  1.00  0.00     0.124 S 
ATOM     80  O   UNL A   1      41.405  26.984  36.448  1.00  0.00    -0.237 OA
ATOM     81  O   UNL A   1      41.302  24.608  37.149  1.00  0.00    -0.237 OA
ATOM     82  O   UNL A   1      42.762  26.188  38.339  1.00  0.00    -0.744 OA
ENDBRANCH  75  79
ENDBRANCH  48  72
BRANCH  60  83
ATOM     83  C   UNL A   1      45.781  28.578  28.251  1.00  0.00     0.023 A 
ATOM     84  C   UNL A   1      46.140  27.321  27.709  1.00  0.00     0.031 A 
ATOM     85  C   UNL A   1      46.730  29.611  28.170  1.00  0.00     0.131 A 
ATOM     86  C   UNL A   1      47.409  27.137  27.120  1.00  0.00     0.055 A 
ATOM     87  C   UNL A   1      47.975  29.432  27.567  1.00  0.00     0.041 A 
ATOM     88  F   UNL A   1      46.442  30.837  28.637  1.00  0.00    -0.206 F 
ATOM     89  C   UNL A   1      48.322  28.193  27.043  1.00  0.00     0.022 A 
BRANCH  86  90
ATOM     90  S   UNL A   1      47.900  25.516  26.442  1.00  0.00     0.124 S 
ATOM     91  O   UNL A   1      47.992  24.666  27.623  1.00  0.00    -0.237 OA
ATOM     92  O   UNL A   1      46.812  25.213  25.516  1.00  0.00    -0.237 OA
ATOM     93  O   UNL A   1      49.184  25.793  25.793  1.00  0.00    -0.744 OA
ENDBRANCH  86  90
ENDBRANCH  60  83
ENDBRANCH  34  35
ENDBRANCH  26  29
ENDBRANCH  24  25
ENDBRANCH  23  24
ENDBRANCH   1  23
TORSDOF 18
ENDMDL
MODEL 2
REMARK VINA RESULT:     -11.8      3.187      9.073
REMARK SMILES O=C(CCn1ccnc1)N[C@H]1C=C[C@H](C(=O)NCCCCNC(=O)c2ccc(-c3c4nc(c(-c5cc(S(=O)(=O)[O-])ccc5F)c5ccc([nH]5)c(-c5cc(S(=O)(=O)[O-])ccc5F)c5nc(c(-c6cc(S(=O)(=O)[O-])ccc6F)c6ccc3[nH]6)C=C5)C=C4)cc2)C1
REMARK SMILES IDX 19 1 18 2 17 3 15 4 16 5 14 7 11 8 12 9 88 10 13 11 10 12
REMARK SMILES IDX 1 13 2 14 3 16 4 17 5 18 6 19 9 20 7 21 8 22 20 23 21 24
REMARK SMILES IDX 22 25 23 26 24 28 25 29 26 30 87 31 27 32 86 33 28 34 29 35
REMARK SMILES IDX 30 36 80 37 31 38 85 39 79 40 81 41 32 42 84 43 78 44 77 45
REMARK SMILES IDX 33 47 65 48 45 49 64 50 46 51 49 52 63 53 82 54 47 55 48 56
REMARK SMILES IDX 62 58 83 59 50 60 34 61 35 62 43 63 36 64 42 65 44 66 41 67
REMARK SMILES IDX 37 68 38 69 39 70 40 71 66 72 67 73 75 74 68 75 74 76 76 77
REMARK SMILES IDX 73 78 69 79 70 80 71 81 72 82 51 83 52 84 60 85 53 86 59 87
REMARK SMILES IDX 61 88 58 89 54 90 55 91 56 92 57 93
REMARK H PARENT 17 6 10 15 22 27 81 46 49 57
REMARK Flexibility Score: inf
ROOT
ATOM      1  C   UNL A   1      33.232  30.051  26.045  1.00  0.00     0.023 C 
ENDROOT
BRANCH   1   2
ATOM      2  C   UNL A   1      31.712  30.021  25.854  1.00  0.00     0.116 C 
BRANCH   2   3
ATOM      3  N   UNL A   1      31.349  29.729  24.480  1.00  0.00    -0.356 N 
ATOM      4  C   UNL A   1      31.007  28.579  23.844  1.00  0.00     0.227 C 
ATOM      5  O   UNL A   1      30.895  28.644  22.613  1.00  0.00    -0.274 OA
ATOM      6  H   UNL A   1      31.351  30.519  23.894  1.00  0.00     0.163 HD
BRANCH   4   7
ATOM      7  C   UNL A   1      30.652  27.262  24.551  1.00  0.00     0.103 C 
ATOM      8  C   UNL A   1      31.871  25.254  23.864  1.00  0.00     0.106 C 
ATOM      9  C   UNL A   1      30.414  25.170  23.522  1.00  0.00    -0.006 C 
ATOM     10  C   UNL A   1      31.917  26.438  24.834  1.00  0.00     0.047 C 
ATOM     11  C   UNL A   1      29.750  26.276  23.879  1.00  0.00    -0.016 C 
BRANCH   8  12
ATOM     12  N   UNL A   1      32.220  24.012  24.501  1.00  0.00    -0.350 N 
ATOM     13  O   UNL A   1      34.201  23.735  23.403  1.00  0.00    -0.275 OA
ATOM     14  C   UNL A   1      33.350  23.307  24.177  1.00  0.00     0.222 C 
ATOM     15  H   UNL A   1      31.625  23.656  25.199  1.00  0.00     0.164 HD
BRANCH  14  16
ATOM     16  C   UNL A   1      33.427  21.883  24.699  1.00  0.00     0.122 C 
BRANCH  16  17
ATOM     17  C   UNL A   1      34.318  21.653  25.914  1.00  0.00     0.133 C 
BRANCH  17  18
ATOM     18  N   UNL A   1      35.739  21.509  25.654  1.00  0.00    -0.337 N 
ATOM     19  C   UNL A   1      36.323  20.418  25.070  1.00  0.00     0.107 A 
ATOM     20  C   UNL A   1      36.720  22.443  25.842  1.00  0.00     0.199 A 
ATOM     21  C   UNL A   1      37.628  20.788  24.843  1.00  0.00     0.130 A 
ATOM     22  N   UNL A   1      37.860  22.052  25.316  1.00  0.00    -0.245 NA
ENDBRANCH  17  18
ENDBRANCH  16  17
ENDBRANCH  14  16
ENDBRANCH   8  12
ENDBRANCH   4   7
ENDBRANCH   2   3
ENDBRANCH   1   2
BRANCH   1  23
ATOM     23  C   UNL A   1      33.782  29.042  27.065  1.00  0.00     0.023 C 
BRANCH  23  24
ATOM     24  C   UNL A   1      35.221  29.297  27.506  1.00  0.00     0.116 C 
BRANCH  24  25
ATOM     25  N   UNL A   1      35.321  29.886  28.843  1.00  0.00    -0.352 N 
ATOM     26  C   UNL A   1      36.277  29.632  29.820  1.00  0.00     0.251 C 
ATOM     27  H   UNL A   1      34.626  30.543  29.079  1.00  0.00     0.163 HD
ATOM     28  O   UNL A   1      36.052  29.856  30.994  1.00  0.00    -0.269 OA
BRANCH  26  29
ATOM     29  C   UNL A   1      37.580  29.099  29.377  1.00  0.00     0.039 A 
ATOM     30  C   UNL A   1      38.235  29.551  28.226  1.00  0.00     0.014 A 
ATOM     31  C   UNL A   1      38.165  28.155  30.208  1.00  0.00     0.014 A 
ATOM     32  C   UNL A   1      39.532  29.099  27.972  1.00  0.00     0.010 A 
ATOM     33  C   UNL A   1      39.494  27.871  30.066  1.00  0.00     0.010 A 
ATOM     34  C   UNL A   1      40.159  28.266  28.908  1.00  0.00    -0.014 A 
BRANCH  34  35
ATOM     35  C   UNL A   1      41.540  27.815  28.773  1.00  0.00     0.031 A 
ATOM     36  C   UNL A   1      41.735  26.533  28.033  1.00  0.00     0.074 A 
ATOM     37  C   UNL A   1      42.559  28.678  28.994  1.00  0.00     0.049 A 
ATOM     38  N   UNL A   1      42.294  25.444  28.443  1.00  0.00    -0.248 NA
ATOM     39  C   UNL A   1      41.130  26.410  26.695  1.00  0.00     0.031 C 
ATOM     40  C   UNL A   1      42.473  30.094  29.390  1.00  0.00     0.029 A 
ATOM     41  N   UNL A   1      43.886  28.528  28.746  1.00  0.00    -0.354 N 
ATOM     42  C   UNL A   1      42.312  24.573  27.353  1.00  0.00     0.074 A 
ATOM     43  C   UNL A   1      41.408  25.141  26.389  1.00  0.00     0.031 C 
ATOM     44  C   UNL A   1      43.633  30.719  29.098  1.00  0.00     0.029 A 
ATOM     45  C   UNL A   1      44.601  29.722  28.682  1.00  0.00     0.049 A 
ATOM     46  H   UNL A   1      44.307  27.648  28.623  1.00  0.00     0.167 HD
ATOM     47  C   UNL A   1      43.240  23.578  27.246  1.00  0.00     0.034 A 
ATOM     48  C   UNL A   1      45.889  29.890  28.282  1.00  0.00     0.034 A 
ATOM     49  C   UNL A   1      43.893  23.355  28.518  1.00  0.00     0.049 A 
ATOM     50  C   UNL A   1      46.537  28.560  28.401  1.00  0.00     0.074 A 
ATOM     51  C   UNL A   1      43.460  22.980  29.776  1.00  0.00     0.029 A 
ATOM     52  N   UNL A   1      45.138  23.914  28.715  1.00  0.00    -0.354 N 
ATOM     53  N   UNL A   1      46.679  27.934  29.539  1.00  0.00    -0.248 NA
ATOM     54  C   UNL A   1      46.558  27.706  27.222  1.00  0.00     0.031 C 
ATOM     55  C   UNL A   1      44.201  23.805  30.674  1.00  0.00     0.029 A 
ATOM     56  C   UNL A   1      45.105  24.564  29.926  1.00  0.00     0.049 A 
ATOM     57  H   UNL A   1      45.906  23.859  28.103  1.00  0.00     0.167 HD
ATOM     58  C   UNL A   1      46.369  26.611  29.264  1.00  0.00     0.074 A 
ATOM     59  C   UNL A   1      46.407  26.512  27.805  1.00  0.00     0.031 C 
ATOM     60  C   UNL A   1      45.823  25.793  30.216  1.00  0.00     0.034 A 
BRANCH  47  61
ATOM     61  C   UNL A   1      43.817  23.033  25.951  1.00  0.00     0.023 A 
ATOM     62  C   UNL A   1      43.815  21.631  25.785  1.00  0.00     0.031 A 
ATOM     63  C   UNL A   1      44.594  23.749  25.013  1.00  0.00     0.131 A 
ATOM     64  C   UNL A   1      44.634  21.006  24.826  1.00  0.00     0.055 A 
ATOM     65  C   UNL A   1      45.355  23.127  24.016  1.00  0.00     0.041 A 
ATOM     66  F   UNL A   1      44.738  25.077  25.050  1.00  0.00    -0.206 F 
ATOM     67  C   UNL A   1      45.409  21.747  23.940  1.00  0.00     0.022 A 
BRANCH  64  68
ATOM     68  S   UNL A   1      44.813  19.205  24.886  1.00  0.00     0.124 S 
ATOM     69  O   UNL A   1      46.098  19.058  25.561  1.00  0.00    -0.237 OA
ATOM     70  O   UNL A   1      43.634  18.813  25.651  1.00  0.00    -0.237 OA
ATOM     71  O   UNL A   1      44.801  18.816  23.478  1.00  0.00    -0.744 OA
ENDBRANCH  64  68
ENDBRANCH  47  61
BRANCH  48  72
ATOM     72  C   UNL A   1      46.444  31.030  27.498  1.00  0.00     0.023 A 
ATOM     73  C   UNL A   1      45.642  32.025  26.902  1.00  0.00     0.031 A 
ATOM     74  C   UNL A   1      47.837  31.272  27.522  1.00  0.00     0.131 A 
ATOM     75  C   UNL A   1      46.236  33.193  26.362  1.00  0.00     0.055 A 
ATOM     76  C   UNL A   1      48.419  32.425  26.988  1.00  0.00     0.041 A 
ATOM     77  F   UNL A   1      48.676  30.428  28.144  1.00  0.00    -0.206 F 
ATOM     78  C   UNL A   1      47.618  33.396  26.411  1.00  0.00     0.022 A 
BRANCH  75  79
ATOM     79  S   UNL A   1      45.204  34.517  25.649  1.00  0.00     0.124 S 
ATOM     80  O   UNL A   1      45.946  35.719  26.011  1.00  0.00    -0.237 OA
ATOM     81  O   UNL A   1      45.183  34.169  24.233  1.00  0.00    -0.237 OA
ATOM     82  O   UNL A   1      43.921  34.359  26.336  1.00  0.00    -0.744 OA
ENDBRANCH  75  79
ENDBRANCH  48  72
BRANCH  60  83
ATOM     83  C   UNL A   1      45.765  26.293  31.651  1.00  0.00     0.023 A 
ATOM     84  C   UNL A   1      44.667  26.973  32.230  1.00  0.00     0.031 A 
ATOM     85  C   UNL A   1      46.819  25.924  32.506  1.00  0.00     0.131 A 
ATOM     86  C   UNL A   1      44.658  27.263  33.611  1.00  0.00     0.055 A 
ATOM     87  C   UNL A   1      46.797  26.193  33.874  1.00  0.00     0.041 A 
ATOM     88  F   UNL A   1      47.877  25.248  32.027  1.00  0.00    -0.206 F 
ATOM     89  C   UNL A   1      45.717  26.867  34.432  1.00  0.00     0.022 A 
BRANCH  86  90
ATOM     90  S   UNL A   1      43.265  28.166  34.369  1.00  0.00     0.124 S 
ATOM     91  O   UNL A   1      43.121  29.343  33.522  1.00  0.00    -0.237 OA
ATOM     92  O   UNL A   1      42.179  27.191  34.303  1.00  0.00    -0.237 OA
ATOM     93  O   UNL A   1      43.740  28.448  35.725  1.00  0.00    -0.744 OA
ENDBRANCH  86  90
ENDBRANCH  60  83
ENDBRANCH  34  35
ENDBRANCH  26  29
ENDBRANCH  24  25
ENDBRANCH  23  24
ENDBRANCH   1  23
TORSDOF 18
ENDMDL
MODEL 3
REMARK VINA RESULT:     -11.5      3.691      9.146
REMARK SMILES O=C(CCn1ccnc1)N[C@H]1C=C[C@H](C(=O)NCCCCNC(=O)c2ccc(-c3c4nc(c(-c5cc(S(=O)(=O)[O-])ccc5F)c5ccc([nH]5)c(-c5cc(S(=O)(=O)[O-])ccc5F)c5nc(c(-c6cc(S(=O)(=O)[O-])ccc6F)c6ccc3[nH]6)C=C5)C=C4)cc2)C1
REMARK SMILES IDX 19 1 18 2 17 3 15 4 16 5 14 7 11 8 12 9 88 10 13 11 10 12
REMARK SMILES IDX 1 13 2 14 3 16 4 17 5 18 6 19 9 20 7 21 8 22 20 23 21 24
REMARK SMILES IDX 22 25 23 26 24 28 25 29 26 30 87 31 27 32 86 33 28 34 29 35
REMARK SMILES IDX 30 36 80 37 31 38 85 39 79 40 81 41 32 42 84 43 78 44 77 45
REMARK SMILES IDX 33 47 65 48 45 49 64 50 46 51 49 52 63 53 82 54 47 55 48 56
REMARK SMILES IDX 62 58 83 59 50 60 34 61 35 62 43 63 36 64 42 65 44 66 41 67
REMARK SMILES IDX 37 68 38 69 39 70 40 71 66 72 67 73 75 74 68 75 74 76 76 77
REMARK SMILES IDX 73 78 69 79 70 80 71 81 72 82 51 83 52 84 60 85 53 86 59 87
REMARK SMILES IDX 61 88 58 89 54 90 55 91 56 92 57 93
REMARK H PARENT 17 6 10 15 22 27 81 46 49 57
REMARK Flexibility Score: inf
ROOT
ATOM      1  C   UNL A   1      35.364  32.714  31.765  1.00  0.00     0.023 C 
ENDROOT
BRANCH   1   2
ATOM      2  C   UNL A   1      35.465  34.161  31.272  1.00  0.00     0.116 C 
BRANCH   2   3
ATOM      3  N   UNL A   1      34.161  34.716  30.961  1.00  0.00    -0.356 N 
ATOM      4  C   UNL A   1      33.541  35.007  29.788  1.00  0.00     0.227 C 
ATOM      5  O   UNL A   1      32.468  35.618  29.870  1.00  0.00    -0.274 OA
ATOM      6  H   UNL A   1      33.619  34.922  31.755  1.00  0.00     0.163 HD
BRANCH   4   7
ATOM      7  C   UNL A   1      34.022  34.538  28.407  1.00  0.00     0.103 C 
ATOM      8  C   UNL A   1      33.971  32.133  27.954  1.00  0.00     0.106 C 
ATOM      9  C   UNL A   1      35.370  32.669  27.982  1.00  0.00    -0.006 C 
ATOM     10  C   UNL A   1      33.128  33.408  27.872  1.00  0.00     0.047 C 
ATOM     11  C   UNL A   1      35.401  33.980  28.249  1.00  0.00    -0.016 C 
BRANCH   8  12
ATOM     12  N   UNL A   1      33.857  31.326  26.769  1.00  0.00    -0.350 N 
ATOM     13  O   UNL A   1      31.780  30.510  27.239  1.00  0.00    -0.275 OA
ATOM     14  C   UNL A   1      32.777  30.520  26.524  1.00  0.00     0.222 C 
ATOM     15  H   UNL A   1      34.584  31.357  26.106  1.00  0.00     0.164 HD
BRANCH  14  16
ATOM     16  C   UNL A   1      32.934  29.505  25.405  1.00  0.00     0.122 C 
BRANCH  16  17
ATOM     17  C   UNL A   1      31.794  28.509  25.226  1.00  0.00     0.133 C 
BRANCH  17  18
ATOM     18  N   UNL A   1      30.944  28.703  24.066  1.00  0.00    -0.337 N 
ATOM     19  C   UNL A   1      30.147  29.795  23.851  1.00  0.00     0.107 A 
ATOM     20  C   UNL A   1      30.854  27.910  22.956  1.00  0.00     0.199 A 
ATOM     21  C   UNL A   1      29.684  29.653  22.565  1.00  0.00     0.130 A 
ATOM     22  N   UNL A   1      30.139  28.485  22.014  1.00  0.00    -0.245 NA
ENDBRANCH  17  18
ENDBRANCH  16  17
ENDBRANCH  14  16
ENDBRANCH   8  12
ENDBRANCH   4   7
ENDBRANCH   2   3
ENDBRANCH   1   2
BRANCH   1  23
ATOM     23  C   UNL A   1      36.695  32.076  32.192  1.00  0.00     0.023 C 
BRANCH  23  24
ATOM     24  C   UNL A   1      37.229  31.010  31.239  1.00  0.00     0.116 C 
BRANCH  24  25
ATOM     25  N   UNL A   1      36.172  30.282  30.534  1.00  0.00    -0.352 N 
ATOM     26  C   UNL A   1      36.276  29.557  29.352  1.00  0.00     0.251 C 
ATOM     27  H   UNL A   1      35.279  30.307  30.948  1.00  0.00     0.163 HD
ATOM     28  O   UNL A   1      35.300  29.338  28.661  1.00  0.00    -0.269 OA
BRANCH  26  29
ATOM     29  C   UNL A   1      37.610  29.049  28.978  1.00  0.00     0.039 A 
ATOM     30  C   UNL A   1      38.336  29.548  27.890  1.00  0.00     0.014 A 
ATOM     31  C   UNL A   1      38.148  28.080  29.812  1.00  0.00     0.014 A 
ATOM     32  C   UNL A   1      39.651  29.115  27.707  1.00  0.00     0.010 A 
ATOM     33  C   UNL A   1      39.486  27.811  29.749  1.00  0.00     0.010 A 
ATOM     34  C   UNL A   1      40.222  28.253  28.652  1.00  0.00    -0.014 A 
BRANCH  34  35
ATOM     35  C   UNL A   1      41.614  27.817  28.593  1.00  0.00     0.031 A 
ATOM     36  C   UNL A   1      41.862  26.532  27.875  1.00  0.00     0.074 A 
ATOM     37  C   UNL A   1      42.610  28.694  28.860  1.00  0.00     0.049 A 
ATOM     38  N   UNL A   1      42.411  25.452  28.323  1.00  0.00    -0.248 NA
ATOM     39  C   UNL A   1      41.329  26.391  26.509  1.00  0.00     0.031 C 
ATOM     40  C   UNL A   1      42.488  30.112  29.238  1.00  0.00     0.029 A 
ATOM     41  N   UNL A   1      43.950  28.558  28.683  1.00  0.00    -0.354 N 
ATOM     42  C   UNL A   1      42.496  24.574  27.243  1.00  0.00     0.074 A 
ATOM     43  C   UNL A   1      41.637  25.123  26.229  1.00  0.00     0.031 C 
ATOM     44  C   UNL A   1      43.654  30.749  29.002  1.00  0.00     0.029 A 
ATOM     45  C   UNL A   1      44.654  29.760  28.645  1.00  0.00     0.049 A 
ATOM     46  H   UNL A   1      44.387  27.681  28.589  1.00  0.00     0.167 HD
ATOM     47  C   UNL A   1      43.439  23.589  27.193  1.00  0.00     0.034 A 
ATOM     48  C   UNL A   1      45.959  29.939  28.312  1.00  0.00     0.034 A 
ATOM     49  C   UNL A   1      44.028  23.383  28.500  1.00  0.00     0.049 A 
ATOM     50  C   UNL A   1      46.615  28.618  28.476  1.00  0.00     0.074 A 
ATOM     51  C   UNL A   1      43.533  23.013  29.736  1.00  0.00     0.029 A 
ATOM     52  N   UNL A   1      45.254  23.958  28.756  1.00  0.00    -0.354 N 
ATOM     53  N   UNL A   1      46.705  28.003  29.625  1.00  0.00    -0.248 NA
ATOM     54  C   UNL A   1      46.707  27.755  27.307  1.00  0.00     0.031 C 
ATOM     55  C   UNL A   1      44.217  23.855  30.665  1.00  0.00     0.029 A 
ATOM     56  C   UNL A   1      45.151  24.618  29.959  1.00  0.00     0.049 A 
ATOM     57  H   UNL A   1      46.054  23.907  28.186  1.00  0.00     0.167 HD
ATOM     58  C   UNL A   1      46.424  26.674  29.346  1.00  0.00     0.074 A 
ATOM     59  C   UNL A   1      46.539  26.564  27.892  1.00  0.00     0.031 C 
ATOM     60  C   UNL A   1      45.838  25.857  30.275  1.00  0.00     0.034 A 
BRANCH  47  61
ATOM     61  C   UNL A   1      44.089  23.040  25.935  1.00  0.00     0.023 A 
ATOM     62  C   UNL A   1      43.870  21.677  25.639  1.00  0.00     0.031 A 
ATOM     63  C   UNL A   1      45.101  23.666  25.173  1.00  0.00     0.131 A 
ATOM     64  C   UNL A   1      44.696  20.982  24.735  1.00  0.00     0.055 A 
ATOM     65  C   UNL A   1      45.876  22.988  24.225  1.00  0.00     0.041 A 
ATOM     66  F   UNL A   1      45.464  24.940  25.352  1.00  0.00    -0.206 F 
ATOM     67  C   UNL A   1      45.702  21.630  24.027  1.00  0.00     0.022 A 
BRANCH  64  68
ATOM     68  S   UNL A   1      44.554  19.179  24.648  1.00  0.00     0.124 S 
ATOM     69  O   UNL A   1      45.036  18.908  23.297  1.00  0.00    -0.237 OA
ATOM     70  O   UNL A   1      45.424  18.758  25.740  1.00  0.00    -0.237 OA
ATOM     71  O   UNL A   1      43.127  18.941  24.859  1.00  0.00    -0.744 OA
ENDBRANCH  64  68
ENDBRANCH  47  61
BRANCH  48  72
ATOM     72  C   UNL A   1      46.541  31.079  27.548  1.00  0.00     0.023 A 
ATOM     73  C   UNL A   1      45.761  32.084  26.940  1.00  0.00     0.031 A 
ATOM     74  C   UNL A   1      47.935  31.310  27.606  1.00  0.00     0.131 A 
ATOM     75  C   UNL A   1      46.377  33.250  26.421  1.00  0.00     0.055 A 
ATOM     76  C   UNL A   1      48.538  32.461  27.094  1.00  0.00     0.041 A 
ATOM     77  F   UNL A   1      48.753  30.456  28.243  1.00  0.00    -0.206 F 
ATOM     78  C   UNL A   1      47.759  33.442  26.504  1.00  0.00     0.022 A 
BRANCH  75  79
ATOM     79  S   UNL A   1      45.373  34.588  25.691  1.00  0.00     0.124 S 
ATOM     80  O   UNL A   1      46.117  35.781  26.076  1.00  0.00    -0.237 OA
ATOM     81  O   UNL A   1      45.379  34.246  24.274  1.00  0.00    -0.237 OA
ATOM     82  O   UNL A   1      44.074  34.437  26.349  1.00  0.00    -0.744 OA
ENDBRANCH  75  79
ENDBRANCH  48  72
BRANCH  60  83
ATOM     83  C   UNL A   1      45.700  26.368  31.701  1.00  0.00     0.023 A 
ATOM     84  C   UNL A   1      44.577  27.063  32.208  1.00  0.00     0.031 A 
ATOM     85  C   UNL A   1      46.697  25.995  32.619  1.00  0.00     0.131 A 
ATOM     86  C   UNL A   1      44.488  27.363  33.584  1.00  0.00     0.055 A 
ATOM     87  C   UNL A   1      46.596  26.273  33.982  1.00  0.00     0.041 A 
ATOM     88  F   UNL A   1      47.774  25.305  32.209  1.00  0.00    -0.206 F 
ATOM     89  C   UNL A   1      45.492  26.962  34.470  1.00  0.00     0.022 A 
BRANCH  86  90
ATOM     90  S   UNL A   1      43.061  28.285  34.252  1.00  0.00     0.124 S 
ATOM     91  O   UNL A   1      43.215  29.615  33.675  1.00  0.00    -0.237 OA
ATOM     92  O   UNL A   1      41.923  27.505  33.771  1.00  0.00    -0.237 OA
ATOM     93  O   UNL A   1      43.265  28.224  35.701  1.00  0.00    -0.744 OA
ENDBRANCH  86  90
ENDBRANCH  60  83
ENDBRANCH  34  35
ENDBRANCH  26  29
ENDBRANCH  24  25
ENDBRANCH  23  24
ENDBRANCH   1  23
TORSDOF 18
ENDMDL
