MODEL 1
REMARK VINA RESULT:     -12.8      0.000      0.000
REMARK SMILES C[C@H](NC(=O)c1c(C(=O)NCCCCNC(=O)c2ccc(-c3c4nc(c(-c5cc(S(=O)(=O)[O-])ccc5F)c5ccc([nH]5)c(-c5cc(S(=O)(=O)[O-])ccc5F)c5nc(c(-c6cc(S(=O)(=O)[O-])ccc6F)c6ccc3[nH]6)C=C5)C=C4)cc2)cnn1C)[C@]12C[C@H]3C[C@H](C[C@H](C3)C1)C2
REMARK SMILES IDX 12 1 11 2 10 3 8 4 9 5 7 7 6 8 83 9 81 10 82 11 84 12 4 13
REMARK SMILES IDX 3 14 5 16 2 17 1 18 85 19 86 20 93 21 94 22 87 23 91 24
REMARK SMILES IDX 89 25 88 26 92 27 90 28 13 29 14 30 15 31 16 32 17 34 18 35
REMARK SMILES IDX 19 36 80 37 20 38 79 39 21 40 22 41 23 42 73 43 24 44 78 45
REMARK SMILES IDX 72 46 74 47 25 48 77 49 71 50 70 51 26 53 58 54 38 55 57 56
REMARK SMILES IDX 39 57 42 58 56 59 75 60 40 61 41 62 55 64 76 65 43 66 27 67
REMARK SMILES IDX 28 68 36 69 29 70 35 71 37 72 34 73 30 74 31 75 32 76 33 77
REMARK SMILES IDX 59 78 60 79 68 80 61 81 67 82 69 83 66 84 62 85 63 86 64 87
REMARK SMILES IDX 65 88 44 89 45 90 53 91 46 92 52 93 54 94 51 95 47 96 48 97
REMARK SMILES IDX 49 98 50 99
REMARK H PARENT 10 6 3 15 15 33 74 52 42 63
REMARK Flexibility Score: inf
ROOT
ATOM      1  C   UNL A   1      32.953  29.174  27.281  1.00  0.00     0.023 C 
ENDROOT
BRANCH   1   2
ATOM      2  C   UNL A   1      34.337  28.877  26.713  1.00  0.00     0.116 C 
BRANCH   2   3
ATOM      3  N   UNL A   1      34.333  28.793  25.278  1.00  0.00    -0.352 N 
ATOM      4  C   UNL A   1      34.039  27.800  24.388  1.00  0.00     0.255 C 
ATOM      5  O   UNL A   1      34.214  28.118  23.206  1.00  0.00    -0.269 OA
ATOM      6  H   UNL A   1      34.603  29.635  24.842  1.00  0.00     0.163 HD
BRANCH   4   7
ATOM      7  C   UNL A   1      33.532  26.460  24.691  1.00  0.00     0.090 A 
ATOM      8  C   UNL A   1      32.352  25.884  25.176  1.00  0.00     0.138 A 
ATOM      9  N   UNL A   1      32.483  24.536  24.917  1.00  0.00    -0.262 N 
ATOM     10  C   UNL A   1      34.349  25.319  24.420  1.00  0.00     0.149 A 
ATOM     11  N   UNL A   1      33.730  24.157  24.609  1.00  0.00    -0.180 NA
ATOM     12  C   UNL A   1      31.441  23.535  24.848  1.00  0.00     0.174 C 
BRANCH   8  13
ATOM     13  C   UNL A   1      31.097  26.437  25.577  1.00  0.00     0.270 C 
ATOM     14  N   UNL A   1      30.418  27.321  24.780  1.00  0.00    -0.348 N 
ATOM     15  H   UNL A   1      29.544  27.553  25.171  1.00  0.00     0.164 HD
ATOM     16  O   UNL A   1      30.584  26.158  26.660  1.00  0.00    -0.267 OA
BRANCH  14  17
ATOM     17  C   UNL A   1      30.632  28.025  23.500  1.00  0.00     0.085 C 
ATOM     18  C   UNL A   1      30.943  27.098  22.329  1.00  0.00     0.031 C 
BRANCH  17  19
ATOM     19  C   UNL A   1      29.679  29.233  23.148  1.00  0.00    -0.009 C 
ATOM     20  C   UNL A   1      30.116  29.825  21.771  1.00  0.00     0.012 C 
ATOM     21  C   UNL A   1      29.771  30.378  24.176  1.00  0.00     0.012 C 
ATOM     22  C   UNL A   1      28.180  28.835  23.037  1.00  0.00     0.012 C 
ATOM     23  C   UNL A   1      29.250  31.029  21.367  1.00  0.00    -0.010 C 
ATOM     24  C   UNL A   1      28.913  31.594  23.784  1.00  0.00    -0.010 C 
ATOM     25  C   UNL A   1      27.310  30.044  22.632  1.00  0.00    -0.010 C 
ATOM     26  C   UNL A   1      27.784  30.584  21.272  1.00  0.00     0.007 C 
ATOM     27  C   UNL A   1      29.385  32.129  22.429  1.00  0.00     0.007 C 
ATOM     28  C   UNL A   1      27.445  31.154  23.684  1.00  0.00     0.007 C 
ENDBRANCH  17  19
ENDBRANCH  14  17
ENDBRANCH   8  13
ENDBRANCH   4   7
ENDBRANCH   2   3
ENDBRANCH   1   2
BRANCH   1  29
ATOM     29  C   UNL A   1      32.486  30.610  27.142  1.00  0.00     0.023 C 
BRANCH  29  30
ATOM     30  C   UNL A   1      33.496  31.646  27.615  1.00  0.00     0.116 C 
BRANCH  30  31
ATOM     31  N   UNL A   1      32.977  33.013  27.625  1.00  0.00    -0.352 N 
ATOM     32  C   UNL A   1      33.328  34.084  28.418  1.00  0.00     0.251 C 
ATOM     33  H   UNL A   1      32.271  33.196  26.964  1.00  0.00     0.163 HD
ATOM     34  O   UNL A   1      32.695  35.131  28.362  1.00  0.00    -0.269 OA
BRANCH  32  35
ATOM     35  C   UNL A   1      34.443  33.924  29.371  1.00  0.00     0.039 A 
ATOM     36  C   UNL A   1      34.228  33.248  30.573  1.00  0.00     0.014 A 
ATOM     37  C   UNL A   1      35.725  34.335  29.007  1.00  0.00     0.014 A 
ATOM     38  C   UNL A   1      35.327  32.863  31.346  1.00  0.00     0.010 A 
ATOM     39  C   UNL A   1      36.814  33.841  29.706  1.00  0.00     0.010 A 
ATOM     40  C   UNL A   1      36.631  33.087  30.877  1.00  0.00    -0.014 A 
BRANCH  40  41
ATOM     41  C   UNL A   1      37.831  32.538  31.564  1.00  0.00     0.031 A 
ATOM     42  C   UNL A   1      38.597  31.411  30.926  1.00  0.00     0.074 A 
ATOM     43  C   UNL A   1      38.142  32.947  32.811  1.00  0.00     0.049 A 
ATOM     44  N   UNL A   1      39.520  30.638  31.437  1.00  0.00    -0.248 NA
ATOM     45  C   UNL A   1      38.217  31.067  29.549  1.00  0.00     0.031 C 
ATOM     46  C   UNL A   1      37.429  33.973  33.575  1.00  0.00     0.029 A 
ATOM     47  N   UNL A   1      39.127  32.523  33.668  1.00  0.00    -0.354 N 
ATOM     48  C   UNL A   1      39.790  29.683  30.462  1.00  0.00     0.074 A 
ATOM     49  C   UNL A   1      38.878  29.937  29.367  1.00  0.00     0.031 C 
ATOM     50  C   UNL A   1      38.010  34.113  34.777  1.00  0.00     0.029 A 
ATOM     51  C   UNL A   1      39.104  33.156  34.890  1.00  0.00     0.049 A 
ATOM     52  H   UNL A   1      39.786  31.832  33.432  1.00  0.00     0.167 HD
ATOM     53  C   UNL A   1      40.730  28.704  30.466  1.00  0.00     0.034 A 
ATOM     54  C   UNL A   1      39.867  32.972  35.985  1.00  0.00     0.034 A 
ATOM     55  C   UNL A   1      41.661  28.500  31.548  1.00  0.00     0.049 A 
ATOM     56  C   UNL A   1      40.949  31.927  35.951  1.00  0.00     0.074 A 
ATOM     57  C   UNL A   1      42.706  27.597  31.633  1.00  0.00     0.029 A 
ATOM     58  N   UNL A   1      41.661  29.220  32.737  1.00  0.00    -0.354 N 
ATOM     59  N   UNL A   1      41.227  31.060  35.006  1.00  0.00    -0.248 NA
ATOM     60  C   UNL A   1      41.826  31.845  37.125  1.00  0.00     0.031 C 
ATOM     61  C   UNL A   1      43.310  27.742  32.888  1.00  0.00     0.029 A 
ATOM     62  C   UNL A   1      42.680  28.775  33.565  1.00  0.00     0.049 A 
ATOM     63  H   UNL A   1      41.030  29.942  32.959  1.00  0.00     0.167 HD
ATOM     64  C   UNL A   1      42.326  30.340  35.464  1.00  0.00     0.074 A 
ATOM     65  C   UNL A   1      42.666  30.884  36.764  1.00  0.00     0.031 C 
ATOM     66  C   UNL A   1      42.996  29.323  34.863  1.00  0.00     0.034 A 
BRANCH  53  67
ATOM     67  C   UNL A   1      40.767  27.787  29.265  1.00  0.00     0.023 A 
ATOM     68  C   UNL A   1      41.721  27.952  28.244  1.00  0.00     0.031 A 
ATOM     69  C   UNL A   1      39.787  26.795  29.090  1.00  0.00     0.131 A 
ATOM     70  C   UNL A   1      41.598  27.234  27.047  1.00  0.00     0.055 A 
ATOM     71  C   UNL A   1      39.734  26.008  27.936  1.00  0.00     0.041 A 
ATOM     72  F   UNL A   1      38.840  26.596  30.020  1.00  0.00    -0.206 F 
ATOM     73  C   UNL A   1      40.627  26.243  26.895  1.00  0.00     0.022 A 
BRANCH  70  74
ATOM     74  S   UNL A   1      42.593  27.761  25.624  1.00  0.00     0.124 S 
ATOM     75  O   UNL A   1      42.559  26.567  24.783  1.00  0.00    -0.237 OA
ATOM     76  O   UNL A   1      41.849  28.913  25.129  1.00  0.00    -0.237 OA
ATOM     77  O   UNL A   1      43.897  28.064  26.211  1.00  0.00    -0.744 OA
ENDBRANCH  70  74
ENDBRANCH  53  67
BRANCH  54  78
ATOM     78  C   UNL A   1      39.632  33.792  37.205  1.00  0.00     0.023 A 
ATOM     79  C   UNL A   1      38.876  33.290  38.276  1.00  0.00     0.031 A 
ATOM     80  C   UNL A   1      40.161  35.089  37.316  1.00  0.00     0.131 A 
ATOM     81  C   UNL A   1      38.642  34.094  39.402  1.00  0.00     0.055 A 
ATOM     82  C   UNL A   1      39.955  35.871  38.454  1.00  0.00     0.041 A 
ATOM     83  F   UNL A   1      40.905  35.605  36.325  1.00  0.00    -0.206 F 
ATOM     84  C   UNL A   1      39.185  35.378  39.502  1.00  0.00     0.022 A 
BRANCH  81  85
ATOM     85  S   UNL A   1      37.582  33.450  40.726  1.00  0.00     0.124 S 
ATOM     86  O   UNL A   1      38.502  32.577  41.446  1.00  0.00    -0.237 OA
ATOM     87  O   UNL A   1      37.184  34.672  41.418  1.00  0.00    -0.237 OA
ATOM     88  O   UNL A   1      36.510  32.770  40.004  1.00  0.00    -0.744 OA
ENDBRANCH  81  85
ENDBRANCH  54  78
BRANCH  66  89
ATOM     89  C   UNL A   1      44.189  28.770  35.597  1.00  0.00     0.023 A 
ATOM     90  C   UNL A   1      44.062  27.735  36.539  1.00  0.00     0.031 A 
ATOM     91  C   UNL A   1      45.470  29.293  35.350  1.00  0.00     0.131 A 
ATOM     92  C   UNL A   1      45.194  27.285  37.236  1.00  0.00     0.055 A 
ATOM     93  C   UNL A   1      46.599  28.808  36.010  1.00  0.00     0.041 A 
ATOM     94  F   UNL A   1      45.644  30.283  34.459  1.00  0.00    -0.206 F 
ATOM     95  C   UNL A   1      46.463  27.806  36.966  1.00  0.00     0.022 A 
BRANCH  92  96
ATOM     96  S   UNL A   1      44.977  26.057  38.552  1.00  0.00     0.124 S 
ATOM     97  O   UNL A   1      44.168  26.791  39.521  1.00  0.00    -0.237 OA
ATOM     98  O   UNL A   1      44.303  24.967  37.854  1.00  0.00    -0.237 OA
ATOM     99  O   UNL A   1      46.344  25.766  38.979  1.00  0.00    -0.744 OA
ENDBRANCH  92  96
ENDBRANCH  66  89
ENDBRANCH  40  41
ENDBRANCH  32  35
ENDBRANCH  30  31
ENDBRANCH  29  30
ENDBRANCH   1  29
TORSDOF 17
ENDMDL
MODEL 2
REMARK VINA RESULT:     -12.6      2.091      4.053
REMARK SMILES C[C@H](NC(=O)c1c(C(=O)NCCCCNC(=O)c2ccc(-c3c4nc(c(-c5cc(S(=O)(=O)[O-])ccc5F)c5ccc([nH]5)c(-c5cc(S(=O)(=O)[O-])ccc5F)c5nc(c(-c6cc(S(=O)(=O)[O-])ccc6F)c6ccc3[nH]6)C=C5)C=C4)cc2)cnn1C)[C@]12C[C@H]3C[C@H](C[C@H](C3)C1)C2
REMARK SMILES IDX 12 1 11 2 10 3 8 4 9 5 7 7 6 8 83 9 81 10 82 11 84 12 4 13
REMARK SMILES IDX 3 14 5 16 2 17 1 18 85 19 86 20 93 21 94 22 87 23 91 24
REMARK SMILES IDX 89 25 88 26 92 27 90 28 13 29 14 30 15 31 16 32 17 34 18 35
REMARK SMILES IDX 19 36 80 37 20 38 79 39 21 40 22 41 23 42 73 43 24 44 78 45
REMARK SMILES IDX 72 46 74 47 25 48 77 49 71 50 70 51 26 53 58 54 38 55 57 56
REMARK SMILES IDX 39 57 42 58 56 59 75 60 40 61 41 62 55 64 76 65 43 66 27 67
REMARK SMILES IDX 28 68 36 69 29 70 35 71 37 72 34 73 30 74 31 75 32 76 33 77
REMARK SMILES IDX 59 78 60 79 68 80 61 81 67 82 69 83 66 84 62 85 63 86 64 87
REMARK SMILES IDX 65 88 44 89 45 90 53 91 46 92 52 93 54 94 51 95 47 96 48 97
REMARK SMILES IDX 49 98 50 99
REMARK H PARENT 10 6 3 15 15 33 74 52 42 63
REMARK Flexibility Score: inf
ROOT
ATOM      1  C   UNL A   1      31.940  30.142  26.884  1.00  0.00     0.023 C 
ENDROOT
BRANCH   1   2
ATOM      2  C   UNL A   1      33.391  30.080  26.416  1.00  0.00     0.116 C 
BRANCH   2   3
ATOM      3  N   UNL A   1      33.909  28.740  26.418  1.00  0.00    -0.352 N 
ATOM      4  C   UNL A   1      33.519  27.572  25.826  1.00  0.00     0.255 C 
ATOM      5  O   UNL A   1      34.219  26.598  26.126  1.00  0.00    -0.269 OA
ATOM      6  H   UNL A   1      34.721  28.641  26.966  1.00  0.00     0.163 HD
BRANCH   4   7
ATOM      7  C   UNL A   1      32.410  27.382  24.888  1.00  0.00     0.090 A 
ATOM      8  C   UNL A   1      31.244  26.611  24.804  1.00  0.00     0.138 A 
ATOM      9  N   UNL A   1      30.521  27.173  23.774  1.00  0.00    -0.262 N 
ATOM     10  C   UNL A   1      32.346  28.175  23.701  1.00  0.00     0.149 A 
ATOM     11  N   UNL A   1      31.228  28.007  23.001  1.00  0.00    -0.180 NA
ATOM     12  C   UNL A   1      29.106  27.040  23.501  1.00  0.00     0.174 C 
BRANCH   8  13
ATOM     13  C   UNL A   1      30.651  25.653  25.683  1.00  0.00     0.270 C 
ATOM     14  N   UNL A   1      30.872  24.309  25.532  1.00  0.00    -0.348 N 
ATOM     15  H   UNL A   1      30.447  23.795  26.256  1.00  0.00     0.164 HD
ATOM     16  O   UNL A   1      29.902  25.993  26.599  1.00  0.00    -0.267 OA
BRANCH  14  17
ATOM     17  C   UNL A   1      31.570  23.418  24.584  1.00  0.00     0.085 C 
ATOM     18  C   UNL A   1      31.183  23.642  23.125  1.00  0.00     0.031 C 
BRANCH  17  19
ATOM     19  C   UNL A   1      33.104  23.133  24.823  1.00  0.00    -0.009 C 
ATOM     20  C   UNL A   1      33.406  21.659  24.407  1.00  0.00     0.012 C 
ATOM     21  C   UNL A   1      33.508  23.272  26.304  1.00  0.00     0.012 C 
ATOM     22  C   UNL A   1      34.046  24.058  24.001  1.00  0.00     0.012 C 
ATOM     23  C   UNL A   1      34.881  21.293  24.636  1.00  0.00    -0.010 C 
ATOM     24  C   UNL A   1      34.981  22.905  26.551  1.00  0.00    -0.010 C 
ATOM     25  C   UNL A   1      35.527  23.692  24.231  1.00  0.00    -0.010 C 
ATOM     26  C   UNL A   1      35.766  22.233  23.806  1.00  0.00     0.007 C 
ATOM     27  C   UNL A   1      35.219  21.453  26.126  1.00  0.00     0.007 C 
ATOM     28  C   UNL A   1      35.872  23.840  25.720  1.00  0.00     0.007 C 
ENDBRANCH  17  19
ENDBRANCH  14  17
ENDBRANCH   8  13
ENDBRANCH   4   7
ENDBRANCH   2   3
ENDBRANCH   1   2
BRANCH   1  29
ATOM     29  C   UNL A   1      31.312  31.523  26.875  1.00  0.00     0.023 C 
BRANCH  29  30
ATOM     30  C   UNL A   1      32.270  32.645  26.501  1.00  0.00     0.116 C 
BRANCH  30  31
ATOM     31  N   UNL A   1      32.153  33.828  27.352  1.00  0.00    -0.352 N 
ATOM     32  C   UNL A   1      32.967  34.264  28.375  1.00  0.00     0.251 C 
ATOM     33  H   UNL A   1      31.374  34.400  27.166  1.00  0.00     0.163 HD
ATOM     34  O   UNL A   1      32.641  35.225  29.061  1.00  0.00    -0.269 OA
BRANCH  32  35
ATOM     35  C   UNL A   1      34.208  33.517  28.659  1.00  0.00     0.039 A 
ATOM     36  C   UNL A   1      35.442  34.095  28.358  1.00  0.00     0.014 A 
ATOM     37  C   UNL A   1      34.140  32.303  29.340  1.00  0.00     0.014 A 
ATOM     38  C   UNL A   1      36.609  33.517  28.866  1.00  0.00     0.010 A 
ATOM     39  C   UNL A   1      35.282  31.806  29.948  1.00  0.00     0.010 A 
ATOM     40  C   UNL A   1      36.530  32.414  29.731  1.00  0.00    -0.014 A 
BRANCH  40  41
ATOM     41  C   UNL A   1      37.718  31.873  30.444  1.00  0.00     0.031 A 
ATOM     42  C   UNL A   1      38.568  30.827  29.776  1.00  0.00     0.074 A 
ATOM     43  C   UNL A   1      37.944  32.209  31.731  1.00  0.00     0.049 A 
ATOM     44  N   UNL A   1      39.499  30.062  30.284  1.00  0.00    -0.248 NA
ATOM     45  C   UNL A   1      38.276  30.562  28.360  1.00  0.00     0.031 C 
ATOM     46  C   UNL A   1      37.145  33.148  32.521  1.00  0.00     0.029 A 
ATOM     47  N   UNL A   1      38.903  31.772  32.611  1.00  0.00    -0.354 N 
ATOM     48  C   UNL A   1      39.864  29.189  29.265  1.00  0.00     0.074 A 
ATOM     49  C   UNL A   1      38.998  29.477  28.141  1.00  0.00     0.031 C 
ATOM     50  C   UNL A   1      37.656  33.231  33.760  1.00  0.00     0.029 A 
ATOM     51  C   UNL A   1      38.787  32.317  33.869  1.00  0.00     0.049 A 
ATOM     52  H   UNL A   1      39.606  31.128  32.366  1.00  0.00     0.167 HD
ATOM     53  C   UNL A   1      40.848  28.255  29.255  1.00  0.00     0.034 A 
ATOM     54  C   UNL A   1      39.501  32.093  34.989  1.00  0.00     0.034 A 
ATOM     55  C   UNL A   1      41.731  28.018  30.371  1.00  0.00     0.049 A 
ATOM     56  C   UNL A   1      40.632  31.101  34.945  1.00  0.00     0.074 A 
ATOM     57  C   UNL A   1      42.812  27.159  30.453  1.00  0.00     0.029 A 
ATOM     58  N   UNL A   1      41.636  28.655  31.603  1.00  0.00    -0.354 N 
ATOM     59  N   UNL A   1      40.999  30.314  33.961  1.00  0.00    -0.248 NA
ATOM     60  C   UNL A   1      41.451  30.978  36.157  1.00  0.00     0.031 C 
ATOM     61  C   UNL A   1      43.344  27.244  31.746  1.00  0.00     0.029 A 
ATOM     62  C   UNL A   1      42.631  28.200  32.454  1.00  0.00     0.049 A 
ATOM     63  H   UNL A   1      40.960  29.331  31.837  1.00  0.00     0.167 HD
ATOM     64  C   UNL A   1      42.106  29.613  34.430  1.00  0.00     0.074 A 
ATOM     65  C   UNL A   1      42.352  30.082  35.779  1.00  0.00     0.031 C 
ATOM     66  C   UNL A   1      42.853  28.671  33.800  1.00  0.00     0.034 A 
BRANCH  53  67
ATOM     67  C   UNL A   1      40.991  27.424  28.000  1.00  0.00     0.023 A 
ATOM     68  C   UNL A   1      40.572  26.082  27.956  1.00  0.00     0.031 A 
ATOM     69  C   UNL A   1      41.634  27.945  26.865  1.00  0.00     0.131 A 
ATOM     70  C   UNL A   1      40.914  25.276  26.862  1.00  0.00     0.055 A 
ATOM     71  C   UNL A   1      41.877  27.163  25.732  1.00  0.00     0.041 A 
ATOM     72  F   UNL A   1      42.070  29.215  26.847  1.00  0.00    -0.206 F 
ATOM     73  C   UNL A   1      41.540  25.813  25.736  1.00  0.00     0.022 A 
BRANCH  70  74
ATOM     74  S   UNL A   1      40.711  23.480  27.023  1.00  0.00     0.124 S 
ATOM     75  O   UNL A   1      41.560  22.990  25.939  1.00  0.00    -0.237 OA
ATOM     76  O   UNL A   1      41.194  23.228  28.376  1.00  0.00    -0.237 OA
ATOM     77  O   UNL A   1      39.279  23.276  26.822  1.00  0.00    -0.744 OA
ENDBRANCH  70  74
ENDBRANCH  53  67
BRANCH  54  78
ATOM     78  C   UNL A   1      39.164  32.816  36.246  1.00  0.00     0.023 A 
ATOM     79  C   UNL A   1      38.297  32.250  37.193  1.00  0.00     0.031 A 
ATOM     80  C   UNL A   1      39.707  34.084  36.516  1.00  0.00     0.131 A 
ATOM     81  C   UNL A   1      37.971  32.965  38.355  1.00  0.00     0.055 A 
ATOM     82  C   UNL A   1      39.407  34.775  37.691  1.00  0.00     0.041 A 
ATOM     83  F   UNL A   1      40.555  34.658  35.648  1.00  0.00    -0.206 F 
ATOM     84  C   UNL A   1      38.528  34.220  38.615  1.00  0.00     0.022 A 
BRANCH  81  85
ATOM     85  S   UNL A   1      36.774  32.245  39.513  1.00  0.00     0.124 S 
ATOM     86  O   UNL A   1      37.152  30.837  39.495  1.00  0.00    -0.237 OA
ATOM     87  O   UNL A   1      37.067  32.973  40.744  1.00  0.00    -0.237 OA
ATOM     88  O   UNL A   1      35.483  32.554  38.904  1.00  0.00    -0.744 OA
ENDBRANCH  81  85
ENDBRANCH  54  78
BRANCH  66  89
ATOM     89  C   UNL A   1      44.032  28.121  34.560  1.00  0.00     0.023 A 
ATOM     90  C   UNL A   1      43.925  26.971  35.359  1.00  0.00     0.031 A 
ATOM     91  C   UNL A   1      45.279  28.766  34.484  1.00  0.00     0.131 A 
ATOM     92  C   UNL A   1      45.037  26.524  36.089  1.00  0.00     0.055 A 
ATOM     93  C   UNL A   1      46.394  28.289  35.174  1.00  0.00     0.041 A 
ATOM     94  F   UNL A   1      45.433  29.870  33.735  1.00  0.00    -0.206 F 
ATOM     95  C   UNL A   1      46.273  27.168  35.990  1.00  0.00     0.022 A 
BRANCH  92  96
ATOM     96  S   UNL A   1      44.830  25.128  37.227  1.00  0.00     0.124 S 
ATOM     97  O   UNL A   1      46.095  24.418  37.070  1.00  0.00    -0.237 OA
ATOM     98  O   UNL A   1      44.628  25.798  38.509  1.00  0.00    -0.237 OA
ATOM     99  O   UNL A   1      43.658  24.428  36.704  1.00  0.00    -0.744 OA
ENDBRANCH  92  96
ENDBRANCH  66  89
ENDBRANCH  40  41
ENDBRANCH  32  35
ENDBRANCH  30  31
ENDBRANCH  29  30
ENDBRANCH   1  29
TORSDOF 17
ENDMDL
MODEL 3
REMARK VINA RESULT:     -12.5      2.874      8.800
REMARK SMILES C[C@H](NC(=O)c1c(C(=O)NCCCCNC(=O)c2ccc(-c3c4nc(c(-c5cc(S(=O)(=O)[O-])ccc5F)c5ccc([nH]5)c(-c5cc(S(=O)(=O)[O-])ccc5F)c5nc(c(-c6cc(S(=O)(=O)[O-])ccc6F)c6ccc3[nH]6)C=C5)C=C4)cc2)cnn1C)[C@]12C[C@H]3C[C@H](C[C@H](C3)C1)C2
REMARK SMILES IDX 12 1 11 2 10 3 8 4 9 5 7 7 6 8 83 9 81 10 82 11 84 12 4 13
REMARK SMILES IDX 3 14 5 16 2 17 1 18 85 19 86 20 93 21 94 22 87 23 91 24
REMARK SMILES IDX 89 25 88 26 92 27 90 28 13 29 14 30 15 31 16 32 17 34 18 35
REMARK SMILES IDX 19 36 80 37 20 38 79 39 21 40 22 41 23 42 73 43 24 44 78 45
REMARK SMILES IDX 72 46 74 47 25 48 77 49 71 50 70 51 26 53 58 54 38 55 57 56
REMARK SMILES IDX 39 57 42 58 56 59 75 60 40 61 41 62 55 64 76 65 43 66 27 67
REMARK SMILES IDX 28 68 36 69 29 70 35 71 37 72 34 73 30 74 31 75 32 76 33 77
REMARK SMILES IDX 59 78 60 79 68 80 61 81 67 82 69 83 66 84 62 85 63 86 64 87
REMARK SMILES IDX 65 88 44 89 45 90 53 91 46 92 52 93 54 94 51 95 47 96 48 97
REMARK SMILES IDX 49 98 50 99
REMARK H PARENT 10 6 3 15 15 33 74 52 42 63
REMARK Flexibility Score: inf
ROOT
ATOM      1  C   UNL A   1      31.998  28.168  27.266  1.00  0.00     0.023 C 
ENDROOT
BRANCH   1   2
ATOM      2  C   UNL A   1      31.405  27.155  26.290  1.00  0.00     0.116 C 
BRANCH   2   3
ATOM      3  N   UNL A   1      30.923  27.774  25.087  1.00  0.00    -0.352 N 
ATOM      4  C   UNL A   1      31.179  27.589  23.758  1.00  0.00     0.255 C 
ATOM      5  O   UNL A   1      30.585  28.380  23.017  1.00  0.00    -0.269 OA
ATOM      6  H   UNL A   1      30.265  28.488  25.256  1.00  0.00     0.163 HD
BRANCH   4   7
ATOM      7  C   UNL A   1      32.036  26.566  23.155  1.00  0.00     0.090 A 
ATOM      8  C   UNL A   1      32.100  25.168  23.098  1.00  0.00     0.138 A 
ATOM      9  N   UNL A   1      33.006  24.895  22.096  1.00  0.00    -0.262 N 
ATOM     10  C   UNL A   1      33.130  26.963  22.324  1.00  0.00     0.149 A 
ATOM     11  N   UNL A   1      33.748  25.947  21.727  1.00  0.00    -0.180 NA
ATOM     12  C   UNL A   1      33.173  23.663  21.355  1.00  0.00     0.174 C 
BRANCH   8  13
ATOM     13  C   UNL A   1      31.274  24.139  23.644  1.00  0.00     0.270 C 
ATOM     14  N   UNL A   1      31.539  23.583  24.869  1.00  0.00    -0.348 N 
ATOM     15  H   UNL A   1      30.840  22.939  25.126  1.00  0.00     0.164 HD
ATOM     16  O   UNL A   1      30.304  23.694  23.031  1.00  0.00    -0.267 OA
BRANCH  14  17
ATOM     17  C   UNL A   1      32.582  23.680  25.909  1.00  0.00     0.085 C 
ATOM     18  C   UNL A   1      32.095  23.317  27.309  1.00  0.00     0.031 C 
BRANCH  17  19
ATOM     19  C   UNL A   1      34.031  23.160  25.560  1.00  0.00    -0.009 C 
ATOM     20  C   UNL A   1      34.867  24.355  25.004  1.00  0.00     0.012 C 
ATOM     21  C   UNL A   1      34.022  22.074  24.466  1.00  0.00     0.012 C 
ATOM     22  C   UNL A   1      34.795  22.576  26.781  1.00  0.00     0.012 C 
ATOM     23  C   UNL A   1      36.289  23.924  24.613  1.00  0.00    -0.010 C 
ATOM     24  C   UNL A   1      35.438  21.634  24.060  1.00  0.00    -0.010 C 
ATOM     25  C   UNL A   1      36.224  22.140  26.389  1.00  0.00    -0.010 C 
ATOM     26  C   UNL A   1      36.999  23.355  25.850  1.00  0.00     0.007 C 
ATOM     27  C   UNL A   1      36.210  22.843  23.525  1.00  0.00     0.007 C 
ATOM     28  C   UNL A   1      36.155  21.066  25.294  1.00  0.00     0.007 C 
ENDBRANCH  17  19
ENDBRANCH  14  17
ENDBRANCH   8  13
ENDBRANCH   4   7
ENDBRANCH   2   3
ENDBRANCH   1   2
BRANCH   1  29
ATOM     29  C   UNL A   1      31.799  29.625  26.893  1.00  0.00     0.023 C 
BRANCH  29  30
ATOM     30  C   UNL A   1      33.087  30.376  26.592  1.00  0.00     0.116 C 
BRANCH  30  31
ATOM     31  N   UNL A   1      33.171  31.685  27.238  1.00  0.00    -0.352 N 
ATOM     32  C   UNL A   1      34.155  32.209  28.047  1.00  0.00     0.251 C 
ATOM     33  H   UNL A   1      32.407  32.283  27.069  1.00  0.00     0.163 HD
ATOM     34  O   UNL A   1      33.995  33.291  28.599  1.00  0.00    -0.269 OA
BRANCH  32  35
ATOM     35  C   UNL A   1      35.380  31.417  28.276  1.00  0.00     0.039 A 
ATOM     36  C   UNL A   1      36.628  32.020  28.118  1.00  0.00     0.014 A 
ATOM     37  C   UNL A   1      35.277  30.118  28.771  1.00  0.00     0.014 A 
ATOM     38  C   UNL A   1      37.768  31.363  28.589  1.00  0.00     0.010 A 
ATOM     39  C   UNL A   1      36.388  29.528  29.351  1.00  0.00     0.010 A 
ATOM     40  C   UNL A   1      37.646  30.148  29.281  1.00  0.00    -0.014 A 
BRANCH  40  41
ATOM     41  C   UNL A   1      38.798  29.498  29.961  1.00  0.00     0.031 A 
ATOM     42  C   UNL A   1      39.223  29.983  31.320  1.00  0.00     0.074 A 
ATOM     43  C   UNL A   1      39.543  28.585  29.306  1.00  0.00     0.049 A 
ATOM     44  N   UNL A   1      40.316  29.727  31.992  1.00  0.00    -0.248 NA
ATOM     45  C   UNL A   1      38.324  30.944  31.976  1.00  0.00     0.031 C 
ATOM     46  C   UNL A   1      39.288  28.089  27.951  1.00  0.00     0.029 A 
ATOM     47  N   UNL A   1      40.688  27.930  29.685  1.00  0.00    -0.354 N 
ATOM     48  C   UNL A   1      40.260  30.537  33.122  1.00  0.00     0.074 A 
ATOM     49  C   UNL A   1      39.062  31.341  32.998  1.00  0.00     0.031 C 
ATOM     50  C   UNL A   1      40.235  27.196  27.621  1.00  0.00     0.029 A 
ATOM     51  C   UNL A   1      41.191  27.091  28.717  1.00  0.00     0.049 A 
ATOM     52  H   UNL A   1      41.111  28.050  30.565  1.00  0.00     0.167 HD
ATOM     53  C   UNL A   1      41.109  30.585  34.178  1.00  0.00     0.034 A 
ATOM     54  C   UNL A   1      42.306  26.337  28.706  1.00  0.00     0.034 A 
ATOM     55  C   UNL A   1      42.271  29.738  34.303  1.00  0.00     0.049 A 
ATOM     56  C   UNL A   1      43.206  26.350  29.912  1.00  0.00     0.074 A 
ATOM     57  C   UNL A   1      43.160  29.639  35.358  1.00  0.00     0.029 A 
ATOM     58  N   UNL A   1      42.700  28.837  33.336  1.00  0.00    -0.354 N 
ATOM     59  N   UNL A   1      43.119  27.085  30.996  1.00  0.00    -0.248 NA
ATOM     60  C   UNL A   1      44.345  25.425  29.898  1.00  0.00     0.031 C 
ATOM     61  C   UNL A   1      44.150  28.709  35.012  1.00  0.00     0.029 A 
ATOM     62  C   UNL A   1      43.846  28.186  33.765  1.00  0.00     0.049 A 
ATOM     63  H   UNL A   1      42.255  28.683  32.472  1.00  0.00     0.167 HD
ATOM     64  C   UNL A   1      44.184  26.696  31.804  1.00  0.00     0.074 A 
ATOM     65  C   UNL A   1      44.890  25.654  31.085  1.00  0.00     0.031 C 
ATOM     66  C   UNL A   1      44.543  27.157  33.029  1.00  0.00     0.034 A 
BRANCH  53  67
ATOM     67  C   UNL A   1      40.805  31.599  35.257  1.00  0.00     0.023 A 
ATOM     68  C   UNL A   1      39.696  31.453  36.110  1.00  0.00     0.031 A 
ATOM     69  C   UNL A   1      41.572  32.770  35.377  1.00  0.00     0.131 A 
ATOM     70  C   UNL A   1      39.312  32.509  36.948  1.00  0.00     0.055 A 
ATOM     71  C   UNL A   1      41.245  33.774  36.292  1.00  0.00     0.041 A 
ATOM     72  F   UNL A   1      42.635  32.977  34.583  1.00  0.00    -0.206 F 
ATOM     73  C   UNL A   1      40.093  33.659  37.066  1.00  0.00     0.022 A 
BRANCH  70  74
ATOM     74  S   UNL A   1      37.672  32.437  37.721  1.00  0.00     0.124 S 
ATOM     75  O   UNL A   1      37.877  33.246  38.920  1.00  0.00    -0.237 OA
ATOM     76  O   UNL A   1      36.815  33.021  36.696  1.00  0.00    -0.237 OA
ATOM     77  O   UNL A   1      37.470  31.012  37.967  1.00  0.00    -0.744 OA
ENDBRANCH  70  74
ENDBRANCH  53  67
BRANCH  54  78
ATOM     78  C   UNL A   1      42.638  25.510  27.513  1.00  0.00     0.023 A 
ATOM     79  C   UNL A   1      42.213  24.176  27.420  1.00  0.00     0.031 A 
ATOM     80  C   UNL A   1      43.384  26.045  26.449  1.00  0.00     0.131 A 
ATOM     81  C   UNL A   1      42.565  23.408  26.299  1.00  0.00     0.055 A 
ATOM     82  C   UNL A   1      43.700  25.288  25.320  1.00  0.00     0.041 A 
ATOM     83  F   UNL A   1      43.796  27.323  26.485  1.00  0.00    -0.206 F 
ATOM     84  C   UNL A   1      43.298  23.959  25.244  1.00  0.00     0.022 A 
BRANCH  81  85
ATOM     85  S   UNL A   1      42.081  21.661  26.255  1.00  0.00     0.124 S 
ATOM     86  O   UNL A   1      42.427  21.222  27.602  1.00  0.00    -0.237 OA
ATOM     87  O   UNL A   1      40.656  21.748  25.955  1.00  0.00    -0.237 OA
ATOM     88  O   UNL A   1      42.906  21.105  25.185  1.00  0.00    -0.744 OA
ENDBRANCH  81  85
ENDBRANCH  54  78
BRANCH  66  89
ATOM     89  C   UNL A   1      45.730  26.499  33.680  1.00  0.00     0.023 A 
ATOM     90  C   UNL A   1      45.594  25.349  34.476  1.00  0.00     0.031 A 
ATOM     91  C   UNL A   1      47.017  27.037  33.502  1.00  0.00     0.131 A 
ATOM     92  C   UNL A   1      46.722  24.799  35.104  1.00  0.00     0.055 A 
ATOM     93  C   UNL A   1      48.142  26.457  34.089  1.00  0.00     0.041 A 
ATOM     94  F   UNL A   1      47.200  28.135  32.751  1.00  0.00    -0.206 F 
ATOM     95  C   UNL A   1      47.996  25.338  34.903  1.00  0.00     0.022 A 
BRANCH  92  96
ATOM     96  S   UNL A   1      46.494  23.409  36.245  1.00  0.00     0.124 S 
ATOM     97  O   UNL A   1      47.668  22.589  35.964  1.00  0.00    -0.237 OA
ATOM     98  O   UNL A   1      46.476  24.072  37.546  1.00  0.00    -0.237 OA
ATOM     99  O   UNL A   1      45.219  22.828  35.830  1.00  0.00    -0.744 OA
ENDBRANCH  92  96
ENDBRANCH  66  89
ENDBRANCH  40  41
ENDBRANCH  32  35
ENDBRANCH  30  31
ENDBRANCH  29  30
ENDBRANCH   1  29
TORSDOF 17
ENDMDL
