MODEL 1
REMARK VINA RESULT:     -10.7      0.000      0.000
REMARK SMILES CCOc1ccc(NC(=O)N(C)CCCC(=O)NCCCCNC(=O)c2ccc(-c3c4nc(c(-c5cc(S(=O)(=O)[O-])ccc5F)c5ccc([nH]5)c(-c5cc(S(=O)(=O)[O-])ccc5F)c5nc(c(-c6cc(S(=O)(=O)[O-])ccc6F)c6ccc3[nH]6)C=C5)C=C4)cc2)cn1
REMARK SMILES IDX 16 1 17 2 18 3 15 5 14 6 13 7 11 8 12 9 9 10 8 11 10 13 7 14
REMARK SMILES IDX 4 15 5 16 90 17 6 18 89 19 3 20 2 21 1 22 19 23 20 24 21 25
REMARK SMILES IDX 22 26 23 27 24 28 25 30 26 31 27 32 88 33 28 34 87 35 29 36
REMARK SMILES IDX 30 37 31 38 81 39 32 40 86 41 80 42 82 43 33 44 85 45 79 46
REMARK SMILES IDX 78 47 34 49 66 50 46 51 65 52 47 53 50 54 64 55 83 56 48 57
REMARK SMILES IDX 49 58 63 60 84 61 51 62 35 63 36 64 44 65 37 66 43 67 45 68
REMARK SMILES IDX 42 69 38 70 39 71 40 72 41 73 67 74 68 75 76 76 69 77 75 78
REMARK SMILES IDX 77 79 74 80 70 81 71 82 72 83 73 84 52 85 53 86 61 87 54 88
REMARK SMILES IDX 60 89 62 90 59 91 55 92 56 93 57 94 58 95
REMARK H PARENT 18 4 8 12 23 29 82 48 50 59
REMARK Flexibility Score: inf
ROOT
ATOM      1  C   UNL A   1      31.431  25.781  26.394  1.00  0.00     0.220 C 
ATOM      2  O   UNL A   1      30.594  24.954  26.023  1.00  0.00    -0.275 OA
ATOM      3  N   UNL A   1      30.994  26.841  27.129  1.00  0.00    -0.356 N 
ATOM      4  H   UNL A   1      30.051  26.790  27.407  1.00  0.00     0.163 HD
ENDROOT
BRANCH   1   5
ATOM      5  C   UNL A   1      32.905  25.565  26.106  1.00  0.00     0.102 C 
BRANCH   5   6
ATOM      6  C   UNL A   1      33.497  24.165  26.332  1.00  0.00     0.031 C 
BRANCH   6   7
ATOM      7  C   UNL A   1      33.513  23.126  25.200  1.00  0.00     0.121 C 
BRANCH   7   8
ATOM      8  N   UNL A   1      33.096  23.507  23.834  1.00  0.00    -0.328 N 
ATOM      9  C   UNL A   1      31.769  23.047  23.450  1.00  0.00     0.148 C 
BRANCH   8  10
ATOM     10  C   UNL A   1      33.942  24.186  23.014  1.00  0.00     0.321 C 
ATOM     11  N   UNL A   1      33.653  25.329  22.373  1.00  0.00    -0.306 N 
ATOM     12  H   UNL A   1      34.269  25.468  21.619  1.00  0.00     0.171 HD
ATOM     13  O   UNL A   1      35.066  23.769  22.733  1.00  0.00    -0.248 OA
BRANCH  11  14
ATOM     14  C   UNL A   1      32.739  26.379  22.460  1.00  0.00     0.061 A 
ATOM     15  C   UNL A   1      31.177  28.615  22.495  1.00  0.00     0.213 A 
ATOM     16  C   UNL A   1      32.430  28.689  23.072  1.00  0.00     0.070 A 
ATOM     17  N   UNL A   1      30.630  27.478  22.021  1.00  0.00    -0.220 NA
ATOM     18  C   UNL A   1      33.225  27.555  23.036  1.00  0.00     0.033 A 
ATOM     19  C   UNL A   1      31.412  26.370  22.064  1.00  0.00     0.141 A 
BRANCH  15  20
ATOM     20  O   UNL A   1      30.435  29.760  22.358  1.00  0.00    -0.478 OA
BRANCH  20  21
ATOM     21  C   UNL A   1      29.558  29.915  23.481  1.00  0.00     0.228 C 
ATOM     22  C   UNL A   1      29.069  31.354  23.573  1.00  0.00     0.049 C 
ENDBRANCH  20  21
ENDBRANCH  15  20
ENDBRANCH  11  14
ENDBRANCH   8  10
ENDBRANCH   7   8
ENDBRANCH   6   7
ENDBRANCH   5   6
ENDBRANCH   1   5
BRANCH   3  23
ATOM     23  C   UNL A   1      31.694  28.032  27.566  1.00  0.00     0.116 C 
BRANCH  23  24
ATOM     24  C   UNL A   1      31.755  29.056  26.426  1.00  0.00     0.023 C 
BRANCH  24  25
ATOM     25  C   UNL A   1      31.435  30.483  26.848  1.00  0.00     0.023 C 
BRANCH  25  26
ATOM     26  C   UNL A   1      32.385  31.520  26.270  1.00  0.00     0.116 C 
BRANCH  26  27
ATOM     27  N   UNL A   1      32.264  32.833  26.893  1.00  0.00    -0.352 N 
ATOM     28  C   UNL A   1      33.131  33.427  27.782  1.00  0.00     0.251 C 
ATOM     29  H   UNL A   1      31.467  33.357  26.647  1.00  0.00     0.163 HD
ATOM     30  O   UNL A   1      32.855  34.505  28.299  1.00  0.00    -0.269 OA
BRANCH  28  31
ATOM     31  C   UNL A   1      34.369  32.707  28.142  1.00  0.00     0.039 A 
ATOM     32  C   UNL A   1      35.557  33.426  28.274  1.00  0.00     0.014 A 
ATOM     33  C   UNL A   1      34.316  31.350  28.468  1.00  0.00     0.014 A 
ATOM     34  C   UNL A   1      36.675  32.802  28.828  1.00  0.00     0.010 A 
ATOM     35  C   UNL A   1      35.401  30.759  29.102  1.00  0.00     0.010 A 
ATOM     36  C   UNL A   1      36.590  31.480  29.294  1.00  0.00    -0.014 A 
BRANCH  36  37
ATOM     37  C   UNL A   1      37.729  30.825  29.990  1.00  0.00     0.031 A 
ATOM     38  C   UNL A   1      38.027  31.176  31.422  1.00  0.00     0.074 A 
ATOM     39  C   UNL A   1      38.541  29.990  29.310  1.00  0.00     0.049 A 
ATOM     40  N   UNL A   1      39.031  30.809  32.174  1.00  0.00    -0.248 NA
ATOM     41  C   UNL A   1      37.089  32.099  32.078  1.00  0.00     0.031 C 
ATOM     42  C   UNL A   1      38.390  29.620  27.901  1.00  0.00     0.029 A 
ATOM     43  N   UNL A   1      39.664  29.310  29.711  1.00  0.00    -0.354 N 
ATOM     44  C   UNL A   1      38.860  31.475  33.382  1.00  0.00     0.074 A 
ATOM     45  C   UNL A   1      37.695  32.319  33.234  1.00  0.00     0.031 C 
ATOM     46  C   UNL A   1      39.365  28.761  27.564  1.00  0.00     0.029 A 
ATOM     47  C   UNL A   1      40.236  28.551  28.715  1.00  0.00     0.049 A 
ATOM     48  H   UNL A   1      40.027  29.361  30.624  1.00  0.00     0.167 HD
ATOM     49  C   UNL A   1      39.590  31.369  34.521  1.00  0.00     0.034 A 
ATOM     50  C   UNL A   1      41.342  27.780  28.728  1.00  0.00     0.034 A 
ATOM     51  C   UNL A   1      40.732  30.500  34.658  1.00  0.00     0.049 A 
ATOM     52  C   UNL A   1      42.133  27.668  30.007  1.00  0.00     0.074 A 
ATOM     53  C   UNL A   1      41.509  30.266  35.779  1.00  0.00     0.029 A 
ATOM     54  N   UNL A   1      41.264  29.721  33.638  1.00  0.00    -0.354 N 
ATOM     55  N   UNL A   1      41.928  28.264  31.160  1.00  0.00    -0.248 NA
ATOM     56  C   UNL A   1      43.296  26.773  29.991  1.00  0.00     0.031 C 
ATOM     57  C   UNL A   1      42.540  29.389  35.423  1.00  0.00     0.029 A 
ATOM     58  C   UNL A   1      42.370  29.022  34.098  1.00  0.00     0.049 A 
ATOM     59  H   UNL A   1      40.907  29.672  32.722  1.00  0.00     0.167 HD
ATOM     60  C   UNL A   1      42.919  27.788  32.014  1.00  0.00     0.074 A 
ATOM     61  C   UNL A   1      43.712  26.850  31.246  1.00  0.00     0.031 C 
ATOM     62  C   UNL A   1      43.151  28.094  33.316  1.00  0.00     0.034 A 
BRANCH  49  63
ATOM     63  C   UNL A   1      39.176  32.234  35.688  1.00  0.00     0.023 A 
ATOM     64  C   UNL A   1      39.659  33.546  35.840  1.00  0.00     0.031 A 
ATOM     65  C   UNL A   1      38.328  31.727  36.687  1.00  0.00     0.131 A 
ATOM     66  C   UNL A   1      39.367  34.270  37.005  1.00  0.00     0.055 A 
ATOM     67  C   UNL A   1      37.968  32.487  37.802  1.00  0.00     0.041 A 
ATOM     68  F   UNL A   1      37.849  30.475  36.608  1.00  0.00    -0.206 F 
ATOM     69  C   UNL A   1      38.504  33.760  37.976  1.00  0.00     0.022 A 
BRANCH  66  70
ATOM     70  S   UNL A   1      40.260  35.820  37.305  1.00  0.00     0.124 S 
ATOM     71  O   UNL A   1      41.649  35.395  37.141  1.00  0.00    -0.237 OA
ATOM     72  O   UNL A   1      39.733  36.695  36.265  1.00  0.00    -0.237 OA
ATOM     73  O   UNL A   1      39.883  36.174  38.671  1.00  0.00    -0.744 OA
ENDBRANCH  66  70
ENDBRANCH  49  63
BRANCH  50  74
ATOM     74  C   UNL A   1      41.772  27.051  27.502  1.00  0.00     0.023 A 
ATOM     75  C   UNL A   1      41.644  25.655  27.409  1.00  0.00     0.031 A 
ATOM     76  C   UNL A   1      42.354  27.733  26.419  1.00  0.00     0.131 A 
ATOM     77  C   UNL A   1      42.132  24.982  26.280  1.00  0.00     0.055 A 
ATOM     78  C   UNL A   1      42.793  27.063  25.276  1.00  0.00     0.041 A 
ATOM     79  F   UNL A   1      42.491  29.068  26.452  1.00  0.00    -0.206 F 
ATOM     80  C   UNL A   1      42.696  25.676  25.208  1.00  0.00     0.022 A 
BRANCH  77  81
ATOM     81  S   UNL A   1      42.088  23.167  26.264  1.00  0.00     0.124 S 
ATOM     82  O   UNL A   1      42.924  22.840  27.414  1.00  0.00    -0.237 OA
ATOM     83  O   UNL A   1      40.661  22.899  26.411  1.00  0.00    -0.237 OA
ATOM     84  O   UNL A   1      42.653  22.825  24.962  1.00  0.00    -0.744 OA
ENDBRANCH  77  81
ENDBRANCH  50  74
BRANCH  62  85
ATOM     85  C   UNL A   1      44.279  27.364  33.999  1.00  0.00     0.023 A 
ATOM     86  C   UNL A   1      44.109  26.078  34.541  1.00  0.00     0.031 A 
ATOM     87  C   UNL A   1      45.543  27.970  34.113  1.00  0.00     0.131 A 
ATOM     88  C   UNL A   1      45.171  25.461  35.218  1.00  0.00     0.055 A 
ATOM     89  C   UNL A   1      46.611  27.328  34.739  1.00  0.00     0.041 A 
ATOM     90  F   UNL A   1      45.758  29.198  33.613  1.00  0.00    -0.206 F 
ATOM     91  C   UNL A   1      46.425  26.071  35.307  1.00  0.00     0.022 A 
BRANCH  88  92
ATOM     92  S   UNL A   1      44.870  23.880  36.055  1.00  0.00     0.124 S 
ATOM     93  O   UNL A   1      46.059  23.115  35.696  1.00  0.00    -0.237 OA
ATOM     94  O   UNL A   1      44.769  24.282  37.454  1.00  0.00    -0.237 OA
ATOM     95  O   UNL A   1      43.624  23.407  35.456  1.00  0.00    -0.744 OA
ENDBRANCH  88  92
ENDBRANCH  62  85
ENDBRANCH  36  37
ENDBRANCH  28  31
ENDBRANCH  26  27
ENDBRANCH  25  26
ENDBRANCH  24  25
ENDBRANCH  23  24
ENDBRANCH   3  23
TORSDOF 21
ENDMDL
MODEL 2
REMARK VINA RESULT:     -10.7      1.169      7.817
REMARK SMILES CCOc1ccc(NC(=O)N(C)CCCC(=O)NCCCCNC(=O)c2ccc(-c3c4nc(c(-c5cc(S(=O)(=O)[O-])ccc5F)c5ccc([nH]5)c(-c5cc(S(=O)(=O)[O-])ccc5F)c5nc(c(-c6cc(S(=O)(=O)[O-])ccc6F)c6ccc3[nH]6)C=C5)C=C4)cc2)cn1
REMARK SMILES IDX 16 1 17 2 18 3 15 5 14 6 13 7 11 8 12 9 9 10 8 11 10 13 7 14
REMARK SMILES IDX 4 15 5 16 90 17 6 18 89 19 3 20 2 21 1 22 19 23 20 24 21 25
REMARK SMILES IDX 22 26 23 27 24 28 25 30 26 31 27 32 88 33 28 34 87 35 29 36
REMARK SMILES IDX 30 37 31 38 81 39 32 40 86 41 80 42 82 43 33 44 85 45 79 46
REMARK SMILES IDX 78 47 34 49 66 50 46 51 65 52 47 53 50 54 64 55 83 56 48 57
REMARK SMILES IDX 49 58 63 60 84 61 51 62 35 63 36 64 44 65 37 66 43 67 45 68
REMARK SMILES IDX 42 69 38 70 39 71 40 72 41 73 67 74 68 75 76 76 69 77 75 78
REMARK SMILES IDX 77 79 74 80 70 81 71 82 72 83 73 84 52 85 53 86 61 87 54 88
REMARK SMILES IDX 60 89 62 90 59 91 55 92 56 93 57 94 58 95
REMARK H PARENT 18 4 8 12 23 29 82 48 50 59
REMARK Flexibility Score: inf
ROOT
ATOM      1  C   UNL A   1      31.487  23.696  27.019  1.00  0.00     0.220 C 
ATOM      2  O   UNL A   1      30.544  22.908  27.132  1.00  0.00    -0.275 OA
ATOM      3  N   UNL A   1      31.197  25.011  26.820  1.00  0.00    -0.356 N 
ATOM      4  H   UNL A   1      30.243  25.240  26.905  1.00  0.00     0.163 HD
ENDROOT
BRANCH   1   5
ATOM      5  C   UNL A   1      32.916  23.212  27.185  1.00  0.00     0.102 C 
BRANCH   5   6
ATOM      6  C   UNL A   1      33.612  22.558  25.981  1.00  0.00     0.031 C 
BRANCH   6   7
ATOM      7  C   UNL A   1      33.046  22.723  24.561  1.00  0.00     0.121 C 
BRANCH   7   8
ATOM      8  N   UNL A   1      33.570  23.778  23.668  1.00  0.00    -0.328 N 
ATOM      9  C   UNL A   1      34.543  24.670  24.281  1.00  0.00     0.148 C 
BRANCH   8  10
ATOM     10  C   UNL A   1      33.107  23.902  22.395  1.00  0.00     0.321 C 
ATOM     11  N   UNL A   1      31.999  24.566  22.032  1.00  0.00    -0.306 N 
ATOM     12  H   UNL A   1      31.694  24.271  21.144  1.00  0.00     0.171 HD
ATOM     13  O   UNL A   1      33.651  23.351  21.438  1.00  0.00    -0.248 OA
BRANCH  11  14
ATOM     14  C   UNL A   1      31.152  25.550  22.539  1.00  0.00     0.061 A 
ATOM     15  C   UNL A   1      29.459  27.575  23.230  1.00  0.00     0.213 A 
ATOM     16  C   UNL A   1      30.574  27.890  22.477  1.00  0.00     0.070 A 
ATOM     17  N   UNL A   1      29.215  26.354  23.745  1.00  0.00    -0.220 NA
ATOM     18  C   UNL A   1      31.421  26.854  22.116  1.00  0.00     0.033 A 
ATOM     19  C   UNL A   1      30.102  25.378  23.427  1.00  0.00     0.141 A 
BRANCH  15  20
ATOM     20  O   UNL A   1      28.512  28.541  23.457  1.00  0.00    -0.478 OA
BRANCH  20  21
ATOM     21  C   UNL A   1      29.023  29.828  23.088  1.00  0.00     0.228 C 
ATOM     22  C   UNL A   1      28.022  30.916  23.451  1.00  0.00     0.049 C 
ENDBRANCH  20  21
ENDBRANCH  15  20
ENDBRANCH  11  14
ENDBRANCH   8  10
ENDBRANCH   7   8
ENDBRANCH   6   7
ENDBRANCH   5   6
ENDBRANCH   1   5
BRANCH   3  23
ATOM     23  C   UNL A   1      32.066  26.126  26.501  1.00  0.00     0.116 C 
BRANCH  23  24
ATOM     24  C   UNL A   1      31.246  27.417  26.388  1.00  0.00     0.023 C 
BRANCH  24  25
ATOM     25  C   UNL A   1      31.802  28.584  27.192  1.00  0.00     0.023 C 
BRANCH  25  26
ATOM     26  C   UNL A   1      32.661  29.536  26.375  1.00  0.00     0.116 C 
BRANCH  26  27
ATOM     27  N   UNL A   1      32.358  30.944  26.612  1.00  0.00    -0.352 N 
ATOM     28  C   UNL A   1      33.144  31.879  27.246  1.00  0.00     0.251 C 
ATOM     29  H   UNL A   1      31.487  31.261  26.280  1.00  0.00     0.163 HD
ATOM     30  O   UNL A   1      32.722  33.011  27.457  1.00  0.00    -0.269 OA
BRANCH  28  31
ATOM     31  C   UNL A   1      34.483  31.468  27.716  1.00  0.00     0.039 A 
ATOM     32  C   UNL A   1      35.471  32.438  27.878  1.00  0.00     0.014 A 
ATOM     33  C   UNL A   1      34.707  30.147  28.111  1.00  0.00     0.014 A 
ATOM     34  C   UNL A   1      36.659  32.102  28.530  1.00  0.00     0.010 A 
ATOM     35  C   UNL A   1      35.849  29.838  28.838  1.00  0.00     0.010 A 
ATOM     36  C   UNL A   1      36.834  30.813  29.061  1.00  0.00    -0.014 A 
BRANCH  36  37
ATOM     37  C   UNL A   1      38.038  30.457  29.856  1.00  0.00     0.031 A 
ATOM     38  C   UNL A   1      39.032  29.474  29.300  1.00  0.00     0.074 A 
ATOM     39  C   UNL A   1      38.189  30.945  31.104  1.00  0.00     0.049 A 
ATOM     40  N   UNL A   1      40.083  28.945  29.870  1.00  0.00    -0.248 NA
ATOM     41  C   UNL A   1      38.783  28.992  27.933  1.00  0.00     0.031 C 
ATOM     42  C   UNL A   1      37.260  31.859  31.775  1.00  0.00     0.029 A 
ATOM     43  N   UNL A   1      39.172  30.731  32.037  1.00  0.00    -0.354 N 
ATOM     44  C   UNL A   1      40.604  28.050  28.943  1.00  0.00     0.074 A 
ATOM     45  C   UNL A   1      39.713  28.060  27.804  1.00  0.00     0.031 C 
ATOM     46  C   UNL A   1      37.733  32.147  32.998  1.00  0.00     0.029 A 
ATOM     47  C   UNL A   1      38.972  31.409  33.219  1.00  0.00     0.049 A 
ATOM     48  H   UNL A   1      39.949  30.149  31.876  1.00  0.00     0.167 HD
ATOM     49  C   UNL A   1      41.739  27.310  29.022  1.00  0.00     0.034 A 
ATOM     50  C   UNL A   1      39.701  31.426  34.352  1.00  0.00     0.034 A 
ATOM     51  C   UNL A   1      42.629  27.334  30.155  1.00  0.00     0.049 A 
ATOM     52  C   UNL A   1      40.964  30.604  34.415  1.00  0.00     0.074 A 
ATOM     53  C   UNL A   1      43.835  26.676  30.319  1.00  0.00     0.029 A 
ATOM     54  N   UNL A   1      42.411  28.057  31.321  1.00  0.00    -0.354 N 
ATOM     55  N   UNL A   1      41.473  29.802  33.508  1.00  0.00    -0.248 NA
ATOM     56  C   UNL A   1      41.755  30.699  35.648  1.00  0.00     0.031 C 
ATOM     57  C   UNL A   1      44.317  26.957  31.603  1.00  0.00     0.029 A 
ATOM     58  C   UNL A   1      43.448  27.844  32.217  1.00  0.00     0.049 A 
ATOM     59  H   UNL A   1      41.633  28.636  31.488  1.00  0.00     0.167 HD
ATOM     60  C   UNL A   1      42.661  29.322  34.051  1.00  0.00     0.074 A 
ATOM     61  C   UNL A   1      42.797  29.934  35.357  1.00  0.00     0.031 C 
ATOM     62  C   UNL A   1      43.563  28.459  33.518  1.00  0.00     0.034 A 
BRANCH  49  63
ATOM     63  C   UNL A   1      42.053  26.404  27.855  1.00  0.00     0.023 A 
ATOM     64  C   UNL A   1      41.592  25.075  27.809  1.00  0.00     0.031 A 
ATOM     65  C   UNL A   1      42.863  26.854  26.799  1.00  0.00     0.131 A 
ATOM     66  C   UNL A   1      42.018  24.220  26.782  1.00  0.00     0.055 A 
ATOM     67  C   UNL A   1      43.210  26.023  25.732  1.00  0.00     0.041 A 
ATOM     68  F   UNL A   1      43.350  28.106  26.795  1.00  0.00    -0.206 F 
ATOM     69  C   UNL A   1      42.803  24.691  25.729  1.00  0.00     0.022 A 
BRANCH  66  70
ATOM     70  S   UNL A   1      41.662  22.449  26.931  1.00  0.00     0.124 S 
ATOM     71  O   UNL A   1      41.813  22.002  25.548  1.00  0.00    -0.237 OA
ATOM     72  O   UNL A   1      42.688  21.997  27.863  1.00  0.00    -0.237 OA
ATOM     73  O   UNL A   1      40.294  22.415  27.443  1.00  0.00    -0.744 OA
ENDBRANCH  66  70
ENDBRANCH  49  63
BRANCH  50  74
ATOM     74  C   UNL A   1      39.267  32.243  35.520  1.00  0.00     0.023 A 
ATOM     75  C   UNL A   1      39.723  33.561  35.689  1.00  0.00     0.031 A 
ATOM     76  C   UNL A   1      38.420  31.707  36.506  1.00  0.00     0.131 A 
ATOM     77  C   UNL A   1      39.368  34.282  36.838  1.00  0.00     0.055 A 
ATOM     78  C   UNL A   1      38.030  32.447  37.624  1.00  0.00     0.041 A 
ATOM     79  F   UNL A   1      37.947  30.456  36.388  1.00  0.00    -0.206 F 
ATOM     80  C   UNL A   1      38.516  33.739  37.802  1.00  0.00     0.022 A 
BRANCH  77  81
ATOM     81  S   UNL A   1      40.101  35.923  37.095  1.00  0.00     0.124 S 
ATOM     82  O   UNL A   1      39.738  36.606  35.859  1.00  0.00    -0.237 OA
ATOM     83  O   UNL A   1      39.417  36.373  38.303  1.00  0.00    -0.237 OA
ATOM     84  O   UNL A   1      41.524  35.638  37.257  1.00  0.00    -0.744 OA
ENDBRANCH  77  81
ENDBRANCH  50  74
BRANCH  62  85
ATOM     85  C   UNL A   1      44.798  28.170  34.332  1.00  0.00     0.023 A 
ATOM     86  C   UNL A   1      44.854  27.097  35.238  1.00  0.00     0.031 A 
ATOM     87  C   UNL A   1      45.934  28.989  34.202  1.00  0.00     0.131 A 
ATOM     88  C   UNL A   1      46.005  26.900  36.016  1.00  0.00     0.055 A 
ATOM     89  C   UNL A   1      47.096  28.755  34.938  1.00  0.00     0.041 A 
ATOM     90  F   UNL A   1      45.932  30.029  33.352  1.00  0.00    -0.206 F 
ATOM     91  C   UNL A   1      47.130  27.714  35.861  1.00  0.00     0.022 A 
BRANCH  88  92
ATOM     92  S   UNL A   1      45.983  25.616  37.296  1.00  0.00     0.124 S 
ATOM     93  O   UNL A   1      44.565  25.546  37.632  1.00  0.00    -0.237 OA
ATOM     94  O   UNL A   1      46.526  24.461  36.588  1.00  0.00    -0.237 OA
ATOM     95  O   UNL A   1      46.844  26.160  38.344  1.00  0.00    -0.744 OA
ENDBRANCH  88  92
ENDBRANCH  62  85
ENDBRANCH  36  37
ENDBRANCH  28  31
ENDBRANCH  26  27
ENDBRANCH  25  26
ENDBRANCH  24  25
ENDBRANCH  23  24
ENDBRANCH   3  23
TORSDOF 21
ENDMDL
MODEL 3
REMARK VINA RESULT:     -10.6      4.853     10.199
REMARK SMILES CCOc1ccc(NC(=O)N(C)CCCC(=O)NCCCCNC(=O)c2ccc(-c3c4nc(c(-c5cc(S(=O)(=O)[O-])ccc5F)c5ccc([nH]5)c(-c5cc(S(=O)(=O)[O-])ccc5F)c5nc(c(-c6cc(S(=O)(=O)[O-])ccc6F)c6ccc3[nH]6)C=C5)C=C4)cc2)cn1
REMARK SMILES IDX 16 1 17 2 18 3 15 5 14 6 13 7 11 8 12 9 9 10 8 11 10 13 7 14
REMARK SMILES IDX 4 15 5 16 90 17 6 18 89 19 3 20 2 21 1 22 19 23 20 24 21 25
REMARK SMILES IDX 22 26 23 27 24 28 25 30 26 31 27 32 88 33 28 34 87 35 29 36
REMARK SMILES IDX 30 37 31 38 81 39 32 40 86 41 80 42 82 43 33 44 85 45 79 46
REMARK SMILES IDX 78 47 34 49 66 50 46 51 65 52 47 53 50 54 64 55 83 56 48 57
REMARK SMILES IDX 49 58 63 60 84 61 51 62 35 63 36 64 44 65 37 66 43 67 45 68
REMARK SMILES IDX 42 69 38 70 39 71 40 72 41 73 67 74 68 75 76 76 69 77 75 78
REMARK SMILES IDX 77 79 74 80 70 81 71 82 72 83 73 84 52 85 53 86 61 87 54 88
REMARK SMILES IDX 60 89 62 90 59 91 55 92 56 93 57 94 58 95
REMARK H PARENT 18 4 8 12 23 29 82 48 50 59
REMARK Flexibility Score: inf
ROOT
ATOM      1  C   UNL A   1      33.178  19.038  24.078  1.00  0.00     0.220 C 
ATOM      2  O   UNL A   1      33.337  17.909  23.605  1.00  0.00    -0.275 OA
ATOM      3  N   UNL A   1      33.993  19.421  25.099  1.00  0.00    -0.356 N 
ATOM      4  H   UNL A   1      34.730  18.799  25.293  1.00  0.00     0.163 HD
ENDROOT
BRANCH   1   5
ATOM      5  C   UNL A   1      32.160  19.987  23.473  1.00  0.00     0.102 C 
BRANCH   5   6
ATOM      6  C   UNL A   1      32.655  21.326  22.905  1.00  0.00     0.031 C 
BRANCH   6   7
ATOM      7  C   UNL A   1      31.813  22.603  23.053  1.00  0.00     0.121 C 
BRANCH   7   8
ATOM      8  N   UNL A   1      31.973  23.467  24.242  1.00  0.00    -0.328 N 
ATOM      9  C   UNL A   1      33.284  24.085  24.377  1.00  0.00     0.148 C 
BRANCH   8  10
ATOM     10  C   UNL A   1      30.964  23.599  25.145  1.00  0.00     0.321 C 
ATOM     11  N   UNL A   1      30.276  24.726  25.382  1.00  0.00    -0.306 N 
ATOM     12  H   UNL A   1      29.830  24.681  26.258  1.00  0.00     0.171 HD
ATOM     13  O   UNL A   1      30.619  22.680  25.889  1.00  0.00    -0.248 OA
BRANCH  11  14
ATOM     14  C   UNL A   1      30.004  25.941  24.755  1.00  0.00     0.061 A 
ATOM     15  C   UNL A   1      29.754  28.287  23.385  1.00  0.00     0.213 A 
ATOM     16  C   UNL A   1      30.890  28.100  24.150  1.00  0.00     0.070 A 
ATOM     17  N   UNL A   1      28.708  27.438  23.366  1.00  0.00    -0.220 NA
ATOM     18  C   UNL A   1      31.018  26.899  24.830  1.00  0.00     0.033 A 
ATOM     19  C   UNL A   1      28.839  26.303  24.098  1.00  0.00     0.141 A 
BRANCH  15  20
ATOM     20  O   UNL A   1      29.674  29.384  22.566  1.00  0.00    -0.478 OA
BRANCH  20  21
ATOM     21  C   UNL A   1      29.177  30.511  23.298  1.00  0.00     0.228 C 
ATOM     22  C   UNL A   1      27.716  30.763  22.949  1.00  0.00     0.049 C 
ENDBRANCH  20  21
ENDBRANCH  15  20
ENDBRANCH  11  14
ENDBRANCH   8  10
ENDBRANCH   7   8
ENDBRANCH   6   7
ENDBRANCH   5   6
ENDBRANCH   1   5
BRANCH   3  23
ATOM     23  C   UNL A   1      33.948  20.596  25.945  1.00  0.00     0.116 C 
BRANCH  23  24
ATOM     24  C   UNL A   1      35.337  21.243  26.023  1.00  0.00     0.023 C 
BRANCH  24  25
ATOM     25  C   UNL A   1      35.930  21.615  24.672  1.00  0.00     0.023 C 
BRANCH  25  26
ATOM     26  C   UNL A   1      37.417  21.934  24.724  1.00  0.00     0.116 C 
BRANCH  26  27
ATOM     27  N   UNL A   1      38.233  20.833  25.223  1.00  0.00    -0.352 N 
ATOM     28  C   UNL A   1      39.301  20.900  26.088  1.00  0.00     0.251 C 
ATOM     29  H   UNL A   1      37.989  19.934  24.901  1.00  0.00     0.163 HD
ATOM     30  O   UNL A   1      39.956  19.897  26.351  1.00  0.00    -0.269 OA
BRANCH  28  31
ATOM     31  C   UNL A   1      39.673  22.217  26.642  1.00  0.00     0.039 A 
ATOM     32  C   UNL A   1      40.771  22.306  27.497  1.00  0.00     0.014 A 
ATOM     33  C   UNL A   1      39.010  23.368  26.209  1.00  0.00     0.014 A 
ATOM     34  C   UNL A   1      41.266  23.564  27.844  1.00  0.00     0.010 A 
ATOM     35  C   UNL A   1      39.558  24.614  26.482  1.00  0.00     0.010 A 
ATOM     36  C   UNL A   1      40.696  24.725  27.297  1.00  0.00    -0.014 A 
BRANCH  36  37
ATOM     37  C   UNL A   1      41.270  26.071  27.559  1.00  0.00     0.031 A 
ATOM     38  C   UNL A   1      42.629  26.419  27.018  1.00  0.00     0.074 A 
ATOM     39  C   UNL A   1      40.610  26.940  28.353  1.00  0.00     0.049 A 
ATOM     40  N   UNL A   1      43.354  27.487  27.221  1.00  0.00    -0.248 NA
ATOM     41  C   UNL A   1      43.273  25.407  26.167  1.00  0.00     0.031 C 
ATOM     42  C   UNL A   1      39.312  26.694  28.986  1.00  0.00     0.029 A 
ATOM     43  N   UNL A   1      40.948  28.202  28.773  1.00  0.00    -0.354 N 
ATOM     44  C   UNL A   1      44.550  27.265  26.547  1.00  0.00     0.074 A 
ATOM     45  C   UNL A   1      44.474  25.932  25.987  1.00  0.00     0.031 C 
ATOM     46  C   UNL A   1      38.953  27.779  29.690  1.00  0.00     0.029 A 
ATOM     47  C   UNL A   1      40.008  28.781  29.597  1.00  0.00     0.049 A 
ATOM     48  H   UNL A   1      41.783  28.652  28.510  1.00  0.00     0.167 HD
ATOM     49  C   UNL A   1      45.602  28.105  26.382  1.00  0.00     0.034 A 
ATOM     50  C   UNL A   1      40.005  29.981  30.212  1.00  0.00     0.034 A 
ATOM     51  C   UNL A   1      45.647  29.441  26.925  1.00  0.00     0.049 A 
ATOM     52  C   UNL A   1      41.179  30.904  30.008  1.00  0.00     0.074 A 
ATOM     53  C   UNL A   1      46.631  30.402  26.771  1.00  0.00     0.029 A 
ATOM     54  N   UNL A   1      44.663  30.006  27.726  1.00  0.00    -0.354 N 
ATOM     55  N   UNL A   1      42.280  30.701  29.322  1.00  0.00    -0.248 NA
ATOM     56  C   UNL A   1      41.105  32.222  30.651  1.00  0.00     0.031 C 
ATOM     57  C   UNL A   1      46.268  31.525  27.524  1.00  0.00     0.029 A 
ATOM     58  C   UNL A   1      45.027  31.292  28.093  1.00  0.00     0.049 A 
ATOM     59  H   UNL A   1      43.829  29.557  27.996  1.00  0.00     0.167 HD
ATOM     60  C   UNL A   1      43.015  31.879  29.426  1.00  0.00     0.074 A 
ATOM     61  C   UNL A   1      42.225  32.789  30.230  1.00  0.00     0.031 C 
ATOM     62  C   UNL A   1      44.228  32.184  28.900  1.00  0.00     0.034 A 
BRANCH  49  63
ATOM     63  C   UNL A   1      46.786  27.585  25.603  1.00  0.00     0.023 A 
ATOM     64  C   UNL A   1      47.060  28.029  24.296  1.00  0.00     0.031 A 
ATOM     65  C   UNL A   1      47.625  26.600  26.150  1.00  0.00     0.131 A 
ATOM     66  C   UNL A   1      48.082  27.425  23.550  1.00  0.00     0.055 A 
ATOM     67  C   UNL A   1      48.697  26.066  25.434  1.00  0.00     0.041 A 
ATOM     68  F   UNL A   1      47.403  26.122  27.386  1.00  0.00    -0.206 F 
ATOM     69  C   UNL A   1      48.920  26.464  24.118  1.00  0.00     0.022 A 
BRANCH  66  70
ATOM     70  S   UNL A   1      48.195  27.799  21.780  1.00  0.00     0.124 S 
ATOM     71  O   UNL A   1      46.847  28.287  21.496  1.00  0.00    -0.237 OA
ATOM     72  O   UNL A   1      49.258  28.796  21.734  1.00  0.00    -0.237 OA
ATOM     73  O   UNL A   1      48.522  26.509  21.177  1.00  0.00    -0.744 OA
ENDBRANCH  66  70
ENDBRANCH  49  63
BRANCH  50  74
ATOM     74  C   UNL A   1      38.860  30.386  31.076  1.00  0.00     0.023 A 
ATOM     75  C   UNL A   1      37.729  31.014  30.528  1.00  0.00     0.031 A 
ATOM     76  C   UNL A   1      38.895  30.186  32.467  1.00  0.00     0.131 A 
ATOM     77  C   UNL A   1      36.701  31.461  31.371  1.00  0.00     0.055 A 
ATOM     78  C   UNL A   1      37.847  30.589  33.296  1.00  0.00     0.041 A 
ATOM     79  F   UNL A   1      39.948  29.581  33.040  1.00  0.00    -0.206 F 
ATOM     80  C   UNL A   1      36.746  31.243  32.750  1.00  0.00     0.022 A 
BRANCH  77  81
ATOM     81  S   UNL A   1      35.331  32.403  30.645  1.00  0.00     0.124 S 
ATOM     82  O   UNL A   1      35.959  33.696  30.395  1.00  0.00    -0.237 OA
ATOM     83  O   UNL A   1      35.008  31.607  29.465  1.00  0.00    -0.237 OA
ATOM     84  O   UNL A   1      34.316  32.394  31.696  1.00  0.00    -0.744 OA
ENDBRANCH  77  81
ENDBRANCH  50  74
BRANCH  62  85
ATOM     85  C   UNL A   1      44.746  33.579  29.141  1.00  0.00     0.023 A 
ATOM     86  C   UNL A   1      44.237  34.689  28.445  1.00  0.00     0.031 A 
ATOM     87  C   UNL A   1      45.771  33.797  30.079  1.00  0.00     0.131 A 
ATOM     88  C   UNL A   1      44.789  35.961  28.660  1.00  0.00     0.055 A 
ATOM     89  C   UNL A   1      46.278  35.073  30.329  1.00  0.00     0.041 A 
ATOM     90  F   UNL A   1      46.293  32.771  30.770  1.00  0.00    -0.206 F 
ATOM     91  C   UNL A   1      45.795  36.161  29.609  1.00  0.00     0.022 A 
BRANCH  88  92
ATOM     92  S   UNL A   1      44.230  37.340  27.624  1.00  0.00     0.124 S 
ATOM     93  O   UNL A   1      43.340  36.671  26.682  1.00  0.00    -0.237 OA
ATOM     94  O   UNL A   1      43.587  38.219  28.595  1.00  0.00    -0.237 OA
ATOM     95  O   UNL A   1      45.468  37.859  27.046  1.00  0.00    -0.744 OA
ENDBRANCH  88  92
ENDBRANCH  62  85
ENDBRANCH  36  37
ENDBRANCH  28  31
ENDBRANCH  26  27
ENDBRANCH  25  26
ENDBRANCH  24  25
ENDBRANCH  23  24
ENDBRANCH   3  23
TORSDOF 21
ENDMDL
