MODEL 1
REMARK VINA RESULT:     -11.5      0.000      0.000
REMARK SMILES Cc1nc(S(=O)(=O)N[C@H]2C=C[C@H](C(=O)NCCCCNC(=O)c3ccc(-c4c5nc(c(-c6cc(S(=O)(=O)[O-])ccc6F)c6ccc([nH]6)c(-c6cc(S(=O)(=O)[O-])ccc6F)c6nc(c(-c7cc(S(=O)(=O)[O-])ccc7F)c7ccc4[nH]7)C=C6)C=C5)cc3)C2)cn1C
REMARK SMILES IDX 17 1 16 2 15 3 13 4 14 5 12 7 9 8 10 9 86 10 11 11 8 12 5 14
REMARK SMILES IDX 6 15 7 16 4 17 1 18 2 19 3 20 88 21 87 22 89 23 18 24 19 25
REMARK SMILES IDX 20 26 21 27 22 29 23 30 24 31 85 32 25 33 84 34 26 35 27 36
REMARK SMILES IDX 28 37 78 38 29 39 83 40 77 41 79 42 30 43 82 44 76 45 75 46
REMARK SMILES IDX 31 48 63 49 43 50 62 51 44 52 47 53 61 54 80 55 45 56 46 57
REMARK SMILES IDX 60 59 81 60 48 61 32 62 33 63 41 64 34 65 40 66 42 67 39 68
REMARK SMILES IDX 35 69 36 70 37 71 38 72 64 73 65 74 73 75 66 76 72 77 74 78
REMARK SMILES IDX 71 79 67 80 68 81 69 82 70 83 49 84 50 85 58 86 51 87 57 88
REMARK SMILES IDX 59 89 56 90 52 91 53 92 54 93 55 94
REMARK H PARENT 15 6 8 13 20 28 79 47 47 58
REMARK Flexibility Score: inf
ROOT
ATOM      1  C   UNL A   1      31.405  30.894  26.136  1.00  0.00     0.023 C 
ENDROOT
BRANCH   1   2
ATOM      2  C   UNL A   1      32.574  30.089  26.702  1.00  0.00     0.116 C 
BRANCH   2   3
ATOM      3  N   UNL A   1      33.276  29.340  25.673  1.00  0.00    -0.356 N 
ATOM      4  C   UNL A   1      32.970  28.123  25.124  1.00  0.00     0.226 C 
ATOM      5  O   UNL A   1      33.706  27.676  24.246  1.00  0.00    -0.274 OA
ATOM      6  H   UNL A   1      34.088  29.769  25.320  1.00  0.00     0.163 HD
BRANCH   4   7
ATOM      7  C   UNL A   1      31.735  27.379  25.640  1.00  0.00     0.103 C 
ATOM      8  C   UNL A   1      31.690  24.981  25.105  1.00  0.00     0.093 C 
ATOM      9  C   UNL A   1      30.693  25.740  24.304  1.00  0.00    -0.011 C 
ATOM     10  C   UNL A   1      32.111  25.995  26.179  1.00  0.00     0.042 C 
ATOM     11  C   UNL A   1      30.735  27.049  24.571  1.00  0.00    -0.016 C 
BRANCH   8  12
ATOM     12  N   UNL A   1      31.065  23.843  25.774  1.00  0.00    -0.203 NA
ATOM     13  H   UNL A   1      30.614  24.195  26.618  1.00  0.00     0.142 HD
BRANCH  12  14
ATOM     14  S   UNL A   1      32.064  22.560  26.233  1.00  0.00     0.260 S 
ATOM     15  O   UNL A   1      31.581  21.376  25.560  1.00  0.00    -0.205 OA
ATOM     16  O   UNL A   1      32.173  22.639  27.674  1.00  0.00    -0.205 OA
BRANCH  14  17
ATOM     17  C   UNL A   1      33.682  22.823  25.633  1.00  0.00     0.188 A 
ATOM     18  C   UNL A   1      37.118  23.837  26.047  1.00  0.00     0.088 C 
ATOM     19  C   UNL A   1      35.776  23.350  25.633  1.00  0.00     0.106 A 
ATOM     20  N   UNL A   1      34.708  23.339  26.405  1.00  0.00    -0.221 NA
ATOM     21  N   UNL A   1      35.477  22.846  24.388  1.00  0.00    -0.337 N 
ATOM     22  C   UNL A   1      34.142  22.546  24.361  1.00  0.00     0.129 A 
ATOM     23  C   UNL A   1      36.401  22.632  23.300  1.00  0.00     0.151 C 
ENDBRANCH  14  17
ENDBRANCH  12  14
ENDBRANCH   8  12
ENDBRANCH   4   7
ENDBRANCH   2   3
ENDBRANCH   1   2
BRANCH   1  24
ATOM     24  C   UNL A   1      31.366  32.366  26.556  1.00  0.00     0.023 C 
BRANCH  24  25
ATOM     25  C   UNL A   1      32.642  32.900  27.199  1.00  0.00     0.116 C 
BRANCH  25  26
ATOM     26  N   UNL A   1      32.471  34.218  27.786  1.00  0.00    -0.352 N 
ATOM     27  C   UNL A   1      33.163  34.801  28.823  1.00  0.00     0.251 C 
ATOM     28  H   UNL A   1      31.762  34.772  27.386  1.00  0.00     0.163 HD
ATOM     29  O   UNL A   1      32.784  35.878  29.272  1.00  0.00    -0.269 OA
BRANCH  27  30
ATOM     30  C   UNL A   1      34.332  34.111  29.415  1.00  0.00     0.039 A 
ATOM     31  C   UNL A   1      35.614  34.463  28.984  1.00  0.00     0.014 A 
ATOM     32  C   UNL A   1      34.168  33.128  30.396  1.00  0.00     0.014 A 
ATOM     33  C   UNL A   1      36.734  33.882  29.586  1.00  0.00     0.010 A 
ATOM     34  C   UNL A   1      35.285  32.600  31.040  1.00  0.00     0.010 A 
ATOM     35  C   UNL A   1      36.579  32.973  30.645  1.00  0.00    -0.014 A 
BRANCH  35  36
ATOM     36  C   UNL A   1      37.752  32.391  31.349  1.00  0.00     0.031 A 
ATOM     37  C   UNL A   1      38.507  31.245  30.730  1.00  0.00     0.074 A 
ATOM     38  C   UNL A   1      38.089  32.837  32.574  1.00  0.00     0.049 A 
ATOM     39  N   UNL A   1      39.472  30.519  31.232  1.00  0.00    -0.248 NA
ATOM     40  C   UNL A   1      38.090  30.845  29.379  1.00  0.00     0.031 C 
ATOM     41  C   UNL A   1      37.417  33.920  33.296  1.00  0.00     0.029 A 
ATOM     42  N   UNL A   1      39.072  32.425  33.440  1.00  0.00    -0.354 N 
ATOM     43  C   UNL A   1      39.769  29.563  30.266  1.00  0.00     0.074 A 
ATOM     44  C   UNL A   1      38.836  29.770  29.177  1.00  0.00     0.031 C 
ATOM     45  C   UNL A   1      38.016  34.095  34.484  1.00  0.00     0.029 A 
ATOM     46  C   UNL A   1      39.084  33.111  34.631  1.00  0.00     0.049 A 
ATOM     47  H   UNL A   1      39.709  31.705  33.226  1.00  0.00     0.167 HD
ATOM     48  C   UNL A   1      40.740  28.616  30.277  1.00  0.00     0.034 A 
ATOM     49  C   UNL A   1      39.856  32.956  35.724  1.00  0.00     0.034 A 
ATOM     50  C   UNL A   1      41.670  28.432  31.365  1.00  0.00     0.049 A 
ATOM     51  C   UNL A   1      40.917  31.884  35.725  1.00  0.00     0.074 A 
ATOM     52  C   UNL A   1      42.722  27.536  31.461  1.00  0.00     0.029 A 
ATOM     53  N   UNL A   1      41.659  29.156  32.551  1.00  0.00    -0.354 N 
ATOM     54  N   UNL A   1      41.206  31.008  34.791  1.00  0.00    -0.248 NA
ATOM     55  C   UNL A   1      41.760  31.788  36.924  1.00  0.00     0.031 C 
ATOM     56  C   UNL A   1      43.308  27.678  32.724  1.00  0.00     0.029 A 
ATOM     57  C   UNL A   1      42.668  28.710  33.392  1.00  0.00     0.049 A 
ATOM     58  H   UNL A   1      41.026  29.879  32.764  1.00  0.00     0.167 HD
ATOM     59  C   UNL A   1      42.286  30.277  35.279  1.00  0.00     0.074 A 
ATOM     60  C   UNL A   1      42.599  30.820  36.585  1.00  0.00     0.031 C 
ATOM     61  C   UNL A   1      42.963  29.255  34.696  1.00  0.00     0.034 A 
BRANCH  48  62
ATOM     62  C   UNL A   1      40.815  27.695  29.083  1.00  0.00     0.023 A 
ATOM     63  C   UNL A   1      41.775  27.877  28.071  1.00  0.00     0.031 A 
ATOM     64  C   UNL A   1      39.887  26.651  28.925  1.00  0.00     0.131 A 
ATOM     65  C   UNL A   1      41.726  27.094  26.908  1.00  0.00     0.055 A 
ATOM     66  C   UNL A   1      39.899  25.816  27.805  1.00  0.00     0.041 A 
ATOM     67  F   UNL A   1      38.934  26.438  29.847  1.00  0.00    -0.206 F 
ATOM     68  C   UNL A   1      40.811  26.047  26.779  1.00  0.00     0.022 A 
BRANCH  65  69
ATOM     69  S   UNL A   1      42.765  27.574  25.501  1.00  0.00     0.124 S 
ATOM     70  O   UNL A   1      43.990  28.000  26.172  1.00  0.00    -0.237 OA
ATOM     71  O   UNL A   1      42.853  26.335  24.736  1.00  0.00    -0.237 OA
ATOM     72  O   UNL A   1      42.006  28.649  24.865  1.00  0.00    -0.744 OA
ENDBRANCH  65  69
ENDBRANCH  48  62
BRANCH  49  73
ATOM     73  C   UNL A   1      39.658  33.826  36.916  1.00  0.00     0.023 A 
ATOM     74  C   UNL A   1      39.040  33.331  38.075  1.00  0.00     0.031 A 
ATOM     75  C   UNL A   1      40.056  35.174  36.903  1.00  0.00     0.131 A 
ATOM     76  C   UNL A   1      38.802  34.187  39.161  1.00  0.00     0.055 A 
ATOM     77  C   UNL A   1      39.856  36.012  38.002  1.00  0.00     0.041 A 
ATOM     78  F   UNL A   1      40.660  35.693  35.822  1.00  0.00    -0.206 F 
ATOM     79  C   UNL A   1      39.215  35.522  39.135  1.00  0.00     0.022 A 
BRANCH  76  80
ATOM     80  S   UNL A   1      37.883  33.546  40.586  1.00  0.00     0.124 S 
ATOM     81  O   UNL A   1      38.754  32.470  41.043  1.00  0.00    -0.237 OA
ATOM     82  O   UNL A   1      37.805  34.720  41.448  1.00  0.00    -0.237 OA
ATOM     83  O   UNL A   1      36.611  33.118  40.005  1.00  0.00    -0.744 OA
ENDBRANCH  76  80
ENDBRANCH  49  73
BRANCH  61  84
ATOM     84  C   UNL A   1      44.143  28.697  35.453  1.00  0.00     0.023 A 
ATOM     85  C   UNL A   1      44.000  27.660  36.390  1.00  0.00     0.031 A 
ATOM     86  C   UNL A   1      45.429  29.224  35.236  1.00  0.00     0.131 A 
ATOM     87  C   UNL A   1      45.117  27.215  37.113  1.00  0.00     0.055 A 
ATOM     88  C   UNL A   1      46.545  28.740  35.920  1.00  0.00     0.041 A 
ATOM     89  F   UNL A   1      45.620  30.217  34.353  1.00  0.00    -0.206 F 
ATOM     90  C   UNL A   1      46.390  27.738  36.873  1.00  0.00     0.022 A 
BRANCH  87  91
ATOM     91  S   UNL A   1      44.873  25.994  38.433  1.00  0.00     0.124 S 
ATOM     92  O   UNL A   1      43.884  25.098  37.839  1.00  0.00    -0.237 OA
ATOM     93  O   UNL A   1      46.213  25.442  38.599  1.00  0.00    -0.237 OA
ATOM     94  O   UNL A   1      44.388  26.794  39.555  1.00  0.00    -0.744 OA
ENDBRANCH  87  91
ENDBRANCH  61  84
ENDBRANCH  35  36
ENDBRANCH  27  30
ENDBRANCH  25  26
ENDBRANCH  24  25
ENDBRANCH   1  24
TORSDOF 17
ENDMDL
MODEL 2
REMARK VINA RESULT:     -11.4      1.343      1.586
REMARK SMILES Cc1nc(S(=O)(=O)N[C@H]2C=C[C@H](C(=O)NCCCCNC(=O)c3ccc(-c4c5nc(c(-c6cc(S(=O)(=O)[O-])ccc6F)c6ccc([nH]6)c(-c6cc(S(=O)(=O)[O-])ccc6F)c6nc(c(-c7cc(S(=O)(=O)[O-])ccc7F)c7ccc4[nH]7)C=C6)C=C5)cc3)C2)cn1C
REMARK SMILES IDX 17 1 16 2 15 3 13 4 14 5 12 7 9 8 10 9 86 10 11 11 8 12 5 14
REMARK SMILES IDX 6 15 7 16 4 17 1 18 2 19 3 20 88 21 87 22 89 23 18 24 19 25
REMARK SMILES IDX 20 26 21 27 22 29 23 30 24 31 85 32 25 33 84 34 26 35 27 36
REMARK SMILES IDX 28 37 78 38 29 39 83 40 77 41 79 42 30 43 82 44 76 45 75 46
REMARK SMILES IDX 31 48 63 49 43 50 62 51 44 52 47 53 61 54 80 55 45 56 46 57
REMARK SMILES IDX 60 59 81 60 48 61 32 62 33 63 41 64 34 65 40 66 42 67 39 68
REMARK SMILES IDX 35 69 36 70 37 71 38 72 64 73 65 74 73 75 66 76 72 77 74 78
REMARK SMILES IDX 71 79 67 80 68 81 69 82 70 83 49 84 50 85 58 86 51 87 57 88
REMARK SMILES IDX 59 89 56 90 52 91 53 92 54 93 55 94
REMARK H PARENT 15 6 8 13 20 28 79 47 47 58
REMARK Flexibility Score: inf
ROOT
ATOM      1  C   UNL A   1      31.359  31.050  26.528  1.00  0.00     0.023 C 
ENDROOT
BRANCH   1   2
ATOM      2  C   UNL A   1      32.650  30.259  26.325  1.00  0.00     0.116 C 
BRANCH   2   3
ATOM      3  N   UNL A   1      32.737  29.681  24.994  1.00  0.00    -0.356 N 
ATOM      4  C   UNL A   1      32.098  28.584  24.481  1.00  0.00     0.226 C 
ATOM      5  O   UNL A   1      32.313  28.276  23.309  1.00  0.00    -0.274 OA
ATOM      6  H   UNL A   1      33.344  30.144  24.372  1.00  0.00     0.163 HD
BRANCH   4   7
ATOM      7  C   UNL A   1      31.157  27.793  25.395  1.00  0.00     0.103 C 
ATOM      8  C   UNL A   1      31.788  25.440  25.719  1.00  0.00     0.093 C 
ATOM      9  C   UNL A   1      30.578  25.571  24.864  1.00  0.00    -0.011 C 
ATOM     10  C   UNL A   1      31.944  26.849  26.310  1.00  0.00     0.042 C 
ATOM     11  C   UNL A   1      30.249  26.851  24.662  1.00  0.00    -0.016 C 
BRANCH   8  12
ATOM     12  N   UNL A   1      31.552  24.509  26.818  1.00  0.00    -0.203 NA
ATOM     13  H   UNL A   1      31.880  24.957  27.674  1.00  0.00     0.142 HD
BRANCH  12  14
ATOM     14  S   UNL A   1      32.289  22.992  26.730  1.00  0.00     0.260 S 
ATOM     15  O   UNL A   1      31.489  22.174  25.847  1.00  0.00    -0.205 OA
ATOM     16  O   UNL A   1      32.568  22.607  28.097  1.00  0.00    -0.205 OA
BRANCH  14  17
ATOM     17  C   UNL A   1      33.851  23.134  25.963  1.00  0.00     0.188 A 
ATOM     18  C   UNL A   1      37.412  23.698  26.047  1.00  0.00     0.088 C 
ATOM     19  C   UNL A   1      35.982  23.416  25.756  1.00  0.00     0.106 A 
ATOM     20  N   UNL A   1      35.013  23.440  26.650  1.00  0.00    -0.221 NA
ATOM     21  N   UNL A   1      35.486  23.090  24.515  1.00  0.00    -0.337 N 
ATOM     22  C   UNL A   1      34.129  22.950  24.623  1.00  0.00     0.129 A 
ATOM     23  C   UNL A   1      36.249  22.896  23.306  1.00  0.00     0.151 C 
ENDBRANCH  14  17
ENDBRANCH  12  14
ENDBRANCH   8  12
ENDBRANCH   4   7
ENDBRANCH   2   3
ENDBRANCH   1   2
BRANCH   1  24
ATOM     24  C   UNL A   1      31.529  32.571  26.568  1.00  0.00     0.023 C 
BRANCH  24  25
ATOM     25  C   UNL A   1      32.795  33.074  27.254  1.00  0.00     0.116 C 
BRANCH  25  26
ATOM     26  N   UNL A   1      32.620  34.370  27.886  1.00  0.00    -0.352 N 
ATOM     27  C   UNL A   1      33.289  34.907  28.962  1.00  0.00     0.251 C 
ATOM     28  H   UNL A   1      31.926  34.946  27.489  1.00  0.00     0.163 HD
ATOM     29  O   UNL A   1      32.907  35.970  29.442  1.00  0.00    -0.269 OA
BRANCH  27  30
ATOM     30  C   UNL A   1      34.436  34.184  29.558  1.00  0.00     0.039 A 
ATOM     31  C   UNL A   1      35.709  34.373  29.013  1.00  0.00     0.014 A 
ATOM     32  C   UNL A   1      34.262  33.332  30.652  1.00  0.00     0.014 A 
ATOM     33  C   UNL A   1      36.817  33.764  29.609  1.00  0.00     0.010 A 
ATOM     34  C   UNL A   1      35.374  32.780  31.283  1.00  0.00     0.010 A 
ATOM     35  C   UNL A   1      36.664  32.992  30.771  1.00  0.00    -0.014 A 
BRANCH  35  36
ATOM     36  C   UNL A   1      37.831  32.387  31.465  1.00  0.00     0.031 A 
ATOM     37  C   UNL A   1      38.576  31.246  30.827  1.00  0.00     0.074 A 
ATOM     38  C   UNL A   1      38.172  32.809  32.698  1.00  0.00     0.049 A 
ATOM     39  N   UNL A   1      39.535  30.503  31.316  1.00  0.00    -0.248 NA
ATOM     40  C   UNL A   1      38.156  30.873  29.469  1.00  0.00     0.031 C 
ATOM     41  C   UNL A   1      37.509  33.885  33.438  1.00  0.00     0.029 A 
ATOM     42  N   UNL A   1      39.151  32.374  33.556  1.00  0.00    -0.354 N 
ATOM     43  C   UNL A   1      39.823  29.561  30.334  1.00  0.00     0.074 A 
ATOM     44  C   UNL A   1      38.893  29.795  29.248  1.00  0.00     0.031 C 
ATOM     45  C   UNL A   1      38.109  34.035  34.630  1.00  0.00     0.029 A 
ATOM     46  C   UNL A   1      39.168  33.039  34.760  1.00  0.00     0.049 A 
ATOM     47  H   UNL A   1      39.782  31.652  33.330  1.00  0.00     0.167 HD
ATOM     48  C   UNL A   1      40.787  28.605  30.328  1.00  0.00     0.034 A 
ATOM     49  C   UNL A   1      39.939  32.858  35.850  1.00  0.00     0.034 A 
ATOM     50  C   UNL A   1      41.715  28.395  31.413  1.00  0.00     0.049 A 
ATOM     51  C   UNL A   1      40.991  31.778  35.832  1.00  0.00     0.074 A 
ATOM     52  C   UNL A   1      42.759  27.489  31.494  1.00  0.00     0.029 A 
ATOM     53  N   UNL A   1      41.710  29.099  32.611  1.00  0.00    -0.354 N 
ATOM     54  N   UNL A   1      41.272  30.915  34.883  1.00  0.00    -0.248 NA
ATOM     55  C   UNL A   1      41.832  31.654  37.030  1.00  0.00     0.031 C 
ATOM     56  C   UNL A   1      43.346  27.604  32.759  1.00  0.00     0.029 A 
ATOM     57  C   UNL A   1      42.714  28.630  33.444  1.00  0.00     0.049 A 
ATOM     58  H   UNL A   1      41.083  29.823  32.837  1.00  0.00     0.167 HD
ATOM     59  C   UNL A   1      42.346  30.167  35.358  1.00  0.00     0.074 A 
ATOM     60  C   UNL A   1      42.663  30.685  36.674  1.00  0.00     0.031 C 
ATOM     61  C   UNL A   1      43.014  29.150  34.758  1.00  0.00     0.034 A 
BRANCH  48  62
ATOM     62  C   UNL A   1      40.854  27.705  29.118  1.00  0.00     0.023 A 
ATOM     63  C   UNL A   1      41.810  27.901  28.106  1.00  0.00     0.031 A 
ATOM     64  C   UNL A   1      39.922  26.666  28.947  1.00  0.00     0.131 A 
ATOM     65  C   UNL A   1      41.754  27.138  26.930  1.00  0.00     0.055 A 
ATOM     66  C   UNL A   1      39.927  25.850  27.813  1.00  0.00     0.041 A 
ATOM     67  F   UNL A   1      38.973  26.440  29.870  1.00  0.00    -0.206 F 
ATOM     68  C   UNL A   1      40.835  26.097  26.787  1.00  0.00     0.022 A 
BRANCH  65  69
ATOM     69  S   UNL A   1      42.788  27.639  25.527  1.00  0.00     0.124 S 
ATOM     70  O   UNL A   1      44.058  27.932  26.188  1.00  0.00    -0.237 OA
ATOM     71  O   UNL A   1      42.768  26.452  24.680  1.00  0.00    -0.237 OA
ATOM     72  O   UNL A   1      42.093  28.805  24.987  1.00  0.00    -0.744 OA
ENDBRANCH  65  69
ENDBRANCH  48  62
BRANCH  49  73
ATOM     73  C   UNL A   1      39.748  33.709  37.056  1.00  0.00     0.023 A 
ATOM     74  C   UNL A   1      40.596  34.797  37.314  1.00  0.00     0.031 A 
ATOM     75  C   UNL A   1      38.731  33.429  37.986  1.00  0.00     0.131 A 
ATOM     76  C   UNL A   1      40.440  35.543  38.491  1.00  0.00     0.055 A 
ATOM     77  C   UNL A   1      38.551  34.202  39.136  1.00  0.00     0.041 A 
ATOM     78  F   UNL A   1      37.886  32.407  37.782  1.00  0.00    -0.206 F 
ATOM     79  C   UNL A   1      39.416  35.259  39.399  1.00  0.00     0.022 A 
BRANCH  76  80
ATOM     80  S   UNL A   1      41.638  36.855  38.853  1.00  0.00     0.124 S 
ATOM     81  O   UNL A   1      40.767  37.944  39.281  1.00  0.00    -0.237 OA
ATOM     82  O   UNL A   1      42.456  36.240  39.892  1.00  0.00    -0.237 OA
ATOM     83  O   UNL A   1      42.312  37.061  37.572  1.00  0.00    -0.744 OA
ENDBRANCH  76  80
ENDBRANCH  49  73
BRANCH  61  84
ATOM     84  C   UNL A   1      44.189  28.568  35.505  1.00  0.00     0.023 A 
ATOM     85  C   UNL A   1      44.039  27.508  36.415  1.00  0.00     0.031 A 
ATOM     86  C   UNL A   1      45.478  29.096  35.307  1.00  0.00     0.131 A 
ATOM     87  C   UNL A   1      45.151  27.041  37.131  1.00  0.00     0.055 A 
ATOM     88  C   UNL A   1      46.589  28.592  35.983  1.00  0.00     0.041 A 
ATOM     89  F   UNL A   1      45.676  30.111  34.451  1.00  0.00    -0.206 F 
ATOM     90  C   UNL A   1      46.427  27.566  36.910  1.00  0.00     0.022 A 
BRANCH  87  91
ATOM     91  S   UNL A   1      44.897  25.787  38.418  1.00  0.00     0.124 S 
ATOM     92  O   UNL A   1      46.259  25.315  38.654  1.00  0.00    -0.237 OA
ATOM     93  O   UNL A   1      44.296  26.565  39.496  1.00  0.00    -0.237 OA
ATOM     94  O   UNL A   1      44.007  24.818  37.782  1.00  0.00    -0.744 OA
ENDBRANCH  87  91
ENDBRANCH  61  84
ENDBRANCH  35  36
ENDBRANCH  27  30
ENDBRANCH  25  26
ENDBRANCH  24  25
ENDBRANCH   1  24
TORSDOF 17
ENDMDL
MODEL 3
REMARK VINA RESULT:     -11.4      5.701     11.770
REMARK SMILES Cc1nc(S(=O)(=O)N[C@H]2C=C[C@H](C(=O)NCCCCNC(=O)c3ccc(-c4c5nc(c(-c6cc(S(=O)(=O)[O-])ccc6F)c6ccc([nH]6)c(-c6cc(S(=O)(=O)[O-])ccc6F)c6nc(c(-c7cc(S(=O)(=O)[O-])ccc7F)c7ccc4[nH]7)C=C6)C=C5)cc3)C2)cn1C
REMARK SMILES IDX 17 1 16 2 15 3 13 4 14 5 12 7 9 8 10 9 86 10 11 11 8 12 5 14
REMARK SMILES IDX 6 15 7 16 4 17 1 18 2 19 3 20 88 21 87 22 89 23 18 24 19 25
REMARK SMILES IDX 20 26 21 27 22 29 23 30 24 31 85 32 25 33 84 34 26 35 27 36
REMARK SMILES IDX 28 37 78 38 29 39 83 40 77 41 79 42 30 43 82 44 76 45 75 46
REMARK SMILES IDX 31 48 63 49 43 50 62 51 44 52 47 53 61 54 80 55 45 56 46 57
REMARK SMILES IDX 60 59 81 60 48 61 32 62 33 63 41 64 34 65 40 66 42 67 39 68
REMARK SMILES IDX 35 69 36 70 37 71 38 72 64 73 65 74 73 75 66 76 72 77 74 78
REMARK SMILES IDX 71 79 67 80 68 81 69 82 70 83 49 84 50 85 58 86 51 87 57 88
REMARK SMILES IDX 59 89 56 90 52 91 53 92 54 93 55 94
REMARK H PARENT 15 6 8 13 20 28 79 47 47 58
REMARK Flexibility Score: inf
ROOT
ATOM      1  C   UNL A   1      37.122  19.612  24.970  1.00  0.00     0.023 C 
ENDROOT
BRANCH   1   2
ATOM      2  C   UNL A   1      35.624  19.908  24.951  1.00  0.00     0.116 C 
BRANCH   2   3
ATOM      3  N   UNL A   1      35.268  21.002  25.839  1.00  0.00    -0.356 N 
ATOM      4  C   UNL A   1      34.207  21.864  25.772  1.00  0.00     0.226 C 
ATOM      5  O   UNL A   1      34.091  22.720  26.649  1.00  0.00    -0.274 OA
ATOM      6  H   UNL A   1      35.878  21.143  26.599  1.00  0.00     0.163 HD
BRANCH   4   7
ATOM      7  C   UNL A   1      33.226  21.726  24.604  1.00  0.00     0.103 C 
ATOM      8  C   UNL A   1      32.543  23.856  23.586  1.00  0.00     0.093 C 
ATOM      9  C   UNL A   1      31.437  23.244  24.369  1.00  0.00    -0.011 C 
ATOM     10  C   UNL A   1      33.564  22.713  23.481  1.00  0.00     0.042 C 
ATOM     11  C   UNL A   1      31.814  22.099  24.949  1.00  0.00    -0.016 C 
BRANCH   8  12
ATOM     12  N   UNL A   1      32.101  24.195  22.237  1.00  0.00    -0.203 NA
ATOM     13  H   UNL A   1      32.412  23.448  21.616  1.00  0.00     0.142 HD
BRANCH  12  14
ATOM     14  S   UNL A   1      32.642  25.654  21.579  1.00  0.00     0.260 S 
ATOM     15  O   UNL A   1      32.219  25.688  20.197  1.00  0.00    -0.205 OA
ATOM     16  O   UNL A   1      34.032  25.771  21.964  1.00  0.00    -0.205 OA
BRANCH  14  17
ATOM     17  C   UNL A   1      31.835  26.992  22.358  1.00  0.00     0.188 A 
ATOM     18  C   UNL A   1      29.076  29.287  22.717  1.00  0.00     0.088 C 
ATOM     19  C   UNL A   1      30.307  28.457  22.787  1.00  0.00     0.106 A 
ATOM     20  N   UNL A   1      30.614  27.493  21.941  1.00  0.00    -0.221 NA
ATOM     21  N   UNL A   1      31.284  28.586  23.747  1.00  0.00    -0.337 N 
ATOM     22  C   UNL A   1      32.280  27.691  23.462  1.00  0.00     0.129 A 
ATOM     23  C   UNL A   1      31.267  29.480  24.880  1.00  0.00     0.151 C 
ENDBRANCH  14  17
ENDBRANCH  12  14
ENDBRANCH   8  12
ENDBRANCH   4   7
ENDBRANCH   2   3
ENDBRANCH   1   2
BRANCH   1  24
ATOM     24  C   UNL A   1      38.029  20.846  24.971  1.00  0.00     0.023 C 
BRANCH  24  25
ATOM     25  C   UNL A   1      39.048  20.911  26.104  1.00  0.00     0.116 C 
BRANCH  25  26
ATOM     26  N   UNL A   1      40.008  19.821  26.066  1.00  0.00    -0.352 N 
ATOM     27  C   UNL A   1      41.380  19.872  26.158  1.00  0.00     0.251 C 
ATOM     28  H   UNL A   1      39.623  18.921  25.960  1.00  0.00     0.163 HD
ATOM     29  O   UNL A   1      42.036  18.852  25.968  1.00  0.00    -0.269 OA
BRANCH  27  30
ATOM     30  C   UNL A   1      42.057  21.157  26.446  1.00  0.00     0.039 A 
ATOM     31  C   UNL A   1      42.309  22.038  25.391  1.00  0.00     0.014 A 
ATOM     32  C   UNL A   1      42.435  21.496  27.747  1.00  0.00     0.014 A 
ATOM     33  C   UNL A   1      42.874  23.290  25.651  1.00  0.00     0.010 A 
ATOM     34  C   UNL A   1      42.937  22.769  28.013  1.00  0.00     0.010 A 
ATOM     35  C   UNL A   1      43.158  23.681  26.969  1.00  0.00    -0.014 A 
BRANCH  35  36
ATOM     36  C   UNL A   1      43.697  25.031  27.283  1.00  0.00     0.031 A 
ATOM     37  C   UNL A   1      42.794  26.081  27.870  1.00  0.00     0.074 A 
ATOM     38  C   UNL A   1      44.970  25.335  26.967  1.00  0.00     0.049 A 
ATOM     39  N   UNL A   1      43.032  27.347  28.099  1.00  0.00    -0.248 NA
ATOM     40  C   UNL A   1      41.430  25.652  28.211  1.00  0.00     0.031 C 
ATOM     41  C   UNL A   1      45.937  24.415  26.364  1.00  0.00     0.029 A 
ATOM     42  N   UNL A   1      45.669  26.510  27.094  1.00  0.00    -0.354 N 
ATOM     43  C   UNL A   1      41.843  27.873  28.594  1.00  0.00     0.074 A 
ATOM     44  C   UNL A   1      40.873  26.797  28.573  1.00  0.00     0.031 C 
ATOM     45  C   UNL A   1      47.104  25.055  26.189  1.00  0.00     0.029 A 
ATOM     46  C   UNL A   1      46.959  26.440  26.622  1.00  0.00     0.049 A 
ATOM     47  H   UNL A   1      45.282  27.326  27.486  1.00  0.00     0.167 HD
ATOM     48  C   UNL A   1      41.590  29.128  29.044  1.00  0.00     0.034 A 
ATOM     49  C   UNL A   1      47.912  27.389  26.534  1.00  0.00     0.034 A 
ATOM     50  C   UNL A   1      42.572  30.185  29.070  1.00  0.00     0.049 A 
ATOM     51  C   UNL A   1      47.605  28.783  27.021  1.00  0.00     0.074 A 
ATOM     52  C   UNL A   1      42.438  31.477  29.548  1.00  0.00     0.029 A 
ATOM     53  N   UNL A   1      43.874  30.072  28.596  1.00  0.00    -0.354 N 
ATOM     54  N   UNL A   1      46.486  29.257  27.516  1.00  0.00    -0.248 NA
ATOM     55  C   UNL A   1      48.694  29.765  26.943  1.00  0.00     0.031 C 
ATOM     56  C   UNL A   1      43.636  32.162  29.309  1.00  0.00     0.029 A 
ATOM     57  C   UNL A   1      44.542  31.278  28.746  1.00  0.00     0.049 A 
ATOM     58  H   UNL A   1      44.263  29.256  28.208  1.00  0.00     0.167 HD
ATOM     59  C   UNL A   1      46.746  30.585  27.838  1.00  0.00     0.074 A 
ATOM     60  C   UNL A   1      48.130  30.834  27.488  1.00  0.00     0.031 C 
ATOM     61  C   UNL A   1      45.920  31.514  28.383  1.00  0.00     0.034 A 
BRANCH  48  62
ATOM     62  C   UNL A   1      40.185  29.419  29.513  1.00  0.00     0.023 A 
ATOM     63  C   UNL A   1      39.871  29.524  30.880  1.00  0.00     0.031 A 
ATOM     64  C   UNL A   1      39.134  29.546  28.587  1.00  0.00     0.131 A 
ATOM     65  C   UNL A   1      38.534  29.652  31.284  1.00  0.00     0.055 A 
ATOM     66  C   UNL A   1      37.815  29.763  28.994  1.00  0.00     0.041 A 
ATOM     67  F   UNL A   1      39.366  29.436  27.269  1.00  0.00    -0.206 F 
ATOM     68  C   UNL A   1      37.506  29.798  30.351  1.00  0.00     0.022 A 
BRANCH  65  69
ATOM     69  S   UNL A   1      38.143  29.456  33.045  1.00  0.00     0.124 S 
ATOM     70  O   UNL A   1      39.478  29.379  33.635  1.00  0.00    -0.237 OA
ATOM     71  O   UNL A   1      37.385  30.667  33.337  1.00  0.00    -0.237 OA
ATOM     72  O   UNL A   1      37.378  28.212  33.090  1.00  0.00    -0.744 OA
ENDBRANCH  65  69
ENDBRANCH  48  62
BRANCH  49  73
ATOM     73  C   UNL A   1      49.246  27.064  25.958  1.00  0.00     0.023 A 
ATOM     74  C   UNL A   1      49.573  27.434  24.644  1.00  0.00     0.031 A 
ATOM     75  C   UNL A   1      50.203  26.353  26.702  1.00  0.00     0.131 A 
ATOM     76  C   UNL A   1      50.809  27.058  24.098  1.00  0.00     0.055 A 
ATOM     77  C   UNL A   1      51.451  26.018  26.170  1.00  0.00     0.041 A 
ATOM     78  F   UNL A   1      49.944  25.985  27.967  1.00  0.00    -0.206 F 
ATOM     79  C   UNL A   1      51.754  26.361  24.857  1.00  0.00     0.022 A 
BRANCH  76  80
ATOM     80  S   UNL A   1      51.141  27.437  22.357  1.00  0.00     0.124 S 
ATOM     81  O   UNL A   1      52.432  26.791  22.152  1.00  0.00    -0.237 OA
ATOM     82  O   UNL A   1      50.001  26.819  21.690  1.00  0.00    -0.237 OA
ATOM     83  O   UNL A   1      51.161  28.898  22.326  1.00  0.00    -0.744 OA
ENDBRANCH  76  80
ENDBRANCH  49  73
BRANCH  61  84
ATOM     84  C   UNL A   1      46.514  32.869  28.679  1.00  0.00     0.023 A 
ATOM     85  C   UNL A   1      46.490  33.911  27.736  1.00  0.00     0.031 A 
ATOM     86  C   UNL A   1      47.123  33.112  29.923  1.00  0.00     0.131 A 
ATOM     87  C   UNL A   1      47.109  35.135  28.034  1.00  0.00     0.055 A 
ATOM     88  C   UNL A   1      47.689  34.349  30.234  1.00  0.00     0.041 A 
ATOM     89  F   UNL A   1      47.175  32.150  30.858  1.00  0.00    -0.206 F 
ATOM     90  C   UNL A   1      47.695  35.365  29.282  1.00  0.00     0.022 A 
BRANCH  87  91
ATOM     91  S   UNL A   1      47.208  36.400  26.738  1.00  0.00     0.124 S 
ATOM     92  O   UNL A   1      47.742  35.640  25.612  1.00  0.00    -0.237 OA
ATOM     93  O   UNL A   1      45.820  36.831  26.616  1.00  0.00    -0.237 OA
ATOM     94  O   UNL A   1      48.118  37.396  27.300  1.00  0.00    -0.744 OA
ENDBRANCH  87  91
ENDBRANCH  61  84
ENDBRANCH  35  36
ENDBRANCH  27  30
ENDBRANCH  25  26
ENDBRANCH  24  25
ENDBRANCH   1  24
TORSDOF 17
ENDMDL
