MODEL 1
REMARK VINA RESULT:     -11.6      0.000      0.000
REMARK SMILES CC1(C)[C@@H](C(=O)NCCCCNC(=O)c2ccc(-c3c4nc(c(-c5cc(S(=O)(=O)[O-])ccc5F)c5ccc([nH]5)c(-c5cc(S(=O)(=O)[O-])ccc5F)c5nc(c(-c6cc(S(=O)(=O)[O-])ccc6F)c6ccc3[nH]6)C=C5)C=C4)cc2)CC[C@@]1(C)C(N)=O
REMARK SMILES IDX 10 1 9 2 8 3 7 4 5 5 6 6 4 8 1 9 2 10 3 11 80 12 78 13 79 14
REMARK SMILES IDX 81 15 82 16 83 17 84 18 11 21 12 22 13 23 14 25 15 26 16 27
REMARK SMILES IDX 77 28 17 29 76 30 18 31 19 32 20 33 70 34 21 35 75 36 69 37
REMARK SMILES IDX 71 38 22 39 74 40 68 41 67 42 23 44 55 45 35 46 54 47 36 48
REMARK SMILES IDX 39 49 53 50 72 51 37 52 38 53 52 55 73 56 40 57 24 58 25 59
REMARK SMILES IDX 33 60 26 61 32 62 34 63 31 64 27 65 28 66 29 67 30 68 56 69
REMARK SMILES IDX 57 70 65 71 58 72 64 73 66 74 63 75 59 76 60 77 61 78 62 79
REMARK SMILES IDX 41 80 42 81 50 82 43 83 49 84 51 85 48 86 44 87 45 88 46 89
REMARK SMILES IDX 47 90
REMARK H PARENT 7 7 83 19 83 20 12 24 71 43 39 54
REMARK Flexibility Score: inf
ROOT
ATOM      1  C   UNL A   1      31.534  31.746  26.723  1.00  0.00     0.023 C 
ENDROOT
BRANCH   1   2
ATOM      2  C   UNL A   1      31.752  30.237  26.586  1.00  0.00     0.023 C 
BRANCH   2   3
ATOM      3  C   UNL A   1      32.703  29.844  25.455  1.00  0.00     0.116 C 
BRANCH   3   4
ATOM      4  N   UNL A   1      31.973  29.474  24.260  1.00  0.00    -0.356 N 
ATOM      5  C   UNL A   1      31.438  28.329  23.783  1.00  0.00     0.223 C 
ATOM      6  O   UNL A   1      31.079  28.366  22.597  1.00  0.00    -0.275 OA
ATOM      7  H   UNL A   1      31.834  30.237  23.653  1.00  0.00     0.163 HD
BRANCH   5   8
ATOM      8  C   UNL A   1      31.215  27.024  24.566  1.00  0.00     0.085 C 
ATOM      9  C   UNL A   1      33.806  26.716  24.670  1.00  0.00     0.013 C 
ATOM     10  C   UNL A   1      32.426  26.035  24.591  1.00  0.00    -0.010 C 
ATOM     11  C   UNL A   1      32.339  25.200  25.910  1.00  0.00     0.013 C 
ATOM     12  C   UNL A   1      32.159  25.129  23.328  1.00  0.00     0.052 C 
ATOM     13  C   UNL A   1      30.042  26.115  24.219  1.00  0.00     0.015 C 
ATOM     14  C   UNL A   1      30.606  24.992  23.330  1.00  0.00     0.018 C 
ATOM     15  C   UNL A   1      32.808  23.732  23.424  1.00  0.00     0.022 C 
BRANCH  12  16
ATOM     16  C   UNL A   1      32.657  25.723  21.982  1.00  0.00     0.223 C 
ATOM     17  N   UNL A   1      31.717  25.966  21.024  1.00  0.00    -0.369 N 
ATOM     18  O   UNL A   1      33.830  25.908  21.682  1.00  0.00    -0.275 OA
ATOM     19  H   UNL A   1      30.763  25.829  21.225  1.00  0.00     0.159 HD
ATOM     20  H   UNL A   1      31.993  26.279  20.133  1.00  0.00     0.159 HD
ENDBRANCH  12  16
ENDBRANCH   5   8
ENDBRANCH   3   4
ENDBRANCH   2   3
ENDBRANCH   1   2
BRANCH   1  21
ATOM     21  C   UNL A   1      32.799  32.568  26.956  1.00  0.00     0.116 C 
BRANCH  21  22
ATOM     22  N   UNL A   1      32.555  33.843  27.618  1.00  0.00    -0.352 N 
ATOM     23  C   UNL A   1      33.266  34.414  28.648  1.00  0.00     0.251 C 
ATOM     24  H   UNL A   1      31.785  34.361  27.288  1.00  0.00     0.163 HD
ATOM     25  O   UNL A   1      32.890  35.465  29.156  1.00  0.00    -0.269 OA
BRANCH  23  26
ATOM     26  C   UNL A   1      34.461  33.711  29.156  1.00  0.00     0.039 A 
ATOM     27  C   UNL A   1      35.723  34.257  28.915  1.00  0.00     0.014 A 
ATOM     28  C   UNL A   1      34.318  32.566  29.945  1.00  0.00     0.014 A 
ATOM     29  C   UNL A   1      36.842  33.698  29.536  1.00  0.00     0.010 A 
ATOM     30  C   UNL A   1      35.423  32.056  30.616  1.00  0.00     0.010 A 
ATOM     31  C   UNL A   1      36.694  32.622  30.425  1.00  0.00    -0.014 A 
BRANCH  31  32
ATOM     32  C   UNL A   1      37.852  32.064  31.170  1.00  0.00     0.031 A 
ATOM     33  C   UNL A   1      38.673  30.966  30.553  1.00  0.00     0.074 A 
ATOM     34  C   UNL A   1      38.104  32.480  32.426  1.00  0.00     0.049 A 
ATOM     35  N   UNL A   1      39.637  30.257  31.078  1.00  0.00    -0.248 NA
ATOM     36  C   UNL A   1      38.333  30.593  29.172  1.00  0.00     0.031 C 
ATOM     37  C   UNL A   1      37.348  33.508  33.147  1.00  0.00     0.029 A 
ATOM     38  N   UNL A   1      39.058  32.079  33.329  1.00  0.00    -0.354 N 
ATOM     39  C   UNL A   1      40.005  29.338  30.101  1.00  0.00     0.074 A 
ATOM     40  C   UNL A   1      39.116  29.544  28.976  1.00  0.00     0.031 C 
ATOM     41  C   UNL A   1      37.877  33.666  34.372  1.00  0.00     0.029 A 
ATOM     42  C   UNL A   1      38.979  32.725  34.541  1.00  0.00     0.049 A 
ATOM     43  H   UNL A   1      39.735  31.394  33.126  1.00  0.00     0.167 HD
ATOM     44  C   UNL A   1      41.006  28.423  30.131  1.00  0.00     0.034 A 
ATOM     45  C   UNL A   1      39.706  32.565  35.666  1.00  0.00     0.034 A 
ATOM     46  C   UNL A   1      41.894  28.246  31.253  1.00  0.00     0.049 A 
ATOM     47  C   UNL A   1      40.812  31.541  35.678  1.00  0.00     0.074 A 
ATOM     48  C   UNL A   1      42.975  27.389  31.373  1.00  0.00     0.029 A 
ATOM     49  N   UNL A   1      41.803  28.939  32.455  1.00  0.00    -0.354 N 
ATOM     50  N   UNL A   1      41.177  30.709  34.729  1.00  0.00    -0.248 NA
ATOM     51  C   UNL A   1      41.610  31.443  36.906  1.00  0.00     0.031 C 
ATOM     52  C   UNL A   1      43.501  27.524  32.662  1.00  0.00     0.029 A 
ATOM     53  C   UNL A   1      42.793  28.514  33.325  1.00  0.00     0.049 A 
ATOM     54  H   UNL A   1      41.131  29.630  32.657  1.00  0.00     0.167 HD
ATOM     55  C   UNL A   1      42.270  30.012  35.237  1.00  0.00     0.074 A 
ATOM     56  C   UNL A   1      42.508  30.528  36.569  1.00  0.00     0.031 C 
ATOM     57  C   UNL A   1      43.014  29.039  34.653  1.00  0.00     0.034 A 
BRANCH  44  58
ATOM     58  C   UNL A   1      41.166  27.536  28.919  1.00  0.00     0.023 A 
ATOM     59  C   UNL A   1      42.178  27.763  27.970  1.00  0.00     0.031 A 
ATOM     60  C   UNL A   1      40.269  26.480  28.684  1.00  0.00     0.131 A 
ATOM     61  C   UNL A   1      42.215  27.005  26.790  1.00  0.00     0.055 A 
ATOM     62  C   UNL A   1      40.364  25.672  27.549  1.00  0.00     0.041 A 
ATOM     63  F   UNL A   1      39.269  26.227  29.544  1.00  0.00    -0.206 F 
ATOM     64  C   UNL A   1      41.331  25.944  26.584  1.00  0.00     0.022 A 
BRANCH  61  65
ATOM     65  S   UNL A   1      43.333  27.528  25.462  1.00  0.00     0.124 S 
ATOM     66  O   UNL A   1      42.409  28.190  24.544  1.00  0.00    -0.237 OA
ATOM     67  O   UNL A   1      44.271  28.398  26.162  1.00  0.00    -0.237 OA
ATOM     68  O   UNL A   1      43.895  26.271  24.971  1.00  0.00    -0.744 OA
ENDBRANCH  61  65
ENDBRANCH  44  58
BRANCH  45  69
ATOM     69  C   UNL A   1      39.414  33.383  36.876  1.00  0.00     0.023 A 
ATOM     70  C   UNL A   1      40.109  34.578  37.124  1.00  0.00     0.031 A 
ATOM     71  C   UNL A   1      38.464  32.964  37.824  1.00  0.00     0.131 A 
ATOM     72  C   UNL A   1      39.878  35.288  38.312  1.00  0.00     0.055 A 
ATOM     73  C   UNL A   1      38.204  33.699  38.982  1.00  0.00     0.041 A 
ATOM     74  F   UNL A   1      37.766  31.833  37.631  1.00  0.00    -0.206 F 
ATOM     75  C   UNL A   1      38.923  34.863  39.238  1.00  0.00     0.022 A 
BRANCH  72  76
ATOM     76  S   UNL A   1      40.905  36.742  38.668  1.00  0.00     0.124 S 
ATOM     77  O   UNL A   1      39.898  37.746  38.989  1.00  0.00    -0.237 OA
ATOM     78  O   UNL A   1      41.720  36.269  39.782  1.00  0.00    -0.237 OA
ATOM     79  O   UNL A   1      41.630  36.960  37.418  1.00  0.00    -0.744 OA
ENDBRANCH  72  76
ENDBRANCH  45  69
BRANCH  57  80
ATOM     80  C   UNL A   1      44.190  28.513  35.438  1.00  0.00     0.023 A 
ATOM     81  C   UNL A   1      44.053  27.475  36.374  1.00  0.00     0.031 A 
ATOM     82  C   UNL A   1      45.467  29.066  35.241  1.00  0.00     0.131 A 
ATOM     83  C   UNL A   1      45.166  27.055  37.117  1.00  0.00     0.055 A 
ATOM     84  C   UNL A   1      46.581  28.608  35.944  1.00  0.00     0.041 A 
ATOM     85  F   UNL A   1      45.652  30.061  34.358  1.00  0.00    -0.206 F 
ATOM     86  C   UNL A   1      46.432  27.604  36.896  1.00  0.00     0.022 A 
BRANCH  83  87
ATOM     87  S   UNL A   1      44.925  25.830  38.432  1.00  0.00     0.124 S 
ATOM     88  O   UNL A   1      44.298  24.727  37.710  1.00  0.00    -0.237 OA
ATOM     89  O   UNL A   1      46.289  25.595  38.895  1.00  0.00    -0.237 OA
ATOM     90  O   UNL A   1      44.058  26.518  39.387  1.00  0.00    -0.744 OA
ENDBRANCH  83  87
ENDBRANCH  57  80
ENDBRANCH  31  32
ENDBRANCH  23  26
ENDBRANCH  21  22
ENDBRANCH   1  21
TORSDOF 15
ENDMDL
MODEL 2
REMARK VINA RESULT:     -11.6      5.872     10.843
REMARK SMILES CC1(C)[C@@H](C(=O)NCCCCNC(=O)c2ccc(-c3c4nc(c(-c5cc(S(=O)(=O)[O-])ccc5F)c5ccc([nH]5)c(-c5cc(S(=O)(=O)[O-])ccc5F)c5nc(c(-c6cc(S(=O)(=O)[O-])ccc6F)c6ccc3[nH]6)C=C5)C=C4)cc2)CC[C@@]1(C)C(N)=O
REMARK SMILES IDX 10 1 9 2 8 3 7 4 5 5 6 6 4 8 1 9 2 10 3 11 80 12 78 13 79 14
REMARK SMILES IDX 81 15 82 16 83 17 84 18 11 21 12 22 13 23 14 25 15 26 16 27
REMARK SMILES IDX 77 28 17 29 76 30 18 31 19 32 20 33 70 34 21 35 75 36 69 37
REMARK SMILES IDX 71 38 22 39 74 40 68 41 67 42 23 44 55 45 35 46 54 47 36 48
REMARK SMILES IDX 39 49 53 50 72 51 37 52 38 53 52 55 73 56 40 57 24 58 25 59
REMARK SMILES IDX 33 60 26 61 32 62 34 63 31 64 27 65 28 66 29 67 30 68 56 69
REMARK SMILES IDX 57 70 65 71 58 72 64 73 66 74 63 75 59 76 60 77 61 78 62 79
REMARK SMILES IDX 41 80 42 81 50 82 43 83 49 84 51 85 48 86 44 87 45 88 46 89
REMARK SMILES IDX 47 90
REMARK H PARENT 7 7 83 19 83 20 12 24 71 43 39 54
REMARK Flexibility Score: inf
ROOT
ATOM      1  C   UNL A   1      35.598  21.684  24.557  1.00  0.00     0.023 C 
ENDROOT
BRANCH   1   2
ATOM      2  C   UNL A   1      34.383  20.901  25.059  1.00  0.00     0.023 C 
BRANCH   2   3
ATOM      3  C   UNL A   1      33.921  21.299  26.462  1.00  0.00     0.116 C 
BRANCH   3   4
ATOM      4  N   UNL A   1      32.507  21.610  26.479  1.00  0.00    -0.356 N 
ATOM      5  C   UNL A   1      31.703  22.449  25.789  1.00  0.00     0.223 C 
ATOM      6  O   UNL A   1      30.563  22.593  26.254  1.00  0.00    -0.275 OA
ATOM      7  H   UNL A   1      32.014  21.085  27.152  1.00  0.00     0.163 HD
BRANCH   5   8
ATOM      8  C   UNL A   1      32.058  23.204  24.496  1.00  0.00     0.085 C 
ATOM      9  C   UNL A   1      33.648  24.731  25.897  1.00  0.00     0.013 C 
ATOM     10  C   UNL A   1      32.693  24.619  24.692  1.00  0.00    -0.010 C 
ATOM     11  C   UNL A   1      33.606  24.913  23.456  1.00  0.00     0.013 C 
ATOM     12  C   UNL A   1      31.432  25.566  24.702  1.00  0.00     0.052 C 
ATOM     13  C   UNL A   1      30.988  23.454  23.440  1.00  0.00     0.015 C 
ATOM     14  C   UNL A   1      30.497  24.898  23.649  1.00  0.00     0.018 C 
ATOM     15  C   UNL A   1      31.747  27.016  24.279  1.00  0.00     0.022 C 
BRANCH  12  16
ATOM     16  C   UNL A   1      30.717  25.685  26.076  1.00  0.00     0.223 C 
ATOM     17  N   UNL A   1      29.447  25.194  26.160  1.00  0.00    -0.369 N 
ATOM     18  O   UNL A   1      31.167  26.258  27.061  1.00  0.00    -0.275 OA
ATOM     19  H   UNL A   1      29.048  24.728  25.391  1.00  0.00     0.159 HD
ATOM     20  H   UNL A   1      28.930  25.307  26.990  1.00  0.00     0.159 HD
ENDBRANCH  12  16
ENDBRANCH   5   8
ENDBRANCH   3   4
ENDBRANCH   2   3
ENDBRANCH   1   2
BRANCH   1  21
ATOM     21  C   UNL A   1      36.719  21.874  25.576  1.00  0.00     0.116 C 
BRANCH  21  22
ATOM     22  N   UNL A   1      37.706  20.802  25.568  1.00  0.00    -0.352 N 
ATOM     23  C   UNL A   1      39.021  20.858  25.964  1.00  0.00     0.251 C 
ATOM     24  H   UNL A   1      37.393  19.928  25.238  1.00  0.00     0.163 HD
ATOM     25  O   UNL A   1      39.755  19.884  25.826  1.00  0.00    -0.269 OA
BRANCH  23  26
ATOM     26  C   UNL A   1      39.541  22.126  26.514  1.00  0.00     0.039 A 
ATOM     27  C   UNL A   1      40.518  22.083  27.510  1.00  0.00     0.014 A 
ATOM     28  C   UNL A   1      39.122  23.347  25.978  1.00  0.00     0.014 A 
ATOM     29  C   UNL A   1      41.140  23.268  27.912  1.00  0.00     0.010 A 
ATOM     30  C   UNL A   1      39.790  24.514  26.330  1.00  0.00     0.010 A 
ATOM     31  C   UNL A   1      40.811  24.484  27.294  1.00  0.00    -0.014 A 
BRANCH  31  32
ATOM     32  C   UNL A   1      41.517  25.745  27.636  1.00  0.00     0.031 A 
ATOM     33  C   UNL A   1      40.806  26.803  28.433  1.00  0.00     0.074 A 
ATOM     34  C   UNL A   1      42.755  25.973  27.155  1.00  0.00     0.049 A 
ATOM     35  N   UNL A   1      41.189  28.017  28.728  1.00  0.00    -0.248 NA
ATOM     36  C   UNL A   1      39.466  26.455  28.929  1.00  0.00     0.031 C 
ATOM     37  C   UNL A   1      43.529  25.039  26.332  1.00  0.00     0.029 A 
ATOM     38  N   UNL A   1      43.576  27.066  27.274  1.00  0.00    -0.354 N 
ATOM     39  C   UNL A   1      40.129  28.588  29.425  1.00  0.00     0.074 A 
ATOM     40  C   UNL A   1      39.067  27.604  29.453  1.00  0.00     0.031 C 
ATOM     41  C   UNL A   1      44.716  25.595  26.035  1.00  0.00     0.029 A 
ATOM     42  C   UNL A   1      44.772  26.936  26.607  1.00  0.00     0.049 A 
ATOM     43  H   UNL A   1      43.332  27.869  27.789  1.00  0.00     0.167 HD
ATOM     44  C   UNL A   1      40.058  29.811  30.008  1.00  0.00     0.034 A 
ATOM     45  C   UNL A   1      45.792  27.806  26.462  1.00  0.00     0.034 A 
ATOM     46  C   UNL A   1      41.134  30.770  29.986  1.00  0.00     0.049 A 
ATOM     47  C   UNL A   1      45.692  29.160  27.116  1.00  0.00     0.074 A 
ATOM     48  C   UNL A   1      41.193  32.016  30.588  1.00  0.00     0.029 A 
ATOM     49  N   UNL A   1      42.344  30.592  29.325  1.00  0.00    -0.354 N 
ATOM     50  N   UNL A   1      44.700  29.670  27.810  1.00  0.00    -0.248 NA
ATOM     51  C   UNL A   1      46.850  30.051  26.977  1.00  0.00     0.031 C 
ATOM     52  C   UNL A   1      42.412  32.611  30.245  1.00  0.00     0.029 A 
ATOM     53  C   UNL A   1      43.144  31.711  29.487  1.00  0.00     0.049 A 
ATOM     54  H   UNL A   1      42.594  29.788  28.816  1.00  0.00     0.167 HD
ATOM     55  C   UNL A   1      45.131  30.929  28.218  1.00  0.00     0.074 A 
ATOM     56  C   UNL A   1      46.473  31.096  27.699  1.00  0.00     0.031 C 
ATOM     57  C   UNL A   1      44.480  31.861  28.960  1.00  0.00     0.034 A 
BRANCH  44  58
ATOM     58  C   UNL A   1      38.761  30.175  30.691  1.00  0.00     0.023 A 
ATOM     59  C   UNL A   1      37.746  30.877  30.016  1.00  0.00     0.031 A 
ATOM     60  C   UNL A   1      38.554  29.859  32.045  1.00  0.00     0.131 A 
ATOM     61  C   UNL A   1      36.613  31.316  30.717  1.00  0.00     0.055 A 
ATOM     62  C   UNL A   1      37.384  30.224  32.715  1.00  0.00     0.041 A 
ATOM     63  F   UNL A   1      39.495  29.209  32.747  1.00  0.00    -0.206 F 
ATOM     64  C   UNL A   1      36.412  30.972  32.055  1.00  0.00     0.022 A 
BRANCH  61  65
ATOM     65  S   UNL A   1      35.485  32.473  29.896  1.00  0.00     0.124 S 
ATOM     66  O   UNL A   1      36.331  33.655  29.749  1.00  0.00    -0.237 OA
ATOM     67  O   UNL A   1      35.151  31.769  28.663  1.00  0.00    -0.237 OA
ATOM     68  O   UNL A   1      34.387  32.617  30.849  1.00  0.00    -0.744 OA
ENDBRANCH  61  65
ENDBRANCH  44  58
BRANCH  45  69
ATOM     69  C   UNL A   1      46.995  27.434  25.664  1.00  0.00     0.023 A 
ATOM     70  C   UNL A   1      47.117  27.822  24.321  1.00  0.00     0.031 A 
ATOM     71  C   UNL A   1      48.022  26.652  26.222  1.00  0.00     0.131 A 
ATOM     72  C   UNL A   1      48.218  27.390  23.565  1.00  0.00     0.055 A 
ATOM     73  C   UNL A   1      49.139  26.265  25.479  1.00  0.00     0.041 A 
ATOM     74  F   UNL A   1      47.958  26.263  27.505  1.00  0.00    -0.206 F 
ATOM     75  C   UNL A   1      49.234  26.622  24.138  1.00  0.00     0.022 A 
BRANCH  72  76
ATOM     76  S   UNL A   1      48.262  27.781  21.794  1.00  0.00     0.124 S 
ATOM     77  O   UNL A   1      48.436  26.460  21.201  1.00  0.00    -0.237 OA
ATOM     78  O   UNL A   1      46.961  28.410  21.591  1.00  0.00    -0.237 OA
ATOM     79  O   UNL A   1      49.409  28.677  21.672  1.00  0.00    -0.744 OA
ENDBRANCH  72  76
ENDBRANCH  45  69
BRANCH  57  80
ATOM     80  C   UNL A   1      45.240  33.119  29.298  1.00  0.00     0.023 A 
ATOM     81  C   UNL A   1      45.198  34.256  28.474  1.00  0.00     0.031 A 
ATOM     82  C   UNL A   1      46.021  33.174  30.466  1.00  0.00     0.131 A 
ATOM     83  C   UNL A   1      45.963  35.384  28.804  1.00  0.00     0.055 A 
ATOM     84  C   UNL A   1      46.737  34.318  30.817  1.00  0.00     0.041 A 
ATOM     85  F   UNL A   1      46.096  32.114  31.288  1.00  0.00    -0.206 F 
ATOM     86  C   UNL A   1      46.719  35.428  29.978  1.00  0.00     0.022 A 
BRANCH  83  87
ATOM     87  S   UNL A   1      46.016  36.773  27.638  1.00  0.00     0.124 S 
ATOM     88  O   UNL A   1      44.766  37.466  27.933  1.00  0.00    -0.237 OA
ATOM     89  O   UNL A   1      47.238  37.466  28.032  1.00  0.00    -0.237 OA
ATOM     90  O   UNL A   1      46.069  36.121  26.330  1.00  0.00    -0.744 OA
ENDBRANCH  83  87
ENDBRANCH  57  80
ENDBRANCH  31  32
ENDBRANCH  23  26
ENDBRANCH  21  22
ENDBRANCH   1  21
TORSDOF 15
ENDMDL
MODEL 3
REMARK VINA RESULT:     -11.3      1.336      1.680
REMARK SMILES CC1(C)[C@@H](C(=O)NCCCCNC(=O)c2ccc(-c3c4nc(c(-c5cc(S(=O)(=O)[O-])ccc5F)c5ccc([nH]5)c(-c5cc(S(=O)(=O)[O-])ccc5F)c5nc(c(-c6cc(S(=O)(=O)[O-])ccc6F)c6ccc3[nH]6)C=C5)C=C4)cc2)CC[C@@]1(C)C(N)=O
REMARK SMILES IDX 10 1 9 2 8 3 7 4 5 5 6 6 4 8 1 9 2 10 3 11 80 12 78 13 79 14
REMARK SMILES IDX 81 15 82 16 83 17 84 18 11 21 12 22 13 23 14 25 15 26 16 27
REMARK SMILES IDX 77 28 17 29 76 30 18 31 19 32 20 33 70 34 21 35 75 36 69 37
REMARK SMILES IDX 71 38 22 39 74 40 68 41 67 42 23 44 55 45 35 46 54 47 36 48
REMARK SMILES IDX 39 49 53 50 72 51 37 52 38 53 52 55 73 56 40 57 24 58 25 59
REMARK SMILES IDX 33 60 26 61 32 62 34 63 31 64 27 65 28 66 29 67 30 68 56 69
REMARK SMILES IDX 57 70 65 71 58 72 64 73 66 74 63 75 59 76 60 77 61 78 62 79
REMARK SMILES IDX 41 80 42 81 50 82 43 83 49 84 51 85 48 86 44 87 45 88 46 89
REMARK SMILES IDX 47 90
REMARK H PARENT 7 7 83 19 83 20 12 24 71 43 39 54
REMARK Flexibility Score: inf
ROOT
ATOM      1  C   UNL A   1      32.512  30.794  27.387  1.00  0.00     0.023 C 
ENDROOT
BRANCH   1   2
ATOM      2  C   UNL A   1      31.757  30.349  26.132  1.00  0.00     0.023 C 
BRANCH   2   3
ATOM      3  C   UNL A   1      32.652  29.760  25.041  1.00  0.00     0.116 C 
BRANCH   3   4
ATOM      4  N   UNL A   1      31.879  29.374  23.880  1.00  0.00    -0.356 N 
ATOM      5  C   UNL A   1      31.310  28.226  23.448  1.00  0.00     0.223 C 
ATOM      6  O   UNL A   1      30.914  28.241  22.274  1.00  0.00    -0.275 OA
ATOM      7  H   UNL A   1      31.733  30.124  23.258  1.00  0.00     0.163 HD
BRANCH   5   8
ATOM      8  C   UNL A   1      31.090  26.945  24.270  1.00  0.00     0.085 C 
ATOM      9  C   UNL A   1      33.683  26.700  24.466  1.00  0.00     0.013 C 
ATOM     10  C   UNL A   1      32.321  25.985  24.368  1.00  0.00    -0.010 C 
ATOM     11  C   UNL A   1      32.210  25.195  25.714  1.00  0.00     0.013 C 
ATOM     12  C   UNL A   1      32.115  25.030  23.131  1.00  0.00     0.052 C 
ATOM     13  C   UNL A   1      29.949  25.998  23.919  1.00  0.00     0.015 C 
ATOM     14  C   UNL A   1      30.566  24.858  23.089  1.00  0.00     0.018 C 
ATOM     15  C   UNL A   1      32.791  23.653  23.297  1.00  0.00     0.022 C 
BRANCH  12  16
ATOM     16  C   UNL A   1      32.643  25.587  21.781  1.00  0.00     0.223 C 
ATOM     17  N   UNL A   1      31.729  25.778  20.787  1.00  0.00    -0.369 N 
ATOM     18  O   UNL A   1      33.821  25.786  21.510  1.00  0.00    -0.275 OA
ATOM     19  H   UNL A   1      30.772  25.628  20.963  1.00  0.00     0.159 HD
ATOM     20  H   UNL A   1      32.026  26.066  19.894  1.00  0.00     0.159 HD
ENDBRANCH  12  16
ENDBRANCH   5   8
ENDBRANCH   3   4
ENDBRANCH   2   3
ENDBRANCH   1   2
BRANCH   1  21
ATOM     21  C   UNL A   1      33.480  31.957  27.187  1.00  0.00     0.116 C 
BRANCH  21  22
ATOM     22  N   UNL A   1      32.910  33.257  27.513  1.00  0.00    -0.352 N 
ATOM     23  C   UNL A   1      33.290  34.123  28.512  1.00  0.00     0.251 C 
ATOM     24  H   UNL A   1      32.159  33.554  26.949  1.00  0.00     0.163 HD
ATOM     25  O   UNL A   1      32.658  35.156  28.714  1.00  0.00    -0.269 OA
BRANCH  23  26
ATOM     26  C   UNL A   1      34.440  33.760  29.363  1.00  0.00     0.039 A 
ATOM     27  C   UNL A   1      34.242  32.885  30.433  1.00  0.00     0.014 A 
ATOM     28  C   UNL A   1      35.722  34.216  29.042  1.00  0.00     0.014 A 
ATOM     29  C   UNL A   1      35.348  32.399  31.134  1.00  0.00     0.010 A 
ATOM     30  C   UNL A   1      36.823  33.678  29.697  1.00  0.00     0.010 A 
ATOM     31  C   UNL A   1      36.648  32.758  30.744  1.00  0.00    -0.014 A 
BRANCH  31  32
ATOM     32  C   UNL A   1      37.845  32.189  31.412  1.00  0.00     0.031 A 
ATOM     33  C   UNL A   1      38.601  31.068  30.755  1.00  0.00     0.074 A 
ATOM     34  C   UNL A   1      38.194  32.617  32.641  1.00  0.00     0.049 A 
ATOM     35  N   UNL A   1      39.588  30.348  31.220  1.00  0.00    -0.248 NA
ATOM     36  C   UNL A   1      38.157  30.683  29.407  1.00  0.00     0.031 C 
ATOM     37  C   UNL A   1      37.510  33.668  33.399  1.00  0.00     0.029 A 
ATOM     38  N   UNL A   1      39.203  32.210  33.479  1.00  0.00    -0.354 N 
ATOM     39  C   UNL A   1      39.869  29.409  30.233  1.00  0.00     0.074 A 
ATOM     40  C   UNL A   1      38.906  29.617  29.171  1.00  0.00     0.031 C 
ATOM     41  C   UNL A   1      38.127  33.832  34.581  1.00  0.00     0.029 A 
ATOM     42  C   UNL A   1      39.222  32.873  34.684  1.00  0.00     0.049 A 
ATOM     43  H   UNL A   1      39.851  31.510  33.239  1.00  0.00     0.167 HD
ATOM     44  C   UNL A   1      40.853  28.476  30.204  1.00  0.00     0.034 A 
ATOM     45  C   UNL A   1      40.024  32.715  35.757  1.00  0.00     0.034 A 
ATOM     46  C   UNL A   1      41.816  28.298  31.263  1.00  0.00     0.049 A 
ATOM     47  C   UNL A   1      41.111  31.671  35.705  1.00  0.00     0.074 A 
ATOM     48  C   UNL A   1      42.887  27.423  31.318  1.00  0.00     0.029 A 
ATOM     49  N   UNL A   1      41.823  29.008  32.458  1.00  0.00    -0.354 N 
ATOM     50  N   UNL A   1      41.392  30.819  34.745  1.00  0.00    -0.248 NA
ATOM     51  C   UNL A   1      41.993  31.575  36.874  1.00  0.00     0.031 C 
ATOM     52  C   UNL A   1      43.507  27.565  32.565  1.00  0.00     0.029 A 
ATOM     53  C   UNL A   1      42.865  28.577  33.262  1.00  0.00     0.049 A 
ATOM     54  H   UNL A   1      41.180  29.714  32.697  1.00  0.00     0.167 HD
ATOM     55  C   UNL A   1      42.506  30.110  35.184  1.00  0.00     0.074 A 
ATOM     56  C   UNL A   1      42.848  30.638  36.488  1.00  0.00     0.031 C 
ATOM     57  C   UNL A   1      43.189  29.115  34.563  1.00  0.00     0.034 A 
BRANCH  44  58
ATOM     58  C   UNL A   1      40.910  27.571  28.998  1.00  0.00     0.023 A 
ATOM     59  C   UNL A   1      41.862  27.760  27.980  1.00  0.00     0.031 A 
ATOM     60  C   UNL A   1      39.974  26.535  28.838  1.00  0.00     0.131 A 
ATOM     61  C   UNL A   1      41.802  26.987  26.811  1.00  0.00     0.055 A 
ATOM     62  C   UNL A   1      39.974  25.710  27.710  1.00  0.00     0.041 A 
ATOM     63  F   UNL A   1      39.028  26.317  29.765  1.00  0.00    -0.206 F 
ATOM     64  C   UNL A   1      40.881  25.945  26.680  1.00  0.00     0.022 A 
BRANCH  61  65
ATOM     65  S   UNL A   1      42.842  27.465  25.405  1.00  0.00     0.124 S 
ATOM     66  O   UNL A   1      44.065  27.898  26.078  1.00  0.00    -0.237 OA
ATOM     67  O   UNL A   1      42.937  26.225  24.644  1.00  0.00    -0.237 OA
ATOM     68  O   UNL A   1      42.081  28.535  24.764  1.00  0.00    -0.744 OA
ENDBRANCH  61  65
ENDBRANCH  44  58
BRANCH  45  69
ATOM     69  C   UNL A   1      39.835  33.554  36.973  1.00  0.00     0.023 A 
ATOM     70  C   UNL A   1      39.166  33.052  38.100  1.00  0.00     0.031 A 
ATOM     71  C   UNL A   1      40.284  34.886  37.013  1.00  0.00     0.131 A 
ATOM     72  C   UNL A   1      38.924  33.886  39.202  1.00  0.00     0.055 A 
ATOM     73  C   UNL A   1      40.083  35.699  38.130  1.00  0.00     0.041 A 
ATOM     74  F   UNL A   1      40.937  35.414  35.965  1.00  0.00    -0.206 F 
ATOM     75  C   UNL A   1      39.387  35.204  39.228  1.00  0.00     0.022 A 
BRANCH  72  76
ATOM     76  S   UNL A   1      37.923  33.247  40.573  1.00  0.00     0.124 S 
ATOM     77  O   UNL A   1      37.938  34.371  41.502  1.00  0.00    -0.237 OA
ATOM     78  O   UNL A   1      36.650  32.974  39.915  1.00  0.00    -0.237 OA
ATOM     79  O   UNL A   1      38.662  32.064  41.010  1.00  0.00    -0.744 OA
ENDBRANCH  72  76
ENDBRANCH  45  69
BRANCH  57  80
ATOM     80  C   UNL A   1      44.409  28.578  35.269  1.00  0.00     0.023 A 
ATOM     81  C   UNL A   1      44.312  27.622  36.293  1.00  0.00     0.031 A 
ATOM     82  C   UNL A   1      45.688  29.037  34.907  1.00  0.00     0.131 A 
ATOM     83  C   UNL A   1      45.471  27.191  36.956  1.00  0.00     0.055 A 
ATOM     84  C   UNL A   1      46.841  28.565  35.533  1.00  0.00     0.041 A 
ATOM     85  F   UNL A   1      45.835  29.951  33.934  1.00  0.00    -0.206 F 
ATOM     86  C   UNL A   1      46.736  27.644  36.571  1.00  0.00     0.022 A 
BRANCH  83  87
ATOM     87  S   UNL A   1      45.300  26.083  38.381  1.00  0.00     0.124 S 
ATOM     88  O   UNL A   1      45.360  24.767  37.752  1.00  0.00    -0.237 OA
ATOM     89  O   UNL A   1      46.448  26.449  39.203  1.00  0.00    -0.237 OA
ATOM     90  O   UNL A   1      43.998  26.442  38.942  1.00  0.00    -0.744 OA
ENDBRANCH  83  87
ENDBRANCH  57  80
ENDBRANCH  31  32
ENDBRANCH  23  26
ENDBRANCH  21  22
ENDBRANCH   1  21
TORSDOF 15
ENDMDL
