MODEL 1
REMARK VINA RESULT:     -12.2      0.000      0.000
REMARK SMILES C[C@H](NC1=[NH+]S(=O)(=O)c2ccccc21)C(=O)NCCCCNC(=O)c1ccc(-c2c3nc(c(-c4cc(S(=O)(=O)[O-])ccc4F)c4ccc([nH]4)c(-c4cc(S(=O)(=O)[O-])ccc4F)c4nc(c(-c5cc(S(=O)(=O)[O-])ccc5F)c5ccc2[nH]5)C=C4)C=C3)cc1
REMARK SMILES IDX 20 1 19 2 18 3 17 4 15 5 16 6 2 8 1 9 3 10 4 11 5 13 14 14
REMARK SMILES IDX 6 15 9 17 13 18 7 19 8 20 10 21 12 22 11 23 21 24 22 25
REMARK SMILES IDX 23 26 24 28 25 29 26 30 87 31 27 32 86 33 28 34 29 35 30 36
REMARK SMILES IDX 80 37 31 38 85 39 79 40 81 41 32 42 84 43 78 44 77 45 33 47
REMARK SMILES IDX 65 48 45 49 64 50 46 51 49 52 63 53 82 54 47 55 48 56 62 58
REMARK SMILES IDX 83 59 50 60 34 61 35 62 43 63 36 64 42 65 44 66 41 67 37 68
REMARK SMILES IDX 38 69 39 70 40 71 66 72 67 73 75 74 68 75 74 76 76 77 73 78
REMARK SMILES IDX 69 79 70 80 71 81 72 82 51 83 52 84 60 85 53 86 59 87 61 88
REMARK SMILES IDX 58 89 54 90 55 91 56 92 57 93
REMARK H PARENT 17 7 3 12 5 16 22 27 81 46 49 57
REMARK Flexibility Score: inf
ROOT
ATOM      1  C   UNL A   1      31.494  32.479  26.584  1.00  0.00     0.023 C 
ENDROOT
BRANCH   1   2
ATOM      2  C   UNL A   1      31.375  30.974  26.387  1.00  0.00     0.023 C 
BRANCH   2   3
ATOM      3  C   UNL A   1      32.643  30.274  25.911  1.00  0.00     0.116 C 
BRANCH   3   4
ATOM      4  N   UNL A   1      32.455  29.692  24.595  1.00  0.00    -0.352 N 
ATOM      5  C   UNL A   1      32.418  28.376  24.222  1.00  0.00     0.264 C 
ATOM      6  O   UNL A   1      32.352  28.119  23.018  1.00  0.00    -0.270 OA
ATOM      7  H   UNL A   1      32.336  30.338  23.862  1.00  0.00     0.163 HD
BRANCH   5   8
ATOM      8  C   UNL A   1      32.471  27.242  25.277  1.00  0.00     0.258 C 
ATOM      9  C   UNL A   1      33.864  27.185  25.898  1.00  0.00     0.069 C 
BRANCH   8  10
ATOM     10  N   UNL A   1      31.946  26.001  24.684  1.00  0.00    -0.262 N 
ATOM     11  C   UNL A   1      31.648  24.826  25.323  1.00  0.00     0.292 C 
ATOM     12  H   UNL A   1      31.792  26.016  23.712  1.00  0.00     0.306 HD
ATOM     13  N   UNL A   1      31.380  24.714  26.590  1.00  0.00    -0.162 N 
ATOM     14  C   UNL A   1      31.729  23.538  24.581  1.00  0.00     0.087 A 
ATOM     15  S   UNL A   1      31.278  23.139  27.038  1.00  0.00     0.329 S 
ATOM     16  H   UNL A   1      31.255  25.475  27.201  1.00  0.00     0.327 HD
ATOM     17  C   UNL A   1      31.672  22.489  25.476  1.00  0.00     0.124 A 
ATOM     18  C   UNL A   1      31.985  23.295  23.242  1.00  0.00     0.018 A 
ATOM     19  O   UNL A   1      29.909  22.778  27.317  1.00  0.00    -0.179 OA
ATOM     20  O   UNL A   1      32.373  22.808  27.929  1.00  0.00    -0.179 OA
ATOM     21  C   UNL A   1      31.975  21.185  25.137  1.00  0.00     0.025 A 
ATOM     22  C   UNL A   1      32.287  21.982  22.858  1.00  0.00     0.001 A 
ATOM     23  C   UNL A   1      32.304  20.940  23.803  1.00  0.00     0.002 A 
ENDBRANCH   8  10
ENDBRANCH   5   8
ENDBRANCH   3   4
ENDBRANCH   2   3
ENDBRANCH   1   2
BRANCH   1  24
ATOM     24  C   UNL A   1      32.787  32.941  27.239  1.00  0.00     0.116 C 
BRANCH  24  25
ATOM     25  N   UNL A   1      32.679  34.244  27.878  1.00  0.00    -0.352 N 
ATOM     26  C   UNL A   1      33.441  34.768  28.899  1.00  0.00     0.251 C 
ATOM     27  H   UNL A   1      31.967  34.831  27.534  1.00  0.00     0.163 HD
ATOM     28  O   UNL A   1      33.132  35.845  29.401  1.00  0.00    -0.269 OA
BRANCH  26  29
ATOM     29  C   UNL A   1      34.593  33.998  29.414  1.00  0.00     0.039 A 
ATOM     30  C   UNL A   1      35.883  34.371  29.032  1.00  0.00     0.014 A 
ATOM     31  C   UNL A   1      34.402  32.948  30.317  1.00  0.00     0.014 A 
ATOM     32  C   UNL A   1      36.984  33.750  29.626  1.00  0.00     0.010 A 
ATOM     33  C   UNL A   1      35.496  32.397  30.973  1.00  0.00     0.010 A 
ATOM     34  C   UNL A   1      36.800  32.793  30.637  1.00  0.00    -0.014 A 
BRANCH  34  35
ATOM     35  C   UNL A   1      37.951  32.187  31.356  1.00  0.00     0.031 A 
ATOM     36  C   UNL A   1      38.716  31.057  30.723  1.00  0.00     0.074 A 
ATOM     37  C   UNL A   1      38.251  32.595  32.606  1.00  0.00     0.049 A 
ATOM     38  N   UNL A   1      39.674  30.320  31.225  1.00  0.00    -0.248 NA
ATOM     39  C   UNL A   1      38.322  30.681  29.357  1.00  0.00     0.031 C 
ATOM     40  C   UNL A   1      37.547  33.645  33.346  1.00  0.00     0.029 A 
ATOM     41  N   UNL A   1      39.217  32.166  33.481  1.00  0.00    -0.354 N 
ATOM     42  C   UNL A   1      39.980  29.379  30.247  1.00  0.00     0.074 A 
ATOM     43  C   UNL A   1      39.059  29.601  29.152  1.00  0.00     0.031 C 
ATOM     44  C   UNL A   1      38.122  33.795  34.551  1.00  0.00     0.029 A 
ATOM     45  C   UNL A   1      39.203  32.825  34.689  1.00  0.00     0.049 A 
ATOM     46  H   UNL A   1      39.861  31.453  33.265  1.00  0.00     0.167 HD
ATOM     47  C   UNL A   1      40.954  28.436  30.251  1.00  0.00     0.034 A 
ATOM     48  C   UNL A   1      39.967  32.659  35.787  1.00  0.00     0.034 A 
ATOM     49  C   UNL A   1      41.881  28.248  31.340  1.00  0.00     0.049 A 
ATOM     50  C   UNL A   1      41.047  31.606  35.768  1.00  0.00     0.074 A 
ATOM     51  C   UNL A   1      42.946  27.370  31.424  1.00  0.00     0.029 A 
ATOM     52  N   UNL A   1      41.851  28.951  32.538  1.00  0.00    -0.354 N 
ATOM     53  N   UNL A   1      41.357  30.759  34.814  1.00  0.00    -0.248 NA
ATOM     54  C   UNL A   1      41.885  31.496  36.968  1.00  0.00     0.031 C 
ATOM     55  C   UNL A   1      43.524  27.500  32.692  1.00  0.00     0.029 A 
ATOM     56  C   UNL A   1      42.862  28.509  33.376  1.00  0.00     0.049 A 
ATOM     57  H   UNL A   1      41.204  29.660  32.760  1.00  0.00     0.167 HD
ATOM     58  C   UNL A   1      42.447  30.035  35.290  1.00  0.00     0.074 A 
ATOM     59  C   UNL A   1      42.746  30.556  36.608  1.00  0.00     0.031 C 
ATOM     60  C   UNL A   1      43.142  29.034  34.691  1.00  0.00     0.034 A 
BRANCH  47  61
ATOM     61  C   UNL A   1      41.045  27.530  29.045  1.00  0.00     0.023 A 
ATOM     62  C   UNL A   1      42.029  27.713  28.058  1.00  0.00     0.031 A 
ATOM     63  C   UNL A   1      40.113  26.495  28.859  1.00  0.00     0.131 A 
ATOM     64  C   UNL A   1      42.006  26.934  26.892  1.00  0.00     0.055 A 
ATOM     65  C   UNL A   1      40.149  25.664  27.737  1.00  0.00     0.041 A 
ATOM     66  F   UNL A   1      39.138  26.282  29.758  1.00  0.00    -0.206 F 
ATOM     67  C   UNL A   1      41.089  25.894  26.735  1.00  0.00     0.022 A 
BRANCH  64  68
ATOM     68  S   UNL A   1      43.093  27.404  25.518  1.00  0.00     0.124 S 
ATOM     69  O   UNL A   1      44.174  28.093  26.221  1.00  0.00    -0.237 OA
ATOM     70  O   UNL A   1      43.434  26.114  24.930  1.00  0.00    -0.237 OA
ATOM     71  O   UNL A   1      42.249  28.264  24.692  1.00  0.00    -0.744 OA
ENDBRANCH  64  68
ENDBRANCH  47  61
BRANCH  48  72
ATOM     72  C   UNL A   1      39.747  33.499  36.997  1.00  0.00     0.023 A 
ATOM     73  C   UNL A   1      38.993  33.019  38.081  1.00  0.00     0.031 A 
ATOM     74  C   UNL A   1      40.253  34.808  37.075  1.00  0.00     0.131 A 
ATOM     75  C   UNL A   1      38.725  33.858  39.173  1.00  0.00     0.055 A 
ATOM     76  C   UNL A   1      40.025  35.622  38.186  1.00  0.00     0.041 A 
ATOM     77  F   UNL A   1      40.988  35.312  36.071  1.00  0.00    -0.206 F 
ATOM     78  C   UNL A   1      39.246  35.152  39.239  1.00  0.00     0.022 A 
BRANCH  75  79
ATOM     79  S   UNL A   1      37.617  33.257  40.477  1.00  0.00     0.124 S 
ATOM     80  O   UNL A   1      38.397  32.166  41.051  1.00  0.00    -0.237 OA
ATOM     81  O   UNL A   1      37.463  34.444  41.312  1.00  0.00    -0.237 OA
ATOM     82  O   UNL A   1      36.419  32.852  39.745  1.00  0.00    -0.744 OA
ENDBRANCH  75  79
ENDBRANCH  48  72
BRANCH  60  83
ATOM     83  C   UNL A   1      44.322  28.476  35.445  1.00  0.00     0.023 A 
ATOM     84  C   UNL A   1      44.173  27.463  36.407  1.00  0.00     0.031 A 
ATOM     85  C   UNL A   1      45.613  28.976  35.203  1.00  0.00     0.131 A 
ATOM     86  C   UNL A   1      45.289  27.018  37.132  1.00  0.00     0.055 A 
ATOM     87  C   UNL A   1      46.728  28.490  35.886  1.00  0.00     0.041 A 
ATOM     88  F   UNL A   1      45.811  29.945  34.295  1.00  0.00    -0.206 F 
ATOM     89  C   UNL A   1      46.568  27.515  36.865  1.00  0.00     0.022 A 
BRANCH  86  90
ATOM     90  S   UNL A   1      45.035  25.843  38.489  1.00  0.00     0.124 S 
ATOM     91  O   UNL A   1      44.578  24.653  37.779  1.00  0.00    -0.237 OA
ATOM     92  O   UNL A   1      46.366  25.759  39.083  1.00  0.00    -0.237 OA
ATOM     93  O   UNL A   1      44.025  26.495  39.322  1.00  0.00    -0.744 OA
ENDBRANCH  86  90
ENDBRANCH  60  83
ENDBRANCH  34  35
ENDBRANCH  26  29
ENDBRANCH  24  25
ENDBRANCH   1  24
TORSDOF 15
ENDMDL
MODEL 2
REMARK VINA RESULT:     -12.1      5.819     11.103
REMARK SMILES C[C@H](NC1=[NH+]S(=O)(=O)c2ccccc21)C(=O)NCCCCNC(=O)c1ccc(-c2c3nc(c(-c4cc(S(=O)(=O)[O-])ccc4F)c4ccc([nH]4)c(-c4cc(S(=O)(=O)[O-])ccc4F)c4nc(c(-c5cc(S(=O)(=O)[O-])ccc5F)c5ccc2[nH]5)C=C4)C=C3)cc1
REMARK SMILES IDX 20 1 19 2 18 3 17 4 15 5 16 6 2 8 1 9 3 10 4 11 5 13 14 14
REMARK SMILES IDX 6 15 9 17 13 18 7 19 8 20 10 21 12 22 11 23 21 24 22 25
REMARK SMILES IDX 23 26 24 28 25 29 26 30 87 31 27 32 86 33 28 34 29 35 30 36
REMARK SMILES IDX 80 37 31 38 85 39 79 40 81 41 32 42 84 43 78 44 77 45 33 47
REMARK SMILES IDX 65 48 45 49 64 50 46 51 49 52 63 53 82 54 47 55 48 56 62 58
REMARK SMILES IDX 83 59 50 60 34 61 35 62 43 63 36 64 42 65 44 66 41 67 37 68
REMARK SMILES IDX 38 69 39 70 40 71 66 72 67 73 75 74 68 75 74 76 76 77 73 78
REMARK SMILES IDX 69 79 70 80 71 81 72 82 51 83 52 84 60 85 53 86 59 87 61 88
REMARK SMILES IDX 58 89 54 90 55 91 56 92 57 93
REMARK H PARENT 17 7 3 12 5 16 22 27 81 46 49 57
REMARK Flexibility Score: inf
ROOT
ATOM      1  C   UNL A   1      35.518  21.454  25.942  1.00  0.00     0.023 C 
ENDROOT
BRANCH   1   2
ATOM      2  C   UNL A   1      34.444  20.688  25.182  1.00  0.00     0.023 C 
BRANCH   2   3
ATOM      3  C   UNL A   1      33.579  21.526  24.247  1.00  0.00     0.116 C 
BRANCH   3   4
ATOM      4  N   UNL A   1      32.205  21.573  24.711  1.00  0.00    -0.352 N 
ATOM      5  C   UNL A   1      31.665  22.251  25.770  1.00  0.00     0.264 C 
ATOM      6  O   UNL A   1      30.478  22.054  26.038  1.00  0.00    -0.270 OA
ATOM      7  H   UNL A   1      31.566  21.038  24.187  1.00  0.00     0.163 HD
BRANCH   5   8
ATOM      8  C   UNL A   1      32.521  23.228  26.616  1.00  0.00     0.258 C 
ATOM      9  C   UNL A   1      32.820  22.602  27.976  1.00  0.00     0.069 C 
BRANCH   8  10
ATOM     10  N   UNL A   1      31.890  24.558  26.610  1.00  0.00    -0.262 N 
ATOM     11  C   UNL A   1      31.911  25.494  25.610  1.00  0.00     0.292 C 
ATOM     12  H   UNL A   1      31.394  24.805  27.424  1.00  0.00     0.306 HD
ATOM     13  N   UNL A   1      32.126  25.236  24.354  1.00  0.00    -0.162 N 
ATOM     14  C   UNL A   1      31.793  26.939  25.944  1.00  0.00     0.087 A 
ATOM     15  S   UNL A   1      32.284  26.618  23.484  1.00  0.00     0.329 S 
ATOM     16  H   UNL A   1      32.187  24.330  23.974  1.00  0.00     0.327 HD
ATOM     17  C   UNL A   1      32.124  27.694  24.838  1.00  0.00     0.124 A 
ATOM     18  C   UNL A   1      31.562  27.556  27.162  1.00  0.00     0.018 A 
ATOM     19  O   UNL A   1      31.131  26.821  22.639  1.00  0.00    -0.179 OA
ATOM     20  O   UNL A   1      33.644  26.741  22.996  1.00  0.00    -0.179 OA
ATOM     21  C   UNL A   1      32.359  29.054  24.890  1.00  0.00     0.025 A 
ATOM     22  C   UNL A   1      31.780  28.937  27.251  1.00  0.00     0.001 A 
ATOM     23  C   UNL A   1      32.197  29.675  26.129  1.00  0.00     0.002 A 
ENDBRANCH   8  10
ENDBRANCH   5   8
ENDBRANCH   3   4
ENDBRANCH   2   3
ENDBRANCH   1   2
BRANCH   1  24
ATOM     24  C   UNL A   1      36.818  21.663  25.179  1.00  0.00     0.116 C 
BRANCH  24  25
ATOM     25  N   UNL A   1      37.774  20.579  25.357  1.00  0.00    -0.352 N 
ATOM     26  C   UNL A   1      39.055  20.635  25.862  1.00  0.00     0.251 C 
ATOM     27  H   UNL A   1      37.464  19.687  25.079  1.00  0.00     0.163 HD
ATOM     28  O   UNL A   1      39.769  19.637  25.827  1.00  0.00    -0.269 OA
BRANCH  26  29
ATOM     29  C   UNL A   1      39.571  21.915  26.392  1.00  0.00     0.039 A 
ATOM     30  C   UNL A   1      40.650  21.896  27.277  1.00  0.00     0.014 A 
ATOM     31  C   UNL A   1      39.028  23.132  25.969  1.00  0.00     0.014 A 
ATOM     32  C   UNL A   1      41.242  23.100  27.667  1.00  0.00     0.010 A 
ATOM     33  C   UNL A   1      39.674  24.320  26.285  1.00  0.00     0.010 A 
ATOM     34  C   UNL A   1      40.790  24.318  27.135  1.00  0.00    -0.014 A 
BRANCH  34  35
ATOM     35  C   UNL A   1      41.463  25.605  27.455  1.00  0.00     0.031 A 
ATOM     36  C   UNL A   1      40.733  26.652  28.251  1.00  0.00     0.074 A 
ATOM     37  C   UNL A   1      42.689  25.862  26.958  1.00  0.00     0.049 A 
ATOM     38  N   UNL A   1      41.093  27.876  28.540  1.00  0.00    -0.248 NA
ATOM     39  C   UNL A   1      39.402  26.284  28.755  1.00  0.00     0.031 C 
ATOM     40  C   UNL A   1      43.477  24.946  26.127  1.00  0.00     0.029 A 
ATOM     41  N   UNL A   1      43.487  26.974  27.067  1.00  0.00    -0.354 N 
ATOM     42  C   UNL A   1      40.026  28.431  29.237  1.00  0.00     0.074 A 
ATOM     43  C   UNL A   1      38.981  27.429  29.268  1.00  0.00     0.031 C 
ATOM     44  C   UNL A   1      44.651  25.524  25.826  1.00  0.00     0.029 A 
ATOM     45  C   UNL A   1      44.685  26.865  26.400  1.00  0.00     0.049 A 
ATOM     46  H   UNL A   1      43.225  27.775  27.576  1.00  0.00     0.167 HD
ATOM     47  C   UNL A   1      39.934  29.653  29.819  1.00  0.00     0.034 A 
ATOM     48  C   UNL A   1      45.692  27.750  26.258  1.00  0.00     0.034 A 
ATOM     49  C   UNL A   1      40.997  30.628  29.802  1.00  0.00     0.049 A 
ATOM     50  C   UNL A   1      45.571  29.101  26.917  1.00  0.00     0.074 A 
ATOM     51  C   UNL A   1      41.039  31.868  30.414  1.00  0.00     0.029 A 
ATOM     52  N   UNL A   1      42.207  30.472  29.137  1.00  0.00    -0.354 N 
ATOM     53  N   UNL A   1      44.574  29.591  27.617  1.00  0.00    -0.248 NA
ATOM     54  C   UNL A   1      46.714  30.011  26.776  1.00  0.00     0.031 C 
ATOM     55  C   UNL A   1      42.248  32.486  30.071  1.00  0.00     0.029 A 
ATOM     56  C   UNL A   1      42.990  31.604  29.301  1.00  0.00     0.049 A 
ATOM     57  H   UNL A   1      42.468  29.675  28.622  1.00  0.00     0.167 HD
ATOM     58  C   UNL A   1      44.985  30.857  28.024  1.00  0.00     0.074 A 
ATOM     59  C   UNL A   1      46.323  31.047  27.503  1.00  0.00     0.031 C 
ATOM     60  C   UNL A   1      44.320  31.779  28.767  1.00  0.00     0.034 A 
BRANCH  47  61
ATOM     61  C   UNL A   1      38.632  29.998  30.503  1.00  0.00     0.023 A 
ATOM     62  C   UNL A   1      37.611  30.696  29.835  1.00  0.00     0.031 A 
ATOM     63  C   UNL A   1      38.423  29.659  31.851  1.00  0.00     0.131 A 
ATOM     64  C   UNL A   1      36.469  31.109  30.537  1.00  0.00     0.055 A 
ATOM     65  C   UNL A   1      37.245  29.996  32.521  1.00  0.00     0.041 A 
ATOM     66  F   UNL A   1      39.369  29.008  32.548  1.00  0.00    -0.206 F 
ATOM     67  C   UNL A   1      36.267  30.742  31.869  1.00  0.00     0.022 A 
BRANCH  64  68
ATOM     68  S   UNL A   1      35.328  32.263  29.727  1.00  0.00     0.124 S 
ATOM     69  O   UNL A   1      34.409  32.581  30.819  1.00  0.00    -0.237 OA
ATOM     70  O   UNL A   1      36.215  33.341  29.306  1.00  0.00    -0.237 OA
ATOM     71  O   UNL A   1      34.749  31.470  28.645  1.00  0.00    -0.744 OA
ENDBRANCH  64  68
ENDBRANCH  47  61
BRANCH  48  72
ATOM     72  C   UNL A   1      46.902  27.399  25.462  1.00  0.00     0.023 A 
ATOM     73  C   UNL A   1      47.037  27.824  24.130  1.00  0.00     0.031 A 
ATOM     74  C   UNL A   1      47.923  26.601  26.007  1.00  0.00     0.131 A 
ATOM     75  C   UNL A   1      48.143  27.410  23.373  1.00  0.00     0.055 A 
ATOM     76  C   UNL A   1      49.046  26.233  25.264  1.00  0.00     0.041 A 
ATOM     77  F   UNL A   1      47.848  26.176  27.278  1.00  0.00    -0.206 F 
ATOM     78  C   UNL A   1      49.155  26.627  23.934  1.00  0.00     0.022 A 
BRANCH  75  79
ATOM     79  S   UNL A   1      48.203  27.846  21.614  1.00  0.00     0.124 S 
ATOM     80  O   UNL A   1      46.920  28.516  21.430  1.00  0.00    -0.237 OA
ATOM     81  O   UNL A   1      49.386  28.698  21.554  1.00  0.00    -0.237 OA
ATOM     82  O   UNL A   1      48.335  26.552  20.946  1.00  0.00    -0.744 OA
ENDBRANCH  75  79
ENDBRANCH  48  72
BRANCH  60  83
ATOM     83  C   UNL A   1      45.056  33.053  29.094  1.00  0.00     0.023 A 
ATOM     84  C   UNL A   1      45.007  34.174  28.248  1.00  0.00     0.031 A 
ATOM     85  C   UNL A   1      45.828  33.140  30.266  1.00  0.00     0.131 A 
ATOM     86  C   UNL A   1      45.760  35.317  28.558  1.00  0.00     0.055 A 
ATOM     87  C   UNL A   1      46.529  34.300  30.599  1.00  0.00     0.041 A 
ATOM     88  F   UNL A   1      45.909  32.098  31.109  1.00  0.00    -0.206 F 
ATOM     89  C   UNL A   1      46.508  35.392  29.736  1.00  0.00     0.022 A 
BRANCH  86  90
ATOM     90  S   UNL A   1      45.819  36.673  27.356  1.00  0.00     0.124 S 
ATOM     91  O   UNL A   1      44.443  36.707  26.869  1.00  0.00    -0.237 OA
ATOM     92  O   UNL A   1      46.231  37.804  28.182  1.00  0.00    -0.237 OA
ATOM     93  O   UNL A   1      46.812  36.225  26.382  1.00  0.00    -0.744 OA
ENDBRANCH  86  90
ENDBRANCH  60  83
ENDBRANCH  34  35
ENDBRANCH  26  29
ENDBRANCH  24  25
ENDBRANCH   1  24
TORSDOF 15
ENDMDL
MODEL 3
REMARK VINA RESULT:     -11.9      2.365      2.979
REMARK SMILES C[C@H](NC1=[NH+]S(=O)(=O)c2ccccc21)C(=O)NCCCCNC(=O)c1ccc(-c2c3nc(c(-c4cc(S(=O)(=O)[O-])ccc4F)c4ccc([nH]4)c(-c4cc(S(=O)(=O)[O-])ccc4F)c4nc(c(-c5cc(S(=O)(=O)[O-])ccc5F)c5ccc2[nH]5)C=C4)C=C3)cc1
REMARK SMILES IDX 20 1 19 2 18 3 17 4 15 5 16 6 2 8 1 9 3 10 4 11 5 13 14 14
REMARK SMILES IDX 6 15 9 17 13 18 7 19 8 20 10 21 12 22 11 23 21 24 22 25
REMARK SMILES IDX 23 26 24 28 25 29 26 30 87 31 27 32 86 33 28 34 29 35 30 36
REMARK SMILES IDX 80 37 31 38 85 39 79 40 81 41 32 42 84 43 78 44 77 45 33 47
REMARK SMILES IDX 65 48 45 49 64 50 46 51 49 52 63 53 82 54 47 55 48 56 62 58
REMARK SMILES IDX 83 59 50 60 34 61 35 62 43 63 36 64 42 65 44 66 41 67 37 68
REMARK SMILES IDX 38 69 39 70 40 71 66 72 67 73 75 74 68 75 74 76 76 77 73 78
REMARK SMILES IDX 69 79 70 80 71 81 72 82 51 83 52 84 60 85 53 86 59 87 61 88
REMARK SMILES IDX 58 89 54 90 55 91 56 92 57 93
REMARK H PARENT 17 7 3 12 5 16 22 27 81 46 49 57
REMARK Flexibility Score: inf
ROOT
ATOM      1  C   UNL A   1      32.396  29.455  24.623  1.00  0.00     0.023 C 
ENDROOT
BRANCH   1   2
ATOM      2  C   UNL A   1      31.068  29.305  23.893  1.00  0.00     0.023 C 
BRANCH   2   3
ATOM      3  C   UNL A   1      30.865  27.979  23.168  1.00  0.00     0.116 C 
BRANCH   3   4
ATOM      4  N   UNL A   1      32.003  27.668  22.323  1.00  0.00    -0.352 N 
ATOM      5  C   UNL A   1      32.846  26.591  22.359  1.00  0.00     0.264 C 
ATOM      6  O   UNL A   1      33.819  26.593  21.601  1.00  0.00    -0.270 OA
ATOM      7  H   UNL A   1      32.198  28.329  21.620  1.00  0.00     0.163 HD
BRANCH   5   8
ATOM      8  C   UNL A   1      32.597  25.411  23.331  1.00  0.00     0.258 C 
ATOM      9  C   UNL A   1      32.423  25.943  24.751  1.00  0.00     0.069 C 
BRANCH   8  10
ATOM     10  N   UNL A   1      33.626  24.380  23.120  1.00  0.00    -0.262 N 
ATOM     11  C   UNL A   1      33.612  23.078  23.546  1.00  0.00     0.292 C 
ATOM     12  H   UNL A   1      34.422  24.660  22.612  1.00  0.00     0.306 HD
ATOM     13  N   UNL A   1      32.541  22.404  23.845  1.00  0.00    -0.162 N 
ATOM     14  C   UNL A   1      34.894  22.369  23.809  1.00  0.00     0.087 A 
ATOM     15  S   UNL A   1      32.919  20.954  24.513  1.00  0.00     0.329 S 
ATOM     16  H   UNL A   1      31.622  22.723  23.691  1.00  0.00     0.327 HD
ATOM     17  C   UNL A   1      34.639  21.197  24.491  1.00  0.00     0.124 A 
ATOM     18  C   UNL A   1      36.200  22.784  23.604  1.00  0.00     0.018 A 
ATOM     19  O   UNL A   1      32.628  19.880  23.594  1.00  0.00    -0.179 OA
ATOM     20  O   UNL A   1      32.507  20.929  25.903  1.00  0.00    -0.179 OA
ATOM     21  C   UNL A   1      35.623  20.444  25.101  1.00  0.00     0.025 A 
ATOM     22  C   UNL A   1      37.226  22.040  24.199  1.00  0.00     0.001 A 
ATOM     23  C   UNL A   1      36.938  20.892  24.960  1.00  0.00     0.002 A 
ENDBRANCH   8  10
ENDBRANCH   5   8
ENDBRANCH   3   4
ENDBRANCH   2   3
ENDBRANCH   1   2
BRANCH   1  24
ATOM     24  C   UNL A   1      32.280  29.747  26.112  1.00  0.00     0.116 C 
BRANCH  24  25
ATOM     25  N   UNL A   1      31.979  31.141  26.407  1.00  0.00    -0.352 N 
ATOM     26  C   UNL A   1      32.714  32.043  27.144  1.00  0.00     0.251 C 
ATOM     27  H   UNL A   1      31.138  31.485  26.029  1.00  0.00     0.163 HD
ATOM     28  O   UNL A   1      32.248  33.151  27.394  1.00  0.00    -0.269 OA
BRANCH  26  29
ATOM     29  C   UNL A   1      34.037  31.644  27.670  1.00  0.00     0.039 A 
ATOM     30  C   UNL A   1      34.990  32.631  27.930  1.00  0.00     0.014 A 
ATOM     31  C   UNL A   1      34.313  30.305  27.961  1.00  0.00     0.014 A 
ATOM     32  C   UNL A   1      36.184  32.285  28.565  1.00  0.00     0.010 A 
ATOM     33  C   UNL A   1      35.460  29.978  28.674  1.00  0.00     0.010 A 
ATOM     34  C   UNL A   1      36.408  30.964  28.987  1.00  0.00    -0.014 A 
BRANCH  34  35
ATOM     35  C   UNL A   1      37.624  30.586  29.752  1.00  0.00     0.031 A 
ATOM     36  C   UNL A   1      38.641  29.665  29.132  1.00  0.00     0.074 A 
ATOM     37  C   UNL A   1      37.770  30.999  31.027  1.00  0.00     0.049 A 
ATOM     38  N   UNL A   1      39.707  29.127  29.666  1.00  0.00    -0.248 NA
ATOM     39  C   UNL A   1      38.402  29.268  27.737  1.00  0.00     0.031 C 
ATOM     40  C   UNL A   1      36.826  31.851  31.756  1.00  0.00     0.029 A 
ATOM     41  N   UNL A   1      38.762  30.750  31.943  1.00  0.00    -0.354 N 
ATOM     42  C   UNL A   1      40.251  28.309  28.682  1.00  0.00     0.074 A 
ATOM     43  C   UNL A   1      39.359  28.375  27.544  1.00  0.00     0.031 C 
ATOM     44  C   UNL A   1      37.297  32.072  32.994  1.00  0.00     0.029 A 
ATOM     45  C   UNL A   1      38.550  31.345  33.165  1.00  0.00     0.049 A 
ATOM     46  H   UNL A   1      39.551  30.196  31.744  1.00  0.00     0.167 HD
ATOM     47  C   UNL A   1      41.401  27.591  28.715  1.00  0.00     0.034 A 
ATOM     48  C   UNL A   1      39.278  31.301  34.299  1.00  0.00     0.034 A 
ATOM     49  C   UNL A   1      42.293  27.560  29.848  1.00  0.00     0.049 A 
ATOM     50  C   UNL A   1      40.555  30.499  34.311  1.00  0.00     0.074 A 
ATOM     51  C   UNL A   1      43.514  26.922  29.967  1.00  0.00     0.029 A 
ATOM     52  N   UNL A   1      42.057  28.195  31.061  1.00  0.00    -0.354 N 
ATOM     53  N   UNL A   1      41.083  29.772  33.354  1.00  0.00    -0.248 NA
ATOM     54  C   UNL A   1      41.339  30.521  35.553  1.00  0.00     0.031 C 
ATOM     55  C   UNL A   1      43.989  27.122  31.269  1.00  0.00     0.029 A 
ATOM     56  C   UNL A   1      43.097  27.943  31.942  1.00  0.00     0.049 A 
ATOM     57  H   UNL A   1      41.265  28.744  31.266  1.00  0.00     0.167 HD
ATOM     58  C   UNL A   1      42.276  29.275  33.870  1.00  0.00     0.074 A 
ATOM     59  C   UNL A   1      42.395  29.797  35.216  1.00  0.00     0.031 C 
ATOM     60  C   UNL A   1      43.195  28.465  33.284  1.00  0.00     0.034 A 
BRANCH  47  61
ATOM     61  C   UNL A   1      41.740  26.770  27.492  1.00  0.00     0.023 A 
ATOM     62  C   UNL A   1      41.423  25.403  27.411  1.00  0.00     0.031 A 
ATOM     63  C   UNL A   1      42.422  27.352  26.410  1.00  0.00     0.131 A 
ATOM     64  C   UNL A   1      41.863  24.645  26.316  1.00  0.00     0.055 A 
ATOM     65  C   UNL A   1      42.781  26.611  25.282  1.00  0.00     0.041 A 
ATOM     66  F   UNL A   1      42.769  28.649  26.437  1.00  0.00    -0.206 F 
ATOM     67  C   UNL A   1      42.518  25.244  25.239  1.00  0.00     0.022 A 
BRANCH  64  68
ATOM     68  S   UNL A   1      41.704  22.840  26.395  1.00  0.00     0.124 S 
ATOM     69  O   UNL A   1      40.253  22.671  26.350  1.00  0.00    -0.237 OA
ATOM     70  O   UNL A   1      42.435  22.406  25.211  1.00  0.00    -0.237 OA
ATOM     71  O   UNL A   1      42.325  22.497  27.673  1.00  0.00    -0.744 OA
ENDBRANCH  64  68
ENDBRANCH  47  61
BRANCH  48  72
ATOM     72  C   UNL A   1      38.827  32.029  35.518  1.00  0.00     0.023 A 
ATOM     73  C   UNL A   1      38.222  31.345  36.585  1.00  0.00     0.031 A 
ATOM     74  C   UNL A   1      38.957  33.425  35.619  1.00  0.00     0.131 A 
ATOM     75  C   UNL A   1      37.727  32.062  37.685  1.00  0.00     0.055 A 
ATOM     76  C   UNL A   1      38.507  34.129  36.737  1.00  0.00     0.041 A 
ATOM     77  F   UNL A   1      39.535  34.127  34.632  1.00  0.00    -0.206 F 
ATOM     78  C   UNL A   1      37.876  33.448  37.774  1.00  0.00     0.022 A 
BRANCH  75  79
ATOM     79  S   UNL A   1      36.814  31.162  38.967  1.00  0.00     0.124 S 
ATOM     80  O   UNL A   1      35.597  31.957  39.079  1.00  0.00    -0.237 OA
ATOM     81  O   UNL A   1      36.665  29.842  38.361  1.00  0.00    -0.237 OA
ATOM     82  O   UNL A   1      37.706  31.217  40.123  1.00  0.00    -0.744 OA
ENDBRANCH  75  79
ENDBRANCH  48  72
BRANCH  60  83
ATOM     83  C   UNL A   1      44.428  28.138  34.087  1.00  0.00     0.023 A 
ATOM     84  C   UNL A   1      44.495  27.001  34.911  1.00  0.00     0.031 A 
ATOM     85  C   UNL A   1      45.549  28.985  34.034  1.00  0.00     0.131 A 
ATOM     86  C   UNL A   1      45.638  26.770  35.691  1.00  0.00     0.055 A 
ATOM     87  C   UNL A   1      46.705  28.719  34.768  1.00  0.00     0.041 A 
ATOM     88  F   UNL A   1      45.538  30.084  33.264  1.00  0.00    -0.206 F 
ATOM     89  C   UNL A   1      46.750  27.614  35.612  1.00  0.00     0.022 A 
BRANCH  86  90
ATOM     90  S   UNL A   1      45.620  25.398  36.876  1.00  0.00     0.124 S 
ATOM     91  O   UNL A   1      44.631  24.501  36.288  1.00  0.00    -0.237 OA
ATOM     92  O   UNL A   1      47.004  24.935  36.838  1.00  0.00    -0.237 OA
ATOM     93  O   UNL A   1      45.215  26.034  38.129  1.00  0.00    -0.744 OA
ENDBRANCH  86  90
ENDBRANCH  60  83
ENDBRANCH  34  35
ENDBRANCH  26  29
ENDBRANCH  24  25
ENDBRANCH   1  24
TORSDOF 15
ENDMDL
