MODEL 1
REMARK VINA RESULT:     -12.8      0.000      0.000
REMARK SMILES CCOc1ccccc1-c1cc(C(=O)NCCCCNC(=O)c2ccc(-c3c4nc(c(-c5cc(S(=O)(=O)[O-])ccc5F)c5ccc([nH]5)c(-c5cc(S(=O)(=O)[O-])ccc5F)c5nc(c(-c6cc(S(=O)(=O)[O-])ccc6F)c6ccc3[nH]6)C=C5)C=C4)cc2)c2cc(C)cc(C)c2n1
REMARK SMILES IDX 17 1 16 2 15 3 13 4 14 5 12 7 10 8 11 9 94 10 93 11 86 12
REMARK SMILES IDX 91 13 87 14 90 15 92 16 88 17 89 18 9 19 4 20 5 21 6 22 8 23
REMARK SMILES IDX 7 24 3 25 2 26 1 27 18 28 19 29 20 30 21 31 22 33 23 34
REMARK SMILES IDX 24 35 85 36 25 37 84 38 26 39 27 40 28 41 78 42 29 43 83 44
REMARK SMILES IDX 77 45 79 46 30 47 82 48 76 49 75 50 31 52 63 53 43 54 62 55
REMARK SMILES IDX 44 56 47 57 61 58 80 59 45 60 46 61 60 63 81 64 48 65 32 66
REMARK SMILES IDX 33 67 41 68 34 69 40 70 42 71 39 72 35 73 36 74 37 75 38 76
REMARK SMILES IDX 64 77 65 78 73 79 66 80 72 81 74 82 71 83 67 84 68 85 69 86
REMARK SMILES IDX 70 87 49 88 50 89 58 90 51 91 57 92 59 93 56 94 52 95 53 96
REMARK SMILES IDX 54 97 55 98
REMARK H PARENT 15 6 20 32 79 51 47 62
REMARK Flexibility Score: inf
ROOT
ATOM      1  C   UNL A   1      34.073  21.010  26.736  1.00  0.00     0.023 C 
ENDROOT
BRANCH   1   2
ATOM      2  C   UNL A   1      33.808  22.227  27.625  1.00  0.00     0.116 C 
BRANCH   2   3
ATOM      3  N   UNL A   1      32.387  22.507  27.740  1.00  0.00    -0.352 N 
ATOM      4  C   UNL A   1      31.455  23.319  27.146  1.00  0.00     0.252 C 
ATOM      5  O   UNL A   1      30.296  23.067  27.489  1.00  0.00    -0.269 OA
ATOM      6  H   UNL A   1      31.976  21.958  28.446  1.00  0.00     0.163 HD
BRANCH   4   7
ATOM      7  C   UNL A   1      31.694  24.401  26.133  1.00  0.00     0.051 A 
ATOM      8  C   UNL A   1      31.396  26.547  25.182  1.00  0.00     0.075 A 
ATOM      9  C   UNL A   1      31.190  25.696  26.249  1.00  0.00     0.043 A 
ATOM     10  N   UNL A   1      32.520  26.395  24.468  1.00  0.00    -0.247 NA
ATOM     11  C   UNL A   1      32.742  25.146  24.077  1.00  0.00     0.075 A 
ATOM     12  C   UNL A   1      32.267  24.072  24.857  1.00  0.00     0.014 A 
ATOM     13  C   UNL A   1      33.224  24.957  22.781  1.00  0.00    -0.024 A 
ATOM     14  C   UNL A   1      32.167  22.813  24.210  1.00  0.00     0.014 A 
ATOM     15  C   UNL A   1      33.037  23.721  22.153  1.00  0.00     0.009 A 
ATOM     16  C   UNL A   1      33.699  26.122  21.953  1.00  0.00     0.047 C 
ATOM     17  C   UNL A   1      32.455  22.663  22.845  1.00  0.00    -0.050 A 
ATOM     18  C   UNL A   1      31.952  21.457  22.108  1.00  0.00     0.044 C 
BRANCH   8  19
ATOM     19  C   UNL A   1      30.277  26.904  24.246  1.00  0.00     0.042 A 
ATOM     20  C   UNL A   1      30.149  28.223  23.726  1.00  0.00     0.128 A 
ATOM     21  C   UNL A   1      28.898  28.747  23.397  1.00  0.00     0.047 A 
ATOM     22  C   UNL A   1      27.766  27.943  23.474  1.00  0.00     0.004 A 
ATOM     23  C   UNL A   1      29.131  26.088  24.224  1.00  0.00     0.014 A 
ATOM     24  C   UNL A   1      27.889  26.605  23.842  1.00  0.00     0.001 A 
BRANCH  20  25
ATOM     25  O   UNL A   1      31.220  29.081  23.771  1.00  0.00    -0.493 OA
BRANCH  25  26
ATOM     26  C   UNL A   1      31.079  30.177  24.678  1.00  0.00     0.226 C 
ATOM     27  C   UNL A   1      31.799  29.910  25.988  1.00  0.00     0.049 C 
ENDBRANCH  25  26
ENDBRANCH  20  25
ENDBRANCH   8  19
ENDBRANCH   4   7
ENDBRANCH   2   3
ENDBRANCH   1   2
BRANCH   1  28
ATOM     28  C   UNL A   1      34.987  21.261  25.534  1.00  0.00     0.023 C 
BRANCH  28  29
ATOM     29  C   UNL A   1      36.360  21.839  25.857  1.00  0.00     0.116 C 
BRANCH  29  30
ATOM     30  N   UNL A   1      37.446  20.882  25.707  1.00  0.00    -0.352 N 
ATOM     31  C   UNL A   1      38.792  21.070  25.919  1.00  0.00     0.251 C 
ATOM     32  H   UNL A   1      37.182  19.979  25.416  1.00  0.00     0.163 HD
ATOM     33  O   UNL A   1      39.585  20.169  25.654  1.00  0.00    -0.269 OA
BRANCH  31  34
ATOM     34  C   UNL A   1      39.275  22.377  26.415  1.00  0.00     0.039 A 
ATOM     35  C   UNL A   1      40.345  22.405  27.313  1.00  0.00     0.014 A 
ATOM     36  C   UNL A   1      38.709  23.570  25.957  1.00  0.00     0.014 A 
ATOM     37  C   UNL A   1      40.901  23.630  27.686  1.00  0.00     0.010 A 
ATOM     38  C   UNL A   1      39.313  24.784  26.270  1.00  0.00     0.010 A 
ATOM     39  C   UNL A   1      40.419  24.828  27.133  1.00  0.00    -0.014 A 
BRANCH  39  40
ATOM     40  C   UNL A   1      41.058  26.136  27.438  1.00  0.00     0.031 A 
ATOM     41  C   UNL A   1      42.444  26.429  26.931  1.00  0.00     0.074 A 
ATOM     42  C   UNL A   1      40.422  27.021  28.233  1.00  0.00     0.049 A 
ATOM     43  N   UNL A   1      43.211  27.462  27.170  1.00  0.00    -0.248 NA
ATOM     44  C   UNL A   1      43.061  25.410  26.067  1.00  0.00     0.031 C 
ATOM     45  C   UNL A   1      39.095  26.828  28.824  1.00  0.00     0.029 A 
ATOM     46  N   UNL A   1      40.811  28.254  28.695  1.00  0.00    -0.354 N 
ATOM     47  C   UNL A   1      44.406  27.208  26.506  1.00  0.00     0.074 A 
ATOM     48  C   UNL A   1      44.280  25.900  25.899  1.00  0.00     0.031 C 
ATOM     49  C   UNL A   1      38.774  27.911  29.551  1.00  0.00     0.029 A 
ATOM     50  C   UNL A   1      39.884  28.855  29.519  1.00  0.00     0.049 A 
ATOM     51  H   UNL A   1      41.671  28.670  28.460  1.00  0.00     0.167 HD
ATOM     52  C   UNL A   1      45.500  28.001  26.397  1.00  0.00     0.034 A 
ATOM     53  C   UNL A   1      39.933  30.028  30.183  1.00  0.00     0.034 A 
ATOM     54  C   UNL A   1      45.598  29.315  26.982  1.00  0.00     0.049 A 
ATOM     55  C   UNL A   1      41.164  30.892  30.043  1.00  0.00     0.074 A 
ATOM     56  C   UNL A   1      46.631  30.231  26.874  1.00  0.00     0.029 A 
ATOM     57  N   UNL A   1      44.631  29.901  27.789  1.00  0.00    -0.354 N 
ATOM     58  N   UNL A   1      42.261  30.661  29.359  1.00  0.00    -0.248 NA
ATOM     59  C   UNL A   1      41.156  32.179  30.751  1.00  0.00     0.031 C 
ATOM     60  C   UNL A   1      46.317  31.342  27.663  1.00  0.00     0.029 A 
ATOM     61  C   UNL A   1      45.056  31.153  28.206  1.00  0.00     0.049 A 
ATOM     62  H   UNL A   1      43.771  29.488  28.029  1.00  0.00     0.167 HD
ATOM     63  C   UNL A   1      43.056  31.792  29.528  1.00  0.00     0.074 A 
ATOM     64  C   UNL A   1      42.306  32.706  30.363  1.00  0.00     0.031 C 
ATOM     65  C   UNL A   1      44.294  32.054  29.036  1.00  0.00     0.034 A 
BRANCH  52  66
ATOM     66  C   UNL A   1      46.684  27.461  25.631  1.00  0.00     0.023 A 
ATOM     67  C   UNL A   1      46.977  27.888  24.325  1.00  0.00     0.031 A 
ATOM     68  C   UNL A   1      47.531  26.505  26.219  1.00  0.00     0.131 A 
ATOM     69  C   UNL A   1      48.051  27.316  23.627  1.00  0.00     0.055 A 
ATOM     70  C   UNL A   1      48.643  25.994  25.545  1.00  0.00     0.041 A 
ATOM     71  F   UNL A   1      47.289  26.045  27.457  1.00  0.00    -0.206 F 
ATOM     72  C   UNL A   1      48.901  26.391  24.237  1.00  0.00     0.022 A 
BRANCH  69  73
ATOM     73  S   UNL A   1      48.253  27.715  21.870  1.00  0.00     0.124 S 
ATOM     74  O   UNL A   1      48.507  26.395  21.296  1.00  0.00    -0.237 OA
ATOM     75  O   UNL A   1      46.969  28.320  21.532  1.00  0.00    -0.237 OA
ATOM     76  O   UNL A   1      49.396  28.626  21.853  1.00  0.00    -0.744 OA
ENDBRANCH  69  73
ENDBRANCH  52  66
BRANCH  53  77
ATOM     77  C   UNL A   1      38.802  30.461  31.055  1.00  0.00     0.023 A 
ATOM     78  C   UNL A   1      37.676  31.101  30.511  1.00  0.00     0.031 A 
ATOM     79  C   UNL A   1      38.860  30.309  32.452  1.00  0.00     0.131 A 
ATOM     80  C   UNL A   1      36.686  31.623  31.361  1.00  0.00     0.055 A 
ATOM     81  C   UNL A   1      37.844  30.776  33.289  1.00  0.00     0.041 A 
ATOM     82  F   UNL A   1      39.909  29.701  33.026  1.00  0.00    -0.206 F 
ATOM     83  C   UNL A   1      36.757  31.453  32.745  1.00  0.00     0.022 A 
BRANCH  80  84
ATOM     84  S   UNL A   1      35.362  32.628  30.634  1.00  0.00     0.124 S 
ATOM     85  O   UNL A   1      36.038  33.903  30.425  1.00  0.00    -0.237 OA
ATOM     86  O   UNL A   1      35.034  31.869  29.431  1.00  0.00    -0.237 OA
ATOM     87  O   UNL A   1      34.331  32.629  31.669  1.00  0.00    -0.744 OA
ENDBRANCH  80  84
ENDBRANCH  53  77
BRANCH  65  88
ATOM     88  C   UNL A   1      44.882  33.408  29.345  1.00  0.00     0.023 A 
ATOM     89  C   UNL A   1      44.626  34.528  28.536  1.00  0.00     0.031 A 
ATOM     90  C   UNL A   1      45.721  33.572  30.461  1.00  0.00     0.131 A 
ATOM     91  C   UNL A   1      45.248  35.753  28.824  1.00  0.00     0.055 A 
ATOM     92  C   UNL A   1      46.288  34.807  30.777  1.00  0.00     0.041 A 
ATOM     93  F   UNL A   1      45.999  32.535  31.267  1.00  0.00    -0.206 F 
ATOM     94  C   UNL A   1      46.064  35.903  29.948  1.00  0.00     0.022 A 
BRANCH  91  95
ATOM     95  S   UNL A   1      45.047  37.127  27.658  1.00  0.00     0.124 S 
ATOM     96  O   UNL A   1      46.353  37.166  27.006  1.00  0.00    -0.237 OA
ATOM     97  O   UNL A   1      43.935  36.675  26.830  1.00  0.00    -0.237 OA
ATOM     98  O   UNL A   1      44.752  38.270  28.521  1.00  0.00    -0.744 OA
ENDBRANCH  91  95
ENDBRANCH  65  88
ENDBRANCH  39  40
ENDBRANCH  31  34
ENDBRANCH  29  30
ENDBRANCH  28  29
ENDBRANCH   1  28
TORSDOF 17
ENDMDL
MODEL 2
REMARK VINA RESULT:     -12.5      2.717      8.754
REMARK SMILES CCOc1ccccc1-c1cc(C(=O)NCCCCNC(=O)c2ccc(-c3c4nc(c(-c5cc(S(=O)(=O)[O-])ccc5F)c5ccc([nH]5)c(-c5cc(S(=O)(=O)[O-])ccc5F)c5nc(c(-c6cc(S(=O)(=O)[O-])ccc6F)c6ccc3[nH]6)C=C5)C=C4)cc2)c2cc(C)cc(C)c2n1
REMARK SMILES IDX 17 1 16 2 15 3 13 4 14 5 12 7 10 8 11 9 94 10 93 11 86 12
REMARK SMILES IDX 91 13 87 14 90 15 92 16 88 17 89 18 9 19 4 20 5 21 6 22 8 23
REMARK SMILES IDX 7 24 3 25 2 26 1 27 18 28 19 29 20 30 21 31 22 33 23 34
REMARK SMILES IDX 24 35 85 36 25 37 84 38 26 39 27 40 28 41 78 42 29 43 83 44
REMARK SMILES IDX 77 45 79 46 30 47 82 48 76 49 75 50 31 52 63 53 43 54 62 55
REMARK SMILES IDX 44 56 47 57 61 58 80 59 45 60 46 61 60 63 81 64 48 65 32 66
REMARK SMILES IDX 33 67 41 68 34 69 40 70 42 71 39 72 35 73 36 74 37 75 38 76
REMARK SMILES IDX 64 77 65 78 73 79 66 80 72 81 74 82 71 83 67 84 68 85 69 86
REMARK SMILES IDX 70 87 49 88 50 89 58 90 51 91 57 92 59 93 56 94 52 95 53 96
REMARK SMILES IDX 54 97 55 98
REMARK H PARENT 15 6 20 32 79 51 47 62
REMARK Flexibility Score: inf
ROOT
ATOM      1  C   UNL A   1      39.207  22.901  26.498  1.00  0.00     0.023 C 
ENDROOT
BRANCH   1   2
ATOM      2  C   UNL A   1      37.983  23.696  26.037  1.00  0.00     0.116 C 
BRANCH   2   3
ATOM      3  N   UNL A   1      37.622  23.378  24.666  1.00  0.00    -0.352 N 
ATOM      4  C   UNL A   1      36.544  22.872  23.985  1.00  0.00     0.252 C 
ATOM      5  O   UNL A   1      36.660  22.949  22.758  1.00  0.00    -0.269 OA
ATOM      6  H   UNL A   1      38.362  23.583  24.051  1.00  0.00     0.163 HD
BRANCH   4   7
ATOM      7  C   UNL A   1      35.279  22.306  24.561  1.00  0.00     0.051 A 
ATOM      8  C   UNL A   1      33.838  20.566  25.265  1.00  0.00     0.075 A 
ATOM      9  C   UNL A   1      35.095  20.953  24.848  1.00  0.00     0.043 A 
ATOM     10  N   UNL A   1      33.119  21.441  25.981  1.00  0.00    -0.247 NA
ATOM     11  C   UNL A   1      33.042  22.648  25.433  1.00  0.00     0.075 A 
ATOM     12  C   UNL A   1      34.094  23.117  24.620  1.00  0.00     0.014 A 
ATOM     13  C   UNL A   1      31.808  23.298  25.486  1.00  0.00    -0.024 A 
ATOM     14  C   UNL A   1      33.792  24.198  23.752  1.00  0.00     0.014 A 
ATOM     15  C   UNL A   1      31.524  24.308  24.561  1.00  0.00     0.009 A 
ATOM     16  C   UNL A   1      30.686  22.764  26.337  1.00  0.00     0.047 C 
ATOM     17  C   UNL A   1      32.494  24.721  23.652  1.00  0.00    -0.050 A 
ATOM     18  C   UNL A   1      32.116  25.550  22.460  1.00  0.00     0.044 C 
BRANCH   8  19
ATOM     19  C   UNL A   1      32.912  19.818  24.349  1.00  0.00     0.042 A 
ATOM     20  C   UNL A   1      32.774  18.405  24.442  1.00  0.00     0.128 A 
ATOM     21  C   UNL A   1      32.457  17.639  23.318  1.00  0.00     0.047 A 
ATOM     22  C   UNL A   1      32.166  18.264  22.111  1.00  0.00     0.004 A 
ATOM     23  C   UNL A   1      32.522  20.428  23.142  1.00  0.00     0.014 A 
ATOM     24  C   UNL A   1      32.153  19.655  22.035  1.00  0.00     0.001 A 
BRANCH  20  25
ATOM     25  O   UNL A   1      33.189  17.751  25.576  1.00  0.00    -0.493 OA
BRANCH  25  26
ATOM     26  C   UNL A   1      33.503  16.368  25.395  1.00  0.00     0.226 C 
ATOM     27  C   UNL A   1      34.980  16.167  25.103  1.00  0.00     0.049 C 
ENDBRANCH  25  26
ENDBRANCH  20  25
ENDBRANCH   8  19
ENDBRANCH   4   7
ENDBRANCH   2   3
ENDBRANCH   1   2
BRANCH   1  28
ATOM     28  C   UNL A   1      39.313  21.478  25.944  1.00  0.00     0.023 C 
BRANCH  28  29
ATOM     29  C   UNL A   1      39.958  20.455  26.871  1.00  0.00     0.116 C 
BRANCH  29  30
ATOM     30  N   UNL A   1      40.842  19.523  26.187  1.00  0.00    -0.352 N 
ATOM     31  C   UNL A   1      42.135  19.721  25.762  1.00  0.00     0.251 C 
ATOM     32  H   UNL A   1      40.465  18.632  26.004  1.00  0.00     0.163 HD
ATOM     33  O   UNL A   1      42.706  18.847  25.113  1.00  0.00    -0.269 OA
BRANCH  31  34
ATOM     34  C   UNL A   1      42.806  21.008  26.045  1.00  0.00     0.039 A 
ATOM     35  C   UNL A   1      42.968  21.929  25.007  1.00  0.00     0.014 A 
ATOM     36  C   UNL A   1      43.226  21.326  27.340  1.00  0.00     0.014 A 
ATOM     37  C   UNL A   1      43.476  23.200  25.284  1.00  0.00     0.010 A 
ATOM     38  C   UNL A   1      43.660  22.617  27.627  1.00  0.00     0.010 A 
ATOM     39  C   UNL A   1      43.783  23.570  26.603  1.00  0.00    -0.014 A 
BRANCH  39  40
ATOM     40  C   UNL A   1      44.232  24.949  26.937  1.00  0.00     0.031 A 
ATOM     41  C   UNL A   1      43.246  25.945  27.485  1.00  0.00     0.074 A 
ATOM     42  C   UNL A   1      45.501  25.321  26.675  1.00  0.00     0.049 A 
ATOM     43  N   UNL A   1      43.412  27.216  27.745  1.00  0.00    -0.248 NA
ATOM     44  C   UNL A   1      41.884  25.452  27.746  1.00  0.00     0.031 C 
ATOM     45  C   UNL A   1      46.535  24.457  26.099  1.00  0.00     0.029 A 
ATOM     46  N   UNL A   1      46.137  26.526  26.842  1.00  0.00    -0.354 N 
ATOM     47  C   UNL A   1      42.175  27.680  28.176  1.00  0.00     0.074 A 
ATOM     48  C   UNL A   1      41.255  26.565  28.094  1.00  0.00     0.031 C 
ATOM     49  C   UNL A   1      47.678  25.153  25.982  1.00  0.00     0.029 A 
ATOM     50  C   UNL A   1      47.451  26.523  26.427  1.00  0.00     0.049 A 
ATOM     51  H   UNL A   1      45.696  27.319  27.223  1.00  0.00     0.167 HD
ATOM     52  C   UNL A   1      41.841  28.918  28.618  1.00  0.00     0.034 A 
ATOM     53  C   UNL A   1      48.362  27.516  26.397  1.00  0.00     0.034 A 
ATOM     54  C   UNL A   1      42.776  30.010  28.724  1.00  0.00     0.049 A 
ATOM     55  C   UNL A   1      47.963  28.884  26.897  1.00  0.00     0.074 A 
ATOM     56  C   UNL A   1      42.560  31.282  29.225  1.00  0.00     0.029 A 
ATOM     57  N   UNL A   1      44.103  29.963  28.317  1.00  0.00    -0.354 N 
ATOM     58  N   UNL A   1      46.803  29.287  27.360  1.00  0.00    -0.248 NA
ATOM     59  C   UNL A   1      49.000  29.924  26.884  1.00  0.00     0.031 C 
ATOM     60  C   UNL A   1      43.736  32.022  29.066  1.00  0.00     0.029 A 
ATOM     61  C   UNL A   1      44.709  31.192  28.533  1.00  0.00     0.049 A 
ATOM     62  H   UNL A   1      44.548  29.174  27.934  1.00  0.00     0.167 HD
ATOM     63  C   UNL A   1      46.984  30.619  27.726  1.00  0.00     0.074 A 
ATOM     64  C   UNL A   1      48.367  30.942  27.445  1.00  0.00     0.031 C 
ATOM     65  C   UNL A   1      46.090  31.496  28.250  1.00  0.00     0.034 A 
BRANCH  52  66
ATOM     66  C   UNL A   1      40.401  29.159  29.004  1.00  0.00     0.023 A 
ATOM     67  C   UNL A   1      39.991  29.194  30.348  1.00  0.00     0.031 A 
ATOM     68  C   UNL A   1      39.425  29.357  28.012  1.00  0.00     0.131 A 
ATOM     69  C   UNL A   1      38.635  29.360  30.661  1.00  0.00     0.055 A 
ATOM     70  C   UNL A   1      38.088  29.597  28.333  1.00  0.00     0.041 A 
ATOM     71  F   UNL A   1      39.754  29.315  26.711  1.00  0.00    -0.206 F 
ATOM     72  C   UNL A   1      37.684  29.587  29.664  1.00  0.00     0.022 A 
BRANCH  69  73
ATOM     73  S   UNL A   1      38.112  29.161  32.386  1.00  0.00     0.124 S 
ATOM     74  O   UNL A   1      38.709  30.339  33.012  1.00  0.00    -0.237 OA
ATOM     75  O   UNL A   1      36.658  29.163  32.279  1.00  0.00    -0.237 OA
ATOM     76  O   UNL A   1      38.707  27.885  32.780  1.00  0.00    -0.744 OA
ENDBRANCH  69  73
ENDBRANCH  52  66
BRANCH  53  77
ATOM     77  C   UNL A   1      49.737  27.278  25.866  1.00  0.00     0.023 A 
ATOM     78  C   UNL A   1      50.038  27.504  24.513  1.00  0.00     0.031 A 
ATOM     79  C   UNL A   1      50.752  26.752  26.686  1.00  0.00     0.131 A 
ATOM     80  C   UNL A   1      51.297  27.145  24.005  1.00  0.00     0.055 A 
ATOM     81  C   UNL A   1      52.022  26.453  26.188  1.00  0.00     0.041 A 
ATOM     82  F   UNL A   1      50.522  26.520  27.987  1.00  0.00    -0.206 F 
ATOM     83  C   UNL A   1      52.295  26.633  24.836  1.00  0.00     0.022 A 
BRANCH  80  84
ATOM     84  S   UNL A   1      51.571  27.251  22.214  1.00  0.00     0.124 S 
ATOM     85  O   UNL A   1      50.305  26.753  21.690  1.00  0.00    -0.237 OA
ATOM     86  O   UNL A   1      51.825  28.677  22.033  1.00  0.00    -0.237 OA
ATOM     87  O   UNL A   1      52.724  26.381  21.996  1.00  0.00    -0.744 OA
ENDBRANCH  80  84
ENDBRANCH  53  77
BRANCH  65  88
ATOM     88  C   UNL A   1      46.603  32.869  28.604  1.00  0.00     0.023 A 
ATOM     89  C   UNL A   1      46.551  33.938  27.693  1.00  0.00     0.031 A 
ATOM     90  C   UNL A   1      47.163  33.106  29.872  1.00  0.00     0.131 A 
ATOM     91  C   UNL A   1      47.100  35.181  28.042  1.00  0.00     0.055 A 
ATOM     92  C   UNL A   1      47.652  34.361  30.236  1.00  0.00     0.041 A 
ATOM     93  F   UNL A   1      47.239  32.120  30.781  1.00  0.00    -0.206 F 
ATOM     94  C   UNL A   1      47.636  35.403  29.314  1.00  0.00     0.022 A 
BRANCH  91  95
ATOM     95  S   UNL A   1      47.185  36.481  26.781  1.00  0.00     0.124 S 
ATOM     96  O   UNL A   1      45.930  37.195  26.996  1.00  0.00    -0.237 OA
ATOM     97  O   UNL A   1      48.398  37.199  27.154  1.00  0.00    -0.237 OA
ATOM     98  O   UNL A   1      47.268  35.737  25.525  1.00  0.00    -0.744 OA
ENDBRANCH  91  95
ENDBRANCH  65  88
ENDBRANCH  39  40
ENDBRANCH  31  34
ENDBRANCH  29  30
ENDBRANCH  28  29
ENDBRANCH   1  28
TORSDOF 17
ENDMDL
MODEL 3
REMARK VINA RESULT:     -12.5      1.551      7.411
REMARK SMILES CCOc1ccccc1-c1cc(C(=O)NCCCCNC(=O)c2ccc(-c3c4nc(c(-c5cc(S(=O)(=O)[O-])ccc5F)c5ccc([nH]5)c(-c5cc(S(=O)(=O)[O-])ccc5F)c5nc(c(-c6cc(S(=O)(=O)[O-])ccc6F)c6ccc3[nH]6)C=C5)C=C4)cc2)c2cc(C)cc(C)c2n1
REMARK SMILES IDX 17 1 16 2 15 3 13 4 14 5 12 7 10 8 11 9 94 10 93 11 86 12
REMARK SMILES IDX 91 13 87 14 90 15 92 16 88 17 89 18 9 19 4 20 5 21 6 22 8 23
REMARK SMILES IDX 7 24 3 25 2 26 1 27 18 28 19 29 20 30 21 31 22 33 23 34
REMARK SMILES IDX 24 35 85 36 25 37 84 38 26 39 27 40 28 41 78 42 29 43 83 44
REMARK SMILES IDX 77 45 79 46 30 47 82 48 76 49 75 50 31 52 63 53 43 54 62 55
REMARK SMILES IDX 44 56 47 57 61 58 80 59 45 60 46 61 60 63 81 64 48 65 32 66
REMARK SMILES IDX 33 67 41 68 34 69 40 70 42 71 39 72 35 73 36 74 37 75 38 76
REMARK SMILES IDX 64 77 65 78 73 79 66 80 72 81 74 82 71 83 67 84 68 85 69 86
REMARK SMILES IDX 70 87 49 88 50 89 58 90 51 91 57 92 59 93 56 94 52 95 53 96
REMARK SMILES IDX 54 97 55 98
REMARK H PARENT 15 6 20 32 79 51 47 62
REMARK Flexibility Score: inf
ROOT
ATOM      1  C   UNL A   1      34.117  21.150  26.698  1.00  0.00     0.023 C 
ENDROOT
BRANCH   1   2
ATOM      2  C   UNL A   1      33.818  22.313  27.647  1.00  0.00     0.116 C 
BRANCH   2   3
ATOM      3  N   UNL A   1      32.393  22.584  27.730  1.00  0.00    -0.352 N 
ATOM      4  C   UNL A   1      31.468  23.383  27.108  1.00  0.00     0.252 C 
ATOM      5  O   UNL A   1      30.304  23.125  27.430  1.00  0.00    -0.269 OA
ATOM      6  H   UNL A   1      31.972  22.040  28.434  1.00  0.00     0.163 HD
BRANCH   4   7
ATOM      7  C   UNL A   1      31.719  24.454  26.087  1.00  0.00     0.051 A 
ATOM      8  C   UNL A   1      31.459  26.602  25.129  1.00  0.00     0.075 A 
ATOM      9  C   UNL A   1      31.246  25.761  26.202  1.00  0.00     0.043 A 
ATOM     10  N   UNL A   1      32.571  26.422  24.404  1.00  0.00    -0.247 NA
ATOM     11  C   UNL A   1      32.761  25.167  24.016  1.00  0.00     0.075 A 
ATOM     12  C   UNL A   1      32.270  24.107  24.806  1.00  0.00     0.014 A 
ATOM     13  C   UNL A   1      33.224  24.961  22.716  1.00  0.00    -0.024 A 
ATOM     14  C   UNL A   1      32.136  22.848  24.166  1.00  0.00     0.014 A 
ATOM     15  C   UNL A   1      33.003  23.727  22.096  1.00  0.00     0.009 A 
ATOM     16  C   UNL A   1      33.716  26.111  21.877  1.00  0.00     0.047 C 
ATOM     17  C   UNL A   1      32.405  22.685  22.799  1.00  0.00    -0.050 A 
ATOM     18  C   UNL A   1      31.867  21.487  22.073  1.00  0.00     0.044 C 
BRANCH   8  19
ATOM     19  C   UNL A   1      30.338  26.980  24.204  1.00  0.00     0.042 A 
ATOM     20  C   UNL A   1      30.183  28.320  23.751  1.00  0.00     0.128 A 
ATOM     21  C   UNL A   1      28.921  28.831  23.438  1.00  0.00     0.047 A 
ATOM     22  C   UNL A   1      27.808  27.998  23.467  1.00  0.00     0.004 A 
ATOM     23  C   UNL A   1      29.212  26.139  24.132  1.00  0.00     0.014 A 
ATOM     24  C   UNL A   1      27.960  26.646  23.767  1.00  0.00     0.001 A 
BRANCH  20  25
ATOM     25  O   UNL A   1      31.232  29.200  23.847  1.00  0.00    -0.493 OA
BRANCH  25  26
ATOM     26  C   UNL A   1      31.036  30.277  24.765  1.00  0.00     0.226 C 
ATOM     27  C   UNL A   1      31.943  30.147  25.976  1.00  0.00     0.049 C 
ENDBRANCH  25  26
ENDBRANCH  20  25
ENDBRANCH   8  19
ENDBRANCH   4   7
ENDBRANCH   2   3
ENDBRANCH   1   2
BRANCH   1  28
ATOM     28  C   UNL A   1      34.931  21.511  25.453  1.00  0.00     0.023 C 
BRANCH  28  29
ATOM     29  C   UNL A   1      36.357  21.985  25.710  1.00  0.00     0.116 C 
BRANCH  29  30
ATOM     30  N   UNL A   1      37.354  20.934  25.577  1.00  0.00    -0.352 N 
ATOM     31  C   UNL A   1      38.699  20.984  25.863  1.00  0.00     0.251 C 
ATOM     32  H   UNL A   1      37.023  20.071  25.237  1.00  0.00     0.163 HD
ATOM     33  O   UNL A   1      39.416  20.021  25.602  1.00  0.00    -0.269 OA
BRANCH  31  34
ATOM     34  C   UNL A   1      39.276  22.220  26.435  1.00  0.00     0.039 A 
ATOM     35  C   UNL A   1      40.303  22.113  27.376  1.00  0.00     0.014 A 
ATOM     36  C   UNL A   1      38.842  23.477  26.006  1.00  0.00     0.014 A 
ATOM     37  C   UNL A   1      40.951  23.266  27.824  1.00  0.00     0.010 A 
ATOM     38  C   UNL A   1      39.538  24.617  26.396  1.00  0.00     0.010 A 
ATOM     39  C   UNL A   1      40.604  24.524  27.304  1.00  0.00    -0.014 A 
BRANCH  39  40
ATOM     40  C   UNL A   1      41.345  25.755  27.691  1.00  0.00     0.031 A 
ATOM     41  C   UNL A   1      40.634  26.856  28.429  1.00  0.00     0.074 A 
ATOM     42  C   UNL A   1      42.630  25.909  27.311  1.00  0.00     0.049 A 
ATOM     43  N   UNL A   1      41.071  28.042  28.767  1.00  0.00    -0.248 NA
ATOM     44  C   UNL A   1      39.235  26.602  28.808  1.00  0.00     0.031 C 
ATOM     45  C   UNL A   1      43.412  24.930  26.551  1.00  0.00     0.029 A 
ATOM     46  N   UNL A   1      43.503  26.951  27.498  1.00  0.00    -0.354 N 
ATOM     47  C   UNL A   1      39.998  28.682  29.377  1.00  0.00     0.074 A 
ATOM     48  C   UNL A   1      38.874  27.771  29.315  1.00  0.00     0.031 C 
ATOM     49  C   UNL A   1      44.651  25.410  26.356  1.00  0.00     0.029 A 
ATOM     50  C   UNL A   1      44.743  26.746  26.933  1.00  0.00     0.049 A 
ATOM     51  H   UNL A   1      43.266  27.770  27.991  1.00  0.00     0.167 HD
ATOM     52  C   UNL A   1      39.959  29.909  29.953  1.00  0.00     0.034 A 
ATOM     53  C   UNL A   1      45.823  27.550  26.875  1.00  0.00     0.034 A 
ATOM     54  C   UNL A   1      41.095  30.792  30.034  1.00  0.00     0.049 A 
ATOM     55  C   UNL A   1      45.752  28.911  27.526  1.00  0.00     0.074 A 
ATOM     56  C   UNL A   1      41.185  32.025  30.657  1.00  0.00     0.029 A 
ATOM     57  N   UNL A   1      42.340  30.541  29.472  1.00  0.00    -0.354 N 
ATOM     58  N   UNL A   1      44.745  29.474  28.153  1.00  0.00    -0.248 NA
ATOM     59  C   UNL A   1      46.966  29.736  27.474  1.00  0.00     0.031 C 
ATOM     60  C   UNL A   1      42.461  32.546  30.420  1.00  0.00     0.029 A 
ATOM     61  C   UNL A   1      43.193  31.607  29.712  1.00  0.00     0.049 A 
ATOM     62  H   UNL A   1      42.581  29.725  28.977  1.00  0.00     0.167 HD
ATOM     63  C   UNL A   1      45.220  30.706  28.600  1.00  0.00     0.074 A 
ATOM     64  C   UNL A   1      46.604  30.793  28.185  1.00  0.00     0.031 C 
ATOM     65  C   UNL A   1      44.572  31.676  29.293  1.00  0.00     0.034 A 
BRANCH  52  66
ATOM     66  C   UNL A   1      38.641  30.373  30.524  1.00  0.00     0.023 A 
ATOM     67  C   UNL A   1      37.722  31.112  29.759  1.00  0.00     0.031 A 
ATOM     68  C   UNL A   1      38.299  30.071  31.854  1.00  0.00     0.131 A 
ATOM     69  C   UNL A   1      36.536  31.575  30.345  1.00  0.00     0.055 A 
ATOM     70  C   UNL A   1      37.082  30.472  32.410  1.00  0.00     0.041 A 
ATOM     71  F   UNL A   1      39.145  29.386  32.639  1.00  0.00    -0.206 F 
ATOM     72  C   UNL A   1      36.198  31.239  31.658  1.00  0.00     0.022 A 
BRANCH  69  73
ATOM     73  S   UNL A   1      35.493  32.721  29.403  1.00  0.00     0.124 S 
ATOM     74  O   UNL A   1      35.377  32.029  28.122  1.00  0.00    -0.237 OA
ATOM     75  O   UNL A   1      34.278  32.779  30.209  1.00  0.00    -0.237 OA
ATOM     76  O   UNL A   1      36.279  33.953  29.370  1.00  0.00    -0.744 OA
ENDBRANCH  69  73
ENDBRANCH  52  66
BRANCH  53  77
ATOM     77  C   UNL A   1      47.064  27.115  26.169  1.00  0.00     0.023 A 
ATOM     78  C   UNL A   1      48.062  26.391  26.841  1.00  0.00     0.031 A 
ATOM     79  C   UNL A   1      47.306  27.479  24.831  1.00  0.00     0.131 A 
ATOM     80  C   UNL A   1      49.279  26.110  26.200  1.00  0.00     0.055 A 
ATOM     81  C   UNL A   1      48.494  27.145  24.178  1.00  0.00     0.041 A 
ATOM     82  F   UNL A   1      46.386  28.168  24.138  1.00  0.00    -0.206 F 
ATOM     83  C   UNL A   1      49.497  26.471  24.869  1.00  0.00     0.022 A 
BRANCH  80  84
ATOM     84  S   UNL A   1      50.619  25.365  27.170  1.00  0.00     0.124 S 
ATOM     85  O   UNL A   1      51.537  24.931  26.124  1.00  0.00    -0.237 OA
ATOM     86  O   UNL A   1      51.061  26.491  27.986  1.00  0.00    -0.237 OA
ATOM     87  O   UNL A   1      49.951  24.291  27.902  1.00  0.00    -0.744 OA
ENDBRANCH  80  84
ENDBRANCH  53  77
BRANCH  65  88
ATOM     88  C   UNL A   1      45.378  32.887  29.693  1.00  0.00     0.023 A 
ATOM     89  C   UNL A   1      45.461  34.025  28.873  1.00  0.00     0.031 A 
ATOM     90  C   UNL A   1      46.080  32.894  30.911  1.00  0.00     0.131 A 
ATOM     91  C   UNL A   1      46.275  35.103  29.254  1.00  0.00     0.055 A 
ATOM     92  C   UNL A   1      46.839  33.993  31.314  1.00  0.00     0.041 A 
ATOM     93  F   UNL A   1      46.035  31.833  31.733  1.00  0.00    -0.206 F 
ATOM     94  C   UNL A   1      46.951  35.100  30.477  1.00  0.00     0.022 A 
BRANCH  91  95
ATOM     95  S   UNL A   1      46.509  36.472  28.090  1.00  0.00     0.124 S 
ATOM     96  O   UNL A   1      45.209  37.134  28.134  1.00  0.00    -0.237 OA
ATOM     97  O   UNL A   1      47.618  37.207  28.690  1.00  0.00    -0.237 OA
ATOM     98  O   UNL A   1      46.822  35.802  26.829  1.00  0.00    -0.744 OA
ENDBRANCH  91  95
ENDBRANCH  65  88
ENDBRANCH  39  40
ENDBRANCH  31  34
ENDBRANCH  29  30
ENDBRANCH  28  29
ENDBRANCH   1  28
TORSDOF 17
ENDMDL
