MODEL 1
REMARK VINA RESULT:     -12.3      0.000      0.000
REMARK SMILES Cc1cc(=O)c(Oc2ccc(C(=O)NCCCCNC(=O)c3ccc(-c4c5nc(c(-c6cc(S(=O)(=O)[O-])ccc6F)c6ccc([nH]6)c(-c6cc(S(=O)(=O)[O-])ccc6F)c6nc(c(-c7cc(S(=O)(=O)[O-])ccc7F)c7ccc4[nH]7)C=C6)C=C5)cc3)cc2)c(-c2ccc(S(C)(=O)=O)cc2)o1
REMARK SMILES IDX 16 1 15 2 14 3 12 4 13 5 11 7 8 8 9 9 86 10 10 11 85 12 7 13
REMARK SMILES IDX 6 14 1 15 2 16 3 17 98 18 4 19 87 20 5 21 88 22 89 23 97 24
REMARK SMILES IDX 90 25 96 26 91 27 92 28 93 29 94 30 95 31 17 32 18 33 19 34
REMARK SMILES IDX 20 35 21 37 22 38 23 39 84 40 24 41 83 42 25 43 26 44 27 45
REMARK SMILES IDX 77 46 28 47 82 48 76 49 78 50 29 51 81 52 75 53 74 54 30 56
REMARK SMILES IDX 62 57 42 58 61 59 43 60 46 61 60 62 79 63 44 64 45 65 59 67
REMARK SMILES IDX 80 68 47 69 31 70 32 71 40 72 33 73 39 74 41 75 38 76 34 77
REMARK SMILES IDX 35 78 36 79 37 80 63 81 64 82 72 83 65 84 71 85 73 86 70 87
REMARK SMILES IDX 66 88 67 89 68 90 69 91 48 92 49 93 57 94 50 95 56 96 58 97
REMARK SMILES IDX 55 98 51 99 52 100 53 101 54 102
REMARK H PARENT 14 6 19 36 78 55 46 66
REMARK Flexibility Score: inf
ROOT
ATOM      1  C   UNL A   1      34.622  30.737  27.733  1.00  0.00     0.023 C 
ENDROOT
BRANCH   1   2
ATOM      2  C   UNL A   1      34.337  29.450  26.968  1.00  0.00     0.116 C 
BRANCH   2   3
ATOM      3  N   UNL A   1      33.006  29.315  26.407  1.00  0.00    -0.352 N 
ATOM      4  C   UNL A   1      32.438  28.286  25.684  1.00  0.00     0.251 C 
ATOM      5  O   UNL A   1      31.236  28.318  25.429  1.00  0.00    -0.269 OA
ATOM      6  H   UNL A   1      32.411  30.082  26.568  1.00  0.00     0.163 HD
BRANCH   4   7
ATOM      7  C   UNL A   1      33.267  27.200  25.097  1.00  0.00     0.040 A 
ATOM      8  C   UNL A   1      34.235  24.808  24.062  1.00  0.00     0.127 A 
ATOM      9  C   UNL A   1      34.232  24.998  25.439  1.00  0.00     0.048 A 
ATOM     10  C   UNL A   1      33.991  25.884  23.210  1.00  0.00     0.048 A 
ATOM     11  C   UNL A   1      33.706  26.183  25.959  1.00  0.00     0.017 A 
ATOM     12  C   UNL A   1      33.548  27.097  23.735  1.00  0.00     0.017 A 
BRANCH   8  13
ATOM     13  O   UNL A   1      34.562  23.619  23.483  1.00  0.00    -0.449 OA
BRANCH  13  14
ATOM     14  C   UNL A   1      34.246  22.378  24.023  1.00  0.00     0.217 A 
ATOM     15  C   UNL A   1      32.791  18.493  25.248  1.00  0.00     0.088 C 
ATOM     16  C   UNL A   1      33.180  19.875  24.831  1.00  0.00     0.105 A 
ATOM     17  C   UNL A   1      32.323  20.712  24.245  1.00  0.00     0.098 A 
ATOM     18  O   UNL A   1      34.486  20.220  25.099  1.00  0.00    -0.457 OA
ATOM     19  C   UNL A   1      32.797  22.038  23.831  1.00  0.00     0.228 A 
ATOM     20  C   UNL A   1      34.988  21.455  24.694  1.00  0.00     0.180 A 
ATOM     21  O   UNL A   1      31.996  22.828  23.338  1.00  0.00    -0.285 OA
BRANCH  20  22
ATOM     22  C   UNL A   1      36.409  21.547  25.081  1.00  0.00     0.021 A 
ATOM     23  C   UNL A   1      36.906  22.750  25.614  1.00  0.00     0.013 A 
ATOM     24  C   UNL A   1      37.284  20.465  24.906  1.00  0.00     0.013 A 
ATOM     25  C   UNL A   1      38.230  22.840  26.053  1.00  0.00     0.021 A 
ATOM     26  C   UNL A   1      38.614  20.555  25.331  1.00  0.00     0.021 A 
ATOM     27  C   UNL A   1      39.075  21.736  25.919  1.00  0.00     0.067 A 
BRANCH  27  28
ATOM     28  S   UNL A   1      40.707  21.803  26.632  1.00  0.00     0.175 S 
ATOM     29  C   UNL A   1      40.991  20.152  27.203  1.00  0.00     0.163 C 
ATOM     30  O   UNL A   1      41.629  22.061  25.543  1.00  0.00    -0.224 OA
ATOM     31  O   UNL A   1      40.644  22.668  27.795  1.00  0.00    -0.224 OA
ENDBRANCH  27  28
ENDBRANCH  20  22
ENDBRANCH  13  14
ENDBRANCH   8  13
ENDBRANCH   4   7
ENDBRANCH   2   3
ENDBRANCH   1   2
BRANCH   1  32
ATOM     32  C   UNL A   1      33.531  31.795  27.745  1.00  0.00     0.023 C 
BRANCH  32  33
ATOM     33  C   UNL A   1      33.972  33.218  27.437  1.00  0.00     0.116 C 
BRANCH  33  34
ATOM     34  N   UNL A   1      33.171  34.249  28.086  1.00  0.00    -0.352 N 
ATOM     35  C   UNL A   1      33.278  34.788  29.351  1.00  0.00     0.251 C 
ATOM     36  H   UNL A   1      32.442  34.616  27.537  1.00  0.00     0.163 HD
ATOM     37  O   UNL A   1      32.453  35.614  29.733  1.00  0.00    -0.269 OA
BRANCH  35  38
ATOM     38  C   UNL A   1      34.347  34.322  30.264  1.00  0.00     0.039 A 
ATOM     39  C   UNL A   1      35.671  34.691  30.048  1.00  0.00     0.014 A 
ATOM     40  C   UNL A   1      34.030  33.438  31.299  1.00  0.00     0.014 A 
ATOM     41  C   UNL A   1      36.687  33.986  30.680  1.00  0.00     0.010 A 
ATOM     42  C   UNL A   1      35.057  32.825  32.028  1.00  0.00     0.010 A 
ATOM     43  C   UNL A   1      36.397  33.032  31.672  1.00  0.00    -0.014 A 
BRANCH  43  44
ATOM     44  C   UNL A   1      37.517  32.278  32.302  1.00  0.00     0.031 A 
ATOM     45  C   UNL A   1      38.223  31.163  31.570  1.00  0.00     0.074 A 
ATOM     46  C   UNL A   1      37.957  32.660  33.518  1.00  0.00     0.049 A 
ATOM     47  N   UNL A   1      39.264  30.464  31.945  1.00  0.00    -0.248 NA
ATOM     48  C   UNL A   1      37.693  30.776  30.252  1.00  0.00     0.031 C 
ATOM     49  C   UNL A   1      37.353  33.722  34.323  1.00  0.00     0.029 A 
ATOM     50  N   UNL A   1      39.024  32.238  34.273  1.00  0.00    -0.354 N 
ATOM     51  C   UNL A   1      39.503  29.548  30.924  1.00  0.00     0.074 A 
ATOM     52  C   UNL A   1      38.472  29.750  29.932  1.00  0.00     0.031 C 
ATOM     53  C   UNL A   1      38.100  33.924  35.416  1.00  0.00     0.029 A 
ATOM     54  C   UNL A   1      39.185  32.948  35.441  1.00  0.00     0.049 A 
ATOM     55  H   UNL A   1      39.615  31.498  34.004  1.00  0.00     0.167 HD
ATOM     56  C   UNL A   1      40.503  28.638  30.817  1.00  0.00     0.034 A 
ATOM     57  C   UNL A   1      40.094  32.830  36.431  1.00  0.00     0.034 A 
ATOM     58  C   UNL A   1      41.541  28.465  31.805  1.00  0.00     0.049 A 
ATOM     59  C   UNL A   1      41.179  31.795  36.298  1.00  0.00     0.074 A 
ATOM     60  C   UNL A   1      42.614  27.592  31.769  1.00  0.00     0.029 A 
ATOM     61  N   UNL A   1      41.644  29.172  32.995  1.00  0.00    -0.354 N 
ATOM     62  N   UNL A   1      41.418  30.974  35.301  1.00  0.00    -0.248 NA
ATOM     63  C   UNL A   1      42.123  31.669  37.417  1.00  0.00     0.031 C 
ATOM     64  C   UNL A   1      43.321  27.718  32.965  1.00  0.00     0.029 A 
ATOM     65  C   UNL A   1      42.745  28.730  33.714  1.00  0.00     0.049 A 
ATOM     66  H   UNL A   1      41.027  29.882  33.286  1.00  0.00     0.167 HD
ATOM     67  C   UNL A   1      42.545  30.244  35.668  1.00  0.00     0.074 A 
ATOM     68  C   UNL A   1      42.964  30.751  36.958  1.00  0.00     0.031 C 
ATOM     69  C   UNL A   1      43.166  29.240  34.999  1.00  0.00     0.034 A 
BRANCH  56  70
ATOM     70  C   UNL A   1      40.560  27.754  29.592  1.00  0.00     0.023 A 
ATOM     71  C   UNL A   1      41.463  28.048  28.552  1.00  0.00     0.031 A 
ATOM     72  C   UNL A   1      39.627  26.722  29.384  1.00  0.00     0.131 A 
ATOM     73  C   UNL A   1      41.386  27.350  27.339  1.00  0.00     0.055 A 
ATOM     74  C   UNL A   1      39.586  25.996  28.191  1.00  0.00     0.041 A 
ATOM     75  F   UNL A   1      38.739  26.402  30.339  1.00  0.00    -0.206 F 
ATOM     76  C   UNL A   1      40.459  26.320  27.157  1.00  0.00     0.022 A 
BRANCH  73  77
ATOM     77  S   UNL A   1      42.428  27.802  25.924  1.00  0.00     0.124 S 
ATOM     78  O   UNL A   1      43.770  27.627  26.473  1.00  0.00    -0.237 OA
ATOM     79  O   UNL A   1      42.029  26.815  24.924  1.00  0.00    -0.237 OA
ATOM     80  O   UNL A   1      42.049  29.181  25.636  1.00  0.00    -0.744 OA
ENDBRANCH  73  77
ENDBRANCH  56  70
BRANCH  57  81
ATOM     81  C   UNL A   1      40.017  33.755  37.600  1.00  0.00     0.023 A 
ATOM     82  C   UNL A   1      39.312  33.389  38.762  1.00  0.00     0.031 A 
ATOM     83  C   UNL A   1      40.537  35.057  37.528  1.00  0.00     0.131 A 
ATOM     84  C   UNL A   1      39.071  34.340  39.761  1.00  0.00     0.055 A 
ATOM     85  C   UNL A   1      40.368  35.976  38.566  1.00  0.00     0.041 A 
ATOM     86  F   UNL A   1      41.206  35.460  36.437  1.00  0.00    -0.206 F 
ATOM     87  C   UNL A   1      39.612  35.626  39.680  1.00  0.00     0.022 A 
BRANCH  84  88
ATOM     88  S   UNL A   1      37.917  33.986  41.117  1.00  0.00     0.124 S 
ATOM     89  O   UNL A   1      36.840  33.286  40.426  1.00  0.00    -0.237 OA
ATOM     90  O   UNL A   1      38.741  33.164  42.001  1.00  0.00    -0.237 OA
ATOM     91  O   UNL A   1      37.580  35.308  41.637  1.00  0.00    -0.744 OA
ENDBRANCH  84  88
ENDBRANCH  57  81
BRANCH  69  92
ATOM     92  C   UNL A   1      44.376  28.592  35.633  1.00  0.00     0.023 A 
ATOM     93  C   UNL A   1      44.212  27.559  36.576  1.00  0.00     0.031 A 
ATOM     94  C   UNL A   1      45.673  29.091  35.417  1.00  0.00     0.131 A 
ATOM     95  C   UNL A   1      45.317  27.089  37.297  1.00  0.00     0.055 A 
ATOM     96  C   UNL A   1      46.779  28.579  36.096  1.00  0.00     0.041 A 
ATOM     97  F   UNL A   1      45.884  30.085  34.540  1.00  0.00    -0.206 F 
ATOM     98  C   UNL A   1      46.602  27.584  37.052  1.00  0.00     0.022 A 
BRANCH  95  99
ATOM     99  S   UNL A   1      45.118  25.889  38.644  1.00  0.00     0.124 S 
ATOM    100  O   UNL A   1      44.471  24.772  37.960  1.00  0.00    -0.237 OA
ATOM    101  O   UNL A   1      46.499  25.654  39.053  1.00  0.00    -0.237 OA
ATOM    102  O   UNL A   1      44.285  26.588  39.618  1.00  0.00    -0.744 OA
ENDBRANCH  95  99
ENDBRANCH  69  92
ENDBRANCH  43  44
ENDBRANCH  35  38
ENDBRANCH  33  34
ENDBRANCH  32  33
ENDBRANCH   1  32
TORSDOF 18
ENDMDL
MODEL 2
REMARK VINA RESULT:     -12.2      0.698      7.417
REMARK SMILES Cc1cc(=O)c(Oc2ccc(C(=O)NCCCCNC(=O)c3ccc(-c4c5nc(c(-c6cc(S(=O)(=O)[O-])ccc6F)c6ccc([nH]6)c(-c6cc(S(=O)(=O)[O-])ccc6F)c6nc(c(-c7cc(S(=O)(=O)[O-])ccc7F)c7ccc4[nH]7)C=C6)C=C5)cc3)cc2)c(-c2ccc(S(C)(=O)=O)cc2)o1
REMARK SMILES IDX 16 1 15 2 14 3 12 4 13 5 11 7 8 8 9 9 86 10 10 11 85 12 7 13
REMARK SMILES IDX 6 14 1 15 2 16 3 17 98 18 4 19 87 20 5 21 88 22 89 23 97 24
REMARK SMILES IDX 90 25 96 26 91 27 92 28 93 29 94 30 95 31 17 32 18 33 19 34
REMARK SMILES IDX 20 35 21 37 22 38 23 39 84 40 24 41 83 42 25 43 26 44 27 45
REMARK SMILES IDX 77 46 28 47 82 48 76 49 78 50 29 51 81 52 75 53 74 54 30 56
REMARK SMILES IDX 62 57 42 58 61 59 43 60 46 61 60 62 79 63 44 64 45 65 59 67
REMARK SMILES IDX 80 68 47 69 31 70 32 71 40 72 33 73 39 74 41 75 38 76 34 77
REMARK SMILES IDX 35 78 36 79 37 80 63 81 64 82 72 83 65 84 71 85 73 86 70 87
REMARK SMILES IDX 66 88 67 89 68 90 69 91 48 92 49 93 57 94 50 95 56 96 58 97
REMARK SMILES IDX 55 98 51 99 52 100 53 101 54 102
REMARK H PARENT 14 6 19 36 78 55 46 66
REMARK Flexibility Score: inf
ROOT
ATOM      1  C   UNL A   1      34.551  30.203  27.870  1.00  0.00     0.023 C 
ENDROOT
BRANCH   1   2
ATOM      2  C   UNL A   1      34.388  29.216  26.720  1.00  0.00     0.116 C 
BRANCH   2   3
ATOM      3  N   UNL A   1      33.040  29.026  26.219  1.00  0.00    -0.352 N 
ATOM      4  C   UNL A   1      32.461  27.942  25.592  1.00  0.00     0.251 C 
ATOM      5  O   UNL A   1      31.251  27.943  25.379  1.00  0.00    -0.269 OA
ATOM      6  H   UNL A   1      32.441  29.796  26.348  1.00  0.00     0.163 HD
BRANCH   4   7
ATOM      7  C   UNL A   1      33.284  26.827  25.052  1.00  0.00     0.040 A 
ATOM      8  C   UNL A   1      34.225  24.401  24.072  1.00  0.00     0.127 A 
ATOM      9  C   UNL A   1      34.149  24.593  25.446  1.00  0.00     0.048 A 
ATOM     10  C   UNL A   1      34.070  25.485  23.209  1.00  0.00     0.048 A 
ATOM     11  C   UNL A   1      33.636  25.796  25.937  1.00  0.00     0.017 A 
ATOM     12  C   UNL A   1      33.641  26.713  23.709  1.00  0.00     0.017 A 
BRANCH   8  13
ATOM     13  O   UNL A   1      34.543  23.202  23.511  1.00  0.00    -0.449 OA
BRANCH  13  14
ATOM     14  C   UNL A   1      34.230  21.972  24.077  1.00  0.00     0.217 A 
ATOM     15  C   UNL A   1      32.767  18.121  25.398  1.00  0.00     0.088 C 
ATOM     16  C   UNL A   1      33.159  19.493  24.951  1.00  0.00     0.105 A 
ATOM     17  C   UNL A   1      32.294  20.334  24.383  1.00  0.00     0.098 A 
ATOM     18  O   UNL A   1      34.478  19.824  25.172  1.00  0.00    -0.457 OA
ATOM     19  C   UNL A   1      32.771  21.648  23.937  1.00  0.00     0.228 A 
ATOM     20  C   UNL A   1      34.982  21.047  24.735  1.00  0.00     0.180 A 
ATOM     21  O   UNL A   1      31.965  22.442  23.460  1.00  0.00    -0.285 OA
BRANCH  20  22
ATOM     22  C   UNL A   1      36.416  21.125  25.074  1.00  0.00     0.021 A 
ATOM     23  C   UNL A   1      36.940  22.319  25.603  1.00  0.00     0.013 A 
ATOM     24  C   UNL A   1      37.277  20.040  24.857  1.00  0.00     0.013 A 
ATOM     25  C   UNL A   1      38.278  22.395  25.998  1.00  0.00     0.021 A 
ATOM     26  C   UNL A   1      38.622  20.116  25.237  1.00  0.00     0.021 A 
ATOM     27  C   UNL A   1      39.110  21.287  25.822  1.00  0.00     0.067 A 
BRANCH  27  28
ATOM     28  S   UNL A   1      40.766  21.335  26.480  1.00  0.00     0.175 S 
ATOM     29  C   UNL A   1      40.666  22.507  27.803  1.00  0.00     0.163 C 
ATOM     30  O   UNL A   1      41.024  20.032  27.058  1.00  0.00    -0.224 OA
ATOM     31  O   UNL A   1      41.629  21.897  25.457  1.00  0.00    -0.224 OA
ENDBRANCH  27  28
ENDBRANCH  20  22
ENDBRANCH  13  14
ENDBRANCH   8  13
ENDBRANCH   4   7
ENDBRANCH   2   3
ENDBRANCH   1   2
BRANCH   1  32
ATOM     32  C   UNL A   1      33.491  31.282  28.015  1.00  0.00     0.023 C 
BRANCH  32  33
ATOM     33  C   UNL A   1      33.683  32.530  27.167  1.00  0.00     0.116 C 
BRANCH  33  34
ATOM     34  N   UNL A   1      32.984  33.709  27.666  1.00  0.00    -0.352 N 
ATOM     35  C   UNL A   1      33.270  34.517  28.748  1.00  0.00     0.251 C 
ATOM     36  H   UNL A   1      32.186  33.968  27.153  1.00  0.00     0.163 HD
ATOM     37  O   UNL A   1      32.509  35.436  29.040  1.00  0.00    -0.269 OA
BRANCH  35  38
ATOM     38  C   UNL A   1      34.455  34.231  29.588  1.00  0.00     0.039 A 
ATOM     39  C   UNL A   1      35.730  34.590  29.158  1.00  0.00     0.014 A 
ATOM     40  C   UNL A   1      34.297  33.523  30.783  1.00  0.00     0.014 A 
ATOM     41  C   UNL A   1      36.840  34.022  29.769  1.00  0.00     0.010 A 
ATOM     42  C   UNL A   1      35.426  33.062  31.473  1.00  0.00     0.010 A 
ATOM     43  C   UNL A   1      36.706  33.238  30.929  1.00  0.00    -0.014 A 
BRANCH  43  44
ATOM     44  C   UNL A   1      37.922  32.623  31.532  1.00  0.00     0.031 A 
ATOM     45  C   UNL A   1      38.428  33.049  32.888  1.00  0.00     0.074 A 
ATOM     46  C   UNL A   1      38.528  31.608  30.883  1.00  0.00     0.049 A 
ATOM     47  N   UNL A   1      39.422  32.559  33.586  1.00  0.00    -0.248 NA
ATOM     48  C   UNL A   1      37.740  34.171  33.547  1.00  0.00     0.031 C 
ATOM     49  C   UNL A   1      38.131  31.111  29.566  1.00  0.00     0.029 A 
ATOM     50  N   UNL A   1      39.570  30.790  31.246  1.00  0.00    -0.354 N 
ATOM     51  C   UNL A   1      39.489  33.318  34.751  1.00  0.00     0.074 A 
ATOM     52  C   UNL A   1      38.463  34.331  34.648  1.00  0.00     0.031 C 
ATOM     53  C   UNL A   1      38.861  30.029  29.266  1.00  0.00     0.029 A 
ATOM     54  C   UNL A   1      39.841  29.805  30.324  1.00  0.00     0.049 A 
ATOM     55  H   UNL A   1      40.074  30.899  32.084  1.00  0.00     0.167 HD
ATOM     56  C   UNL A   1      40.316  33.170  35.814  1.00  0.00     0.034 A 
ATOM     57  C   UNL A   1      40.776  28.832  30.317  1.00  0.00     0.034 A 
ATOM     58  C   UNL A   1      41.320  32.136  35.914  1.00  0.00     0.049 A 
ATOM     59  C   UNL A   1      41.697  28.704  31.500  1.00  0.00     0.074 A 
ATOM     60  C   UNL A   1      42.183  31.885  36.966  1.00  0.00     0.029 A 
ATOM     61  N   UNL A   1      41.594  31.186  34.940  1.00  0.00    -0.354 N 
ATOM     62  N   UNL A   1      41.711  29.399  32.614  1.00  0.00    -0.248 NA
ATOM     63  C   UNL A   1      42.728  27.660  31.434  1.00  0.00     0.031 C 
ATOM     64  C   UNL A   1      43.025  30.835  36.601  1.00  0.00     0.029 A 
ATOM     65  C   UNL A   1      42.635  30.369  35.356  1.00  0.00     0.049 A 
ATOM     66  H   UNL A   1      41.120  31.104  34.081  1.00  0.00     0.167 HD
ATOM     67  C   UNL A   1      42.741  28.869  33.385  1.00  0.00     0.074 A 
ATOM     68  C   UNL A   1      43.299  27.768  32.627  1.00  0.00     0.031 C 
ATOM     69  C   UNL A   1      43.187  29.267  34.603  1.00  0.00     0.034 A 
BRANCH  56  70
ATOM     70  C   UNL A   1      40.185  34.122  36.982  1.00  0.00     0.023 A 
ATOM     71  C   UNL A   1      39.576  33.692  38.176  1.00  0.00     0.031 A 
ATOM     72  C   UNL A   1      40.521  35.482  36.864  1.00  0.00     0.131 A 
ATOM     73  C   UNL A   1      39.281  34.620  39.185  1.00  0.00     0.055 A 
ATOM     74  C   UNL A   1      40.270  36.395  37.892  1.00  0.00     0.041 A 
ATOM     75  F   UNL A   1      41.100  35.948  35.745  1.00  0.00    -0.206 F 
ATOM     76  C   UNL A   1      39.634  35.966  39.053  1.00  0.00     0.022 A 
BRANCH  73  77
ATOM     77  S   UNL A   1      38.360  34.135  40.671  1.00  0.00     0.124 S 
ATOM     78  O   UNL A   1      37.253  33.373  40.101  1.00  0.00    -0.237 OA
ATOM     79  O   UNL A   1      39.350  33.347  41.400  1.00  0.00    -0.237 OA
ATOM     80  O   UNL A   1      37.989  35.406  41.284  1.00  0.00    -0.744 OA
ENDBRANCH  73  77
ENDBRANCH  56  70
BRANCH  57  81
ATOM     81  C   UNL A   1      40.835  27.892  29.158  1.00  0.00     0.023 A 
ATOM     82  C   UNL A   1      41.758  28.096  28.114  1.00  0.00     0.031 A 
ATOM     83  C   UNL A   1      39.896  26.859  29.015  1.00  0.00     0.131 A 
ATOM     84  C   UNL A   1      41.663  27.337  26.941  1.00  0.00     0.055 A 
ATOM     85  C   UNL A   1      39.862  26.046  27.879  1.00  0.00     0.041 A 
ATOM     86  F   UNL A   1      38.988  26.632  29.976  1.00  0.00    -0.206 F 
ATOM     87  C   UNL A   1      40.734  26.299  26.825  1.00  0.00     0.022 A 
BRANCH  84  88
ATOM     88  S   UNL A   1      42.636  27.776  25.472  1.00  0.00     0.124 S 
ATOM     89  O   UNL A   1      42.525  26.568  24.661  1.00  0.00    -0.237 OA
ATOM     90  O   UNL A   1      41.910  28.942  24.973  1.00  0.00    -0.237 OA
ATOM     91  O   UNL A   1      43.963  28.057  26.010  1.00  0.00    -0.744 OA
ENDBRANCH  84  88
ENDBRANCH  57  81
BRANCH  69  92
ATOM     92  C   UNL A   1      44.349  28.524  35.222  1.00  0.00     0.023 A 
ATOM     93  C   UNL A   1      44.125  27.609  36.269  1.00  0.00     0.031 A 
ATOM     94  C   UNL A   1      45.679  28.826  34.881  1.00  0.00     0.131 A 
ATOM     95  C   UNL A   1      45.211  27.062  36.964  1.00  0.00     0.055 A 
ATOM     96  C   UNL A   1      46.758  28.234  35.538  1.00  0.00     0.041 A 
ATOM     97  F   UNL A   1      45.949  29.703  33.900  1.00  0.00    -0.206 F 
ATOM     98  C   UNL A   1      46.528  27.359  36.595  1.00  0.00     0.022 A 
BRANCH  95  99
ATOM     99  S   UNL A   1      44.961  26.023  38.430  1.00  0.00     0.124 S 
ATOM    100  O   UNL A   1      44.981  24.679  37.856  1.00  0.00    -0.237 OA
ATOM    101  O   UNL A   1      46.119  26.366  39.251  1.00  0.00    -0.237 OA
ATOM    102  O   UNL A   1      43.669  26.456  38.953  1.00  0.00    -0.744 OA
ENDBRANCH  95  99
ENDBRANCH  69  92
ENDBRANCH  43  44
ENDBRANCH  35  38
ENDBRANCH  33  34
ENDBRANCH  32  33
ENDBRANCH   1  32
TORSDOF 18
ENDMDL
MODEL 3
REMARK VINA RESULT:     -12.2      5.397     11.197
REMARK SMILES Cc1cc(=O)c(Oc2ccc(C(=O)NCCCCNC(=O)c3ccc(-c4c5nc(c(-c6cc(S(=O)(=O)[O-])ccc6F)c6ccc([nH]6)c(-c6cc(S(=O)(=O)[O-])ccc6F)c6nc(c(-c7cc(S(=O)(=O)[O-])ccc7F)c7ccc4[nH]7)C=C6)C=C5)cc3)cc2)c(-c2ccc(S(C)(=O)=O)cc2)o1
REMARK SMILES IDX 16 1 15 2 14 3 12 4 13 5 11 7 8 8 9 9 86 10 10 11 85 12 7 13
REMARK SMILES IDX 6 14 1 15 2 16 3 17 98 18 4 19 87 20 5 21 88 22 89 23 97 24
REMARK SMILES IDX 90 25 96 26 91 27 92 28 93 29 94 30 95 31 17 32 18 33 19 34
REMARK SMILES IDX 20 35 21 37 22 38 23 39 84 40 24 41 83 42 25 43 26 44 27 45
REMARK SMILES IDX 77 46 28 47 82 48 76 49 78 50 29 51 81 52 75 53 74 54 30 56
REMARK SMILES IDX 62 57 42 58 61 59 43 60 46 61 60 62 79 63 44 64 45 65 59 67
REMARK SMILES IDX 80 68 47 69 31 70 32 71 40 72 33 73 39 74 41 75 38 76 34 77
REMARK SMILES IDX 35 78 36 79 37 80 63 81 64 82 72 83 65 84 71 85 73 86 70 87
REMARK SMILES IDX 66 88 67 89 68 90 69 91 48 92 49 93 57 94 50 95 56 96 58 97
REMARK SMILES IDX 55 98 51 99 52 100 53 101 54 102
REMARK H PARENT 14 6 19 36 78 55 46 66
REMARK Flexibility Score: inf
ROOT
ATOM      1  C   UNL A   1      35.088  20.524  25.363  1.00  0.00     0.023 C 
ENDROOT
BRANCH   1   2
ATOM      2  C   UNL A   1      33.573  20.558  25.530  1.00  0.00     0.116 C 
BRANCH   2   3
ATOM      3  N   UNL A   1      33.067  21.285  26.679  1.00  0.00    -0.352 N 
ATOM      4  C   UNL A   1      32.634  22.590  26.794  1.00  0.00     0.251 C 
ATOM      5  O   UNL A   1      32.104  22.960  27.839  1.00  0.00    -0.269 OA
ATOM      6  H   UNL A   1      33.025  20.762  27.511  1.00  0.00     0.163 HD
BRANCH   4   7
ATOM      7  C   UNL A   1      32.905  23.595  25.731  1.00  0.00     0.040 A 
ATOM      8  C   UNL A   1      32.928  25.831  24.080  1.00  0.00     0.127 A 
ATOM      9  C   UNL A   1      31.992  24.831  23.852  1.00  0.00     0.048 A 
ATOM     10  C   UNL A   1      33.989  25.605  24.956  1.00  0.00     0.048 A 
ATOM     11  C   UNL A   1      31.954  23.728  24.709  1.00  0.00     0.017 A 
ATOM     12  C   UNL A   1      33.998  24.461  25.752  1.00  0.00     0.017 A 
BRANCH   8  13
ATOM     13  O   UNL A   1      32.921  27.016  23.408  1.00  0.00    -0.449 OA
BRANCH  13  14
ATOM     14  C   UNL A   1      31.887  27.942  23.477  1.00  0.00     0.217 A 
ATOM     15  C   UNL A   1      28.300  30.360  23.407  1.00  0.00     0.088 C 
ATOM     16  C   UNL A   1      29.522  29.503  23.314  1.00  0.00     0.105 A 
ATOM     17  C   UNL A   1      29.659  28.553  22.386  1.00  0.00     0.098 A 
ATOM     18  O   UNL A   1      30.494  29.767  24.253  1.00  0.00    -0.457 OA
ATOM     19  C   UNL A   1      30.874  27.730  22.389  1.00  0.00     0.228 A 
ATOM     20  C   UNL A   1      31.647  28.989  24.314  1.00  0.00     0.180 A 
ATOM     21  O   UNL A   1      31.025  26.890  21.506  1.00  0.00    -0.285 OA
BRANCH  20  22
ATOM     22  C   UNL A   1      32.495  29.470  25.422  1.00  0.00     0.021 A 
ATOM     23  C   UNL A   1      33.722  28.835  25.684  1.00  0.00     0.013 A 
ATOM     24  C   UNL A   1      32.090  30.536  26.239  1.00  0.00     0.013 A 
ATOM     25  C   UNL A   1      34.574  29.317  26.682  1.00  0.00     0.021 A 
ATOM     26  C   UNL A   1      32.933  31.012  27.249  1.00  0.00     0.021 A 
ATOM     27  C   UNL A   1      34.178  30.412  27.453  1.00  0.00     0.067 A 
BRANCH  27  28
ATOM     28  S   UNL A   1      35.337  31.123  28.606  1.00  0.00     0.175 S 
ATOM     29  C   UNL A   1      36.075  29.717  29.389  1.00  0.00     0.163 C 
ATOM     30  O   UNL A   1      36.360  31.781  27.818  1.00  0.00    -0.224 OA
ATOM     31  O   UNL A   1      34.573  31.838  29.611  1.00  0.00    -0.224 OA
ENDBRANCH  27  28
ENDBRANCH  20  22
ENDBRANCH  13  14
ENDBRANCH   8  13
ENDBRANCH   4   7
ENDBRANCH   2   3
ENDBRANCH   1   2
BRANCH   1  32
ATOM     32  C   UNL A   1      35.722  21.632  24.538  1.00  0.00     0.023 C 
BRANCH  32  33
ATOM     33  C   UNL A   1      37.064  22.151  25.029  1.00  0.00     0.116 C 
BRANCH  33  34
ATOM     34  N   UNL A   1      38.021  21.108  25.379  1.00  0.00    -0.352 N 
ATOM     35  C   UNL A   1      39.197  21.188  26.096  1.00  0.00     0.251 C 
ATOM     36  H   UNL A   1      37.792  20.208  25.053  1.00  0.00     0.163 HD
ATOM     37  O   UNL A   1      39.900  20.190  26.228  1.00  0.00    -0.269 OA
BRANCH  35  38
ATOM     38  C   UNL A   1      39.636  22.490  26.648  1.00  0.00     0.039 A 
ATOM     39  C   UNL A   1      39.074  23.678  26.190  1.00  0.00     0.014 A 
ATOM     40  C   UNL A   1      40.681  22.526  27.576  1.00  0.00     0.014 A 
ATOM     41  C   UNL A   1      39.719  24.881  26.448  1.00  0.00     0.010 A 
ATOM     42  C   UNL A   1      41.247  23.755  27.939  1.00  0.00     0.010 A 
ATOM     43  C   UNL A   1      40.823  24.939  27.317  1.00  0.00    -0.014 A 
BRANCH  43  44
ATOM     44  C   UNL A   1      41.503  26.246  27.540  1.00  0.00     0.031 A 
ATOM     45  C   UNL A   1      40.916  27.290  28.457  1.00  0.00     0.074 A 
ATOM     46  C   UNL A   1      42.707  26.459  26.970  1.00  0.00     0.049 A 
ATOM     47  N   UNL A   1      41.421  28.443  28.819  1.00  0.00    -0.248 NA
ATOM     48  C   UNL A   1      39.593  27.014  29.041  1.00  0.00     0.031 C 
ATOM     49  C   UNL A   1      43.373  25.524  26.063  1.00  0.00     0.029 A 
ATOM     50  N   UNL A   1      43.600  27.495  27.093  1.00  0.00    -0.354 N 
ATOM     51  C   UNL A   1      40.476  29.034  29.653  1.00  0.00     0.074 A 
ATOM     52  C   UNL A   1      39.348  28.133  29.711  1.00  0.00     0.031 C 
ATOM     53  C   UNL A   1      44.595  25.987  25.774  1.00  0.00     0.029 A 
ATOM     54  C   UNL A   1      44.772  27.294  26.401  1.00  0.00     0.049 A 
ATOM     55  H   UNL A   1      43.418  28.303  27.624  1.00  0.00     0.167 HD
ATOM     56  C   UNL A   1      40.554  30.209  30.324  1.00  0.00     0.034 A 
ATOM     57  C   UNL A   1      45.868  28.071  26.270  1.00  0.00     0.034 A 
ATOM     58  C   UNL A   1      41.699  31.088  30.277  1.00  0.00     0.049 A 
ATOM     59  C   UNL A   1      45.918  29.382  27.007  1.00  0.00     0.074 A 
ATOM     60  C   UNL A   1      41.884  32.283  30.949  1.00  0.00     0.029 A 
ATOM     61  N   UNL A   1      42.848  30.871  29.530  1.00  0.00    -0.354 N 
ATOM     62  N   UNL A   1      45.036  29.899  27.831  1.00  0.00    -0.248 NA
ATOM     63  C   UNL A   1      47.109  30.217  26.804  1.00  0.00     0.031 C 
ATOM     64  C   UNL A   1      43.106  32.824  30.552  1.00  0.00     0.029 A 
ATOM     65  C   UNL A   1      43.730  31.928  29.699  1.00  0.00     0.049 A 
ATOM     66  H   UNL A   1      43.013  30.083  28.962  1.00  0.00     0.167 HD
ATOM     67  C   UNL A   1      45.572  31.112  28.255  1.00  0.00     0.074 A 
ATOM     68  C   UNL A   1      46.872  31.230  27.627  1.00  0.00     0.031 C 
ATOM     69  C   UNL A   1      45.029  32.043  29.078  1.00  0.00     0.034 A 
BRANCH  56  70
ATOM     70  C   UNL A   1      39.390  30.636  31.191  1.00  0.00     0.023 A 
ATOM     71  C   UNL A   1      38.676  31.810  30.883  1.00  0.00     0.031 A 
ATOM     72  C   UNL A   1      39.086  29.974  32.394  1.00  0.00     0.131 A 
ATOM     73  C   UNL A   1      37.726  32.309  31.786  1.00  0.00     0.055 A 
ATOM     74  C   UNL A   1      38.105  30.448  33.267  1.00  0.00     0.041 A 
ATOM     75  F   UNL A   1      39.740  28.853  32.740  1.00  0.00    -0.206 F 
ATOM     76  C   UNL A   1      37.431  31.629  32.971  1.00  0.00     0.022 A 
BRANCH  73  77
ATOM     77  S   UNL A   1      36.896  33.896  31.499  1.00  0.00     0.124 S 
ATOM     78  O   UNL A   1      37.772  34.824  32.210  1.00  0.00    -0.237 OA
ATOM     79  O   UNL A   1      36.930  33.999  30.042  1.00  0.00    -0.237 OA
ATOM     80  O   UNL A   1      35.575  33.713  32.088  1.00  0.00    -0.744 OA
ENDBRANCH  73  77
ENDBRANCH  56  70
BRANCH  57  81
ATOM     81  C   UNL A   1      47.006  27.584  25.435  1.00  0.00     0.023 A 
ATOM     82  C   UNL A   1      47.186  28.053  24.120  1.00  0.00     0.031 A 
ATOM     83  C   UNL A   1      47.851  26.559  25.891  1.00  0.00     0.131 A 
ATOM     84  C   UNL A   1      48.124  27.438  23.282  1.00  0.00     0.055 A 
ATOM     85  C   UNL A   1      48.845  26.008  25.077  1.00  0.00     0.041 A 
ATOM     86  F   UNL A   1      47.712  26.069  27.132  1.00  0.00    -0.206 F 
ATOM     87  C   UNL A   1      48.969  26.432  23.758  1.00  0.00     0.022 A 
BRANCH  84  88
ATOM     88  S   UNL A   1      48.167  27.815  21.506  1.00  0.00     0.124 S 
ATOM     89  O   UNL A   1      46.786  28.209  21.245  1.00  0.00    -0.237 OA
ATOM     90  O   UNL A   1      49.153  28.893  21.455  1.00  0.00    -0.237 OA
ATOM     91  O   UNL A   1      48.592  26.559  20.897  1.00  0.00    -0.744 OA
ENDBRANCH  84  88
ENDBRANCH  57  81
BRANCH  69  92
ATOM     92  C   UNL A   1      45.821  33.299  29.367  1.00  0.00     0.023 A 
ATOM     93  C   UNL A   1      45.774  34.385  28.471  1.00  0.00     0.031 A 
ATOM     94  C   UNL A   1      46.727  33.365  30.440  1.00  0.00     0.131 A 
ATOM     95  C   UNL A   1      46.645  35.469  28.640  1.00  0.00     0.055 A 
ATOM     96  C   UNL A   1      47.551  34.472  30.637  1.00  0.00     0.041 A 
ATOM     97  F   UNL A   1      46.822  32.350  31.315  1.00  0.00    -0.206 F 
ATOM     98  C   UNL A   1      47.524  35.525  29.727  1.00  0.00     0.022 A 
BRANCH  95  99
ATOM     99  S   UNL A   1      46.739  36.799  27.410  1.00  0.00     0.124 S 
ATOM    100  O   UNL A   1      47.358  37.877  28.177  1.00  0.00    -0.237 OA
ATOM    101  O   UNL A   1      47.585  36.204  26.379  1.00  0.00    -0.237 OA
ATOM    102  O   UNL A   1      45.349  37.025  27.028  1.00  0.00    -0.744 OA
ENDBRANCH  95  99
ENDBRANCH  69  92
ENDBRANCH  43  44
ENDBRANCH  35  38
ENDBRANCH  33  34
ENDBRANCH  32  33
ENDBRANCH   1  32
TORSDOF 18
ENDMDL
