MODEL 1
REMARK VINA RESULT:      -9.9      0.000      0.000
REMARK SMILES CC(=O)Oc1ccccc1SCCCCCC(=O)NCCCCNC(=O)c1ccc(-c2c3nc(c(-c4cc(S(=O)(=O)[O-])ccc4F)c4ccc([nH]4)c(-c4cc(S(=O)(=O)[O-])ccc4F)c4nc(c(-c5cc(S(=O)(=O)[O-])ccc5F)c5ccc2[nH]5)C=C4)C=C3)cc1
REMARK SMILES IDX 17 1 18 2 19 3 16 5 15 6 14 7 13 8 12 9 11 10 10 11 5 12
REMARK SMILES IDX 6 13 7 14 9 15 8 16 4 17 2 18 1 19 3 20 20 21 21 22 22 23
REMARK SMILES IDX 23 24 24 25 25 26 26 28 27 29 28 30 89 31 29 32 88 33 30 34
REMARK SMILES IDX 31 35 32 36 82 37 33 38 87 39 81 40 83 41 34 42 86 43 80 44
REMARK SMILES IDX 79 45 35 47 67 48 47 49 66 50 48 51 51 52 65 53 84 54 49 55
REMARK SMILES IDX 50 56 64 58 85 59 52 60 36 61 37 62 45 63 38 64 44 65 46 66
REMARK SMILES IDX 43 67 39 68 40 69 41 70 42 71 68 72 69 73 77 74 70 75 76 76
REMARK SMILES IDX 78 77 75 78 71 79 72 80 73 81 74 82 53 83 54 84 62 85 55 86
REMARK SMILES IDX 61 87 63 88 60 89 56 90 57 91 58 92 59 93
REMARK H PARENT 19 4 24 27 83 46 51 57
REMARK Flexibility Score: inf
ROOT
ATOM      1  C   UNL A   1      32.793  23.575  22.884  1.00  0.00     0.219 C 
ATOM      2  O   UNL A   1      32.888  24.222  21.842  1.00  0.00    -0.275 OA
ATOM      3  N   UNL A   1      33.696  22.590  23.143  1.00  0.00    -0.356 N 
ATOM      4  H   UNL A   1      34.444  22.512  22.508  1.00  0.00     0.163 HD
ENDROOT
BRANCH   1   5
ATOM      5  C   UNL A   1      31.703  23.871  23.894  1.00  0.00     0.100 C 
BRANCH   5   6
ATOM      6  C   UNL A   1      32.180  24.651  25.121  1.00  0.00     0.010 C 
BRANCH   6   7
ATOM      7  C   UNL A   1      31.494  25.982  25.502  1.00  0.00     0.001 C 
BRANCH   7   8
ATOM      8  C   UNL A   1      32.365  27.141  25.977  1.00  0.00     0.011 C 
BRANCH   8   9
ATOM      9  C   UNL A   1      31.859  28.300  26.856  1.00  0.00     0.075 C 
BRANCH   9  10
ATOM     10  S   UNL A   1      32.135  30.102  26.750  1.00  0.00    -0.122 SA
BRANCH  10  11
ATOM     11  C   UNL A   1      33.788  30.456  27.279  1.00  0.00     0.050 A 
ATOM     12  C   UNL A   1      34.309  31.630  27.838  1.00  0.00     0.144 A 
ATOM     13  C   UNL A   1      35.586  31.632  28.430  1.00  0.00     0.048 A 
ATOM     14  C   UNL A   1      36.373  30.481  28.424  1.00  0.00     0.004 A 
ATOM     15  C   UNL A   1      34.637  29.333  27.214  1.00  0.00     0.019 A 
ATOM     16  C   UNL A   1      35.908  29.336  27.793  1.00  0.00     0.001 A 
BRANCH  12  17
ATOM     17  O   UNL A   1      33.543  32.779  28.183  1.00  0.00    -0.426 OA
BRANCH  17  18
ATOM     18  C   UNL A   1      33.910  33.906  28.913  1.00  0.00     0.308 C 
ATOM     19  C   UNL A   1      34.510  34.897  27.949  1.00  0.00     0.139 C 
ATOM     20  O   UNL A   1      33.759  34.087  30.107  1.00  0.00    -0.252 OA
ENDBRANCH  17  18
ENDBRANCH  12  17
ENDBRANCH  10  11
ENDBRANCH   9  10
ENDBRANCH   8   9
ENDBRANCH   7   8
ENDBRANCH   6   7
ENDBRANCH   5   6
ENDBRANCH   1   5
BRANCH   3  21
ATOM     21  C   UNL A   1      33.690  21.644  24.234  1.00  0.00     0.116 C 
BRANCH  21  22
ATOM     22  C   UNL A   1      35.087  21.514  24.833  1.00  0.00     0.023 C 
BRANCH  22  23
ATOM     23  C   UNL A   1      35.927  22.770  24.817  1.00  0.00     0.023 C 
BRANCH  23  24
ATOM     24  C   UNL A   1      36.941  22.820  25.939  1.00  0.00     0.116 C 
BRANCH  24  25
ATOM     25  N   UNL A   1      37.969  21.783  25.885  1.00  0.00    -0.352 N 
ATOM     26  C   UNL A   1      39.265  21.893  26.348  1.00  0.00     0.251 C 
ATOM     27  H   UNL A   1      37.713  20.924  25.479  1.00  0.00     0.163 HD
ATOM     28  O   UNL A   1      40.075  20.987  26.211  1.00  0.00    -0.269 OA
BRANCH  26  29
ATOM     29  C   UNL A   1      39.637  23.184  26.958  1.00  0.00     0.039 A 
ATOM     30  C   UNL A   1      40.578  23.195  27.986  1.00  0.00     0.014 A 
ATOM     31  C   UNL A   1      39.261  24.359  26.303  1.00  0.00     0.014 A 
ATOM     32  C   UNL A   1      41.218  24.394  28.299  1.00  0.00     0.010 A 
ATOM     33  C   UNL A   1      40.001  25.510  26.523  1.00  0.00     0.010 A 
ATOM     34  C   UNL A   1      40.979  25.546  27.531  1.00  0.00    -0.014 A 
BRANCH  34  35
ATOM     35  C   UNL A   1      41.712  26.815  27.780  1.00  0.00     0.031 A 
ATOM     36  C   UNL A   1      43.122  26.954  27.271  1.00  0.00     0.074 A 
ATOM     37  C   UNL A   1      41.147  27.799  28.509  1.00  0.00     0.049 A 
ATOM     38  N   UNL A   1      43.978  27.925  27.456  1.00  0.00    -0.248 NA
ATOM     39  C   UNL A   1      43.660  25.824  26.495  1.00  0.00     0.031 C 
ATOM     40  C   UNL A   1      39.812  27.753  29.115  1.00  0.00     0.029 A 
ATOM     41  N   UNL A   1      41.626  29.034  28.872  1.00  0.00    -0.354 N 
ATOM     42  C   UNL A   1      45.155  27.507  26.846  1.00  0.00     0.074 A 
ATOM     43  C   UNL A   1      44.931  26.163  26.366  1.00  0.00     0.031 C 
ATOM     44  C   UNL A   1      39.567  28.921  29.732  1.00  0.00     0.029 A 
ATOM     45  C   UNL A   1      40.738  29.782  29.612  1.00  0.00     0.049 A 
ATOM     46  H   UNL A   1      42.524  29.355  28.625  1.00  0.00     0.167 HD
ATOM     47  C   UNL A   1      46.307  28.197  26.665  1.00  0.00     0.034 A 
ATOM     48  C   UNL A   1      40.858  31.020  30.135  1.00  0.00     0.034 A 
ATOM     49  C   UNL A   1      46.494  29.553  27.108  1.00  0.00     0.049 A 
ATOM     50  C   UNL A   1      42.141  31.778  29.902  1.00  0.00     0.074 A 
ATOM     51  C   UNL A   1      47.588  30.376  26.918  1.00  0.00     0.029 A 
ATOM     52  N   UNL A   1      45.561  30.287  27.829  1.00  0.00    -0.354 N 
ATOM     53  N   UNL A   1      43.228  31.390  29.275  1.00  0.00    -0.248 NA
ATOM     54  C   UNL A   1      42.209  33.144  30.435  1.00  0.00     0.031 C 
ATOM     55  C   UNL A   1      47.345  31.584  27.580  1.00  0.00     0.029 A 
ATOM     56  C   UNL A   1      46.067  31.546  28.113  1.00  0.00     0.049 A 
ATOM     57  H   UNL A   1      44.673  29.962  28.098  1.00  0.00     0.167 HD
ATOM     58  C   UNL A   1      44.098  32.476  29.314  1.00  0.00     0.074 A 
ATOM     59  C   UNL A   1      43.402  33.538  30.011  1.00  0.00     0.031 C 
ATOM     60  C   UNL A   1      45.357  32.588  28.818  1.00  0.00     0.034 A 
BRANCH  47  61
ATOM     61  C   UNL A   1      47.441  27.485  25.968  1.00  0.00     0.023 A 
ATOM     62  C   UNL A   1      48.367  26.695  26.676  1.00  0.00     0.031 A 
ATOM     63  C   UNL A   1      47.620  27.622  24.581  1.00  0.00     0.131 A 
ATOM     64  C   UNL A   1      49.471  26.144  26.010  1.00  0.00     0.055 A 
ATOM     65  C   UNL A   1      48.672  26.997  23.910  1.00  0.00     0.041 A 
ATOM     66  F   UNL A   1      46.785  28.382  23.855  1.00  0.00    -0.206 F 
ATOM     67  C   UNL A   1      49.614  26.264  24.627  1.00  0.00     0.022 A 
BRANCH  64  68
ATOM     68  S   UNL A   1      50.790  25.390  27.000  1.00  0.00     0.124 S 
ATOM     69  O   UNL A   1      51.268  26.535  27.771  1.00  0.00    -0.237 OA
ATOM     70  O   UNL A   1      50.074  24.366  27.754  1.00  0.00    -0.237 OA
ATOM     71  O   UNL A   1      51.725  24.887  25.997  1.00  0.00    -0.744 OA
ENDBRANCH  64  68
ENDBRANCH  47  61
BRANCH  48  72
ATOM     72  C   UNL A   1      39.744  31.621  30.926  1.00  0.00     0.023 A 
ATOM     73  C   UNL A   1      39.608  31.366  32.301  1.00  0.00     0.031 A 
ATOM     74  C   UNL A   1      38.779  32.437  30.310  1.00  0.00     0.131 A 
ATOM     75  C   UNL A   1      38.509  31.886  33.005  1.00  0.00     0.055 A 
ATOM     76  C   UNL A   1      37.716  32.993  31.025  1.00  0.00     0.041 A 
ATOM     77  F   UNL A   1      38.863  32.718  29.000  1.00  0.00    -0.206 F 
ATOM     78  C   UNL A   1      37.570  32.709  32.379  1.00  0.00     0.022 A 
BRANCH  75  79
ATOM     79  S   UNL A   1      38.282  31.412  34.742  1.00  0.00     0.124 S 
ATOM     80  O   UNL A   1      38.103  29.969  34.635  1.00  0.00    -0.237 OA
ATOM     81  O   UNL A   1      39.534  31.861  35.344  1.00  0.00    -0.237 OA
ATOM     82  O   UNL A   1      37.096  32.162  35.147  1.00  0.00    -0.744 OA
ENDBRANCH  75  79
ENDBRANCH  48  72
BRANCH  60  83
ATOM     83  C   UNL A   1      46.042  33.922  28.975  1.00  0.00     0.023 A 
ATOM     84  C   UNL A   1      45.781  34.995  28.107  1.00  0.00     0.031 A 
ATOM     85  C   UNL A   1      46.966  34.122  30.017  1.00  0.00     0.131 A 
ATOM     86  C   UNL A   1      46.476  36.203  28.263  1.00  0.00     0.055 A 
ATOM     87  C   UNL A   1      47.606  35.346  30.206  1.00  0.00     0.041 A 
ATOM     88  F   UNL A   1      47.253  33.130  30.875  1.00  0.00    -0.206 F 
ATOM     89  C   UNL A   1      47.372  36.392  29.318  1.00  0.00     0.022 A 
BRANCH  86  90
ATOM     90  S   UNL A   1      46.263  37.496  27.009  1.00  0.00     0.124 S 
ATOM     91  O   UNL A   1      46.925  36.905  25.850  1.00  0.00    -0.237 OA
ATOM     92  O   UNL A   1      44.811  37.612  26.924  1.00  0.00    -0.237 OA
ATOM     93  O   UNL A   1      46.944  38.651  27.590  1.00  0.00    -0.744 OA
ENDBRANCH  86  90
ENDBRANCH  60  83
ENDBRANCH  34  35
ENDBRANCH  26  29
ENDBRANCH  24  25
ENDBRANCH  23  24
ENDBRANCH  22  23
ENDBRANCH  21  22
ENDBRANCH   3  21
TORSDOF 22
ENDMDL
MODEL 2
REMARK VINA RESULT:      -9.2      3.698      9.449
REMARK SMILES CC(=O)Oc1ccccc1SCCCCCC(=O)NCCCCNC(=O)c1ccc(-c2c3nc(c(-c4cc(S(=O)(=O)[O-])ccc4F)c4ccc([nH]4)c(-c4cc(S(=O)(=O)[O-])ccc4F)c4nc(c(-c5cc(S(=O)(=O)[O-])ccc5F)c5ccc2[nH]5)C=C4)C=C3)cc1
REMARK SMILES IDX 17 1 18 2 19 3 16 5 15 6 14 7 13 8 12 9 11 10 10 11 5 12
REMARK SMILES IDX 6 13 7 14 9 15 8 16 4 17 2 18 1 19 3 20 20 21 21 22 22 23
REMARK SMILES IDX 23 24 24 25 25 26 26 28 27 29 28 30 89 31 29 32 88 33 30 34
REMARK SMILES IDX 31 35 32 36 82 37 33 38 87 39 81 40 83 41 34 42 86 43 80 44
REMARK SMILES IDX 79 45 35 47 67 48 47 49 66 50 48 51 51 52 65 53 84 54 49 55
REMARK SMILES IDX 50 56 64 58 85 59 52 60 36 61 37 62 45 63 38 64 44 65 46 66
REMARK SMILES IDX 43 67 39 68 40 69 41 70 42 71 68 72 69 73 77 74 70 75 76 76
REMARK SMILES IDX 78 77 75 78 71 79 72 80 73 81 74 82 53 83 54 84 62 85 55 86
REMARK SMILES IDX 61 87 63 88 60 89 56 90 57 91 58 92 59 93
REMARK H PARENT 19 4 24 27 83 46 51 57
REMARK Flexibility Score: inf
ROOT
ATOM      1  C   UNL A   1      37.221  29.463  30.223  1.00  0.00     0.219 C 
ATOM      2  O   UNL A   1      36.528  29.517  31.238  1.00  0.00    -0.275 OA
ATOM      3  N   UNL A   1      37.767  28.273  29.850  1.00  0.00    -0.356 N 
ATOM      4  H   UNL A   1      37.493  27.488  30.378  1.00  0.00     0.163 HD
ENDROOT
BRANCH   1   5
ATOM      5  C   UNL A   1      37.457  30.692  29.369  1.00  0.00     0.100 C 
BRANCH   5   6
ATOM      6  C   UNL A   1      36.177  31.358  28.861  1.00  0.00     0.010 C 
BRANCH   6   7
ATOM      7  C   UNL A   1      34.977  30.489  28.427  1.00  0.00     0.001 C 
BRANCH   7   8
ATOM      8  C   UNL A   1      35.148  29.549  27.237  1.00  0.00     0.011 C 
BRANCH   8   9
ATOM      9  C   UNL A   1      34.074  28.556  26.755  1.00  0.00     0.075 C 
BRANCH   9  10
ATOM     10  S   UNL A   1      32.315  28.371  27.209  1.00  0.00    -0.122 SA
BRANCH  10  11
ATOM     11  C   UNL A   1      31.444  27.671  25.834  1.00  0.00     0.050 A 
ATOM     12  C   UNL A   1      30.889  26.393  25.692  1.00  0.00     0.144 A 
ATOM     13  C   UNL A   1      30.014  26.111  24.627  1.00  0.00     0.048 A 
ATOM     14  C   UNL A   1      29.727  27.081  23.668  1.00  0.00     0.004 A 
ATOM     15  C   UNL A   1      31.202  28.605  24.806  1.00  0.00     0.019 A 
ATOM     16  C   UNL A   1      30.341  28.323  23.744  1.00  0.00     0.001 A 
BRANCH  12  17
ATOM     17  O   UNL A   1      30.844  25.405  26.716  1.00  0.00    -0.426 OA
BRANCH  17  18
ATOM     18  C   UNL A   1      31.613  24.255  26.875  1.00  0.00     0.308 C 
ATOM     19  C   UNL A   1      32.809  24.378  25.967  1.00  0.00     0.139 C 
ATOM     20  O   UNL A   1      31.390  23.323  27.625  1.00  0.00    -0.252 OA
ENDBRANCH  17  18
ENDBRANCH  12  17
ENDBRANCH  10  11
ENDBRANCH   9  10
ENDBRANCH   8   9
ENDBRANCH   7   8
ENDBRANCH   6   7
ENDBRANCH   5   6
ENDBRANCH   1   5
BRANCH   3  21
ATOM     21  C   UNL A   1      38.698  28.021  28.776  1.00  0.00     0.116 C 
BRANCH  21  22
ATOM     22  C   UNL A   1      39.694  26.937  29.178  1.00  0.00     0.023 C 
BRANCH  22  23
ATOM     23  C   UNL A   1      39.915  25.840  28.163  1.00  0.00     0.023 C 
BRANCH  23  24
ATOM     24  C   UNL A   1      40.256  26.366  26.786  1.00  0.00     0.116 C 
BRANCH  24  25
ATOM     25  N   UNL A   1      41.149  25.510  26.006  1.00  0.00    -0.352 N 
ATOM     26  C   UNL A   1      42.434  25.820  25.608  1.00  0.00     0.251 C 
ATOM     27  H   UNL A   1      40.799  24.630  25.738  1.00  0.00     0.163 HD
ATOM     28  O   UNL A   1      43.090  25.060  24.908  1.00  0.00    -0.269 OA
BRANCH  26  29
ATOM     29  C   UNL A   1      42.948  27.140  26.017  1.00  0.00     0.039 A 
ATOM     30  C   UNL A   1      42.278  28.285  25.588  1.00  0.00     0.014 A 
ATOM     31  C   UNL A   1      43.896  27.194  27.041  1.00  0.00     0.014 A 
ATOM     32  C   UNL A   1      42.501  29.486  26.260  1.00  0.00     0.010 A 
ATOM     33  C   UNL A   1      44.004  28.355  27.791  1.00  0.00     0.010 A 
ATOM     34  C   UNL A   1      43.318  29.518  27.404  1.00  0.00    -0.014 A 
BRANCH  34  35
ATOM     35  C   UNL A   1      43.502  30.761  28.195  1.00  0.00     0.031 A 
ATOM     36  C   UNL A   1      42.559  31.048  29.334  1.00  0.00     0.074 A 
ATOM     37  C   UNL A   1      44.457  31.653  27.857  1.00  0.00     0.049 A 
ATOM     38  N   UNL A   1      42.472  32.110  30.091  1.00  0.00    -0.248 NA
ATOM     39  C   UNL A   1      41.542  30.023  29.623  1.00  0.00     0.031 C 
ATOM     40  C   UNL A   1      45.386  31.520  26.731  1.00  0.00     0.029 A 
ATOM     41  N   UNL A   1      44.803  32.854  28.424  1.00  0.00    -0.354 N 
ATOM     42  C   UNL A   1      41.378  31.889  30.920  1.00  0.00     0.074 A 
ATOM     43  C   UNL A   1      40.781  30.638  30.513  1.00  0.00     0.031 C 
ATOM     44  C   UNL A   1      46.221  32.573  26.720  1.00  0.00     0.029 A 
ATOM     45  C   UNL A   1      45.860  33.481  27.803  1.00  0.00     0.049 A 
ATOM     46  H   UNL A   1      44.337  33.234  29.204  1.00  0.00     0.167 HD
ATOM     47  C   UNL A   1      40.934  32.641  31.956  1.00  0.00     0.034 A 
ATOM     48  C   UNL A   1      46.467  34.654  28.077  1.00  0.00     0.034 A 
ATOM     49  C   UNL A   1      41.572  33.861  32.377  1.00  0.00     0.049 A 
ATOM     50  C   UNL A   1      45.970  35.465  29.249  1.00  0.00     0.074 A 
ATOM     51  C   UNL A   1      41.256  34.668  33.454  1.00  0.00     0.029 A 
ATOM     52  N   UNL A   1      42.658  34.448  31.742  1.00  0.00    -0.354 N 
ATOM     53  N   UNL A   1      44.966  35.217  30.059  1.00  0.00    -0.248 NA
ATOM     54  C   UNL A   1      46.694  36.706  29.551  1.00  0.00     0.031 C 
ATOM     55  C   UNL A   1      42.108  35.777  33.432  1.00  0.00     0.029 A 
ATOM     56  C   UNL A   1      43.008  35.622  32.390  1.00  0.00     0.049 A 
ATOM     57  H   UNL A   1      43.112  34.085  30.948  1.00  0.00     0.167 HD
ATOM     58  C   UNL A   1      44.958  36.257  30.984  1.00  0.00     0.074 A 
ATOM     59  C   UNL A   1      46.066  37.124  30.640  1.00  0.00     0.031 C 
ATOM     60  C   UNL A   1      44.114  36.477  32.025  1.00  0.00     0.034 A 
BRANCH  47  61
ATOM     61  C   UNL A   1      39.702  32.162  32.685  1.00  0.00     0.023 A 
ATOM     62  C   UNL A   1      38.427  32.690  32.411  1.00  0.00     0.031 A 
ATOM     63  C   UNL A   1      39.808  31.187  33.691  1.00  0.00     0.131 A 
ATOM     64  C   UNL A   1      37.326  32.301  33.188  1.00  0.00     0.055 A 
ATOM     65  C   UNL A   1      38.692  30.739  34.401  1.00  0.00     0.041 A 
ATOM     66  F   UNL A   1      41.001  30.665  34.015  1.00  0.00    -0.206 F 
ATOM     67  C   UNL A   1      37.444  31.307  34.161  1.00  0.00     0.022 A 
BRANCH  64  68
ATOM     68  S   UNL A   1      35.770  33.215  33.003  1.00  0.00     0.124 S 
ATOM     69  O   UNL A   1      35.028  32.349  32.091  1.00  0.00    -0.237 OA
ATOM     70  O   UNL A   1      35.274  33.273  34.374  1.00  0.00    -0.237 OA
ATOM     71  O   UNL A   1      36.191  34.494  32.436  1.00  0.00    -0.744 OA
ENDBRANCH  64  68
ENDBRANCH  47  61
BRANCH  48  72
ATOM     72  C   UNL A   1      47.602  35.137  27.237  1.00  0.00     0.023 A 
ATOM     73  C   UNL A   1      48.928  34.776  27.528  1.00  0.00     0.031 A 
ATOM     74  C   UNL A   1      47.379  35.993  26.144  1.00  0.00     0.131 A 
ATOM     75  C   UNL A   1      49.982  35.303  26.764  1.00  0.00     0.055 A 
ATOM     76  C   UNL A   1      48.426  36.475  25.356  1.00  0.00     0.041 A 
ATOM     77  F   UNL A   1      46.131  36.365  25.816  1.00  0.00    -0.206 F 
ATOM     78  C   UNL A   1      49.739  36.139  25.671  1.00  0.00     0.022 A 
BRANCH  75  79
ATOM     79  S   UNL A   1      51.689  34.939  27.263  1.00  0.00     0.124 S 
ATOM     80  O   UNL A   1      52.350  34.796  25.971  1.00  0.00    -0.237 OA
ATOM     81  O   UNL A   1      52.038  36.127  28.035  1.00  0.00    -0.237 OA
ATOM     82  O   UNL A   1      51.561  33.709  28.040  1.00  0.00    -0.744 OA
ENDBRANCH  75  79
ENDBRANCH  48  72
BRANCH  60  83
ATOM     83  C   UNL A   1      44.388  37.680  32.891  1.00  0.00     0.023 A 
ATOM     84  C   UNL A   1      43.701  38.892  32.713  1.00  0.00     0.031 A 
ATOM     85  C   UNL A   1      45.348  37.606  33.917  1.00  0.00     0.131 A 
ATOM     86  C   UNL A   1      44.022  39.999  33.512  1.00  0.00     0.055 A 
ATOM     87  C   UNL A   1      45.616  38.691  34.750  1.00  0.00     0.041 A 
ATOM     88  F   UNL A   1      46.034  36.472  34.130  1.00  0.00    -0.206 F 
ATOM     89  C   UNL A   1      44.961  39.901  34.541  1.00  0.00     0.022 A 
BRANCH  86  90
ATOM     90  S   UNL A   1      43.261  41.599  33.125  1.00  0.00     0.124 S 
ATOM     91  O   UNL A   1      41.905  41.420  33.634  1.00  0.00    -0.237 OA
ATOM     92  O   UNL A   1      44.102  42.533  33.866  1.00  0.00    -0.237 OA
ATOM     93  O   UNL A   1      43.370  41.686  31.670  1.00  0.00    -0.744 OA
ENDBRANCH  86  90
ENDBRANCH  60  83
ENDBRANCH  34  35
ENDBRANCH  26  29
ENDBRANCH  24  25
ENDBRANCH  23  24
ENDBRANCH  22  23
ENDBRANCH  21  22
ENDBRANCH   3  21
TORSDOF 22
ENDMDL
MODEL 3
REMARK VINA RESULT:      -9.1      3.733      6.440
REMARK SMILES CC(=O)Oc1ccccc1SCCCCCC(=O)NCCCCNC(=O)c1ccc(-c2c3nc(c(-c4cc(S(=O)(=O)[O-])ccc4F)c4ccc([nH]4)c(-c4cc(S(=O)(=O)[O-])ccc4F)c4nc(c(-c5cc(S(=O)(=O)[O-])ccc5F)c5ccc2[nH]5)C=C4)C=C3)cc1
REMARK SMILES IDX 17 1 18 2 19 3 16 5 15 6 14 7 13 8 12 9 11 10 10 11 5 12
REMARK SMILES IDX 6 13 7 14 9 15 8 16 4 17 2 18 1 19 3 20 20 21 21 22 22 23
REMARK SMILES IDX 23 24 24 25 25 26 26 28 27 29 28 30 89 31 29 32 88 33 30 34
REMARK SMILES IDX 31 35 32 36 82 37 33 38 87 39 81 40 83 41 34 42 86 43 80 44
REMARK SMILES IDX 79 45 35 47 67 48 47 49 66 50 48 51 51 52 65 53 84 54 49 55
REMARK SMILES IDX 50 56 64 58 85 59 52 60 36 61 37 62 45 63 38 64 44 65 46 66
REMARK SMILES IDX 43 67 39 68 40 69 41 70 42 71 68 72 69 73 77 74 70 75 76 76
REMARK SMILES IDX 78 77 75 78 71 79 72 80 73 81 74 82 53 83 54 84 62 85 55 86
REMARK SMILES IDX 61 87 63 88 60 89 56 90 57 91 58 92 59 93
REMARK H PARENT 19 4 24 27 83 46 51 57
REMARK Flexibility Score: inf
ROOT
ATOM      1  C   UNL A   1      37.269  29.644  30.239  1.00  0.00     0.219 C 
ATOM      2  O   UNL A   1      36.504  29.761  31.196  1.00  0.00    -0.275 OA
ATOM      3  N   UNL A   1      37.796  28.423  29.950  1.00  0.00    -0.356 N 
ATOM      4  H   UNL A   1      37.454  27.668  30.483  1.00  0.00     0.163 HD
ENDROOT
BRANCH   1   5
ATOM      5  C   UNL A   1      37.616  30.831  29.363  1.00  0.00     0.100 C 
BRANCH   5   6
ATOM      6  C   UNL A   1      36.563  31.155  28.301  1.00  0.00     0.010 C 
BRANCH   6   7
ATOM      7  C   UNL A   1      35.915  30.015  27.486  1.00  0.00     0.001 C 
BRANCH   7   8
ATOM      8  C   UNL A   1      34.410  29.799  27.602  1.00  0.00     0.011 C 
BRANCH   8   9
ATOM      9  C   UNL A   1      33.658  28.595  27.003  1.00  0.00     0.075 C 
BRANCH   9  10
ATOM     10  S   UNL A   1      31.936  28.027  27.210  1.00  0.00    -0.122 SA
BRANCH  10  11
ATOM     11  C   UNL A   1      31.230  27.757  25.607  1.00  0.00     0.050 A 
ATOM     12  C   UNL A   1      30.473  26.675  25.141  1.00  0.00     0.144 A 
ATOM     13  C   UNL A   1      29.785  26.762  23.917  1.00  0.00     0.048 A 
ATOM     14  C   UNL A   1      29.886  27.905  23.125  1.00  0.00     0.004 A 
ATOM     15  C   UNL A   1      31.380  28.866  24.749  1.00  0.00     0.019 A 
ATOM     16  C   UNL A   1      30.705  28.950  23.530  1.00  0.00     0.001 A 
BRANCH  12  17
ATOM     17  O   UNL A   1      30.037  25.580  25.940  1.00  0.00    -0.426 OA
BRANCH  17  18
ATOM     18  C   UNL A   1      30.677  24.378  26.225  1.00  0.00     0.308 C 
ATOM     19  C   UNL A   1      31.574  24.051  25.058  1.00  0.00     0.139 C 
ATOM     20  O   UNL A   1      30.566  23.711  27.237  1.00  0.00    -0.252 OA
ENDBRANCH  17  18
ENDBRANCH  12  17
ENDBRANCH  10  11
ENDBRANCH   9  10
ENDBRANCH   8   9
ENDBRANCH   7   8
ENDBRANCH   6   7
ENDBRANCH   5   6
ENDBRANCH   1   5
BRANCH   3  21
ATOM     21  C   UNL A   1      38.795  28.097  28.961  1.00  0.00     0.116 C 
BRANCH  21  22
ATOM     22  C   UNL A   1      39.690  26.967  29.459  1.00  0.00     0.023 C 
BRANCH  22  23
ATOM     23  C   UNL A   1      39.873  25.807  28.507  1.00  0.00     0.023 C 
BRANCH  23  24
ATOM     24  C   UNL A   1      39.944  26.235  27.058  1.00  0.00     0.116 C 
BRANCH  24  25
ATOM     25  N   UNL A   1      40.802  25.405  26.213  1.00  0.00    -0.352 N 
ATOM     26  C   UNL A   1      42.063  25.734  25.759  1.00  0.00     0.251 C 
ATOM     27  H   UNL A   1      40.445  24.529  25.942  1.00  0.00     0.163 HD
ATOM     28  O   UNL A   1      42.688  24.997  25.009  1.00  0.00    -0.269 OA
BRANCH  26  29
ATOM     29  C   UNL A   1      42.589  27.048  26.175  1.00  0.00     0.039 A 
ATOM     30  C   UNL A   1      41.951  28.201  25.720  1.00  0.00     0.014 A 
ATOM     31  C   UNL A   1      43.510  27.093  27.223  1.00  0.00     0.014 A 
ATOM     32  C   UNL A   1      42.175  29.403  26.391  1.00  0.00     0.010 A 
ATOM     33  C   UNL A   1      43.617  28.256  27.968  1.00  0.00     0.010 A 
ATOM     34  C   UNL A   1      42.961  29.429  27.556  1.00  0.00    -0.014 A 
BRANCH  34  35
ATOM     35  C   UNL A   1      43.146  30.674  28.344  1.00  0.00     0.031 A 
ATOM     36  C   UNL A   1      44.247  31.626  27.957  1.00  0.00     0.074 A 
ATOM     37  C   UNL A   1      42.385  30.915  29.431  1.00  0.00     0.049 A 
ATOM     38  N   UNL A   1      44.651  32.714  28.557  1.00  0.00    -0.248 NA
ATOM     39  C   UNL A   1      45.035  31.275  26.763  1.00  0.00     0.031 C 
ATOM     40  C   UNL A   1      41.332  30.034  29.947  1.00  0.00     0.029 A 
ATOM     41  N   UNL A   1      42.380  31.974  30.306  1.00  0.00    -0.354 N 
ATOM     42  C   UNL A   1      45.751  33.156  27.830  1.00  0.00     0.074 A 
ATOM     43  C   UNL A   1      46.005  32.172  26.804  1.00  0.00     0.031 C 
ATOM     44  C   UNL A   1      40.758  30.610  31.017  1.00  0.00     0.029 A 
ATOM     45  C   UNL A   1      41.428  31.875  31.296  1.00  0.00     0.049 A 
ATOM     46  H   UNL A   1      43.000  32.735  30.231  1.00  0.00     0.167 HD
ATOM     47  C   UNL A   1      46.461  34.300  27.979  1.00  0.00     0.034 A 
ATOM     48  C   UNL A   1      41.133  32.711  32.313  1.00  0.00     0.034 A 
ATOM     49  C   UNL A   1      46.162  35.292  28.979  1.00  0.00     0.049 A 
ATOM     50  C   UNL A   1      41.922  33.989  32.447  1.00  0.00     0.074 A 
ATOM     51  C   UNL A   1      46.765  36.520  29.178  1.00  0.00     0.029 A 
ATOM     52  N   UNL A   1      45.173  35.170  29.945  1.00  0.00    -0.354 N 
ATOM     53  N   UNL A   1      42.927  34.420  31.718  1.00  0.00    -0.248 NA
ATOM     54  C   UNL A   1      41.531  34.900  33.530  1.00  0.00     0.031 C 
ATOM     55  C   UNL A   1      46.185  37.111  30.305  1.00  0.00     0.029 A 
ATOM     56  C   UNL A   1      45.166  36.290  30.760  1.00  0.00     0.049 A 
ATOM     57  H   UNL A   1      44.565  34.401  30.038  1.00  0.00     0.167 HD
ATOM     58  C   UNL A   1      43.267  35.666  32.238  1.00  0.00     0.074 A 
ATOM     59  C   UNL A   1      42.350  35.922  33.330  1.00  0.00     0.031 C 
ATOM     60  C   UNL A   1      44.247  36.522  31.850  1.00  0.00     0.034 A 
BRANCH  47  61
ATOM     61  C   UNL A   1      47.626  34.521  27.045  1.00  0.00     0.023 A 
ATOM     62  C   UNL A   1      48.863  33.878  27.237  1.00  0.00     0.031 A 
ATOM     63  C   UNL A   1      47.511  35.413  25.965  1.00  0.00     0.131 A 
ATOM     64  C   UNL A   1      49.954  34.196  26.416  1.00  0.00     0.055 A 
ATOM     65  C   UNL A   1      48.576  35.658  25.096  1.00  0.00     0.041 A 
ATOM     66  F   UNL A   1      46.364  36.075  25.745  1.00  0.00    -0.206 F 
ATOM     67  C   UNL A   1      49.811  35.060  25.328  1.00  0.00     0.022 A 
BRANCH  64  68
ATOM     68  S   UNL A   1      51.595  33.576  26.877  1.00  0.00     0.124 S 
ATOM     69  O   UNL A   1      51.359  33.112  28.242  1.00  0.00    -0.237 OA
ATOM     70  O   UNL A   1      51.830  32.536  25.880  1.00  0.00    -0.237 OA
ATOM     71  O   UNL A   1      52.450  34.755  26.764  1.00  0.00    -0.744 OA
ENDBRANCH  64  68
ENDBRANCH  47  61
BRANCH  48  72
ATOM     72  C   UNL A   1      40.050  32.372  33.284  1.00  0.00     0.023 A 
ATOM     73  C   UNL A   1      38.779  32.965  33.192  1.00  0.00     0.031 A 
ATOM     74  C   UNL A   1      40.280  31.472  34.338  1.00  0.00     0.131 A 
ATOM     75  C   UNL A   1      37.803  32.683  34.161  1.00  0.00     0.055 A 
ATOM     76  C   UNL A   1      39.290  31.156  35.271  1.00  0.00     0.041 A 
ATOM     77  F   UNL A   1      41.474  30.871  34.470  1.00  0.00    -0.206 F 
ATOM     78  C   UNL A   1      38.046  31.772  35.192  1.00  0.00     0.022 A 
BRANCH  75  79
ATOM     79  S   UNL A   1      36.227  33.581  34.100  1.00  0.00     0.124 S 
ATOM     80  O   UNL A   1      36.660  34.911  33.686  1.00  0.00    -0.237 OA
ATOM     81  O   UNL A   1      35.479  32.812  33.111  1.00  0.00    -0.237 OA
ATOM     82  O   UNL A   1      35.727  33.484  35.469  1.00  0.00    -0.744 OA
ENDBRANCH  75  79
ENDBRANCH  48  72
BRANCH  60  83
ATOM     83  C   UNL A   1      44.344  37.835  32.585  1.00  0.00     0.023 A 
ATOM     84  C   UNL A   1      43.488  38.910  32.297  1.00  0.00     0.031 A 
ATOM     85  C   UNL A   1      45.308  38.007  33.596  1.00  0.00     0.131 A 
ATOM     86  C   UNL A   1      43.646  40.128  32.974  1.00  0.00     0.055 A 
ATOM     87  C   UNL A   1      45.417  39.199  34.310  1.00  0.00     0.041 A 
ATOM     88  F   UNL A   1      46.152  37.012  33.910  1.00  0.00    -0.206 F 
ATOM     89  C   UNL A   1      44.592  40.273  33.991  1.00  0.00     0.022 A 
BRANCH  86  90
ATOM     90  S   UNL A   1      42.658  41.553  32.441  1.00  0.00     0.124 S 
ATOM     91  O   UNL A   1      41.783  40.955  31.436  1.00  0.00    -0.237 OA
ATOM     92  O   UNL A   1      42.013  41.968  33.682  1.00  0.00    -0.237 OA
ATOM     93  O   UNL A   1      43.656  42.484  31.918  1.00  0.00    -0.744 OA
ENDBRANCH  86  90
ENDBRANCH  60  83
ENDBRANCH  34  35
ENDBRANCH  26  29
ENDBRANCH  24  25
ENDBRANCH  23  24
ENDBRANCH  22  23
ENDBRANCH  21  22
ENDBRANCH   3  21
TORSDOF 22
ENDMDL
