MODEL 1
REMARK VINA RESULT:     -11.8      0.000      0.000
REMARK SMILES C[NH+](C)Cc1ccccc1[C@H]1[NH2+][C@@H](C(=O)NCCCCNC(=O)c2ccc(-c3c4nc(c(-c5cc(S(=O)(=O)[O-])ccc5F)c5ccc([nH]5)c(-c5cc(S(=O)(=O)[O-])ccc5F)c5nc(c(-c6cc(S(=O)(=O)[O-])ccc6F)c6ccc3[nH]6)C=C5)C=C4)cc2)C(C)(C)S1
REMARK SMILES IDX 18 1 17 2 16 3 14 4 15 5 13 7 11 8 12 9 90 10 87 13 88 14
REMARK SMILES IDX 89 15 10 16 5 17 6 18 7 19 9 20 8 21 4 22 2 23 1 24 3 25
REMARK SMILES IDX 19 27 20 28 21 29 22 30 23 32 24 33 25 34 86 35 26 36 85 37
REMARK SMILES IDX 27 38 28 39 29 40 79 41 30 42 84 43 78 44 80 45 31 46 83 47
REMARK SMILES IDX 77 48 76 49 32 51 64 52 44 53 63 54 45 55 48 56 62 57 81 58
REMARK SMILES IDX 46 59 47 60 61 62 82 63 49 64 33 65 34 66 42 67 35 68 41 69
REMARK SMILES IDX 43 70 40 71 36 72 37 73 38 74 39 75 65 76 66 77 74 78 67 79
REMARK SMILES IDX 73 80 75 81 72 82 68 83 69 84 70 85 71 86 50 87 51 88 59 89
REMARK SMILES IDX 52 90 58 91 60 92 57 93 53 94 54 95 55 96 56 97
REMARK H PARENT 16 6 12 11 12 12 2 26 21 31 80 50 48 61
REMARK Flexibility Score: inf
ROOT
ATOM      1  C   UNL A   1      32.658  30.014  25.818  1.00  0.00     0.023 C 
ENDROOT
BRANCH   1   2
ATOM      2  C   UNL A   1      33.741  28.943  25.714  1.00  0.00     0.116 C 
BRANCH   2   3
ATOM      3  N   UNL A   1      33.784  28.266  24.435  1.00  0.00    -0.351 N 
ATOM      4  C   UNL A   1      33.434  27.005  24.056  1.00  0.00     0.279 C 
ATOM      5  O   UNL A   1      33.516  26.761  22.843  1.00  0.00    -0.268 OA
ATOM      6  H   UNL A   1      34.132  28.823  23.700  1.00  0.00     0.163 HD
BRANCH   4   7
ATOM      7  C   UNL A   1      33.044  25.859  25.023  1.00  0.00     0.289 C 
ATOM      8  C   UNL A   1      33.153  23.578  25.659  1.00  0.00     0.275 C 
ATOM      9  N   UNL A   1      33.744  24.574  24.767  1.00  0.00    -0.320 N 
ATOM     10  S   UNL A   1      31.401  23.977  25.916  1.00  0.00    -0.081 SA
ATOM     11  H   UNL A   1      33.615  24.292  23.795  1.00  0.00     0.348 HD
ATOM     12  H   UNL A   1      34.746  24.664  24.937  1.00  0.00     0.348 HD
ATOM     13  C   UNL A   1      31.522  25.669  25.215  1.00  0.00     0.077 C 
ATOM     14  C   UNL A   1      30.639  25.689  23.969  1.00  0.00     0.030 C 
ATOM     15  C   UNL A   1      30.976  26.696  26.217  1.00  0.00     0.030 C 
BRANCH   8  16
ATOM     16  C   UNL A   1      33.381  22.106  25.293  1.00  0.00     0.029 A 
ATOM     17  C   UNL A   1      34.592  21.366  25.403  1.00  0.00     0.016 A 
ATOM     18  C   UNL A   1      34.641  20.042  24.908  1.00  0.00     0.010 A 
ATOM     19  C   UNL A   1      33.532  19.428  24.340  1.00  0.00     0.001 A 
ATOM     20  C   UNL A   1      32.271  21.445  24.708  1.00  0.00     0.011 A 
ATOM     21  C   UNL A   1      32.342  20.128  24.245  1.00  0.00     0.001 A 
BRANCH  17  22
ATOM     22  C   UNL A   1      35.884  21.888  25.997  1.00  0.00     0.299 C 
BRANCH  22  23
ATOM     23  N   UNL A   1      36.934  22.365  25.067  1.00  0.00    -0.336 N 
ATOM     24  C   UNL A   1      36.514  22.602  23.684  1.00  0.00     0.332 C 
ATOM     25  C   UNL A   1      37.616  23.562  25.571  1.00  0.00     0.332 C 
ATOM     26  H   UNL A   1      37.575  21.572  25.036  1.00  0.00     0.347 HD
ENDBRANCH  22  23
ENDBRANCH  17  22
ENDBRANCH   8  16
ENDBRANCH   4   7
ENDBRANCH   2   3
ENDBRANCH   1   2
BRANCH   1  27
ATOM     27  C   UNL A   1      32.524  30.660  27.189  1.00  0.00     0.023 C 
BRANCH  27  28
ATOM     28  C   UNL A   1      33.490  31.804  27.481  1.00  0.00     0.116 C 
BRANCH  28  29
ATOM     29  N   UNL A   1      32.860  33.111  27.618  1.00  0.00    -0.352 N 
ATOM     30  C   UNL A   1      33.211  34.153  28.454  1.00  0.00     0.251 C 
ATOM     31  H   UNL A   1      32.080  33.272  27.038  1.00  0.00     0.163 HD
ATOM     32  O   UNL A   1      32.558  35.186  28.475  1.00  0.00    -0.269 OA
BRANCH  30  33
ATOM     33  C   UNL A   1      34.373  33.974  29.356  1.00  0.00     0.039 A 
ATOM     34  C   UNL A   1      34.184  33.360  30.596  1.00  0.00     0.014 A 
ATOM     35  C   UNL A   1      35.658  34.304  28.917  1.00  0.00     0.014 A 
ATOM     36  C   UNL A   1      35.297  32.961  31.340  1.00  0.00     0.010 A 
ATOM     37  C   UNL A   1      36.761  33.830  29.618  1.00  0.00     0.010 A 
ATOM     38  C   UNL A   1      36.594  33.128  30.824  1.00  0.00    -0.014 A 
BRANCH  38  39
ATOM     39  C   UNL A   1      37.784  32.538  31.494  1.00  0.00     0.031 A 
ATOM     40  C   UNL A   1      38.521  31.394  30.852  1.00  0.00     0.074 A 
ATOM     41  C   UNL A   1      38.132  32.957  32.729  1.00  0.00     0.049 A 
ATOM     42  N   UNL A   1      39.492  30.661  31.332  1.00  0.00    -0.248 NA
ATOM     43  C   UNL A   1      38.079  31.003  29.505  1.00  0.00     0.031 C 
ATOM     44  C   UNL A   1      37.458  34.015  33.487  1.00  0.00     0.029 A 
ATOM     45  N   UNL A   1      39.127  32.532  33.575  1.00  0.00    -0.354 N 
ATOM     46  C   UNL A   1      39.760  29.704  30.358  1.00  0.00     0.074 A 
ATOM     47  C   UNL A   1      38.812  29.922  29.285  1.00  0.00     0.031 C 
ATOM     48  C   UNL A   1      38.068  34.166  34.674  1.00  0.00     0.029 A 
ATOM     49  C   UNL A   1      39.145  33.188  34.786  1.00  0.00     0.049 A 
ATOM     50  H   UNL A   1      39.769  31.823  33.338  1.00  0.00     0.167 HD
ATOM     51  C   UNL A   1      40.720  28.747  30.351  1.00  0.00     0.034 A 
ATOM     52  C   UNL A   1      39.927  33.013  35.869  1.00  0.00     0.034 A 
ATOM     53  C   UNL A   1      41.676  28.559  31.414  1.00  0.00     0.049 A 
ATOM     54  C   UNL A   1      40.995  31.949  35.832  1.00  0.00     0.074 A 
ATOM     55  C   UNL A   1      42.738  27.672  31.473  1.00  0.00     0.029 A 
ATOM     56  N   UNL A   1      41.685  29.266  32.609  1.00  0.00    -0.354 N 
ATOM     57  N   UNL A   1      41.275  31.094  34.877  1.00  0.00    -0.248 NA
ATOM     58  C   UNL A   1      41.858  31.834  37.016  1.00  0.00     0.031 C 
ATOM     59  C   UNL A   1      43.351  27.803  32.724  1.00  0.00     0.029 A 
ATOM     60  C   UNL A   1      42.715  28.817  33.422  1.00  0.00     0.049 A 
ATOM     61  H   UNL A   1      41.052  29.982  32.846  1.00  0.00     0.167 HD
ATOM     62  C   UNL A   1      42.362  30.357  35.336  1.00  0.00     0.074 A 
ATOM     63  C   UNL A   1      42.697  30.880  36.644  1.00  0.00     0.031 C 
ATOM     64  C   UNL A   1      43.028  29.340  34.729  1.00  0.00     0.034 A 
BRANCH  51  65
ATOM     65  C   UNL A   1      40.765  27.820  29.161  1.00  0.00     0.023 A 
ATOM     66  C   UNL A   1      41.689  28.002  28.118  1.00  0.00     0.031 A 
ATOM     67  C   UNL A   1      39.852  26.755  29.054  1.00  0.00     0.131 A 
ATOM     68  C   UNL A   1      41.630  27.184  26.979  1.00  0.00     0.055 A 
ATOM     69  C   UNL A   1      39.852  25.895  27.954  1.00  0.00     0.041 A 
ATOM     70  F   UNL A   1      38.934  26.544  30.010  1.00  0.00    -0.206 F 
ATOM     71  C   UNL A   1      40.734  26.117  26.901  1.00  0.00     0.022 A 
BRANCH  68  72
ATOM     72  S   UNL A   1      42.652  27.623  25.547  1.00  0.00     0.124 S 
ATOM     73  O   UNL A   1      42.539  26.419  24.725  1.00  0.00    -0.237 OA
ATOM     74  O   UNL A   1      41.983  28.812  25.033  1.00  0.00    -0.237 OA
ATOM     75  O   UNL A   1      43.974  27.851  26.126  1.00  0.00    -0.744 OA
ENDBRANCH  68  72
ENDBRANCH  51  65
BRANCH  52  76
ATOM     76  C   UNL A   1      39.728  33.842  37.093  1.00  0.00     0.023 A 
ATOM     77  C   UNL A   1      39.084  33.318  38.224  1.00  0.00     0.031 A 
ATOM     78  C   UNL A   1      40.136  35.188  37.130  1.00  0.00     0.131 A 
ATOM     79  C   UNL A   1      38.820  34.146  39.327  1.00  0.00     0.055 A 
ATOM     80  C   UNL A   1      39.915  35.994  38.247  1.00  0.00     0.041 A 
ATOM     81  F   UNL A   1      40.763  35.736  36.077  1.00  0.00    -0.206 F 
ATOM     82  C   UNL A   1      39.241  35.478  39.350  1.00  0.00     0.022 A 
BRANCH  79  83
ATOM     83  S   UNL A   1      37.840  33.480  40.700  1.00  0.00     0.124 S 
ATOM     84  O   UNL A   1      37.815  34.608  41.624  1.00  0.00    -0.237 OA
ATOM     85  O   UNL A   1      36.577  33.161  40.040  1.00  0.00    -0.237 OA
ATOM     86  O   UNL A   1      38.617  32.324  41.143  1.00  0.00    -0.744 OA
ENDBRANCH  79  83
ENDBRANCH  52  76
BRANCH  64  87
ATOM     87  C   UNL A   1      44.207  28.762  35.468  1.00  0.00     0.023 A 
ATOM     88  C   UNL A   1      44.054  27.733  36.413  1.00  0.00     0.031 A 
ATOM     89  C   UNL A   1      45.501  29.259  35.231  1.00  0.00     0.131 A 
ATOM     90  C   UNL A   1      45.171  27.268  37.125  1.00  0.00     0.055 A 
ATOM     91  C   UNL A   1      46.616  28.755  35.903  1.00  0.00     0.041 A 
ATOM     92  F   UNL A   1      45.703  30.243  34.340  1.00  0.00    -0.206 F 
ATOM     93  C   UNL A   1      46.452  27.762  36.865  1.00  0.00     0.022 A 
BRANCH  90  94
ATOM     94  S   UNL A   1      44.915  26.061  38.456  1.00  0.00     0.124 S 
ATOM     95  O   UNL A   1      46.204  26.085  39.139  1.00  0.00    -0.237 OA
ATOM     96  O   UNL A   1      43.792  26.638  39.189  1.00  0.00    -0.237 OA
ATOM     97  O   UNL A   1      44.615  24.822  37.741  1.00  0.00    -0.744 OA
ENDBRANCH  90  94
ENDBRANCH  64  87
ENDBRANCH  38  39
ENDBRANCH  30  33
ENDBRANCH  28  29
ENDBRANCH  27  28
ENDBRANCH   1  27
TORSDOF 17
ENDMDL
MODEL 2
REMARK VINA RESULT:     -11.8      5.572     11.010
REMARK SMILES C[NH+](C)Cc1ccccc1[C@H]1[NH2+][C@@H](C(=O)NCCCCNC(=O)c2ccc(-c3c4nc(c(-c5cc(S(=O)(=O)[O-])ccc5F)c5ccc([nH]5)c(-c5cc(S(=O)(=O)[O-])ccc5F)c5nc(c(-c6cc(S(=O)(=O)[O-])ccc6F)c6ccc3[nH]6)C=C5)C=C4)cc2)C(C)(C)S1
REMARK SMILES IDX 18 1 17 2 16 3 14 4 15 5 13 7 11 8 12 9 90 10 87 13 88 14
REMARK SMILES IDX 89 15 10 16 5 17 6 18 7 19 9 20 8 21 4 22 2 23 1 24 3 25
REMARK SMILES IDX 19 27 20 28 21 29 22 30 23 32 24 33 25 34 86 35 26 36 85 37
REMARK SMILES IDX 27 38 28 39 29 40 79 41 30 42 84 43 78 44 80 45 31 46 83 47
REMARK SMILES IDX 77 48 76 49 32 51 64 52 44 53 63 54 45 55 48 56 62 57 81 58
REMARK SMILES IDX 46 59 47 60 61 62 82 63 49 64 33 65 34 66 42 67 35 68 41 69
REMARK SMILES IDX 43 70 40 71 36 72 37 73 38 74 39 75 65 76 66 77 74 78 67 79
REMARK SMILES IDX 73 80 75 81 72 82 68 83 69 84 70 85 71 86 50 87 51 88 59 89
REMARK SMILES IDX 52 90 58 91 60 92 57 93 53 94 54 95 55 96 56 97
REMARK H PARENT 16 6 12 11 12 12 2 26 21 31 80 50 48 61
REMARK Flexibility Score: inf
ROOT
ATOM      1  C   UNL A   1      34.962  21.341  26.051  1.00  0.00     0.023 C 
ENDROOT
BRANCH   1   2
ATOM      2  C   UNL A   1      34.627  22.753  26.526  1.00  0.00     0.116 C 
BRANCH   2   3
ATOM      3  N   UNL A   1      33.229  22.955  26.844  1.00  0.00    -0.351 N 
ATOM      4  C   UNL A   1      32.241  23.656  26.218  1.00  0.00     0.279 C 
ATOM      5  O   UNL A   1      31.109  23.556  26.712  1.00  0.00    -0.268 OA
ATOM      6  H   UNL A   1      32.936  22.501  27.667  1.00  0.00     0.163 HD
BRANCH   4   7
ATOM      7  C   UNL A   1      32.452  24.619  25.022  1.00  0.00     0.289 C 
ATOM      8  C   UNL A   1      32.019  26.686  23.945  1.00  0.00     0.275 C 
ATOM      9  N   UNL A   1      31.863  25.970  25.210  1.00  0.00    -0.320 N 
ATOM     10  S   UNL A   1      31.923  25.499  22.576  1.00  0.00    -0.081 SA
ATOM     11  H   UNL A   1      30.874  25.891  25.448  1.00  0.00     0.348 HD
ATOM     12  H   UNL A   1      32.329  26.468  25.969  1.00  0.00     0.348 HD
ATOM     13  C   UNL A   1      32.105  24.016  23.641  1.00  0.00     0.077 C 
ATOM     14  C   UNL A   1      30.803  23.226  23.516  1.00  0.00     0.030 C 
ATOM     15  C   UNL A   1      33.259  23.140  23.135  1.00  0.00     0.030 C 
BRANCH   8  16
ATOM     16  C   UNL A   1      31.122  27.912  23.734  1.00  0.00     0.029 A 
ATOM     17  C   UNL A   1      31.320  29.225  24.248  1.00  0.00     0.016 A 
ATOM     18  C   UNL A   1      30.322  30.206  24.041  1.00  0.00     0.010 A 
ATOM     19  C   UNL A   1      29.162  29.935  23.326  1.00  0.00     0.001 A 
ATOM     20  C   UNL A   1      29.926  27.675  23.010  1.00  0.00     0.011 A 
ATOM     21  C   UNL A   1      28.966  28.669  22.803  1.00  0.00     0.001 A 
BRANCH  17  22
ATOM     22  C   UNL A   1      32.525  29.680  25.044  1.00  0.00     0.299 C 
BRANCH  22  23
ATOM     23  N   UNL A   1      32.441  29.636  26.522  1.00  0.00    -0.336 N 
ATOM     24  C   UNL A   1      33.401  28.762  27.199  1.00  0.00     0.332 C 
ATOM     25  C   UNL A   1      32.508  30.974  27.120  1.00  0.00     0.332 C 
ATOM     26  H   UNL A   1      31.522  29.219  26.676  1.00  0.00     0.347 HD
ENDBRANCH  22  23
ENDBRANCH  17  22
ENDBRANCH   8  16
ENDBRANCH   4   7
ENDBRANCH   2   3
ENDBRANCH   1   2
BRANCH   1  27
ATOM     27  C   UNL A   1      35.944  21.270  24.892  1.00  0.00     0.023 C 
BRANCH  27  28
ATOM     28  C   UNL A   1      37.351  21.786  25.182  1.00  0.00     0.116 C 
BRANCH  28  29
ATOM     29  N   UNL A   1      38.348  20.743  25.389  1.00  0.00    -0.352 N 
ATOM     30  C   UNL A   1      39.538  20.816  26.087  1.00  0.00     0.251 C 
ATOM     31  H   UNL A   1      38.148  19.872  24.975  1.00  0.00     0.163 HD
ATOM     32  O   UNL A   1      40.290  19.854  26.144  1.00  0.00    -0.269 OA
BRANCH  30  33
ATOM     33  C   UNL A   1      39.902  22.100  26.730  1.00  0.00     0.039 A 
ATOM     34  C   UNL A   1      40.871  22.106  27.736  1.00  0.00     0.014 A 
ATOM     35  C   UNL A   1      39.373  23.300  26.249  1.00  0.00     0.014 A 
ATOM     36  C   UNL A   1      41.402  23.324  28.169  1.00  0.00     0.010 A 
ATOM     37  C   UNL A   1      39.963  24.504  26.620  1.00  0.00     0.010 A 
ATOM     38  C   UNL A   1      41.003  24.528  27.564  1.00  0.00    -0.014 A 
BRANCH  38  39
ATOM     39  C   UNL A   1      41.689  25.816  27.858  1.00  0.00     0.031 A 
ATOM     40  C   UNL A   1      40.964  26.904  28.601  1.00  0.00     0.074 A 
ATOM     41  C   UNL A   1      42.923  26.045  27.361  1.00  0.00     0.049 A 
ATOM     42  N   UNL A   1      41.336  28.135  28.838  1.00  0.00    -0.248 NA
ATOM     43  C   UNL A   1      39.625  26.570  29.112  1.00  0.00     0.031 C 
ATOM     44  C   UNL A   1      43.708  25.093  26.569  1.00  0.00     0.029 A 
ATOM     45  N   UNL A   1      43.727  27.156  27.428  1.00  0.00    -0.354 N 
ATOM     46  C   UNL A   1      40.269  28.732  29.502  1.00  0.00     0.074 A 
ATOM     47  C   UNL A   1      39.218  27.739  29.581  1.00  0.00     0.031 C 
ATOM     48  C   UNL A   1      44.883  25.655  26.241  1.00  0.00     0.029 A 
ATOM     49  C   UNL A   1      44.920  27.020  26.754  1.00  0.00     0.049 A 
ATOM     50  H   UNL A   1      43.474  27.975  27.913  1.00  0.00     0.167 HD
ATOM     51  C   UNL A   1      40.182  29.984  30.015  1.00  0.00     0.034 A 
ATOM     52  C   UNL A   1      45.924  27.898  26.557  1.00  0.00     0.034 A 
ATOM     53  C   UNL A   1      41.248  30.953  29.953  1.00  0.00     0.049 A 
ATOM     54  C   UNL A   1      45.809  29.280  27.147  1.00  0.00     0.074 A 
ATOM     55  C   UNL A   1      41.294  32.222  30.509  1.00  0.00     0.029 A 
ATOM     56  N   UNL A   1      42.455  30.768  29.293  1.00  0.00    -0.354 N 
ATOM     57  N   UNL A   1      44.817  29.807  27.826  1.00  0.00    -0.248 NA
ATOM     58  C   UNL A   1      46.951  30.182  26.952  1.00  0.00     0.031 C 
ATOM     59  C   UNL A   1      42.502  32.821  30.136  1.00  0.00     0.029 A 
ATOM     60  C   UNL A   1      43.240  31.905  29.403  1.00  0.00     0.049 A 
ATOM     61  H   UNL A   1      42.716  29.947  28.816  1.00  0.00     0.167 HD
ATOM     62  C   UNL A   1      45.228  31.094  28.160  1.00  0.00     0.074 A 
ATOM     63  C   UNL A   1      46.564  31.256  27.623  1.00  0.00     0.031 C 
ATOM     64  C   UNL A   1      44.565  32.055  28.851  1.00  0.00     0.034 A 
BRANCH  51  65
ATOM     65  C   UNL A   1      38.879  30.376  30.668  1.00  0.00     0.023 A 
ATOM     66  C   UNL A   1      37.937  31.183  30.007  1.00  0.00     0.031 A 
ATOM     67  C   UNL A   1      38.588  29.962  31.980  1.00  0.00     0.131 A 
ATOM     68  C   UNL A   1      36.786  31.614  30.686  1.00  0.00     0.055 A 
ATOM     69  C   UNL A   1      37.402  30.329  32.621  1.00  0.00     0.041 A 
ATOM     70  F   UNL A   1      39.459  29.206  32.667  1.00  0.00    -0.206 F 
ATOM     71  C   UNL A   1      36.501  31.173  31.979  1.00  0.00     0.022 A 
BRANCH  68  72
ATOM     72  S   UNL A   1      35.739  32.868  29.899  1.00  0.00     0.124 S 
ATOM     73  O   UNL A   1      36.111  34.071  30.643  1.00  0.00    -0.237 OA
ATOM     74  O   UNL A   1      36.173  32.817  28.508  1.00  0.00    -0.237 OA
ATOM     75  O   UNL A   1      34.381  32.386  30.149  1.00  0.00    -0.744 OA
ENDBRANCH  68  72
ENDBRANCH  51  65
BRANCH  52  76
ATOM     76  C   UNL A   1      47.120  27.517  25.751  1.00  0.00     0.023 A 
ATOM     77  C   UNL A   1      47.223  27.874  24.398  1.00  0.00     0.031 A 
ATOM     78  C   UNL A   1      48.156  26.748  26.311  1.00  0.00     0.131 A 
ATOM     79  C   UNL A   1      48.311  27.420  23.635  1.00  0.00     0.055 A 
ATOM     80  C   UNL A   1      49.259  26.340  25.561  1.00  0.00     0.041 A 
ATOM     81  F   UNL A   1      48.109  26.386  27.604  1.00  0.00    -0.206 F 
ATOM     82  C   UNL A   1      49.335  26.665  24.211  1.00  0.00     0.022 A 
BRANCH  79  83
ATOM     83  S   UNL A   1      48.325  27.760  21.853  1.00  0.00     0.124 S 
ATOM     84  O   UNL A   1      47.030  28.405  21.663  1.00  0.00    -0.237 OA
ATOM     85  O   UNL A   1      49.496  28.621  21.720  1.00  0.00    -0.237 OA
ATOM     86  O   UNL A   1      48.458  26.434  21.255  1.00  0.00    -0.744 OA
ENDBRANCH  79  83
ENDBRANCH  52  76
BRANCH  64  87
ATOM     87  C   UNL A   1      45.298  33.349  29.094  1.00  0.00     0.023 A 
ATOM     88  C   UNL A   1      45.207  34.429  28.199  1.00  0.00     0.031 A 
ATOM     89  C   UNL A   1      46.111  33.498  30.232  1.00  0.00     0.131 A 
ATOM     90  C   UNL A   1      45.958  35.592  28.430  1.00  0.00     0.055 A 
ATOM     91  C   UNL A   1      46.812  34.677  30.485  1.00  0.00     0.041 A 
ATOM     92  F   UNL A   1      46.234  32.496  31.118  1.00  0.00    -0.206 F 
ATOM     93  C   UNL A   1      46.748  35.728  29.574  1.00  0.00     0.022 A 
BRANCH  90  94
ATOM     94  S   UNL A   1      45.951  36.898  27.170  1.00  0.00     0.124 S 
ATOM     95  O   UNL A   1      46.720  37.953  27.822  1.00  0.00    -0.237 OA
ATOM     96  O   UNL A   1      46.598  36.243  26.038  1.00  0.00    -0.237 OA
ATOM     97  O   UNL A   1      44.530  37.189  26.987  1.00  0.00    -0.744 OA
ENDBRANCH  90  94
ENDBRANCH  64  87
ENDBRANCH  38  39
ENDBRANCH  30  33
ENDBRANCH  28  29
ENDBRANCH  27  28
ENDBRANCH   1  27
TORSDOF 17
ENDMDL
MODEL 3
REMARK VINA RESULT:     -11.7      5.368      8.732
REMARK SMILES C[NH+](C)Cc1ccccc1[C@H]1[NH2+][C@@H](C(=O)NCCCCNC(=O)c2ccc(-c3c4nc(c(-c5cc(S(=O)(=O)[O-])ccc5F)c5ccc([nH]5)c(-c5cc(S(=O)(=O)[O-])ccc5F)c5nc(c(-c6cc(S(=O)(=O)[O-])ccc6F)c6ccc3[nH]6)C=C5)C=C4)cc2)C(C)(C)S1
REMARK SMILES IDX 18 1 17 2 16 3 14 4 15 5 13 7 11 8 12 9 90 10 87 13 88 14
REMARK SMILES IDX 89 15 10 16 5 17 6 18 7 19 9 20 8 21 4 22 2 23 1 24 3 25
REMARK SMILES IDX 19 27 20 28 21 29 22 30 23 32 24 33 25 34 86 35 26 36 85 37
REMARK SMILES IDX 27 38 28 39 29 40 79 41 30 42 84 43 78 44 80 45 31 46 83 47
REMARK SMILES IDX 77 48 76 49 32 51 64 52 44 53 63 54 45 55 48 56 62 57 81 58
REMARK SMILES IDX 46 59 47 60 61 62 82 63 49 64 33 65 34 66 42 67 35 68 41 69
REMARK SMILES IDX 43 70 40 71 36 72 37 73 38 74 39 75 65 76 66 77 74 78 67 79
REMARK SMILES IDX 73 80 75 81 72 82 68 83 69 84 70 85 71 86 50 87 51 88 59 89
REMARK SMILES IDX 52 90 58 91 60 92 57 93 53 94 54 95 55 96 56 97
REMARK H PARENT 16 6 12 11 12 12 2 26 21 31 80 50 48 61
REMARK Flexibility Score: inf
ROOT
ATOM      1  C   UNL A   1      35.049  20.886  25.578  1.00  0.00     0.023 C 
ENDROOT
BRANCH   1   2
ATOM      2  C   UNL A   1      33.692  21.215  24.962  1.00  0.00     0.116 C 
BRANCH   2   3
ATOM      3  N   UNL A   1      33.767  21.979  23.734  1.00  0.00    -0.351 N 
ATOM      4  C   UNL A   1      33.203  23.162  23.357  1.00  0.00     0.279 C 
ATOM      5  O   UNL A   1      33.543  23.594  22.246  1.00  0.00    -0.268 OA
ATOM      6  H   UNL A   1      34.332  21.567  23.041  1.00  0.00     0.163 HD
BRANCH   4   7
ATOM      7  C   UNL A   1      32.124  23.931  24.160  1.00  0.00     0.289 C 
ATOM      8  C   UNL A   1      30.357  25.509  24.241  1.00  0.00     0.275 C 
ATOM      9  N   UNL A   1      31.200  24.742  23.325  1.00  0.00    -0.320 N 
ATOM     10  S   UNL A   1      31.310  25.906  25.734  1.00  0.00    -0.081 SA
ATOM     11  H   UNL A   1      31.731  25.374  22.726  1.00  0.00     0.348 HD
ATOM     12  H   UNL A   1      30.632  24.143  22.725  1.00  0.00     0.348 HD
ATOM     13  C   UNL A   1      32.666  24.723  25.372  1.00  0.00     0.077 C 
ATOM     14  C   UNL A   1      33.930  25.557  25.170  1.00  0.00     0.030 C 
ATOM     15  C   UNL A   1      32.884  23.788  26.569  1.00  0.00     0.030 C 
BRANCH   8  16
ATOM     16  C   UNL A   1      29.637  26.729  23.652  1.00  0.00     0.029 A 
ATOM     17  C   UNL A   1      30.225  27.834  22.974  1.00  0.00     0.016 A 
ATOM     18  C   UNL A   1      29.410  28.927  22.598  1.00  0.00     0.010 A 
ATOM     19  C   UNL A   1      28.043  28.945  22.846  1.00  0.00     0.001 A 
ATOM     20  C   UNL A   1      28.240  26.784  23.886  1.00  0.00     0.011 A 
ATOM     21  C   UNL A   1      27.455  27.868  23.485  1.00  0.00     0.001 A 
BRANCH  17  22
ATOM     22  C   UNL A   1      31.694  27.968  22.629  1.00  0.00     0.299 C 
BRANCH  22  23
ATOM     23  N   UNL A   1      32.446  29.101  23.216  1.00  0.00    -0.336 N 
ATOM     24  C   UNL A   1      32.312  29.287  24.662  1.00  0.00     0.332 C 
ATOM     25  C   UNL A   1      33.871  29.055  22.870  1.00  0.00     0.332 C 
ATOM     26  H   UNL A   1      31.997  29.908  22.783  1.00  0.00     0.347 HD
ENDBRANCH  22  23
ENDBRANCH  17  22
ENDBRANCH   8  16
ENDBRANCH   4   7
ENDBRANCH   2   3
ENDBRANCH   1   2
BRANCH   1  27
ATOM     27  C   UNL A   1      36.245  21.173  24.683  1.00  0.00     0.023 C 
BRANCH  27  28
ATOM     28  C   UNL A   1      37.449  21.814  25.369  1.00  0.00     0.116 C 
BRANCH  28  29
ATOM     29  N   UNL A   1      38.572  20.912  25.590  1.00  0.00    -0.352 N 
ATOM     30  C   UNL A   1      39.753  21.156  26.264  1.00  0.00     0.251 C 
ATOM     31  H   UNL A   1      38.477  20.009  25.208  1.00  0.00     0.163 HD
ATOM     32  O   UNL A   1      40.621  20.299  26.338  1.00  0.00    -0.269 OA
BRANCH  30  33
ATOM     33  C   UNL A   1      39.962  22.497  26.859  1.00  0.00     0.039 A 
ATOM     34  C   UNL A   1      40.880  22.643  27.901  1.00  0.00     0.014 A 
ATOM     35  C   UNL A   1      39.340  23.617  26.301  1.00  0.00     0.014 A 
ATOM     36  C   UNL A   1      41.270  23.925  28.296  1.00  0.00     0.010 A 
ATOM     37  C   UNL A   1      39.793  24.888  26.637  1.00  0.00     0.010 A 
ATOM     38  C   UNL A   1      40.784  25.056  27.619  1.00  0.00    -0.014 A 
BRANCH  38  39
ATOM     39  C   UNL A   1      41.327  26.417  27.879  1.00  0.00     0.031 A 
ATOM     40  C   UNL A   1      42.732  26.759  27.466  1.00  0.00     0.074 A 
ATOM     41  C   UNL A   1      40.596  27.305  28.584  1.00  0.00     0.049 A 
ATOM     42  N   UNL A   1      43.431  27.836  27.718  1.00  0.00    -0.248 NA
ATOM     43  C   UNL A   1      43.459  25.737  26.698  1.00  0.00     0.031 C 
ATOM     44  C   UNL A   1      39.242  27.072  29.098  1.00  0.00     0.029 A 
ATOM     45  N   UNL A   1      40.891  28.577  29.010  1.00  0.00    -0.354 N 
ATOM     46  C   UNL A   1      44.687  27.611  27.164  1.00  0.00     0.074 A 
ATOM     47  C   UNL A   1      44.666  26.273  26.610  1.00  0.00     0.031 C 
ATOM     48  C   UNL A   1      38.823  28.167  29.752  1.00  0.00     0.029 A 
ATOM     49  C   UNL A   1      39.888  29.164  29.749  1.00  0.00     0.049 A 
ATOM     50  H   UNL A   1      41.743  29.028  28.807  1.00  0.00     0.167 HD
ATOM     51  C   UNL A   1      45.751  28.449  27.105  1.00  0.00     0.034 A 
ATOM     52  C   UNL A   1      39.836  30.360  30.367  1.00  0.00     0.034 A 
ATOM     53  C   UNL A   1      45.748  29.789  27.637  1.00  0.00     0.049 A 
ATOM     54  C   UNL A   1      41.028  31.279  30.277  1.00  0.00     0.074 A 
ATOM     55  C   UNL A   1      46.745  30.749  27.562  1.00  0.00     0.029 A 
ATOM     56  N   UNL A   1      44.702  30.362  28.347  1.00  0.00    -0.354 N 
ATOM     57  N   UNL A   1      42.186  31.073  29.695  1.00  0.00    -0.248 NA
ATOM     58  C   UNL A   1      40.902  32.593  30.921  1.00  0.00     0.031 C 
ATOM     59  C   UNL A   1      46.323  31.877  28.275  1.00  0.00     0.029 A 
ATOM     60  C   UNL A   1      45.037  31.648  28.740  1.00  0.00     0.049 A 
ATOM     61  H   UNL A   1      43.845  29.918  28.544  1.00  0.00     0.167 HD
ATOM     62  C   UNL A   1      42.916  32.243  29.882  1.00  0.00     0.074 A 
ATOM     63  C   UNL A   1      42.062  33.155  30.614  1.00  0.00     0.031 C 
ATOM     64  C   UNL A   1      44.179  32.540  29.481  1.00  0.00     0.034 A 
BRANCH  51  65
ATOM     65  C   UNL A   1      47.010  27.925  26.459  1.00  0.00     0.023 A 
ATOM     66  C   UNL A   1      47.259  28.091  25.085  1.00  0.00     0.031 A 
ATOM     67  C   UNL A   1      47.963  27.225  27.221  1.00  0.00     0.131 A 
ATOM     68  C   UNL A   1      48.389  27.499  24.502  1.00  0.00     0.055 A 
ATOM     69  C   UNL A   1      49.126  26.707  26.648  1.00  0.00     0.041 A 
ATOM     70  F   UNL A   1      47.770  27.020  28.533  1.00  0.00    -0.206 F 
ATOM     71  C   UNL A   1      49.336  26.829  25.278  1.00  0.00     0.022 A 
BRANCH  68  72
ATOM     72  S   UNL A   1      48.529  27.502  22.694  1.00  0.00     0.124 S 
ATOM     73  O   UNL A   1      49.812  28.176  22.500  1.00  0.00    -0.237 OA
ATOM     74  O   UNL A   1      48.498  26.080  22.371  1.00  0.00    -0.237 OA
ATOM     75  O   UNL A   1      47.361  28.267  22.261  1.00  0.00    -0.744 OA
ENDBRANCH  68  72
ENDBRANCH  51  65
BRANCH  52  76
ATOM     76  C   UNL A   1      38.629  30.762  31.144  1.00  0.00     0.023 A 
ATOM     77  C   UNL A   1      37.545  31.398  30.519  1.00  0.00     0.031 A 
ATOM     78  C   UNL A   1      38.562  30.560  32.535  1.00  0.00     0.131 A 
ATOM     79  C   UNL A   1      36.462  31.855  31.287  1.00  0.00     0.055 A 
ATOM     80  C   UNL A   1      37.462  30.973  33.287  1.00  0.00     0.041 A 
ATOM     81  F   UNL A   1      39.568  29.950  33.181  1.00  0.00    -0.206 F 
ATOM     82  C   UNL A   1      36.409  31.638  32.666  1.00  0.00     0.022 A 
BRANCH  79  83
ATOM     83  S   UNL A   1      35.161  32.818  30.469  1.00  0.00     0.124 S 
ATOM     84  O   UNL A   1      35.883  34.024  30.079  1.00  0.00    -0.237 OA
ATOM     85  O   UNL A   1      34.766  31.927  29.382  1.00  0.00    -0.237 OA
ATOM     86  O   UNL A   1      34.161  33.000  31.518  1.00  0.00    -0.744 OA
ENDBRANCH  79  83
ENDBRANCH  52  76
BRANCH  64  87
ATOM     87  C   UNL A   1      44.686  33.924  29.797  1.00  0.00     0.023 A 
ATOM     88  C   UNL A   1      44.472  35.005  28.925  1.00  0.00     0.031 A 
ATOM     89  C   UNL A   1      45.406  34.158  30.982  1.00  0.00     0.131 A 
ATOM     90  C   UNL A   1      45.018  36.263  29.227  1.00  0.00     0.055 A 
ATOM     91  C   UNL A   1      45.899  35.423  31.303  1.00  0.00     0.041 A 
ATOM     92  F   UNL A   1      45.640  33.159  31.848  1.00  0.00    -0.206 F 
ATOM     93  C   UNL A   1      45.717  36.481  30.417  1.00  0.00     0.022 A 
BRANCH  90  94
ATOM     94  S   UNL A   1      44.870  37.593  28.003  1.00  0.00     0.124 S 
ATOM     95  O   UNL A   1      43.426  37.797  27.949  1.00  0.00    -0.237 OA
ATOM     96  O   UNL A   1      45.644  38.668  28.614  1.00  0.00    -0.237 OA
ATOM     97  O   UNL A   1      45.460  37.015  26.796  1.00  0.00    -0.744 OA
ENDBRANCH  90  94
ENDBRANCH  64  87
ENDBRANCH  38  39
ENDBRANCH  30  33
ENDBRANCH  28  29
ENDBRANCH  27  28
ENDBRANCH   1  27
TORSDOF 17
ENDMDL
