MODEL 1
REMARK VINA RESULT:     -11.5      0.000      0.000
REMARK SMILES C[C@@](COc1ccccc1)(NC(=O)CN1CSCC1=O)C(=O)NCCCCNC(=O)c1ccc(-c2c3nc(c(-c4cc(S(=O)(=O)[O-])ccc4F)c4ccc([nH]4)c(-c4cc(S(=O)(=O)[O-])ccc4F)c4nc(c(-c5cc(S(=O)(=O)[O-])ccc5F)c5ccc2[nH]5)C=C4)C=C3)cc1
REMARK SMILES IDX 25 1 24 2 23 3 21 4 22 5 2 7 1 8 3 9 4 10 5 11 6 12 10 13
REMARK SMILES IDX 7 14 9 15 8 16 11 17 12 18 13 20 14 21 15 22 16 23 19 24
REMARK SMILES IDX 17 25 18 26 20 27 26 28 27 29 28 30 29 31 30 33 31 34 32 35
REMARK SMILES IDX 93 36 33 37 92 38 34 39 35 40 36 41 86 42 37 43 91 44 85 45
REMARK SMILES IDX 87 46 38 47 90 48 84 49 83 50 39 52 71 53 51 54 70 55 52 56
REMARK SMILES IDX 55 57 69 58 88 59 53 60 54 61 68 63 89 64 56 65 40 66 41 67
REMARK SMILES IDX 49 68 42 69 48 70 50 71 47 72 43 73 44 74 45 75 46 76 72 77
REMARK SMILES IDX 73 78 81 79 74 80 80 81 82 82 79 83 75 84 76 85 77 86 78 87
REMARK SMILES IDX 57 88 58 89 66 90 59 91 65 92 67 93 64 94 60 95 61 96 62 97
REMARK SMILES IDX 63 98
REMARK H PARENT 23 6 11 19 28 32 87 51 55 62
REMARK Flexibility Score: inf
ROOT
ATOM      1  C   UNL A   1      33.523  28.982  24.069  1.00  0.00     0.023 C 
ENDROOT
BRANCH   1   2
ATOM      2  C   UNL A   1      32.498  28.314  23.156  1.00  0.00     0.116 C 
BRANCH   2   3
ATOM      3  N   UNL A   1      33.053  27.480  22.104  1.00  0.00    -0.354 N 
ATOM      4  C   UNL A   1      32.976  26.135  21.889  1.00  0.00     0.249 C 
ATOM      5  O   UNL A   1      33.136  25.746  20.727  1.00  0.00    -0.272 OA
ATOM      6  H   UNL A   1      33.576  27.970  21.429  1.00  0.00     0.163 HD
BRANCH   4   7
ATOM      7  C   UNL A   1      32.496  25.154  22.984  1.00  0.00     0.150 C 
ATOM      8  C   UNL A   1      31.385  25.814  23.835  1.00  0.00     0.049 C 
BRANCH   7   9
ATOM      9  C   UNL A   1      33.757  24.934  23.882  1.00  0.00     0.267 C 
BRANCH   9  10
ATOM     10  O   UNL A   1      34.820  24.308  23.135  1.00  0.00    -0.491 OA
BRANCH  10  11
ATOM     11  C   UNL A   1      35.723  23.696  23.957  1.00  0.00     0.119 A 
ATOM     12  C   UNL A   1      36.327  22.496  23.593  1.00  0.00     0.046 A 
ATOM     13  C   UNL A   1      35.988  24.284  25.191  1.00  0.00     0.046 A 
ATOM     14  C   UNL A   1      37.259  21.911  24.451  1.00  0.00     0.004 A 
ATOM     15  C   UNL A   1      36.931  23.708  26.039  1.00  0.00     0.004 A 
ATOM     16  C   UNL A   1      37.570  22.525  25.666  1.00  0.00     0.000 A 
ENDBRANCH  10  11
ENDBRANCH   9  10
ENDBRANCH   7   9
BRANCH   7  17
ATOM     17  N   UNL A   1      32.008  23.835  22.501  1.00  0.00    -0.338 N 
ATOM     18  C   UNL A   1      31.715  22.693  23.187  1.00  0.00     0.240 C 
ATOM     19  H   UNL A   1      31.873  23.777  21.528  1.00  0.00     0.164 HD
ATOM     20  O   UNL A   1      31.907  21.614  22.616  1.00  0.00    -0.273 OA
BRANCH  18  21
ATOM     21  C   UNL A   1      31.157  22.733  24.609  1.00  0.00     0.220 C 
BRANCH  21  22
ATOM     22  N   UNL A   1      32.111  22.453  25.661  1.00  0.00    -0.323 N 
ATOM     23  C   UNL A   1      33.129  21.461  25.467  1.00  0.00     0.190 C 
ATOM     24  C   UNL A   1      31.938  22.959  26.935  1.00  0.00     0.233 C 
ATOM     25  S   UNL A   1      34.120  21.419  26.966  1.00  0.00    -0.130 SA
ATOM     26  C   UNL A   1      33.097  22.629  27.840  1.00  0.00     0.171 C 
ATOM     27  O   UNL A   1      30.979  23.635  27.283  1.00  0.00    -0.274 OA
ENDBRANCH  21  22
ENDBRANCH  18  21
ENDBRANCH   7  17
ENDBRANCH   4   7
ENDBRANCH   2   3
ENDBRANCH   1   2
BRANCH   1  28
ATOM     28  C   UNL A   1      34.024  28.150  25.250  1.00  0.00     0.023 C 
BRANCH  28  29
ATOM     29  C   UNL A   1      33.460  28.535  26.609  1.00  0.00     0.116 C 
BRANCH  29  30
ATOM     30  N   UNL A   1      33.437  29.971  26.816  1.00  0.00    -0.352 N 
ATOM     31  C   UNL A   1      34.310  30.772  27.507  1.00  0.00     0.251 C 
ATOM     32  H   UNL A   1      32.681  30.441  26.396  1.00  0.00     0.163 HD
ATOM     33  O   UNL A   1      34.018  31.949  27.691  1.00  0.00    -0.269 OA
BRANCH  31  34
ATOM     34  C   UNL A   1      35.571  30.219  28.051  1.00  0.00     0.039 A 
ATOM     35  C   UNL A   1      36.707  30.230  27.235  1.00  0.00     0.014 A 
ATOM     36  C   UNL A   1      35.641  29.670  29.334  1.00  0.00     0.014 A 
ATOM     37  C   UNL A   1      37.916  29.732  27.722  1.00  0.00     0.010 A 
ATOM     38  C   UNL A   1      36.865  29.250  29.848  1.00  0.00     0.010 A 
ATOM     39  C   UNL A   1      38.012  29.260  29.041  1.00  0.00    -0.014 A 
BRANCH  39  40
ATOM     40  C   UNL A   1      39.301  28.748  29.573  1.00  0.00     0.031 A 
ATOM     41  C   UNL A   1      39.928  29.391  30.780  1.00  0.00     0.074 A 
ATOM     42  C   UNL A   1      39.919  27.727  28.948  1.00  0.00     0.049 A 
ATOM     43  N   UNL A   1      41.053  29.103  31.384  1.00  0.00    -0.248 NA
ATOM     44  C   UNL A   1      39.207  30.530  31.370  1.00  0.00     0.031 C 
ATOM     45  C   UNL A   1      39.431  27.058  27.740  1.00  0.00     0.029 A 
ATOM     46  N   UNL A   1      41.088  27.071  29.239  1.00  0.00    -0.354 N 
ATOM     47  C   UNL A   1      41.180  30.029  32.414  1.00  0.00     0.074 A 
ATOM     48  C   UNL A   1      40.052  30.929  32.308  1.00  0.00     0.031 C 
ATOM     49  C   UNL A   1      40.276  26.066  27.415  1.00  0.00     0.029 A 
ATOM     50  C   UNL A   1      41.383  26.051  28.365  1.00  0.00     0.049 A 
ATOM     51  H   UNL A   1      41.662  27.308  30.003  1.00  0.00     0.167 HD
ATOM     52  C   UNL A   1      42.135  30.106  33.375  1.00  0.00     0.034 A 
ATOM     53  C   UNL A   1      42.428  25.201  28.334  1.00  0.00     0.034 A 
ATOM     54  C   UNL A   1      43.247  29.190  33.470  1.00  0.00     0.049 A 
ATOM     55  C   UNL A   1      43.476  25.303  29.413  1.00  0.00     0.074 A 
ATOM     56  C   UNL A   1      44.246  29.141  34.427  1.00  0.00     0.029 A 
ATOM     57  N   UNL A   1      43.509  28.163  32.571  1.00  0.00    -0.354 N 
ATOM     58  N   UNL A   1      43.553  26.151  30.413  1.00  0.00    -0.248 NA
ATOM     59  C   UNL A   1      44.566  24.321  29.367  1.00  0.00     0.031 C 
ATOM     60  C   UNL A   1      45.143  28.127  34.073  1.00  0.00     0.029 A 
ATOM     61  C   UNL A   1      44.666  27.492  32.937  1.00  0.00     0.049 A 
ATOM     62  H   UNL A   1      42.954  27.943  31.788  1.00  0.00     0.167 HD
ATOM     63  C   UNL A   1      44.687  25.784  31.133  1.00  0.00     0.074 A 
ATOM     64  C   UNL A   1      45.245  24.627  30.462  1.00  0.00     0.031 C 
ATOM     65  C   UNL A   1      45.219  26.349  32.248  1.00  0.00     0.034 A 
BRANCH  52  66
ATOM     66  C   UNL A   1      42.021  31.231  34.378  1.00  0.00     0.023 A 
ATOM     67  C   UNL A   1      41.018  31.244  35.363  1.00  0.00     0.031 A 
ATOM     68  C   UNL A   1      42.902  32.327  34.325  1.00  0.00     0.131 A 
ATOM     69  C   UNL A   1      40.868  32.360  36.199  1.00  0.00     0.055 A 
ATOM     70  C   UNL A   1      42.800  33.397  35.216  1.00  0.00     0.041 A 
ATOM     71  F   UNL A   1      43.867  32.384  33.393  1.00  0.00    -0.206 F 
ATOM     72  C   UNL A   1      41.769  33.427  36.151  1.00  0.00     0.022 A 
BRANCH  69  73
ATOM     73  S   UNL A   1      39.391  32.467  37.248  1.00  0.00     0.124 S 
ATOM     74  O   UNL A   1      39.982  32.584  38.579  1.00  0.00    -0.237 OA
ATOM     75  O   UNL A   1      38.727  33.660  36.737  1.00  0.00    -0.237 OA
ATOM     76  O   UNL A   1      38.696  31.207  36.992  1.00  0.00    -0.744 OA
ENDBRANCH  69  73
ENDBRANCH  52  66
BRANCH  53  77
ATOM     77  C   UNL A   1      42.538  24.177  27.257  1.00  0.00     0.023 A 
ATOM     78  C   UNL A   1      41.936  22.915  27.393  1.00  0.00     0.031 A 
ATOM     79  C   UNL A   1      43.276  24.432  26.087  1.00  0.00     0.131 A 
ATOM     80  C   UNL A   1      42.124  21.939  26.403  1.00  0.00     0.055 A 
ATOM     81  C   UNL A   1      43.417  23.475  25.080  1.00  0.00     0.041 A 
ATOM     82  F   UNL A   1      43.863  25.625  25.902  1.00  0.00    -0.206 F 
ATOM     83  C   UNL A   1      42.850  22.215  25.241  1.00  0.00     0.022 A 
BRANCH  80  84
ATOM     84  S   UNL A   1      41.470  20.272  26.691  1.00  0.00     0.124 S 
ATOM     85  O   UNL A   1      41.826  19.593  25.451  1.00  0.00    -0.237 OA
ATOM     86  O   UNL A   1      42.205  19.861  27.883  1.00  0.00    -0.237 OA
ATOM     87  O   UNL A   1      40.040  20.498  26.892  1.00  0.00    -0.744 OA
ENDBRANCH  80  84
ENDBRANCH  53  77
BRANCH  65  88
ATOM     88  C   UNL A   1      46.447  25.688  32.824  1.00  0.00     0.023 A 
ATOM     89  C   UNL A   1      47.736  25.978  32.343  1.00  0.00     0.031 A 
ATOM     90  C   UNL A   1      46.322  24.731  33.846  1.00  0.00     0.131 A 
ATOM     91  C   UNL A   1      48.841  25.267  32.835  1.00  0.00     0.055 A 
ATOM     92  C   UNL A   1      47.432  24.075  34.378  1.00  0.00     0.041 A 
ATOM     93  F   UNL A   1      45.114  24.414  34.342  1.00  0.00    -0.206 F 
ATOM     94  C   UNL A   1      48.700  24.329  33.861  1.00  0.00     0.022 A 
BRANCH  91  95
ATOM     95  S   UNL A   1      50.453  25.506  32.039  1.00  0.00     0.124 S 
ATOM     96  O   UNL A   1      51.328  25.728  33.185  1.00  0.00    -0.237 OA
ATOM     97  O   UNL A   1      50.640  24.244  31.329  1.00  0.00    -0.237 OA
ATOM     98  O   UNL A   1      50.244  26.672  31.184  1.00  0.00    -0.744 OA
ENDBRANCH  91  95
ENDBRANCH  65  88
ENDBRANCH  39  40
ENDBRANCH  31  34
ENDBRANCH  29  30
ENDBRANCH  28  29
ENDBRANCH   1  28
TORSDOF 20
ENDMDL
MODEL 2
REMARK VINA RESULT:     -11.2      1.438      3.199
REMARK SMILES C[C@@](COc1ccccc1)(NC(=O)CN1CSCC1=O)C(=O)NCCCCNC(=O)c1ccc(-c2c3nc(c(-c4cc(S(=O)(=O)[O-])ccc4F)c4ccc([nH]4)c(-c4cc(S(=O)(=O)[O-])ccc4F)c4nc(c(-c5cc(S(=O)(=O)[O-])ccc5F)c5ccc2[nH]5)C=C4)C=C3)cc1
REMARK SMILES IDX 25 1 24 2 23 3 21 4 22 5 2 7 1 8 3 9 4 10 5 11 6 12 10 13
REMARK SMILES IDX 7 14 9 15 8 16 11 17 12 18 13 20 14 21 15 22 16 23 19 24
REMARK SMILES IDX 17 25 18 26 20 27 26 28 27 29 28 30 29 31 30 33 31 34 32 35
REMARK SMILES IDX 93 36 33 37 92 38 34 39 35 40 36 41 86 42 37 43 91 44 85 45
REMARK SMILES IDX 87 46 38 47 90 48 84 49 83 50 39 52 71 53 51 54 70 55 52 56
REMARK SMILES IDX 55 57 69 58 88 59 53 60 54 61 68 63 89 64 56 65 40 66 41 67
REMARK SMILES IDX 49 68 42 69 48 70 50 71 47 72 43 73 44 74 45 75 46 76 72 77
REMARK SMILES IDX 73 78 81 79 74 80 80 81 82 82 79 83 75 84 76 85 77 86 78 87
REMARK SMILES IDX 57 88 58 89 66 90 59 91 65 92 67 93 64 94 60 95 61 96 62 97
REMARK SMILES IDX 63 98
REMARK H PARENT 23 6 11 19 28 32 87 51 55 62
REMARK Flexibility Score: inf
ROOT
ATOM      1  C   UNL A   1      32.453  27.377  26.102  1.00  0.00     0.023 C 
ENDROOT
BRANCH   1   2
ATOM      2  C   UNL A   1      32.952  26.297  25.144  1.00  0.00     0.116 C 
BRANCH   2   3
ATOM      3  N   UNL A   1      33.727  26.780  24.014  1.00  0.00    -0.354 N 
ATOM      4  C   UNL A   1      33.441  26.822  22.681  1.00  0.00     0.249 C 
ATOM      5  O   UNL A   1      34.044  27.664  22.007  1.00  0.00    -0.272 OA
ATOM      6  H   UNL A   1      34.612  27.141  24.252  1.00  0.00     0.163 HD
BRANCH   4   7
ATOM      7  C   UNL A   1      32.270  26.020  22.066  1.00  0.00     0.150 C 
ATOM      8  C   UNL A   1      32.633  25.570  20.630  1.00  0.00     0.049 C 
BRANCH   7   9
ATOM      9  C   UNL A   1      31.097  27.052  21.990  1.00  0.00     0.267 C 
BRANCH   9  10
ATOM     10  O   UNL A   1      30.481  27.228  23.282  1.00  0.00    -0.491 OA
BRANCH  10  11
ATOM     11  C   UNL A   1      29.602  28.273  23.284  1.00  0.00     0.119 A 
ATOM     12  C   UNL A   1      30.040  29.579  23.487  1.00  0.00     0.046 A 
ATOM     13  C   UNL A   1      28.248  27.991  23.122  1.00  0.00     0.046 A 
ATOM     14  C   UNL A   1      29.115  30.623  23.464  1.00  0.00     0.004 A 
ATOM     15  C   UNL A   1      27.328  29.035  23.082  1.00  0.00     0.004 A 
ATOM     16  C   UNL A   1      27.762  30.351  23.247  1.00  0.00     0.000 A 
ENDBRANCH  10  11
ENDBRANCH   9  10
ENDBRANCH   7   9
BRANCH   7  17
ATOM     17  N   UNL A   1      31.823  24.832  22.841  1.00  0.00    -0.338 N 
ATOM     18  C   UNL A   1      32.284  23.549  22.841  1.00  0.00     0.240 C 
ATOM     19  H   UNL A   1      31.073  25.000  23.456  1.00  0.00     0.164 HD
ATOM     20  O   UNL A   1      31.471  22.645  23.057  1.00  0.00    -0.273 OA
BRANCH  18  21
ATOM     21  C   UNL A   1      33.758  23.227  22.592  1.00  0.00     0.220 C 
BRANCH  21  22
ATOM     22  N   UNL A   1      34.502  22.782  23.751  1.00  0.00    -0.323 N 
ATOM     23  C   UNL A   1      33.853  22.665  25.025  1.00  0.00     0.190 C 
ATOM     24  C   UNL A   1      35.880  22.673  23.716  1.00  0.00     0.233 C 
ATOM     25  S   UNL A   1      35.082  22.068  26.193  1.00  0.00    -0.130 SA
ATOM     26  C   UNL A   1      36.437  22.097  24.993  1.00  0.00     0.171 C 
ATOM     27  O   UNL A   1      36.569  22.967  22.749  1.00  0.00    -0.274 OA
ENDBRANCH  21  22
ENDBRANCH  18  21
ENDBRANCH   7  17
ENDBRANCH   4   7
ENDBRANCH   2   3
ENDBRANCH   1   2
BRANCH   1  28
ATOM     28  C   UNL A   1      33.527  28.182  26.835  1.00  0.00     0.023 C 
BRANCH  28  29
ATOM     29  C   UNL A   1      34.051  29.402  26.095  1.00  0.00     0.116 C 
BRANCH  29  30
ATOM     30  N   UNL A   1      33.721  30.645  26.766  1.00  0.00    -0.352 N 
ATOM     31  C   UNL A   1      34.348  31.268  27.816  1.00  0.00     0.251 C 
ATOM     32  H   UNL A   1      32.929  31.113  26.416  1.00  0.00     0.163 HD
ATOM     33  O   UNL A   1      33.810  32.240  28.337  1.00  0.00    -0.269 OA
BRANCH  31  34
ATOM     34  C   UNL A   1      35.638  30.758  28.333  1.00  0.00     0.039 A 
ATOM     35  C   UNL A   1      35.614  29.797  29.348  1.00  0.00     0.014 A 
ATOM     36  C   UNL A   1      36.862  31.232  27.851  1.00  0.00     0.014 A 
ATOM     37  C   UNL A   1      36.812  29.283  29.846  1.00  0.00     0.010 A 
ATOM     38  C   UNL A   1      38.053  30.659  28.290  1.00  0.00     0.010 A 
ATOM     39  C   UNL A   1      38.041  29.691  29.304  1.00  0.00    -0.014 A 
BRANCH  39  40
ATOM     40  C   UNL A   1      39.320  29.133  29.816  1.00  0.00     0.031 A 
ATOM     41  C   UNL A   1      39.982  29.747  31.020  1.00  0.00     0.074 A 
ATOM     42  C   UNL A   1      39.896  28.098  29.176  1.00  0.00     0.049 A 
ATOM     43  N   UNL A   1      41.105  29.418  31.607  1.00  0.00    -0.248 NA
ATOM     44  C   UNL A   1      39.306  30.904  31.627  1.00  0.00     0.031 C 
ATOM     45  C   UNL A   1      39.372  27.454  27.969  1.00  0.00     0.029 A 
ATOM     46  N   UNL A   1      41.047  27.402  29.447  1.00  0.00    -0.354 N 
ATOM     47  C   UNL A   1      41.275  30.332  32.641  1.00  0.00     0.074 A 
ATOM     48  C   UNL A   1      40.175  31.269  32.557  1.00  0.00     0.031 C 
ATOM     49  C   UNL A   1      40.180  26.438  27.626  1.00  0.00     0.029 A 
ATOM     50  C   UNL A   1      41.298  26.380  28.562  1.00  0.00     0.049 A 
ATOM     51  H   UNL A   1      41.638  27.615  30.206  1.00  0.00     0.167 HD
ATOM     52  C   UNL A   1      42.244  30.371  33.590  1.00  0.00     0.034 A 
ATOM     53  C   UNL A   1      42.315  25.497  28.512  1.00  0.00     0.034 A 
ATOM     54  C   UNL A   1      43.327  29.420  33.665  1.00  0.00     0.049 A 
ATOM     55  C   UNL A   1      43.379  25.557  29.577  1.00  0.00     0.074 A 
ATOM     56  C   UNL A   1      44.336  29.331  34.608  1.00  0.00     0.029 A 
ATOM     57  N   UNL A   1      43.544  28.391  32.755  1.00  0.00    -0.354 N 
ATOM     58  N   UNL A   1      43.496  26.395  30.583  1.00  0.00    -0.248 NA
ATOM     59  C   UNL A   1      44.436  24.541  29.511  1.00  0.00     0.031 C 
ATOM     60  C   UNL A   1      45.196  28.292  34.236  1.00  0.00     0.029 A 
ATOM     61  C   UNL A   1      44.684  27.680  33.102  1.00  0.00     0.049 A 
ATOM     62  H   UNL A   1      42.973  28.195  31.978  1.00  0.00     0.167 HD
ATOM     63  C   UNL A   1      44.626  25.986  31.285  1.00  0.00     0.074 A 
ATOM     64  C   UNL A   1      45.139  24.818  30.599  1.00  0.00     0.031 C 
ATOM     65  C   UNL A   1      45.190  26.526  32.397  1.00  0.00     0.034 A 
BRANCH  52  66
ATOM     66  C   UNL A   1      42.179  31.492  34.603  1.00  0.00     0.023 A 
ATOM     67  C   UNL A   1      41.139  31.577  35.545  1.00  0.00     0.031 A 
ATOM     68  C   UNL A   1      43.147  32.512  34.602  1.00  0.00     0.131 A 
ATOM     69  C   UNL A   1      41.045  32.694  36.389  1.00  0.00     0.055 A 
ATOM     70  C   UNL A   1      43.096  33.579  35.502  1.00  0.00     0.041 A 
ATOM     71  F   UNL A   1      44.153  32.499  33.712  1.00  0.00    -0.206 F 
ATOM     72  C   UNL A   1      42.031  33.683  36.393  1.00  0.00     0.022 A 
BRANCH  69  73
ATOM     73  S   UNL A   1      39.538  32.911  37.376  1.00  0.00     0.124 S 
ATOM     74  O   UNL A   1      38.998  31.553  37.391  1.00  0.00    -0.237 OA
ATOM     75  O   UNL A   1      40.060  33.405  38.645  1.00  0.00    -0.237 OA
ATOM     76  O   UNL A   1      38.757  33.876  36.604  1.00  0.00    -0.744 OA
ENDBRANCH  69  73
ENDBRANCH  52  66
BRANCH  53  77
ATOM     77  C   UNL A   1      42.377  24.478  27.426  1.00  0.00     0.023 A 
ATOM     78  C   UNL A   1      41.606  23.307  27.488  1.00  0.00     0.031 A 
ATOM     79  C   UNL A   1      43.238  24.645  26.326  1.00  0.00     0.131 A 
ATOM     80  C   UNL A   1      41.745  22.324  26.495  1.00  0.00     0.055 A 
ATOM     81  C   UNL A   1      43.334  23.688  25.314  1.00  0.00     0.041 A 
ATOM     82  F   UNL A   1      43.990  25.751  26.213  1.00  0.00    -0.206 F 
ATOM     83  C   UNL A   1      42.595  22.512  25.402  1.00  0.00     0.022 A 
BRANCH  80  84
ATOM     84  S   UNL A   1      40.856  20.755  26.696  1.00  0.00     0.124 S 
ATOM     85  O   UNL A   1      39.562  21.068  26.102  1.00  0.00    -0.237 OA
ATOM     86  O   UNL A   1      41.701  19.831  25.946  1.00  0.00    -0.237 OA
ATOM     87  O   UNL A   1      40.847  20.553  28.143  1.00  0.00    -0.744 OA
ENDBRANCH  80  84
ENDBRANCH  53  77
BRANCH  65  88
ATOM     88  C   UNL A   1      46.404  25.822  32.952  1.00  0.00     0.023 A 
ATOM     89  C   UNL A   1      47.665  25.929  32.341  1.00  0.00     0.031 A 
ATOM     90  C   UNL A   1      46.289  25.005  34.091  1.00  0.00     0.131 A 
ATOM     91  C   UNL A   1      48.745  25.178  32.828  1.00  0.00     0.055 A 
ATOM     92  C   UNL A   1      47.382  24.312  34.612  1.00  0.00     0.041 A 
ATOM     93  F   UNL A   1      45.107  24.864  34.715  1.00  0.00    -0.206 F 
ATOM     94  C   UNL A   1      48.615  24.382  33.970  1.00  0.00     0.022 A 
BRANCH  91  95
ATOM     95  S   UNL A   1      50.294  25.167  31.886  1.00  0.00     0.124 S 
ATOM     96  O   UNL A   1      50.709  23.773  31.999  1.00  0.00    -0.237 OA
ATOM     97  O   UNL A   1      49.856  25.596  30.561  1.00  0.00    -0.237 OA
ATOM     98  O   UNL A   1      51.136  26.124  32.600  1.00  0.00    -0.744 OA
ENDBRANCH  91  95
ENDBRANCH  65  88
ENDBRANCH  39  40
ENDBRANCH  31  34
ENDBRANCH  29  30
ENDBRANCH  28  29
ENDBRANCH   1  28
TORSDOF 20
ENDMDL
MODEL 3
REMARK VINA RESULT:     -11.1      3.021      8.620
REMARK SMILES C[C@@](COc1ccccc1)(NC(=O)CN1CSCC1=O)C(=O)NCCCCNC(=O)c1ccc(-c2c3nc(c(-c4cc(S(=O)(=O)[O-])ccc4F)c4ccc([nH]4)c(-c4cc(S(=O)(=O)[O-])ccc4F)c4nc(c(-c5cc(S(=O)(=O)[O-])ccc5F)c5ccc2[nH]5)C=C4)C=C3)cc1
REMARK SMILES IDX 25 1 24 2 23 3 21 4 22 5 2 7 1 8 3 9 4 10 5 11 6 12 10 13
REMARK SMILES IDX 7 14 9 15 8 16 11 17 12 18 13 20 14 21 15 22 16 23 19 24
REMARK SMILES IDX 17 25 18 26 20 27 26 28 27 29 28 30 29 31 30 33 31 34 32 35
REMARK SMILES IDX 93 36 33 37 92 38 34 39 35 40 36 41 86 42 37 43 91 44 85 45
REMARK SMILES IDX 87 46 38 47 90 48 84 49 83 50 39 52 71 53 51 54 70 55 52 56
REMARK SMILES IDX 55 57 69 58 88 59 53 60 54 61 68 63 89 64 56 65 40 66 41 67
REMARK SMILES IDX 49 68 42 69 48 70 50 71 47 72 43 73 44 74 45 75 46 76 72 77
REMARK SMILES IDX 73 78 81 79 74 80 80 81 82 82 79 83 75 84 76 85 77 86 78 87
REMARK SMILES IDX 57 88 58 89 66 90 59 91 65 92 67 93 64 94 60 95 61 96 62 97
REMARK SMILES IDX 63 98
REMARK H PARENT 23 6 11 19 28 32 87 51 55 62
REMARK Flexibility Score: inf
ROOT
ATOM      1  C   UNL A   1      31.400  30.160  25.533  1.00  0.00     0.023 C 
ENDROOT
BRANCH   1   2
ATOM      2  C   UNL A   1      32.824  29.713  25.210  1.00  0.00     0.116 C 
BRANCH   2   3
ATOM      3  N   UNL A   1      33.110  28.313  25.476  1.00  0.00    -0.354 N 
ATOM      4  C   UNL A   1      33.247  27.248  24.635  1.00  0.00     0.249 C 
ATOM      5  O   UNL A   1      33.916  26.295  25.046  1.00  0.00    -0.272 OA
ATOM      6  H   UNL A   1      33.226  28.096  26.429  1.00  0.00     0.163 HD
BRANCH   4   7
ATOM      7  C   UNL A   1      32.784  27.302  23.159  1.00  0.00     0.150 C 
ATOM      8  C   UNL A   1      33.298  28.600  22.492  1.00  0.00     0.049 C 
BRANCH   7   9
ATOM      9  C   UNL A   1      31.224  27.364  23.249  1.00  0.00     0.267 C 
BRANCH   9  10
ATOM     10  O   UNL A   1      30.662  27.961  22.063  1.00  0.00    -0.491 OA
BRANCH  10  11
ATOM     11  C   UNL A   1      29.661  28.840  22.366  1.00  0.00     0.119 A 
ATOM     12  C   UNL A   1      28.473  28.403  22.945  1.00  0.00     0.046 A 
ATOM     13  C   UNL A   1      29.845  30.180  22.036  1.00  0.00     0.046 A 
ATOM     14  C   UNL A   1      27.482  29.334  23.257  1.00  0.00     0.004 A 
ATOM     15  C   UNL A   1      28.861  31.110  22.363  1.00  0.00     0.004 A 
ATOM     16  C   UNL A   1      27.683  30.688  22.979  1.00  0.00     0.000 A 
ENDBRANCH  10  11
ENDBRANCH   9  10
ENDBRANCH   7   9
BRANCH   7  17
ATOM     17  N   UNL A   1      33.177  26.142  22.316  1.00  0.00    -0.338 N 
ATOM     18  C   UNL A   1      32.959  24.806  22.489  1.00  0.00     0.240 C 
ATOM     19  H   UNL A   1      33.675  26.375  21.500  1.00  0.00     0.164 HD
ATOM     20  O   UNL A   1      33.813  24.024  22.062  1.00  0.00    -0.273 OA
BRANCH  18  21
ATOM     21  C   UNL A   1      31.698  24.283  23.177  1.00  0.00     0.220 C 
BRANCH  21  22
ATOM     22  N   UNL A   1      31.893  23.734  24.502  1.00  0.00    -0.323 N 
ATOM     23  C   UNL A   1      32.707  22.567  24.687  1.00  0.00     0.190 C 
ATOM     24  C   UNL A   1      31.140  24.171  25.575  1.00  0.00     0.233 C 
ATOM     25  S   UNL A   1      32.728  22.210  26.448  1.00  0.00    -0.130 SA
ATOM     26  C   UNL A   1      31.577  23.540  26.872  1.00  0.00     0.171 C 
ATOM     27  O   UNL A   1      30.248  25.006  25.495  1.00  0.00    -0.274 OA
ENDBRANCH  21  22
ENDBRANCH  18  21
ENDBRANCH   7  17
ENDBRANCH   4   7
ENDBRANCH   2   3
ENDBRANCH   1   2
BRANCH   1  28
ATOM     28  C   UNL A   1      31.258  31.503  26.250  1.00  0.00     0.023 C 
BRANCH  28  29
ATOM     29  C   UNL A   1      32.522  32.031  26.910  1.00  0.00     0.116 C 
BRANCH  29  30
ATOM     30  N   UNL A   1      32.433  33.442  27.236  1.00  0.00    -0.352 N 
ATOM     31  C   UNL A   1      33.157  34.182  28.136  1.00  0.00     0.251 C 
ATOM     32  H   UNL A   1      31.750  33.944  26.734  1.00  0.00     0.163 HD
ATOM     33  O   UNL A   1      32.812  35.337  28.369  1.00  0.00    -0.269 OA
BRANCH  31  34
ATOM     34  C   UNL A   1      34.317  33.589  28.839  1.00  0.00     0.039 A 
ATOM     35  C   UNL A   1      34.087  32.536  29.729  1.00  0.00     0.014 A 
ATOM     36  C   UNL A   1      35.615  34.072  28.652  1.00  0.00     0.014 A 
ATOM     37  C   UNL A   1      35.160  31.943  30.395  1.00  0.00     0.010 A 
ATOM     38  C   UNL A   1      36.692  33.427  29.253  1.00  0.00     0.010 A 
ATOM     39  C   UNL A   1      36.475  32.367  30.144  1.00  0.00    -0.014 A 
BRANCH  39  40
ATOM     40  C   UNL A   1      37.624  31.727  30.835  1.00  0.00     0.031 A 
ATOM     41  C   UNL A   1      38.445  30.684  30.125  1.00  0.00     0.074 A 
ATOM     42  C   UNL A   1      37.904  32.061  32.109  1.00  0.00     0.049 A 
ATOM     43  N   UNL A   1      39.472  29.999  30.559  1.00  0.00    -0.248 NA
ATOM     44  C   UNL A   1      38.039  30.348  28.751  1.00  0.00     0.031 C 
ATOM     45  C   UNL A   1      37.147  33.021  32.916  1.00  0.00     0.029 A 
ATOM     46  N   UNL A   1      38.899  31.636  32.952  1.00  0.00    -0.354 N 
ATOM     47  C   UNL A   1      39.826  29.144  29.521  1.00  0.00     0.074 A 
ATOM     48  C   UNL A   1      38.861  29.350  28.463  1.00  0.00     0.031 C 
ATOM     49  C   UNL A   1      37.725  33.135  34.122  1.00  0.00     0.029 A 
ATOM     50  C   UNL A   1      38.869  32.233  34.190  1.00  0.00     0.049 A 
ATOM     51  H   UNL A   1      39.573  30.965  32.693  1.00  0.00     0.167 HD
ATOM     52  C   UNL A   1      40.874  28.286  29.446  1.00  0.00     0.034 A 
ATOM     53  C   UNL A   1      39.673  32.069  35.260  1.00  0.00     0.034 A 
ATOM     54  C   UNL A   1      41.834  28.104  30.508  1.00  0.00     0.049 A 
ATOM     55  C   UNL A   1      40.832  31.112  35.153  1.00  0.00     0.074 A 
ATOM     56  C   UNL A   1      42.961  27.301  30.526  1.00  0.00     0.029 A 
ATOM     57  N   UNL A   1      41.776  28.732  31.747  1.00  0.00    -0.354 N 
ATOM     58  N   UNL A   1      41.186  30.350  34.143  1.00  0.00    -0.248 NA
ATOM     59  C   UNL A   1      41.711  31.008  36.325  1.00  0.00     0.031 C 
ATOM     60  C   UNL A   1      43.548  27.396  31.793  1.00  0.00     0.029 A 
ATOM     61  C   UNL A   1      42.833  28.316  32.543  1.00  0.00     0.049 A 
ATOM     62  H   UNL A   1      41.086  29.379  32.020  1.00  0.00     0.167 HD
ATOM     63  C   UNL A   1      42.347  29.698  34.550  1.00  0.00     0.074 A 
ATOM     64  C   UNL A   1      42.641  30.174  35.887  1.00  0.00     0.031 C 
ATOM     65  C   UNL A   1      43.103  28.789  33.881  1.00  0.00     0.034 A 
BRANCH  52  66
ATOM     66  C   UNL A   1      41.014  27.471  28.180  1.00  0.00     0.023 A 
ATOM     67  C   UNL A   1      40.690  26.103  28.143  1.00  0.00     0.031 A 
ATOM     68  C   UNL A   1      41.515  28.058  27.004  1.00  0.00     0.131 A 
ATOM     69  C   UNL A   1      40.947  25.352  26.986  1.00  0.00     0.055 A 
ATOM     70  C   UNL A   1      41.688  27.323  25.829  1.00  0.00     0.041 A 
ATOM     71  F   UNL A   1      41.863  29.355  26.982  1.00  0.00    -0.206 F 
ATOM     72  C   UNL A   1      41.419  25.957  25.820  1.00  0.00     0.022 A 
BRANCH  69  73
ATOM     73  S   UNL A   1      40.796  23.546  27.075  1.00  0.00     0.124 S 
ATOM     74  O   UNL A   1      41.360  23.267  28.394  1.00  0.00    -0.237 OA
ATOM     75  O   UNL A   1      39.358  23.342  26.939  1.00  0.00    -0.237 OA
ATOM     76  O   UNL A   1      41.602  23.078  25.949  1.00  0.00    -0.744 OA
ENDBRANCH  69  73
ENDBRANCH  52  66
BRANCH  53  77
ATOM     77  C   UNL A   1      39.421  32.827  36.518  1.00  0.00     0.023 A 
ATOM     78  C   UNL A   1      38.547  32.332  37.499  1.00  0.00     0.031 A 
ATOM     79  C   UNL A   1      40.024  34.078  36.742  1.00  0.00     0.131 A 
ATOM     80  C   UNL A   1      38.262  33.104  38.636  1.00  0.00     0.055 A 
ATOM     81  C   UNL A   1      39.777  34.819  37.899  1.00  0.00     0.041 A 
ATOM     82  F   UNL A   1      40.875  34.593  35.840  1.00  0.00    -0.206 F 
ATOM     83  C   UNL A   1      38.880  34.339  38.849  1.00  0.00     0.022 A 
BRANCH  80  84
ATOM     84  S   UNL A   1      37.005  32.505  39.799  1.00  0.00     0.124 S 
ATOM     85  O   UNL A   1      35.777  32.703  39.038  1.00  0.00    -0.237 OA
ATOM     86  O   UNL A   1      37.418  31.121  40.004  1.00  0.00    -0.237 OA
ATOM     87  O   UNL A   1      37.170  33.381  40.958  1.00  0.00    -0.744 OA
ENDBRANCH  80  84
ENDBRANCH  53  77
BRANCH  65  88
ATOM     88  C   UNL A   1      44.342  28.288  34.583  1.00  0.00     0.023 A 
ATOM     89  C   UNL A   1      44.316  27.146  35.401  1.00  0.00     0.031 A 
ATOM     90  C   UNL A   1      45.557  28.985  34.456  1.00  0.00     0.131 A 
ATOM     91  C   UNL A   1      45.464  26.773  36.117  1.00  0.00     0.055 A 
ATOM     92  C   UNL A   1      46.713  28.570  35.118  1.00  0.00     0.041 A 
ATOM     93  F   UNL A   1      45.638  30.083  33.688  1.00  0.00    -0.206 F 
ATOM     94  C   UNL A   1      46.667  27.469  35.967  1.00  0.00     0.022 A 
BRANCH  91  95
ATOM     95  S   UNL A   1      45.335  25.432  37.331  1.00  0.00     0.124 S 
ATOM     96  O   UNL A   1      45.068  24.277  36.480  1.00  0.00    -0.237 OA
ATOM     97  O   UNL A   1      46.647  25.463  37.970  1.00  0.00    -0.237 OA
ATOM     98  O   UNL A   1      44.221  25.846  38.182  1.00  0.00    -0.744 OA
ENDBRANCH  91  95
ENDBRANCH  65  88
ENDBRANCH  39  40
ENDBRANCH  31  34
ENDBRANCH  29  30
ENDBRANCH  28  29
ENDBRANCH   1  28
TORSDOF 20
ENDMDL
