MODEL 1
REMARK VINA RESULT:     -11.4      0.000      0.000
REMARK SMILES CSCC[C@H](NC(=O)N[C@@H]1CCCCC1(C)C)C(=O)NCCCCNC(=O)c1ccc(-c2c3nc(c(-c4cc(S(=O)(=O)[O-])ccc4F)c4ccc([nH]4)c(-c4cc(S(=O)(=O)[O-])ccc4F)c4nc(c(-c5cc(S(=O)(=O)[O-])ccc5F)c5ccc2[nH]5)C=C4)C=C3)cc1
REMARK SMILES IDX 22 1 21 2 20 3 18 4 19 5 5 7 4 8 3 9 2 10 1 11 6 12 7 13
REMARK SMILES IDX 8 15 9 16 10 18 11 19 15 20 12 21 14 22 16 23 17 24 13 25
REMARK SMILES IDX 23 26 24 27 25 28 26 29 27 31 28 32 29 33 90 34 30 35 89 36
REMARK SMILES IDX 31 37 32 38 33 39 83 40 34 41 88 42 82 43 84 44 35 45 87 46
REMARK SMILES IDX 81 47 80 48 36 50 68 51 48 52 67 53 49 54 52 55 66 56 85 57
REMARK SMILES IDX 50 58 51 59 65 61 86 62 53 63 37 64 38 65 46 66 39 67 45 68
REMARK SMILES IDX 47 69 44 70 40 71 41 72 42 73 43 74 69 75 70 76 78 77 71 78
REMARK SMILES IDX 77 79 79 80 76 81 72 82 73 83 74 84 75 85 54 86 55 87 63 88
REMARK SMILES IDX 56 89 62 90 64 91 61 92 57 93 58 94 59 95 60 96
REMARK H PARENT 20 6 6 14 9 17 25 30 84 49 52 60
REMARK Flexibility Score: inf
ROOT
ATOM      1  C   UNL A   1      31.753  30.433  25.828  1.00  0.00     0.023 C 
ENDROOT
BRANCH   1   2
ATOM      2  C   UNL A   1      32.984  29.534  25.923  1.00  0.00     0.116 C 
BRANCH   2   3
ATOM      3  N   UNL A   1      33.781  29.382  24.724  1.00  0.00    -0.354 N 
ATOM      4  C   UNL A   1      33.764  28.436  23.750  1.00  0.00     0.242 C 
ATOM      5  O   UNL A   1      34.246  28.752  22.654  1.00  0.00    -0.273 OA
ATOM      6  H   UNL A   1      34.455  30.087  24.591  1.00  0.00     0.163 HD
BRANCH   4   7
ATOM      7  C   UNL A   1      33.028  27.089  23.896  1.00  0.00     0.174 C 
BRANCH   7   8
ATOM      8  C   UNL A   1      33.969  26.150  24.684  1.00  0.00     0.046 C 
BRANCH   8   9
ATOM      9  C   UNL A   1      33.372  25.559  25.961  1.00  0.00     0.072 C 
BRANCH   9  10
ATOM     10  S   UNL A   1      31.620  26.002  26.190  1.00  0.00    -0.165 SA
ATOM     11  C   UNL A   1      30.845  24.428  25.763  1.00  0.00     0.085 C 
ENDBRANCH   9  10
ENDBRANCH   8   9
ENDBRANCH   7   8
BRANCH   7  12
ATOM     12  N   UNL A   1      32.606  26.511  22.625  1.00  0.00    -0.326 N 
ATOM     13  C   UNL A   1      31.592  26.751  21.784  1.00  0.00     0.315 C 
ATOM     14  H   UNL A   1      33.196  25.785  22.319  1.00  0.00     0.166 HD
ATOM     15  O   UNL A   1      31.515  26.039  20.780  1.00  0.00    -0.249 OA
ATOM     16  N   UNL A   1      30.687  27.728  21.924  1.00  0.00    -0.335 N 
ATOM     17  H   UNL A   1      30.220  27.936  21.083  1.00  0.00     0.165 HD
BRANCH  16  18
ATOM     18  C   UNL A   1      30.234  28.558  23.043  1.00  0.00     0.089 C 
ATOM     19  C   UNL A   1      29.621  27.639  24.114  1.00  0.00     0.025 C 
ATOM     20  C   UNL A   1      29.256  29.708  22.614  1.00  0.00    -0.015 C 
ATOM     21  C   UNL A   1      28.248  27.111  23.708  1.00  0.00     0.002 C 
ATOM     22  C   UNL A   1      27.848  29.156  22.291  1.00  0.00     0.008 C 
ATOM     23  C   UNL A   1      29.167  30.747  23.757  1.00  0.00     0.013 C 
ATOM     24  C   UNL A   1      29.765  30.474  21.375  1.00  0.00     0.013 C 
ATOM     25  C   UNL A   1      27.287  28.245  23.378  1.00  0.00     0.001 C 
ENDBRANCH  16  18
ENDBRANCH   7  12
ENDBRANCH   4   7
ENDBRANCH   2   3
ENDBRANCH   1   2
BRANCH   1  26
ATOM     26  C   UNL A   1      31.637  31.590  26.817  1.00  0.00     0.023 C 
BRANCH  26  27
ATOM     27  C   UNL A   1      32.916  32.343  27.159  1.00  0.00     0.116 C 
BRANCH  27  28
ATOM     28  N   UNL A   1      32.667  33.703  27.588  1.00  0.00    -0.352 N 
ATOM     29  C   UNL A   1      33.289  34.431  28.571  1.00  0.00     0.251 C 
ATOM     30  H   UNL A   1      31.949  34.173  27.105  1.00  0.00     0.163 HD
ATOM     31  O   UNL A   1      32.844  35.532  28.877  1.00  0.00    -0.269 OA
BRANCH  29  32
ATOM     32  C   UNL A   1      34.467  33.879  29.277  1.00  0.00     0.039 A 
ATOM     33  C   UNL A   1      34.250  32.979  30.325  1.00  0.00     0.014 A 
ATOM     34  C   UNL A   1      35.770  34.260  28.940  1.00  0.00     0.014 A 
ATOM     35  C   UNL A   1      35.338  32.431  31.009  1.00  0.00     0.010 A 
ATOM     36  C   UNL A   1      36.857  33.676  29.592  1.00  0.00     0.010 A 
ATOM     37  C   UNL A   1      36.650  32.760  30.635  1.00  0.00    -0.014 A 
BRANCH  37  38
ATOM     38  C   UNL A   1      37.815  32.166  31.341  1.00  0.00     0.031 A 
ATOM     39  C   UNL A   1      38.588  31.044  30.706  1.00  0.00     0.074 A 
ATOM     40  C   UNL A   1      38.145  32.607  32.570  1.00  0.00     0.049 A 
ATOM     41  N   UNL A   1      39.589  30.351  31.186  1.00  0.00    -0.248 NA
ATOM     42  C   UNL A   1      38.162  30.632  29.361  1.00  0.00     0.031 C 
ATOM     43  C   UNL A   1      37.453  33.674  33.297  1.00  0.00     0.029 A 
ATOM     44  N   UNL A   1      39.136  32.209  33.431  1.00  0.00    -0.354 N 
ATOM     45  C   UNL A   1      39.906  29.414  30.209  1.00  0.00     0.074 A 
ATOM     46  C   UNL A   1      38.957  29.598  29.130  1.00  0.00     0.031 C 
ATOM     47  C   UNL A   1      38.046  33.849  34.489  1.00  0.00     0.029 A 
ATOM     48  C   UNL A   1      39.133  32.885  34.630  1.00  0.00     0.049 A 
ATOM     49  H   UNL A   1      39.789  31.504  33.212  1.00  0.00     0.167 HD
ATOM     50  C   UNL A   1      40.908  28.499  30.205  1.00  0.00     0.034 A 
ATOM     51  C   UNL A   1      39.905  32.732  35.724  1.00  0.00     0.034 A 
ATOM     52  C   UNL A   1      41.852  28.338  31.284  1.00  0.00     0.049 A 
ATOM     53  C   UNL A   1      40.991  31.686  35.709  1.00  0.00     0.074 A 
ATOM     54  C   UNL A   1      42.943  27.489  31.356  1.00  0.00     0.029 A 
ATOM     55  N   UNL A   1      41.812  29.033  32.485  1.00  0.00    -0.354 N 
ATOM     56  N   UNL A   1      41.310  30.841  34.756  1.00  0.00    -0.248 NA
ATOM     57  C   UNL A   1      41.823  31.576  36.915  1.00  0.00     0.031 C 
ATOM     58  C   UNL A   1      43.522  27.624  32.623  1.00  0.00     0.029 A 
ATOM     59  C   UNL A   1      42.835  28.607  33.318  1.00  0.00     0.049 A 
ATOM     60  H   UNL A   1      41.153  29.728  32.713  1.00  0.00     0.167 HD
ATOM     61  C   UNL A   1      42.396  30.117  35.239  1.00  0.00     0.074 A 
ATOM     62  C   UNL A   1      42.684  30.633  36.561  1.00  0.00     0.031 C 
ATOM     63  C   UNL A   1      43.097  29.119  34.641  1.00  0.00     0.034 A 
BRANCH  50  64
ATOM     64  C   UNL A   1      41.007  27.584  29.008  1.00  0.00     0.023 A 
ATOM     65  C   UNL A   1      42.001  27.754  28.028  1.00  0.00     0.031 A 
ATOM     66  C   UNL A   1      40.081  26.540  28.833  1.00  0.00     0.131 A 
ATOM     67  C   UNL A   1      42.002  26.942  26.883  1.00  0.00     0.055 A 
ATOM     68  C   UNL A   1      40.134  25.687  27.728  1.00  0.00     0.041 A 
ATOM     69  F   UNL A   1      39.099  26.341  29.725  1.00  0.00    -0.206 F 
ATOM     70  C   UNL A   1      41.090  25.894  26.738  1.00  0.00     0.022 A 
BRANCH  67  71
ATOM     71  S   UNL A   1      43.128  27.363  25.524  1.00  0.00     0.124 S 
ATOM     72  O   UNL A   1      44.197  28.062  26.233  1.00  0.00    -0.237 OA
ATOM     73  O   UNL A   1      43.470  26.053  24.981  1.00  0.00    -0.237 OA
ATOM     74  O   UNL A   1      42.312  28.207  24.653  1.00  0.00    -0.744 OA
ENDBRANCH  67  71
ENDBRANCH  50  64
BRANCH  51  75
ATOM     75  C   UNL A   1      39.670  33.568  36.935  1.00  0.00     0.023 A 
ATOM     76  C   UNL A   1      38.961  33.065  38.036  1.00  0.00     0.031 A 
ATOM     77  C   UNL A   1      40.122  34.899  36.991  1.00  0.00     0.131 A 
ATOM     78  C   UNL A   1      38.688  33.899  39.132  1.00  0.00     0.055 A 
ATOM     79  C   UNL A   1      39.889  35.709  38.103  1.00  0.00     0.041 A 
ATOM     80  F   UNL A   1      40.809  35.426  35.966  1.00  0.00    -0.206 F 
ATOM     81  C   UNL A   1      39.157  35.214  39.177  1.00  0.00     0.022 A 
BRANCH  78  82
ATOM     82  S   UNL A   1      37.642  33.262  40.469  1.00  0.00     0.124 S 
ATOM     83  O   UNL A   1      36.475  32.785  39.733  1.00  0.00    -0.237 OA
ATOM     84  O   UNL A   1      38.494  32.235  41.057  1.00  0.00    -0.237 OA
ATOM     85  O   UNL A   1      37.411  34.435  41.309  1.00  0.00    -0.744 OA
ENDBRANCH  78  82
ENDBRANCH  51  75
BRANCH  63  86
ATOM     86  C   UNL A   1      44.262  28.549  35.409  1.00  0.00     0.023 A 
ATOM     87  C   UNL A   1      44.086  27.552  36.383  1.00  0.00     0.031 A 
ATOM     88  C   UNL A   1      45.566  29.015  35.164  1.00  0.00     0.131 A 
ATOM     89  C   UNL A   1      45.190  27.083  37.110  1.00  0.00     0.055 A 
ATOM     90  C   UNL A   1      46.668  28.507  35.852  1.00  0.00     0.041 A 
ATOM     91  F   UNL A   1      45.789  29.968  34.245  1.00  0.00    -0.206 F 
ATOM     92  C   UNL A   1      46.482  27.543  36.839  1.00  0.00     0.022 A 
BRANCH  89  93
ATOM     93  S   UNL A   1      44.910  25.907  38.462  1.00  0.00     0.124 S 
ATOM     94  O   UNL A   1      44.305  24.779  37.762  1.00  0.00    -0.237 OA
ATOM     95  O   UNL A   1      46.259  25.690  38.974  1.00  0.00    -0.237 OA
ATOM     96  O   UNL A   1      44.015  26.629  39.365  1.00  0.00    -0.744 OA
ENDBRANCH  89  93
ENDBRANCH  63  86
ENDBRANCH  37  38
ENDBRANCH  29  32
ENDBRANCH  27  28
ENDBRANCH  26  27
ENDBRANCH   1  26
TORSDOF 19
ENDMDL
MODEL 2
REMARK VINA RESULT:     -11.1      5.099      8.029
REMARK SMILES CSCC[C@H](NC(=O)N[C@@H]1CCCCC1(C)C)C(=O)NCCCCNC(=O)c1ccc(-c2c3nc(c(-c4cc(S(=O)(=O)[O-])ccc4F)c4ccc([nH]4)c(-c4cc(S(=O)(=O)[O-])ccc4F)c4nc(c(-c5cc(S(=O)(=O)[O-])ccc5F)c5ccc2[nH]5)C=C4)C=C3)cc1
REMARK SMILES IDX 22 1 21 2 20 3 18 4 19 5 5 7 4 8 3 9 2 10 1 11 6 12 7 13
REMARK SMILES IDX 8 15 9 16 10 18 11 19 15 20 12 21 14 22 16 23 17 24 13 25
REMARK SMILES IDX 23 26 24 27 25 28 26 29 27 31 28 32 29 33 90 34 30 35 89 36
REMARK SMILES IDX 31 37 32 38 33 39 83 40 34 41 88 42 82 43 84 44 35 45 87 46
REMARK SMILES IDX 81 47 80 48 36 50 68 51 48 52 67 53 49 54 52 55 66 56 85 57
REMARK SMILES IDX 50 58 51 59 65 61 86 62 53 63 37 64 38 65 46 66 39 67 45 68
REMARK SMILES IDX 47 69 44 70 40 71 41 72 42 73 43 74 69 75 70 76 78 77 71 78
REMARK SMILES IDX 77 79 79 80 76 81 72 82 73 83 74 84 75 85 54 86 55 87 63 88
REMARK SMILES IDX 56 89 62 90 64 91 61 92 57 93 58 94 59 95 60 96
REMARK H PARENT 20 6 6 14 9 17 25 30 84 49 52 60
REMARK Flexibility Score: inf
ROOT
ATOM      1  C   UNL A   1      35.231  23.476  23.961  1.00  0.00     0.023 C 
ENDROOT
BRANCH   1   2
ATOM      2  C   UNL A   1      34.542  24.833  23.841  1.00  0.00     0.116 C 
BRANCH   2   3
ATOM      3  N   UNL A   1      33.640  25.016  22.723  1.00  0.00    -0.354 N 
ATOM      4  C   UNL A   1      32.286  24.942  22.642  1.00  0.00     0.242 C 
ATOM      5  O   UNL A   1      31.749  25.533  21.696  1.00  0.00    -0.273 OA
ATOM      6  H   UNL A   1      34.085  25.231  21.872  1.00  0.00     0.163 HD
BRANCH   4   7
ATOM      7  C   UNL A   1      31.408  24.324  23.748  1.00  0.00     0.174 C 
BRANCH   7   8
ATOM      8  C   UNL A   1      31.319  22.810  23.452  1.00  0.00     0.046 C 
BRANCH   8   9
ATOM      9  C   UNL A   1      31.876  21.903  24.549  1.00  0.00     0.072 C 
BRANCH   9  10
ATOM     10  S   UNL A   1      32.546  20.339  23.897  1.00  0.00    -0.165 SA
ATOM     11  C   UNL A   1      33.977  20.142  24.980  1.00  0.00     0.085 C 
ENDBRANCH   9  10
ENDBRANCH   8   9
ENDBRANCH   7   8
BRANCH   7  12
ATOM     12  N   UNL A   1      30.093  24.943  23.866  1.00  0.00    -0.326 N 
ATOM     13  C   UNL A   1      29.659  26.131  24.306  1.00  0.00     0.315 C 
ATOM     14  H   UNL A   1      29.364  24.359  23.554  1.00  0.00     0.166 HD
ATOM     15  O   UNL A   1      28.441  26.325  24.290  1.00  0.00    -0.249 OA
ATOM     16  N   UNL A   1      30.443  27.134  24.720  1.00  0.00    -0.335 N 
ATOM     17  H   UNL A   1      29.980  28.004  24.716  1.00  0.00     0.165 HD
BRANCH  16  18
ATOM     18  C   UNL A   1      31.831  27.235  25.175  1.00  0.00     0.089 C 
ATOM     19  C   UNL A   1      31.866  26.981  26.692  1.00  0.00     0.025 C 
ATOM     20  C   UNL A   1      32.523  28.587  24.781  1.00  0.00    -0.015 C 
ATOM     21  C   UNL A   1      31.324  28.164  27.490  1.00  0.00     0.002 C 
ATOM     22  C   UNL A   1      32.019  29.753  25.663  1.00  0.00     0.008 C 
ATOM     23  C   UNL A   1      34.056  28.433  24.934  1.00  0.00     0.013 C 
ATOM     24  C   UNL A   1      32.275  28.961  23.305  1.00  0.00     0.013 C 
ATOM     25  C   UNL A   1      32.065  29.451  27.157  1.00  0.00     0.001 C 
ENDBRANCH  16  18
ENDBRANCH   7  12
ENDBRANCH   4   7
ENDBRANCH   2   3
ENDBRANCH   1   2
BRANCH   1  26
ATOM     26  C   UNL A   1      36.663  23.448  24.489  1.00  0.00     0.023 C 
BRANCH  26  27
ATOM     27  C   UNL A   1      36.865  22.986  25.926  1.00  0.00     0.116 C 
BRANCH  27  28
ATOM     28  N   UNL A   1      37.989  22.084  26.071  1.00  0.00    -0.352 N 
ATOM     29  C   UNL A   1      39.289  22.365  26.410  1.00  0.00     0.251 C 
ATOM     30  H   UNL A   1      37.793  21.134  25.902  1.00  0.00     0.163 HD
ATOM     31  O   UNL A   1      40.131  21.476  26.351  1.00  0.00    -0.269 OA
BRANCH  29  32
ATOM     32  C   UNL A   1      39.677  23.736  26.813  1.00  0.00     0.039 A 
ATOM     33  C   UNL A   1      39.675  24.053  28.174  1.00  0.00     0.014 A 
ATOM     34  C   UNL A   1      40.009  24.711  25.866  1.00  0.00     0.014 A 
ATOM     35  C   UNL A   1      40.044  25.334  28.592  1.00  0.00     0.010 A 
ATOM     36  C   UNL A   1      40.424  25.976  26.287  1.00  0.00     0.010 A 
ATOM     37  C   UNL A   1      40.440  26.299  27.653  1.00  0.00    -0.014 A 
BRANCH  37  38
ATOM     38  C   UNL A   1      40.855  27.658  28.087  1.00  0.00     0.031 A 
ATOM     39  C   UNL A   1      42.314  28.024  28.122  1.00  0.00     0.074 A 
ATOM     40  C   UNL A   1      39.924  28.543  28.491  1.00  0.00     0.049 A 
ATOM     41  N   UNL A   1      42.881  29.130  28.531  1.00  0.00    -0.248 NA
ATOM     42  C   UNL A   1      43.259  27.000  27.656  1.00  0.00     0.031 C 
ATOM     43  C   UNL A   1      38.481  28.292  28.524  1.00  0.00     0.029 A 
ATOM     44  N   UNL A   1      40.048  29.825  28.962  1.00  0.00    -0.354 N 
ATOM     45  C   UNL A   1      44.249  28.932  28.383  1.00  0.00     0.074 A 
ATOM     46  C   UNL A   1      44.426  27.581  27.893  1.00  0.00     0.031 C 
ATOM     47  C   UNL A   1      37.855  29.388  28.983  1.00  0.00     0.029 A 
ATOM     48  C   UNL A   1      38.850  30.404  29.314  1.00  0.00     0.049 A 
ATOM     49  H   UNL A   1      40.913  30.288  29.043  1.00  0.00     0.167 HD
ATOM     50  C   UNL A   1      45.262  29.804  28.618  1.00  0.00     0.034 A 
ATOM     51  C   UNL A   1      38.585  31.608  29.858  1.00  0.00     0.034 A 
ATOM     52  C   UNL A   1      45.067  31.152  29.094  1.00  0.00     0.049 A 
ATOM     53  C   UNL A   1      39.730  32.548  30.140  1.00  0.00     0.074 A 
ATOM     54  C   UNL A   1      46.015  32.139  29.303  1.00  0.00     0.029 A 
ATOM     55  N   UNL A   1      43.841  31.700  29.448  1.00  0.00    -0.354 N 
ATOM     56  N   UNL A   1      41.015  32.364  29.948  1.00  0.00    -0.248 NA
ATOM     57  C   UNL A   1      39.387  33.859  30.709  1.00  0.00     0.031 C 
ATOM     58  C   UNL A   1      45.372  33.258  29.843  1.00  0.00     0.029 A 
ATOM     59  C   UNL A   1      44.012  32.997  29.907  1.00  0.00     0.049 A 
ATOM     60  H   UNL A   1      42.976  31.235  29.383  1.00  0.00     0.167 HD
ATOM     61  C   UNL A   1      41.632  33.546  30.348  1.00  0.00     0.074 A 
ATOM     62  C   UNL A   1      40.577  34.439  30.781  1.00  0.00     0.031 C 
ATOM     63  C   UNL A   1      42.951  33.867  30.353  1.00  0.00     0.034 A 
BRANCH  50  64
ATOM     64  C   UNL A   1      46.671  29.310  28.389  1.00  0.00     0.023 A 
ATOM     65  C   UNL A   1      47.150  29.014  27.101  1.00  0.00     0.031 A 
ATOM     66  C   UNL A   1      47.539  29.110  29.477  1.00  0.00     0.131 A 
ATOM     67  C   UNL A   1      48.433  28.467  26.940  1.00  0.00     0.055 A 
ATOM     68  C   UNL A   1      48.841  28.638  29.302  1.00  0.00     0.041 A 
ATOM     69  F   UNL A   1      47.131  29.357  30.731  1.00  0.00    -0.206 F 
ATOM     70  C   UNL A   1      49.291  28.299  28.029  1.00  0.00     0.022 A 
BRANCH  67  71
ATOM     71  S   UNL A   1      48.913  27.853  25.302  1.00  0.00     0.124 S 
ATOM     72  O   UNL A   1      47.760  28.241  24.491  1.00  0.00    -0.237 OA
ATOM     73  O   UNL A   1      50.150  28.580  25.042  1.00  0.00    -0.237 OA
ATOM     74  O   UNL A   1      49.065  26.414  25.507  1.00  0.00    -0.744 OA
ENDBRANCH  67  71
ENDBRANCH  50  64
BRANCH  51  75
ATOM     75  C   UNL A   1      37.185  31.990  30.197  1.00  0.00     0.023 A 
ATOM     76  C   UNL A   1      36.304  32.463  29.212  1.00  0.00     0.031 A 
ATOM     77  C   UNL A   1      36.721  31.923  31.523  1.00  0.00     0.131 A 
ATOM     78  C   UNL A   1      35.015  32.888  29.573  1.00  0.00     0.055 A 
ATOM     79  C   UNL A   1      35.422  32.302  31.869  1.00  0.00     0.041 A 
ATOM     80  F   UNL A   1      37.522  31.474  32.501  1.00  0.00    -0.206 F 
ATOM     81  C   UNL A   1      34.566  32.799  30.893  1.00  0.00     0.022 A 
BRANCH  78  82
ATOM     82  S   UNL A   1      33.958  33.631  28.301  1.00  0.00     0.124 S 
ATOM     83  O   UNL A   1      34.912  34.452  27.564  1.00  0.00    -0.237 OA
ATOM     84  O   UNL A   1      33.450  32.455  27.604  1.00  0.00    -0.237 OA
ATOM     85  O   UNL A   1      32.965  34.373  29.075  1.00  0.00    -0.744 OA
ENDBRANCH  78  82
ENDBRANCH  51  75
BRANCH  63  86
ATOM     86  C   UNL A   1      43.313  35.256  30.812  1.00  0.00     0.023 A 
ATOM     87  C   UNL A   1      43.458  35.568  32.174  1.00  0.00     0.031 A 
ATOM     88  C   UNL A   1      43.512  36.282  29.871  1.00  0.00     0.131 A 
ATOM     89  C   UNL A   1      43.748  36.884  32.563  1.00  0.00     0.055 A 
ATOM     90  C   UNL A   1      43.853  37.578  30.260  1.00  0.00     0.041 A 
ATOM     91  F   UNL A   1      43.384  36.038  28.558  1.00  0.00    -0.206 F 
ATOM     92  C   UNL A   1      43.962  37.887  31.614  1.00  0.00     0.022 A 
BRANCH  89  93
ATOM     93  S   UNL A   1      43.780  37.286  34.331  1.00  0.00     0.124 S 
ATOM     94  O   UNL A   1      44.946  38.159  34.423  1.00  0.00    -0.237 OA
ATOM     95  O   UNL A   1      42.485  37.929  34.530  1.00  0.00    -0.237 OA
ATOM     96  O   UNL A   1      43.928  35.983  34.977  1.00  0.00    -0.744 OA
ENDBRANCH  89  93
ENDBRANCH  63  86
ENDBRANCH  37  38
ENDBRANCH  29  32
ENDBRANCH  27  28
ENDBRANCH  26  27
ENDBRANCH   1  26
TORSDOF 19
ENDMDL
MODEL 3
REMARK VINA RESULT:     -11.1      5.360      8.124
REMARK SMILES CSCC[C@H](NC(=O)N[C@@H]1CCCCC1(C)C)C(=O)NCCCCNC(=O)c1ccc(-c2c3nc(c(-c4cc(S(=O)(=O)[O-])ccc4F)c4ccc([nH]4)c(-c4cc(S(=O)(=O)[O-])ccc4F)c4nc(c(-c5cc(S(=O)(=O)[O-])ccc5F)c5ccc2[nH]5)C=C4)C=C3)cc1
REMARK SMILES IDX 22 1 21 2 20 3 18 4 19 5 5 7 4 8 3 9 2 10 1 11 6 12 7 13
REMARK SMILES IDX 8 15 9 16 10 18 11 19 15 20 12 21 14 22 16 23 17 24 13 25
REMARK SMILES IDX 23 26 24 27 25 28 26 29 27 31 28 32 29 33 90 34 30 35 89 36
REMARK SMILES IDX 31 37 32 38 33 39 83 40 34 41 88 42 82 43 84 44 35 45 87 46
REMARK SMILES IDX 81 47 80 48 36 50 68 51 48 52 67 53 49 54 52 55 66 56 85 57
REMARK SMILES IDX 50 58 51 59 65 61 86 62 53 63 37 64 38 65 46 66 39 67 45 68
REMARK SMILES IDX 47 69 44 70 40 71 41 72 42 73 43 74 69 75 70 76 78 77 71 78
REMARK SMILES IDX 77 79 79 80 76 81 72 82 73 83 74 84 75 85 54 86 55 87 63 88
REMARK SMILES IDX 56 89 62 90 64 91 61 92 57 93 58 94 59 95 60 96
REMARK H PARENT 20 6 6 14 9 17 25 30 84 49 52 60
REMARK Flexibility Score: inf
ROOT
ATOM      1  C   UNL A   1      35.137  22.989  26.316  1.00  0.00     0.023 C 
ENDROOT
BRANCH   1   2
ATOM      2  C   UNL A   1      33.778  22.931  25.620  1.00  0.00     0.116 C 
BRANCH   2   3
ATOM      3  N   UNL A   1      33.781  22.702  24.191  1.00  0.00    -0.354 N 
ATOM      4  C   UNL A   1      33.544  23.539  23.148  1.00  0.00     0.242 C 
ATOM      5  O   UNL A   1      34.005  23.207  22.048  1.00  0.00    -0.273 OA
ATOM      6  H   UNL A   1      33.992  21.777  23.928  1.00  0.00     0.163 HD
BRANCH   4   7
ATOM      7  C   UNL A   1      32.900  24.929  23.313  1.00  0.00     0.174 C 
BRANCH   7   8
ATOM      8  C   UNL A   1      31.390  24.757  23.029  1.00  0.00     0.046 C 
BRANCH   8   9
ATOM      9  C   UNL A   1      30.633  23.907  24.049  1.00  0.00     0.072 C 
BRANCH   9  10
ATOM     10  S   UNL A   1      30.605  24.657  25.709  1.00  0.00    -0.165 SA
ATOM     11  C   UNL A   1      30.245  23.193  26.703  1.00  0.00     0.085 C 
ENDBRANCH   9  10
ENDBRANCH   8   9
ENDBRANCH   7   8
BRANCH   7  12
ATOM     12  N   UNL A   1      33.506  25.959  22.477  1.00  0.00    -0.326 N 
ATOM     13  C   UNL A   1      33.639  27.287  22.586  1.00  0.00     0.315 C 
ATOM     14  H   UNL A   1      33.904  25.599  21.652  1.00  0.00     0.166 HD
ATOM     15  O   UNL A   1      34.201  27.873  21.657  1.00  0.00    -0.249 OA
ATOM     16  N   UNL A   1      33.251  28.018  23.638  1.00  0.00    -0.335 N 
ATOM     17  H   UNL A   1      33.691  28.899  23.671  1.00  0.00     0.165 HD
BRANCH  16  18
ATOM     18  C   UNL A   1      32.324  27.807  24.752  1.00  0.00     0.089 C 
ATOM     19  C   UNL A   1      30.914  28.222  24.297  1.00  0.00     0.025 C 
ATOM     20  C   UNL A   1      32.760  28.529  26.075  1.00  0.00    -0.015 C 
ATOM     21  C   UNL A   1      30.757  29.738  24.210  1.00  0.00     0.002 C 
ATOM     22  C   UNL A   1      32.509  30.053  25.993  1.00  0.00     0.008 C 
ATOM     23  C   UNL A   1      31.969  27.928  27.262  1.00  0.00     0.013 C 
ATOM     24  C   UNL A   1      34.252  28.307  26.396  1.00  0.00     0.013 C 
ATOM     25  C   UNL A   1      31.101  30.414  25.529  1.00  0.00     0.001 C 
ENDBRANCH  16  18
ENDBRANCH   7  12
ENDBRANCH   4   7
ENDBRANCH   2   3
ENDBRANCH   1   2
BRANCH   1  26
ATOM     26  C   UNL A   1      36.153  24.011  25.813  1.00  0.00     0.023 C 
BRANCH  26  27
ATOM     27  C   UNL A   1      37.236  23.506  24.868  1.00  0.00     0.116 C 
BRANCH  27  28
ATOM     28  N   UNL A   1      38.068  22.483  25.467  1.00  0.00    -0.352 N 
ATOM     29  C   UNL A   1      39.166  22.624  26.278  1.00  0.00     0.251 C 
ATOM     30  H   UNL A   1      37.808  21.555  25.265  1.00  0.00     0.163 HD
ATOM     31  O   UNL A   1      39.822  21.631  26.580  1.00  0.00    -0.269 OA
BRANCH  29  32
ATOM     32  C   UNL A   1      39.576  23.963  26.758  1.00  0.00     0.039 A 
ATOM     33  C   UNL A   1      39.314  24.299  28.089  1.00  0.00     0.014 A 
ATOM     34  C   UNL A   1      40.181  24.893  25.906  1.00  0.00     0.014 A 
ATOM     35  C   UNL A   1      39.694  25.551  28.579  1.00  0.00     0.010 A 
ATOM     36  C   UNL A   1      40.603  26.125  26.409  1.00  0.00     0.010 A 
ATOM     37  C   UNL A   1      40.359  26.466  27.748  1.00  0.00    -0.014 A 
BRANCH  37  38
ATOM     38  C   UNL A   1      40.787  27.792  28.264  1.00  0.00     0.031 A 
ATOM     39  C   UNL A   1      42.251  28.108  28.404  1.00  0.00     0.074 A 
ATOM     40  C   UNL A   1      39.859  28.689  28.648  1.00  0.00     0.049 A 
ATOM     41  N   UNL A   1      42.824  29.177  28.893  1.00  0.00    -0.248 NA
ATOM     42  C   UNL A   1      43.192  27.073  27.953  1.00  0.00     0.031 C 
ATOM     43  C   UNL A   1      38.410  28.484  28.582  1.00  0.00     0.029 A 
ATOM     44  N   UNL A   1      39.992  29.947  29.181  1.00  0.00    -0.354 N 
ATOM     45  C   UNL A   1      44.193  28.941  28.821  1.00  0.00     0.074 A 
ATOM     46  C   UNL A   1      44.359  27.606  28.286  1.00  0.00     0.031 C 
ATOM     47  C   UNL A   1      37.790  29.581  29.048  1.00  0.00     0.029 A 
ATOM     48  C   UNL A   1      38.792  30.550  29.482  1.00  0.00     0.049 A 
ATOM     49  H   UNL A   1      40.864  30.377  29.333  1.00  0.00     0.167 HD
ATOM     50  C   UNL A   1      45.215  29.769  29.154  1.00  0.00     0.034 A 
ATOM     51  C   UNL A   1      38.530  31.738  30.060  1.00  0.00     0.034 A 
ATOM     52  C   UNL A   1      45.031  31.102  29.675  1.00  0.00     0.049 A 
ATOM     53  C   UNL A   1      39.683  32.628  30.452  1.00  0.00     0.074 A 
ATOM     54  C   UNL A   1      45.993  32.048  29.983  1.00  0.00     0.029 A 
ATOM     55  N   UNL A   1      43.802  31.675  29.977  1.00  0.00    -0.354 N 
ATOM     56  N   UNL A   1      40.972  32.410  30.331  1.00  0.00    -0.248 NA
ATOM     57  C   UNL A   1      39.345  33.925  31.054  1.00  0.00     0.031 C 
ATOM     58  C   UNL A   1      45.351  33.165  30.530  1.00  0.00     0.029 A 
ATOM     59  C   UNL A   1      43.983  32.946  30.500  1.00  0.00     0.049 A 
ATOM     60  H   UNL A   1      42.929  31.242  29.839  1.00  0.00     0.167 HD
ATOM     61  C   UNL A   1      41.598  33.554  30.818  1.00  0.00     0.074 A 
ATOM     62  C   UNL A   1      40.545  34.462  31.223  1.00  0.00     0.031 C 
ATOM     63  C   UNL A   1      42.923  33.831  30.917  1.00  0.00     0.034 A 
BRANCH  50  64
ATOM     64  C   UNL A   1      46.619  29.239  28.991  1.00  0.00     0.023 A 
ATOM     65  C   UNL A   1      47.238  29.160  27.731  1.00  0.00     0.031 A 
ATOM     66  C   UNL A   1      47.341  28.786  30.109  1.00  0.00     0.131 A 
ATOM     67  C   UNL A   1      48.507  28.573  27.610  1.00  0.00     0.055 A 
ATOM     68  C   UNL A   1      48.635  28.273  29.991  1.00  0.00     0.041 A 
ATOM     69  F   UNL A   1      46.796  28.819  31.335  1.00  0.00    -0.206 F 
ATOM     70  C   UNL A   1      49.220  28.151  28.734  1.00  0.00     0.022 A 
BRANCH  67  71
ATOM     71  S   UNL A   1      49.155  28.247  25.947  1.00  0.00     0.124 S 
ATOM     72  O   UNL A   1      49.647  26.877  26.086  1.00  0.00    -0.237 OA
ATOM     73  O   UNL A   1      47.975  28.420  25.109  1.00  0.00    -0.237 OA
ATOM     74  O   UNL A   1      50.195  29.261  25.780  1.00  0.00    -0.744 OA
ENDBRANCH  67  71
ENDBRANCH  50  64
BRANCH  51  75
ATOM     75  C   UNL A   1      37.124  32.152  30.329  1.00  0.00     0.023 A 
ATOM     76  C   UNL A   1      36.320  32.692  29.313  1.00  0.00     0.031 A 
ATOM     77  C   UNL A   1      36.576  32.046  31.621  1.00  0.00     0.131 A 
ATOM     78  C   UNL A   1      35.025  33.143  29.613  1.00  0.00     0.055 A 
ATOM     79  C   UNL A   1      35.271  32.453  31.902  1.00  0.00     0.041 A 
ATOM     80  F   UNL A   1      37.302  31.533  32.626  1.00  0.00    -0.206 F 
ATOM     81  C   UNL A   1      34.492  33.017  30.897  1.00  0.00     0.022 A 
BRANCH  78  82
ATOM     82  S   UNL A   1      34.072  33.971  28.311  1.00  0.00     0.124 S 
ATOM     83  O   UNL A   1      33.336  34.974  29.073  1.00  0.00    -0.237 OA
ATOM     84  O   UNL A   1      35.126  34.474  27.437  1.00  0.00    -0.237 OA
ATOM     85  O   UNL A   1      33.259  32.895  27.749  1.00  0.00    -0.744 OA
ENDBRANCH  78  82
ENDBRANCH  51  75
BRANCH  63  86
ATOM     86  C   UNL A   1      43.298  35.188  31.456  1.00  0.00     0.023 A 
ATOM     87  C   UNL A   1      43.531  36.281  30.605  1.00  0.00     0.031 A 
ATOM     88  C   UNL A   1      43.426  35.386  32.843  1.00  0.00     0.131 A 
ATOM     89  C   UNL A   1      43.926  37.514  31.144  1.00  0.00     0.055 A 
ATOM     90  C   UNL A   1      43.767  36.629  33.377  1.00  0.00     0.041 A 
ATOM     91  F   UNL A   1      43.216  34.375  33.700  1.00  0.00    -0.206 F 
ATOM     92  C   UNL A   1      44.030  37.699  32.526  1.00  0.00     0.022 A 
BRANCH  89  93
ATOM     93  S   UNL A   1      44.366  38.862  30.013  1.00  0.00     0.124 S 
ATOM     94  O   UNL A   1      44.573  39.975  30.934  1.00  0.00    -0.237 OA
ATOM     95  O   UNL A   1      45.564  38.345  29.360  1.00  0.00    -0.237 OA
ATOM     96  O   UNL A   1      43.194  38.982  29.149  1.00  0.00    -0.744 OA
ENDBRANCH  89  93
ENDBRANCH  63  86
ENDBRANCH  37  38
ENDBRANCH  29  32
ENDBRANCH  27  28
ENDBRANCH  26  27
ENDBRANCH   1  26
TORSDOF 19
ENDMDL
