MODEL 1
REMARK VINA RESULT:     -11.6      0.000      0.000
REMARK SMILES N#C/C(=C\c1cn(CC(=O)NCCCCNC(=O)c2ccc(-c3c4nc(c(-c5cc(S(=O)(=O)[O-])ccc5F)c5ccc([nH]5)c(-c5cc(S(=O)(=O)[O-])ccc5F)c5nc(c(-c6cc(S(=O)(=O)[O-])ccc6F)c6ccc3[nH]6)C=C5)C=C4)cc2)c2ccccc12)C(=O)N1CCCC[C@@H]1C#N
REMARK SMILES IDX 12 1 11 2 9 3 10 4 8 6 7 7 5 8 6 9 87 10 82 11 86 12 83 13
REMARK SMILES IDX 85 14 84 15 4 16 3 17 2 18 1 19 88 20 89 21 90 22 91 23
REMARK SMILES IDX 95 24 92 25 94 26 93 27 96 28 97 29 13 30 14 31 15 32 16 33
REMARK SMILES IDX 17 34 18 36 19 37 20 38 81 39 21 40 80 41 22 42 23 43 24 44
REMARK SMILES IDX 74 45 25 46 79 47 73 48 75 49 26 50 78 51 72 52 71 53 27 55
REMARK SMILES IDX 59 56 39 57 58 58 40 59 43 60 57 61 76 62 41 63 42 64 56 66
REMARK SMILES IDX 77 67 44 68 28 69 29 70 37 71 30 72 36 73 38 74 35 75 31 76
REMARK SMILES IDX 32 77 33 78 34 79 60 80 61 81 69 82 62 83 68 84 70 85 67 86
REMARK SMILES IDX 63 87 64 88 65 89 66 90 45 91 46 92 54 93 47 94 53 95 55 96
REMARK SMILES IDX 52 97 48 98 49 99 50 100 51 101
REMARK H PARENT 11 5 16 35 75 54 43 65
REMARK Flexibility Score: inf
ROOT
ATOM      1  C   UNL A   1      35.190  30.573  27.657  1.00  0.00     0.116 C 
ENDROOT
BRANCH   1   2
ATOM      2  N   UNL A   1      33.811  30.248  27.966  1.00  0.00    -0.355 N 
ATOM      3  C   UNL A   1      32.793  29.911  27.121  1.00  0.00     0.239 C 
ATOM      4  O   UNL A   1      31.695  29.628  27.610  1.00  0.00    -0.273 OA
ATOM      5  H   UNL A   1      33.575  30.274  28.921  1.00  0.00     0.163 HD
BRANCH   3   6
ATOM      6  C   UNL A   1      33.031  29.789  25.630  1.00  0.00     0.222 C 
BRANCH   6   7
ATOM      7  N   UNL A   1      32.319  28.682  25.007  1.00  0.00    -0.337 N 
ATOM      8  C   UNL A   1      31.950  26.655  24.179  1.00  0.00     0.002 A 
ATOM      9  C   UNL A   1      32.753  27.379  25.031  1.00  0.00     0.095 A 
ATOM     10  C   UNL A   1      30.845  27.493  23.824  1.00  0.00     0.007 A 
ATOM     11  C   UNL A   1      31.138  28.777  24.302  1.00  0.00     0.049 A 
ATOM     12  C   UNL A   1      29.645  27.313  23.099  1.00  0.00     0.011 A 
ATOM     13  C   UNL A   1      30.325  29.886  24.012  1.00  0.00     0.027 A 
ATOM     14  C   UNL A   1      28.843  28.414  22.788  1.00  0.00     0.001 A 
ATOM     15  C   UNL A   1      29.187  29.685  23.227  1.00  0.00     0.002 A 
BRANCH   8  16
ATOM     16  C   UNL A   1      32.272  25.311  23.795  1.00  0.00     0.035 C 
ATOM     17  C   UNL A   1      32.009  24.160  24.458  1.00  0.00     0.118 C 
BRANCH  17  18
ATOM     18  C   UNL A   1      31.074  24.306  25.648  1.00  0.00     0.105 C 
ATOM     19  N   UNL A   1      30.299  24.426  26.635  1.00  0.00    -0.192 NA
ENDBRANCH  17  18
BRANCH  17  20
ATOM     20  C   UNL A   1      32.361  22.816  23.914  1.00  0.00     0.265 C 
ATOM     21  O   UNL A   1      31.687  22.366  22.990  1.00  0.00    -0.268 OA
BRANCH  20  22
ATOM     22  N   UNL A   1      33.486  22.129  24.381  1.00  0.00    -0.322 N 
ATOM     23  C   UNL A   1      34.771  22.441  23.751  1.00  0.00     0.121 C 
ATOM     24  C   UNL A   1      33.546  21.057  25.409  1.00  0.00     0.189 C 
ATOM     25  C   UNL A   1      35.762  22.905  24.820  1.00  0.00     0.022 C 
ATOM     26  C   UNL A   1      34.560  21.449  26.509  1.00  0.00     0.041 C 
ATOM     27  C   UNL A   1      35.917  21.871  25.935  1.00  0.00     0.005 C 
BRANCH  24  28
ATOM     28  C   UNL A   1      33.916  19.737  24.844  1.00  0.00     0.087 C 
ATOM     29  N   UNL A   1      34.231  18.681  24.456  1.00  0.00    -0.196 NA
ENDBRANCH  24  28
ENDBRANCH  20  22
ENDBRANCH  17  20
ENDBRANCH   8  16
ENDBRANCH   6   7
ENDBRANCH   3   6
ENDBRANCH   1   2
BRANCH   1  30
ATOM     30  C   UNL A   1      35.466  32.074  27.742  1.00  0.00     0.023 C 
BRANCH  30  31
ATOM     31  C   UNL A   1      34.378  32.880  28.469  1.00  0.00     0.023 C 
BRANCH  31  32
ATOM     32  C   UNL A   1      34.896  33.782  29.591  1.00  0.00     0.116 C 
BRANCH  32  33
ATOM     33  N   UNL A   1      34.838  33.170  30.903  1.00  0.00    -0.352 N 
ATOM     34  C   UNL A   1      35.648  32.308  31.592  1.00  0.00     0.251 C 
ATOM     35  H   UNL A   1      34.037  33.432  31.412  1.00  0.00     0.163 HD
ATOM     36  O   UNL A   1      35.385  32.175  32.791  1.00  0.00    -0.269 OA
BRANCH  34  37
ATOM     37  C   UNL A   1      36.722  31.475  30.987  1.00  0.00     0.039 A 
ATOM     38  C   UNL A   1      36.678  30.091  30.844  1.00  0.00     0.014 A 
ATOM     39  C   UNL A   1      37.918  32.148  30.663  1.00  0.00     0.014 A 
ATOM     40  C   UNL A   1      37.837  29.386  30.550  1.00  0.00     0.010 A 
ATOM     41  C   UNL A   1      39.075  31.448  30.344  1.00  0.00     0.010 A 
ATOM     42  C   UNL A   1      39.048  30.062  30.369  1.00  0.00    -0.014 A 
BRANCH  42  43
ATOM     43  C   UNL A   1      40.234  29.249  30.126  1.00  0.00     0.031 A 
ATOM     44  C   UNL A   1      40.982  28.913  31.368  1.00  0.00     0.074 A 
ATOM     45  C   UNL A   1      40.626  28.819  28.909  1.00  0.00     0.049 A 
ATOM     46  N   UNL A   1      42.122  29.385  31.753  1.00  0.00    -0.248 NA
ATOM     47  C   UNL A   1      40.284  28.119  32.389  1.00  0.00     0.031 C 
ATOM     48  C   UNL A   1      39.892  28.843  27.642  1.00  0.00     0.029 A 
ATOM     49  N   UNL A   1      41.787  28.195  28.566  1.00  0.00    -0.354 N 
ATOM     50  C   UNL A   1      42.385  28.788  32.983  1.00  0.00     0.074 A 
ATOM     51  C   UNL A   1      41.155  28.164  33.398  1.00  0.00     0.031 C 
ATOM     52  C   UNL A   1      40.521  28.049  26.742  1.00  0.00     0.029 A 
ATOM     53  C   UNL A   1      41.780  27.601  27.310  1.00  0.00     0.049 A 
ATOM     54  H   UNL A   1      42.569  28.166  29.162  1.00  0.00     0.167 HD
ATOM     55  C   UNL A   1      43.655  28.684  33.470  1.00  0.00     0.034 A 
ATOM     56  C   UNL A   1      42.725  26.766  26.799  1.00  0.00     0.034 A 
ATOM     57  C   UNL A   1      44.551  29.572  32.781  1.00  0.00     0.049 A 
ATOM     58  C   UNL A   1      43.971  26.960  27.581  1.00  0.00     0.074 A 
ATOM     59  C   UNL A   1      44.662  30.945  32.674  1.00  0.00     0.029 A 
ATOM     60  N   UNL A   1      45.285  29.053  31.742  1.00  0.00    -0.354 N 
ATOM     61  N   UNL A   1      44.693  28.043  27.529  1.00  0.00    -0.248 NA
ATOM     62  C   UNL A   1      44.139  26.145  28.774  1.00  0.00     0.031 C 
ATOM     63  C   UNL A   1      45.039  31.178  31.321  1.00  0.00     0.029 A 
ATOM     64  C   UNL A   1      45.220  29.941  30.699  1.00  0.00     0.049 A 
ATOM     65  H   UNL A   1      45.772  28.197  31.746  1.00  0.00     0.167 HD
ATOM     66  C   UNL A   1      45.034  28.289  28.849  1.00  0.00     0.074 A 
ATOM     67  C   UNL A   1      44.726  27.049  29.562  1.00  0.00     0.031 C 
ATOM     68  C   UNL A   1      45.257  29.556  29.302  1.00  0.00     0.034 A 
BRANCH  55  69
ATOM     69  C   UNL A   1      44.133  27.536  34.326  1.00  0.00     0.023 A 
ATOM     70  C   UNL A   1      43.959  26.189  33.959  1.00  0.00     0.031 A 
ATOM     71  C   UNL A   1      44.983  27.768  35.427  1.00  0.00     0.131 A 
ATOM     72  C   UNL A   1      44.580  25.147  34.657  1.00  0.00     0.055 A 
ATOM     73  C   UNL A   1      45.662  26.731  36.082  1.00  0.00     0.041 A 
ATOM     74  F   UNL A   1      45.228  29.013  35.862  1.00  0.00    -0.206 F 
ATOM     75  C   UNL A   1      45.463  25.411  35.698  1.00  0.00     0.022 A 
BRANCH  72  76
ATOM     76  S   UNL A   1      44.255  23.421  34.204  1.00  0.00     0.124 S 
ATOM     77  O   UNL A   1      42.878  23.245  34.649  1.00  0.00    -0.237 OA
ATOM     78  O   UNL A   1      44.456  23.455  32.758  1.00  0.00    -0.237 OA
ATOM     79  O   UNL A   1      45.266  22.677  34.950  1.00  0.00    -0.744 OA
ENDBRANCH  72  76
ENDBRANCH  55  69
BRANCH  56  80
ATOM     80  C   UNL A   1      42.463  25.470  26.118  1.00  0.00     0.023 A 
ATOM     81  C   UNL A   1      41.380  24.677  26.537  1.00  0.00     0.031 A 
ATOM     82  C   UNL A   1      43.449  24.850  25.327  1.00  0.00     0.131 A 
ATOM     83  C   UNL A   1      41.338  23.310  26.231  1.00  0.00     0.055 A 
ATOM     84  C   UNL A   1      43.391  23.489  24.999  1.00  0.00     0.041 A 
ATOM     85  F   UNL A   1      44.533  25.535  24.930  1.00  0.00    -0.206 F 
ATOM     86  C   UNL A   1      42.339  22.707  25.467  1.00  0.00     0.022 A 
BRANCH  83  87
ATOM     87  S   UNL A   1      40.033  22.259  26.925  1.00  0.00     0.124 S 
ATOM     88  O   UNL A   1      39.736  21.360  25.812  1.00  0.00    -0.237 OA
ATOM     89  O   UNL A   1      40.717  21.648  28.060  1.00  0.00    -0.237 OA
ATOM     90  O   UNL A   1      38.971  23.205  27.255  1.00  0.00    -0.744 OA
ENDBRANCH  83  87
ENDBRANCH  56  80
BRANCH  68  91
ATOM     91  C   UNL A   1      45.330  30.690  28.301  1.00  0.00     0.023 A 
ATOM     92  C   UNL A   1      46.613  31.101  27.906  1.00  0.00     0.031 A 
ATOM     93  C   UNL A   1      44.242  31.502  27.922  1.00  0.00     0.131 A 
ATOM     94  C   UNL A   1      46.793  32.304  27.214  1.00  0.00     0.055 A 
ATOM     95  C   UNL A   1      44.419  32.668  27.166  1.00  0.00     0.041 A 
ATOM     96  F   UNL A   1      42.996  31.245  28.339  1.00  0.00    -0.206 F 
ATOM     97  C   UNL A   1      45.702  33.086  26.826  1.00  0.00     0.022 A 
BRANCH  94  98
ATOM     98  S   UNL A   1      48.464  32.954  26.958  1.00  0.00     0.124 S 
ATOM     99  O   UNL A   1      48.815  33.437  28.291  1.00  0.00    -0.237 OA
ATOM    100  O   UNL A   1      49.194  31.773  26.506  1.00  0.00    -0.237 OA
ATOM    101  O   UNL A   1      48.288  33.992  25.946  1.00  0.00    -0.744 OA
ENDBRANCH  94  98
ENDBRANCH  68  91
ENDBRANCH  42  43
ENDBRANCH  34  37
ENDBRANCH  32  33
ENDBRANCH  31  32
ENDBRANCH  30  31
ENDBRANCH   1  30
TORSDOF 20
ENDMDL
MODEL 2
REMARK VINA RESULT:     -10.7      5.189     10.764
REMARK SMILES N#C/C(=C\c1cn(CC(=O)NCCCCNC(=O)c2ccc(-c3c4nc(c(-c5cc(S(=O)(=O)[O-])ccc5F)c5ccc([nH]5)c(-c5cc(S(=O)(=O)[O-])ccc5F)c5nc(c(-c6cc(S(=O)(=O)[O-])ccc6F)c6ccc3[nH]6)C=C5)C=C4)cc2)c2ccccc12)C(=O)N1CCCC[C@@H]1C#N
REMARK SMILES IDX 12 1 11 2 9 3 10 4 8 6 7 7 5 8 6 9 87 10 82 11 86 12 83 13
REMARK SMILES IDX 85 14 84 15 4 16 3 17 2 18 1 19 88 20 89 21 90 22 91 23
REMARK SMILES IDX 95 24 92 25 94 26 93 27 96 28 97 29 13 30 14 31 15 32 16 33
REMARK SMILES IDX 17 34 18 36 19 37 20 38 81 39 21 40 80 41 22 42 23 43 24 44
REMARK SMILES IDX 74 45 25 46 79 47 73 48 75 49 26 50 78 51 72 52 71 53 27 55
REMARK SMILES IDX 59 56 39 57 58 58 40 59 43 60 57 61 76 62 41 63 42 64 56 66
REMARK SMILES IDX 77 67 44 68 28 69 29 70 37 71 30 72 36 73 38 74 35 75 31 76
REMARK SMILES IDX 32 77 33 78 34 79 60 80 61 81 69 82 62 83 68 84 70 85 67 86
REMARK SMILES IDX 63 87 64 88 65 89 66 90 45 91 46 92 54 93 47 94 53 95 55 96
REMARK SMILES IDX 52 97 48 98 49 99 50 100 51 101
REMARK H PARENT 11 5 16 35 75 54 43 65
REMARK Flexibility Score: inf
ROOT
ATOM      1  C   UNL A   1      38.217  23.915  26.269  1.00  0.00     0.116 C 
ENDROOT
BRANCH   1   2
ATOM      2  N   UNL A   1      38.273  22.691  25.492  1.00  0.00    -0.355 N 
ATOM      3  C   UNL A   1      37.348  21.693  25.386  1.00  0.00     0.239 C 
ATOM      4  O   UNL A   1      37.587  20.751  24.625  1.00  0.00    -0.273 OA
ATOM      5  H   UNL A   1      39.095  22.562  24.966  1.00  0.00     0.163 HD
BRANCH   3   6
ATOM      6  C   UNL A   1      36.019  21.788  26.108  1.00  0.00     0.222 C 
BRANCH   6   7
ATOM      7  N   UNL A   1      34.883  22.010  25.225  1.00  0.00    -0.337 N 
ATOM      8  C   UNL A   1      33.225  23.077  24.202  1.00  0.00     0.002 A 
ATOM      9  C   UNL A   1      34.417  23.252  24.869  1.00  0.00     0.095 A 
ATOM     10  C   UNL A   1      33.094  21.677  23.930  1.00  0.00     0.007 A 
ATOM     11  C   UNL A   1      34.112  21.028  24.640  1.00  0.00     0.049 A 
ATOM     12  C   UNL A   1      32.186  20.882  23.195  1.00  0.00     0.011 A 
ATOM     13  C   UNL A   1      34.198  19.626  24.707  1.00  0.00     0.027 A 
ATOM     14  C   UNL A   1      32.252  19.489  23.274  1.00  0.00     0.001 A 
ATOM     15  C   UNL A   1      33.237  18.871  24.031  1.00  0.00     0.002 A 
BRANCH   8  16
ATOM     16  C   UNL A   1      32.361  24.180  23.895  1.00  0.00     0.035 C 
ATOM     17  C   UNL A   1      31.311  24.651  24.608  1.00  0.00     0.118 C 
BRANCH  17  18
ATOM     18  C   UNL A   1      31.171  24.066  26.004  1.00  0.00     0.105 C 
ATOM     19  N   UNL A   1      31.054  23.580  27.162  1.00  0.00    -0.192 NA
ENDBRANCH  17  18
BRANCH  17  20
ATOM     20  C   UNL A   1      30.522  25.847  24.191  1.00  0.00     0.265 C 
ATOM     21  O   UNL A   1      29.349  25.684  23.861  1.00  0.00    -0.268 OA
BRANCH  20  22
ATOM     22  N   UNL A   1      31.076  27.129  24.261  1.00  0.00    -0.322 N 
ATOM     23  C   UNL A   1      31.552  27.581  25.570  1.00  0.00     0.121 C 
ATOM     24  C   UNL A   1      31.192  28.139  23.179  1.00  0.00     0.189 C 
ATOM     25  C   UNL A   1      33.031  27.957  25.471  1.00  0.00     0.022 C 
ATOM     26  C   UNL A   1      32.666  28.591  23.046  1.00  0.00     0.041 C 
ATOM     27  C   UNL A   1      33.277  29.008  24.388  1.00  0.00     0.005 C 
BRANCH  24  28
ATOM     28  C   UNL A   1      30.331  29.325  23.402  1.00  0.00     0.087 C 
ATOM     29  N   UNL A   1      29.609  30.235  23.536  1.00  0.00    -0.196 NA
ENDBRANCH  24  28
ENDBRANCH  20  22
ENDBRANCH  17  20
ENDBRANCH   8  16
ENDBRANCH   6   7
ENDBRANCH   3   6
ENDBRANCH   1   2
BRANCH   1  30
ATOM     30  C   UNL A   1      39.373  24.025  27.263  1.00  0.00     0.023 C 
BRANCH  30  31
ATOM     31  C   UNL A   1      40.760  24.154  26.613  1.00  0.00     0.023 C 
BRANCH  31  32
ATOM     32  C   UNL A   1      41.563  22.853  26.564  1.00  0.00     0.116 C 
BRANCH  32  33
ATOM     33  N   UNL A   1      42.235  22.632  25.300  1.00  0.00    -0.352 N 
ATOM     34  C   UNL A   1      43.439  23.018  24.777  1.00  0.00     0.251 C 
ATOM     35  H   UNL A   1      41.707  22.080  24.678  1.00  0.00     0.163 HD
ATOM     36  O   UNL A   1      43.774  22.449  23.734  1.00  0.00    -0.269 OA
BRANCH  34  37
ATOM     37  C   UNL A   1      44.292  24.114  25.312  1.00  0.00     0.039 A 
ATOM     38  C   UNL A   1      44.026  25.474  25.179  1.00  0.00     0.014 A 
ATOM     39  C   UNL A   1      45.523  23.720  25.877  1.00  0.00     0.014 A 
ATOM     40  C   UNL A   1      45.020  26.405  25.444  1.00  0.00     0.010 A 
ATOM     41  C   UNL A   1      46.513  24.651  26.166  1.00  0.00     0.010 A 
ATOM     42  C   UNL A   1      46.284  25.987  25.871  1.00  0.00    -0.014 A 
BRANCH  42  43
ATOM     43  C   UNL A   1      47.296  27.018  26.067  1.00  0.00     0.031 A 
ATOM     44  C   UNL A   1      48.324  27.047  24.992  1.00  0.00     0.074 A 
ATOM     45  C   UNL A   1      47.312  27.881  27.104  1.00  0.00     0.049 A 
ATOM     46  N   UNL A   1      49.558  26.670  25.071  1.00  0.00    -0.248 NA
ATOM     47  C   UNL A   1      47.870  27.335  23.624  1.00  0.00     0.031 C 
ATOM     48  C   UNL A   1      46.267  28.153  28.094  1.00  0.00     0.029 A 
ATOM     49  N   UNL A   1      48.287  28.766  27.453  1.00  0.00    -0.354 N 
ATOM     50  C   UNL A   1      50.098  26.865  23.802  1.00  0.00     0.074 A 
ATOM     51  C   UNL A   1      48.982  27.106  22.923  1.00  0.00     0.031 C 
ATOM     52  C   UNL A   1      46.568  29.290  28.766  1.00  0.00     0.029 A 
ATOM     53  C   UNL A   1      47.897  29.729  28.376  1.00  0.00     0.049 A 
ATOM     54  H   UNL A   1      49.197  28.726  27.080  1.00  0.00     0.167 HD
ATOM     55  C   UNL A   1      51.441  27.012  23.611  1.00  0.00     0.034 A 
ATOM     56  C   UNL A   1      48.603  30.829  28.752  1.00  0.00     0.034 A 
ATOM     57  C   UNL A   1      52.181  26.560  24.757  1.00  0.00     0.049 A 
ATOM     58  C   UNL A   1      50.024  30.598  28.396  1.00  0.00     0.074 A 
ATOM     59  C   UNL A   1      52.363  25.336  25.371  1.00  0.00     0.029 A 
ATOM     60  N   UNL A   1      52.567  27.505  25.678  1.00  0.00    -0.354 N 
ATOM     61  N   UNL A   1      50.786  29.727  28.995  1.00  0.00    -0.248 NA
ATOM     62  C   UNL A   1      50.446  30.993  27.060  1.00  0.00     0.031 C 
ATOM     63  C   UNL A   1      52.377  25.625  26.766  1.00  0.00     0.029 A 
ATOM     64  C   UNL A   1      52.289  27.009  26.925  1.00  0.00     0.049 A 
ATOM     65  H   UNL A   1      52.971  28.380  25.476  1.00  0.00     0.167 HD
ATOM     66  C   UNL A   1      51.487  29.122  27.965  1.00  0.00     0.074 A 
ATOM     67  C   UNL A   1      51.291  29.991  26.805  1.00  0.00     0.031 C 
ATOM     68  C   UNL A   1      51.919  27.831  28.061  1.00  0.00     0.034 A 
BRANCH  55  69
ATOM     69  C   UNL A   1      52.044  27.878  22.532  1.00  0.00     0.023 A 
ATOM     70  C   UNL A   1      52.076  29.283  22.613  1.00  0.00     0.031 A 
ATOM     71  C   UNL A   1      52.810  27.305  21.497  1.00  0.00     0.131 A 
ATOM     72  C   UNL A   1      52.812  30.058  21.709  1.00  0.00     0.055 A 
ATOM     73  C   UNL A   1      53.604  28.075  20.636  1.00  0.00     0.041 A 
ATOM     74  F   UNL A   1      52.860  25.975  21.328  1.00  0.00    -0.206 F 
ATOM     75  C   UNL A   1      53.609  29.460  20.739  1.00  0.00     0.022 A 
BRANCH  72  76
ATOM     76  S   UNL A   1      52.752  31.869  21.796  1.00  0.00     0.124 S 
ATOM     77  O   UNL A   1      51.813  32.089  22.889  1.00  0.00    -0.237 OA
ATOM     78  O   UNL A   1      54.147  32.194  22.083  1.00  0.00    -0.237 OA
ATOM     79  O   UNL A   1      52.288  32.259  20.468  1.00  0.00    -0.744 OA
ENDBRANCH  72  76
ENDBRANCH  55  69
BRANCH  56  80
ATOM     80  C   UNL A   1      48.070  32.214  28.844  1.00  0.00     0.023 A 
ATOM     81  C   UNL A   1      47.526  32.822  27.699  1.00  0.00     0.031 A 
ATOM     82  C   UNL A   1      48.410  33.056  29.921  1.00  0.00     0.131 A 
ATOM     83  C   UNL A   1      47.400  34.215  27.623  1.00  0.00     0.055 A 
ATOM     84  C   UNL A   1      48.258  34.447  29.854  1.00  0.00     0.041 A 
ATOM     85  F   UNL A   1      48.976  32.549  31.027  1.00  0.00    -0.206 F 
ATOM     86  C   UNL A   1      47.766  35.035  28.692  1.00  0.00     0.022 A 
BRANCH  83  87
ATOM     87  S   UNL A   1      46.866  35.001  26.077  1.00  0.00     0.124 S 
ATOM     88  O   UNL A   1      48.137  35.243  25.399  1.00  0.00    -0.237 OA
ATOM     89  O   UNL A   1      46.028  33.961  25.491  1.00  0.00    -0.237 OA
ATOM     90  O   UNL A   1      46.168  36.202  26.528  1.00  0.00    -0.744 OA
ENDBRANCH  83  87
ENDBRANCH  56  80
BRANCH  68  91
ATOM     91  C   UNL A   1      51.804  27.116  29.390  1.00  0.00     0.023 A 
ATOM     92  C   UNL A   1      52.989  26.959  30.127  1.00  0.00     0.031 A 
ATOM     93  C   UNL A   1      50.669  26.407  29.829  1.00  0.00     0.131 A 
ATOM     94  C   UNL A   1      53.040  26.081  31.215  1.00  0.00     0.055 A 
ATOM     95  C   UNL A   1      50.702  25.586  30.964  1.00  0.00     0.041 A 
ATOM     96  F   UNL A   1      49.524  26.415  29.134  1.00  0.00    -0.206 F 
ATOM     97  C   UNL A   1      51.899  25.403  31.651  1.00  0.00     0.022 A 
BRANCH  94  98
ATOM     98  S   UNL A   1      54.634  25.680  31.976  1.00  0.00     0.124 S 
ATOM     99  O   UNL A   1      55.055  26.971  32.511  1.00  0.00    -0.237 OA
ATOM    100  O   UNL A   1      54.261  24.679  32.973  1.00  0.00    -0.237 OA
ATOM    101  O   UNL A   1      55.437  25.173  30.867  1.00  0.00    -0.744 OA
ENDBRANCH  94  98
ENDBRANCH  68  91
ENDBRANCH  42  43
ENDBRANCH  34  37
ENDBRANCH  32  33
ENDBRANCH  31  32
ENDBRANCH  30  31
ENDBRANCH   1  30
TORSDOF 20
ENDMDL
MODEL 3
REMARK VINA RESULT:     -10.5      2.497      3.541
REMARK SMILES N#C/C(=C\c1cn(CC(=O)NCCCCNC(=O)c2ccc(-c3c4nc(c(-c5cc(S(=O)(=O)[O-])ccc5F)c5ccc([nH]5)c(-c5cc(S(=O)(=O)[O-])ccc5F)c5nc(c(-c6cc(S(=O)(=O)[O-])ccc6F)c6ccc3[nH]6)C=C5)C=C4)cc2)c2ccccc12)C(=O)N1CCCC[C@@H]1C#N
REMARK SMILES IDX 12 1 11 2 9 3 10 4 8 6 7 7 5 8 6 9 87 10 82 11 86 12 83 13
REMARK SMILES IDX 85 14 84 15 4 16 3 17 2 18 1 19 88 20 89 21 90 22 91 23
REMARK SMILES IDX 95 24 92 25 94 26 93 27 96 28 97 29 13 30 14 31 15 32 16 33
REMARK SMILES IDX 17 34 18 36 19 37 20 38 81 39 21 40 80 41 22 42 23 43 24 44
REMARK SMILES IDX 74 45 25 46 79 47 73 48 75 49 26 50 78 51 72 52 71 53 27 55
REMARK SMILES IDX 59 56 39 57 58 58 40 59 43 60 57 61 76 62 41 63 42 64 56 66
REMARK SMILES IDX 77 67 44 68 28 69 29 70 37 71 30 72 36 73 38 74 35 75 31 76
REMARK SMILES IDX 32 77 33 78 34 79 60 80 61 81 69 82 62 83 68 84 70 85 67 86
REMARK SMILES IDX 63 87 64 88 65 89 66 90 45 91 46 92 54 93 47 94 53 95 55 96
REMARK SMILES IDX 52 97 48 98 49 99 50 100 51 101
REMARK H PARENT 11 5 16 35 75 54 43 65
REMARK Flexibility Score: inf
ROOT
ATOM      1  C   UNL A   1      35.155  32.076  31.484  1.00  0.00     0.116 C 
ENDROOT
BRANCH   1   2
ATOM      2  N   UNL A   1      35.882  30.843  31.253  1.00  0.00    -0.355 N 
ATOM      3  C   UNL A   1      36.339  30.315  30.080  1.00  0.00     0.239 C 
ATOM      4  O   UNL A   1      36.979  29.261  30.122  1.00  0.00    -0.273 OA
ATOM      5  H   UNL A   1      36.074  30.309  32.059  1.00  0.00     0.163 HD
BRANCH   3   6
ATOM      6  C   UNL A   1      36.152  31.057  28.772  1.00  0.00     0.222 C 
BRANCH   6   7
ATOM      7  N   UNL A   1      35.088  30.519  27.937  1.00  0.00    -0.337 N 
ATOM      8  C   UNL A   1      34.051  29.177  26.503  1.00  0.00     0.002 A 
ATOM      9  C   UNL A   1      35.104  29.261  27.385  1.00  0.00     0.095 A 
ATOM     10  C   UNL A   1      33.228  30.329  26.715  1.00  0.00     0.007 A 
ATOM     11  C   UNL A   1      33.937  31.184  27.569  1.00  0.00     0.049 A 
ATOM     12  C   UNL A   1      31.974  30.766  26.231  1.00  0.00     0.011 A 
ATOM     13  C   UNL A   1      33.478  32.475  27.882  1.00  0.00     0.027 A 
ATOM     14  C   UNL A   1      31.522  32.056  26.520  1.00  0.00     0.001 A 
ATOM     15  C   UNL A   1      32.272  32.902  27.323  1.00  0.00     0.002 A 
BRANCH   8  16
ATOM     16  C   UNL A   1      33.915  28.080  25.589  1.00  0.00     0.035 C 
ATOM     17  C   UNL A   1      33.053  27.037  25.648  1.00  0.00     0.118 C 
BRANCH  17  18
ATOM     18  C   UNL A   1      31.962  27.166  26.698  1.00  0.00     0.105 C 
ATOM     19  N   UNL A   1      31.057  27.273  27.570  1.00  0.00    -0.192 NA
ENDBRANCH  17  18
BRANCH  17  20
ATOM     20  C   UNL A   1      32.988  25.983  24.594  1.00  0.00     0.265 C 
ATOM     21  O   UNL A   1      32.583  26.299  23.477  1.00  0.00    -0.268 OA
BRANCH  20  22
ATOM     22  N   UNL A   1      33.463  24.691  24.844  1.00  0.00    -0.322 N 
ATOM     23  C   UNL A   1      34.828  24.384  24.412  1.00  0.00     0.121 C 
ATOM     24  C   UNL A   1      32.733  23.546  25.446  1.00  0.00     0.189 C 
ATOM     25  C   UNL A   1      35.649  23.918  25.615  1.00  0.00     0.022 C 
ATOM     26  C   UNL A   1      33.529  23.000  26.655  1.00  0.00     0.041 C 
ATOM     27  C   UNL A   1      34.999  22.725  26.316  1.00  0.00     0.005 C 
BRANCH  24  28
ATOM     28  C   UNL A   1      32.487  22.447  24.481  1.00  0.00     0.087 C 
ATOM     29  N   UNL A   1      32.352  21.592  23.696  1.00  0.00    -0.196 NA
ENDBRANCH  24  28
ENDBRANCH  20  22
ENDBRANCH  17  20
ENDBRANCH   8  16
ENDBRANCH   6   7
ENDBRANCH   3   6
ENDBRANCH   1   2
BRANCH   1  30
ATOM     30  C   UNL A   1      36.081  33.237  31.847  1.00  0.00     0.023 C 
BRANCH  30  31
ATOM     31  C   UNL A   1      36.863  33.040  33.155  1.00  0.00     0.023 C 
BRANCH  31  32
ATOM     32  C   UNL A   1      38.376  33.225  33.026  1.00  0.00     0.116 C 
BRANCH  32  33
ATOM     33  N   UNL A   1      38.762  34.164  31.992  1.00  0.00    -0.352 N 
ATOM     34  C   UNL A   1      39.377  34.046  30.776  1.00  0.00     0.251 C 
ATOM     35  H   UNL A   1      38.528  35.094  32.215  1.00  0.00     0.163 HD
ATOM     36  O   UNL A   1      39.342  35.052  30.062  1.00  0.00    -0.269 OA
BRANCH  34  37
ATOM     37  C   UNL A   1      40.147  32.858  30.318  1.00  0.00     0.039 A 
ATOM     38  C   UNL A   1      39.592  31.631  29.962  1.00  0.00     0.014 A 
ATOM     39  C   UNL A   1      41.551  32.967  30.383  1.00  0.00     0.014 A 
ATOM     40  C   UNL A   1      40.402  30.511  29.841  1.00  0.00     0.010 A 
ATOM     41  C   UNL A   1      42.369  31.853  30.240  1.00  0.00     0.010 A 
ATOM     42  C   UNL A   1      41.781  30.611  30.049  1.00  0.00    -0.014 A 
BRANCH  42  43
ATOM     43  C   UNL A   1      42.557  29.380  29.967  1.00  0.00     0.031 A 
ATOM     44  C   UNL A   1      42.926  28.827  31.298  1.00  0.00     0.074 A 
ATOM     45  C   UNL A   1      42.906  28.775  28.813  1.00  0.00     0.049 A 
ATOM     46  N   UNL A   1      44.094  28.816  31.851  1.00  0.00    -0.248 NA
ATOM     47  C   UNL A   1      41.832  28.428  32.196  1.00  0.00     0.031 C 
ATOM     48  C   UNL A   1      42.428  29.036  27.453  1.00  0.00     0.029 A 
ATOM     49  N   UNL A   1      43.750  27.721  28.632  1.00  0.00    -0.354 N 
ATOM     50  C   UNL A   1      43.920  28.219  33.098  1.00  0.00     0.074 A 
ATOM     51  C   UNL A   1      42.498  28.163  33.321  1.00  0.00     0.031 C 
ATOM     52  C   UNL A   1      42.800  28.017  26.641  1.00  0.00     0.029 A 
ATOM     53  C   UNL A   1      43.678  27.125  27.378  1.00  0.00     0.049 A 
ATOM     54  H   UNL A   1      44.364  27.407  29.334  1.00  0.00     0.167 HD
ATOM     55  C   UNL A   1      44.959  27.635  33.762  1.00  0.00     0.034 A 
ATOM     56  C   UNL A   1      44.264  25.959  26.997  1.00  0.00     0.034 A 
ATOM     57  C   UNL A   1      46.223  28.055  33.222  1.00  0.00     0.049 A 
ATOM     58  C   UNL A   1      45.361  25.669  27.954  1.00  0.00     0.074 A 
ATOM     59  C   UNL A   1      46.894  29.260  33.154  1.00  0.00     0.029 A 
ATOM     60  N   UNL A   1      46.821  27.238  32.292  1.00  0.00    -0.354 N 
ATOM     61  N   UNL A   1      46.460  26.366  28.023  1.00  0.00    -0.248 NA
ATOM     62  C   UNL A   1      45.017  24.909  29.146  1.00  0.00     0.031 C 
ATOM     63  C   UNL A   1      47.517  29.262  31.874  1.00  0.00     0.029 A 
ATOM     64  C   UNL A   1      47.265  28.030  31.266  1.00  0.00     0.049 A 
ATOM     65  H   UNL A   1      46.913  26.260  32.354  1.00  0.00     0.167 HD
ATOM     66  C   UNL A   1      46.684  26.512  29.383  1.00  0.00     0.074 A 
ATOM     67  C   UNL A   1      45.806  25.535  30.025  1.00  0.00     0.031 C 
ATOM     68  C   UNL A   1      47.336  27.602  29.883  1.00  0.00     0.034 A 
BRANCH  55  69
ATOM     69  C   UNL A   1      44.807  26.431  34.659  1.00  0.00     0.023 A 
ATOM     70  C   UNL A   1      44.972  26.496  36.056  1.00  0.00     0.031 A 
ATOM     71  C   UNL A   1      44.266  25.228  34.161  1.00  0.00     0.131 A 
ATOM     72  C   UNL A   1      44.633  25.425  36.890  1.00  0.00     0.055 A 
ATOM     73  C   UNL A   1      43.861  24.182  35.001  1.00  0.00     0.041 A 
ATOM     74  F   UNL A   1      44.059  25.055  32.847  1.00  0.00    -0.206 F 
ATOM     75  C   UNL A   1      44.042  24.277  36.375  1.00  0.00     0.022 A 
BRANCH  72  76
ATOM     76  S   UNL A   1      44.947  25.521  38.674  1.00  0.00     0.124 S 
ATOM     77  O   UNL A   1      44.924  24.116  39.062  1.00  0.00    -0.237 OA
ATOM     78  O   UNL A   1      46.256  26.167  38.707  1.00  0.00    -0.237 OA
ATOM     79  O   UNL A   1      43.843  26.337  39.171  1.00  0.00    -0.744 OA
ENDBRANCH  72  76
ENDBRANCH  55  69
BRANCH  56  80
ATOM     80  C   UNL A   1      43.597  24.849  26.265  1.00  0.00     0.023 A 
ATOM     81  C   UNL A   1      42.344  24.388  26.705  1.00  0.00     0.031 A 
ATOM     82  C   UNL A   1      44.318  24.019  25.386  1.00  0.00     0.131 A 
ATOM     83  C   UNL A   1      41.880  23.120  26.330  1.00  0.00     0.055 A 
ATOM     84  C   UNL A   1      43.840  22.762  24.990  1.00  0.00     0.041 A 
ATOM     85  F   UNL A   1      45.541  24.375  24.962  1.00  0.00    -0.206 F 
ATOM     86  C   UNL A   1      42.622  22.299  25.478  1.00  0.00     0.022 A 
BRANCH  83  87
ATOM     87  S   UNL A   1      40.348  22.460  27.044  1.00  0.00     0.124 S 
ATOM     88  O   UNL A   1      39.738  23.655  27.623  1.00  0.00    -0.237 OA
ATOM     89  O   UNL A   1      39.680  21.921  25.865  1.00  0.00    -0.237 OA
ATOM     90  O   UNL A   1      40.819  21.476  28.015  1.00  0.00    -0.744 OA
ENDBRANCH  83  87
ENDBRANCH  56  80
BRANCH  68  91
ATOM     91  C   UNL A   1      48.000  28.564  28.921  1.00  0.00     0.023 A 
ATOM     92  C   UNL A   1      47.215  29.631  28.453  1.00  0.00     0.031 A 
ATOM     93  C   UNL A   1      49.241  28.347  28.291  1.00  0.00     0.131 A 
ATOM     94  C   UNL A   1      47.637  30.401  27.364  1.00  0.00     0.055 A 
ATOM     95  C   UNL A   1      49.695  29.166  27.248  1.00  0.00     0.041 A 
ATOM     96  F   UNL A   1      50.010  27.295  28.600  1.00  0.00    -0.206 F 
ATOM     97  C   UNL A   1      48.881  30.186  26.766  1.00  0.00     0.022 A 
BRANCH  94  98
ATOM     98  S   UNL A   1      46.497  31.583  26.601  1.00  0.00     0.124 S 
ATOM     99  O   UNL A   1      47.399  32.646  26.167  1.00  0.00    -0.237 OA
ATOM    100  O   UNL A   1      45.898  30.792  25.528  1.00  0.00    -0.237 OA
ATOM    101  O   UNL A   1      45.584  31.942  27.682  1.00  0.00    -0.744 OA
ENDBRANCH  94  98
ENDBRANCH  68  91
ENDBRANCH  42  43
ENDBRANCH  34  37
ENDBRANCH  32  33
ENDBRANCH  31  32
ENDBRANCH  30  31
ENDBRANCH   1  30
TORSDOF 20
ENDMDL
