MODEL 1
REMARK VINA RESULT:     -11.1      0.000      0.000
REMARK SMILES C[C@@]1(C(=O)N[C@@H](CO)C(=O)NCCCCNC(=O)c2ccc(-c3c4nc(c(-c5cc(S(=O)(=O)[O-])ccc5F)c5ccc([nH]5)c(-c5cc(S(=O)(=O)[O-])ccc5F)c5nc(c(-c6cc(S(=O)(=O)[O-])ccc6F)c6ccc3[nH]6)C=C5)C=C4)cc2)CCCO1
REMARK SMILES IDX 14 1 13 2 12 3 11 4 9 5 10 6 6 8 5 9 3 10 4 11 2 13 1 14
REMARK SMILES IDX 82 15 85 16 83 17 84 18 7 19 8 20 15 22 16 23 17 24 18 26
REMARK SMILES IDX 19 27 20 28 81 29 21 30 80 31 22 32 23 33 24 34 74 35 25 36
REMARK SMILES IDX 79 37 73 38 75 39 26 40 78 41 72 42 71 43 27 45 59 46 39 47
REMARK SMILES IDX 58 48 40 49 43 50 57 51 76 52 41 53 42 54 56 56 77 57 44 58
REMARK SMILES IDX 28 59 29 60 37 61 30 62 36 63 38 64 35 65 31 66 32 67 33 68
REMARK SMILES IDX 34 69 60 70 61 71 69 72 62 73 68 74 70 75 67 76 63 77 64 78
REMARK SMILES IDX 65 79 66 80 45 81 46 82 54 83 47 84 53 85 55 86 52 87 48 88
REMARK SMILES IDX 49 89 50 90 51 91
REMARK H PARENT 11 7 5 12 8 21 16 25 75 44 43 55
REMARK Flexibility Score: inf
ROOT
ATOM      1  C   UNL A   1      35.930  21.375  25.536  1.00  0.00     0.023 C 
ENDROOT
BRANCH   1   2
ATOM      2  C   UNL A   1      35.158  22.637  25.914  1.00  0.00     0.023 C 
BRANCH   2   3
ATOM      3  C   UNL A   1      33.674  22.425  26.188  1.00  0.00     0.116 C 
BRANCH   3   4
ATOM      4  N   UNL A   1      32.888  22.392  24.973  1.00  0.00    -0.354 N 
ATOM      5  C   UNL A   1      31.787  23.108  24.619  1.00  0.00     0.244 C 
ATOM      6  O   UNL A   1      31.404  23.025  23.446  1.00  0.00    -0.273 OA
ATOM      7  H   UNL A   1      33.199  21.749  24.295  1.00  0.00     0.163 HD
BRANCH   5   8
ATOM      8  C   UNL A   1      31.046  24.031  25.603  1.00  0.00     0.197 C 
BRANCH   8   9
ATOM      9  N   UNL A   1      30.199  25.000  24.910  1.00  0.00    -0.340 N 
ATOM     10  C   UNL A   1      30.426  26.318  24.645  1.00  0.00     0.252 C 
ATOM     11  O   UNL A   1      29.661  26.854  23.836  1.00  0.00    -0.272 OA
ATOM     12  H   UNL A   1      29.336  24.650  24.590  1.00  0.00     0.164 HD
BRANCH  10  13
ATOM     13  C   UNL A   1      31.585  27.100  25.325  1.00  0.00     0.143 C 
ATOM     14  C   UNL A   1      32.920  26.605  24.746  1.00  0.00     0.053 C 
ATOM     15  C   UNL A   1      31.593  26.955  26.850  1.00  0.00     0.048 C 
ATOM     16  O   UNL A   1      31.485  28.506  25.033  1.00  0.00    -0.365 OA
ATOM     17  C   UNL A   1      31.599  28.368  27.393  1.00  0.00     0.032 C 
ATOM     18  C   UNL A   1      31.879  29.242  26.194  1.00  0.00     0.162 C 
ENDBRANCH  10  13
ENDBRANCH   8   9
BRANCH   8  19
ATOM     19  C   UNL A   1      30.363  23.282  26.754  1.00  0.00     0.191 C 
BRANCH  19  20
ATOM     20  O   UNL A   1      29.829  22.014  26.390  1.00  0.00    -0.394 OA
ATOM     21  H   UNL A   1      30.523  21.341  26.452  1.00  0.00     0.210 HD
ENDBRANCH  19  20
ENDBRANCH   8  19
ENDBRANCH   5   8
ENDBRANCH   3   4
ENDBRANCH   2   3
ENDBRANCH   1   2
BRANCH   1  22
ATOM     22  C   UNL A   1      37.329  21.611  24.977  1.00  0.00     0.116 C 
BRANCH  22  23
ATOM     23  N   UNL A   1      38.297  20.611  25.408  1.00  0.00    -0.352 N 
ATOM     24  C   UNL A   1      39.457  20.779  26.124  1.00  0.00     0.251 C 
ATOM     25  H   UNL A   1      38.089  19.684  25.149  1.00  0.00     0.163 HD
ATOM     26  O   UNL A   1      40.213  19.829  26.304  1.00  0.00    -0.269 OA
BRANCH  24  27
ATOM     27  C   UNL A   1      39.800  22.121  26.632  1.00  0.00     0.039 A 
ATOM     28  C   UNL A   1      40.836  22.244  27.560  1.00  0.00     0.014 A 
ATOM     29  C   UNL A   1      39.152  23.254  26.134  1.00  0.00     0.014 A 
ATOM     30  C   UNL A   1      41.288  23.515  27.916  1.00  0.00     0.010 A 
ATOM     31  C   UNL A   1      39.652  24.516  26.433  1.00  0.00     0.010 A 
ATOM     32  C   UNL A   1      40.737  24.658  27.313  1.00  0.00    -0.014 A 
BRANCH  32  33
ATOM     33  C   UNL A   1      41.308  26.007  27.555  1.00  0.00     0.031 A 
ATOM     34  C   UNL A   1      42.670  26.356  27.025  1.00  0.00     0.074 A 
ATOM     35  C   UNL A   1      40.629  26.883  28.322  1.00  0.00     0.049 A 
ATOM     36  N   UNL A   1      43.373  27.444  27.206  1.00  0.00    -0.248 NA
ATOM     37  C   UNL A   1      43.339  25.333  26.209  1.00  0.00     0.031 C 
ATOM     38  C   UNL A   1      39.319  26.638  28.930  1.00  0.00     0.029 A 
ATOM     39  N   UNL A   1      40.949  28.153  28.733  1.00  0.00    -0.354 N 
ATOM     40  C   UNL A   1      44.573  27.234  26.536  1.00  0.00     0.074 A 
ATOM     41  C   UNL A   1      44.522  25.891  25.997  1.00  0.00     0.031 C 
ATOM     42  C   UNL A   1      38.939  27.727  29.616  1.00  0.00     0.029 A 
ATOM     43  C   UNL A   1      39.995  28.731  29.539  1.00  0.00     0.049 A 
ATOM     44  H   UNL A   1      41.783  28.609  28.475  1.00  0.00     0.167 HD
ATOM     45  C   UNL A   1      45.610  28.092  26.367  1.00  0.00     0.034 A 
ATOM     46  C   UNL A   1      39.979  29.927  30.160  1.00  0.00     0.034 A 
ATOM     47  C   UNL A   1      45.638  29.431  26.905  1.00  0.00     0.049 A 
ATOM     48  C   UNL A   1      41.158  30.850  29.984  1.00  0.00     0.074 A 
ATOM     49  C   UNL A   1      46.605  30.406  26.741  1.00  0.00     0.029 A 
ATOM     50  N   UNL A   1      44.658  29.979  27.724  1.00  0.00    -0.354 N 
ATOM     51  N   UNL A   1      42.261  30.660  29.298  1.00  0.00    -0.248 NA
ATOM     52  C   UNL A   1      41.087  32.150  30.664  1.00  0.00     0.031 C 
ATOM     53  C   UNL A   1      46.246  31.517  27.513  1.00  0.00     0.029 A 
ATOM     54  C   UNL A   1      45.017  31.264  28.103  1.00  0.00     0.049 A 
ATOM     55  H   UNL A   1      43.830  29.522  27.996  1.00  0.00     0.167 HD
ATOM     56  C   UNL A   1      43.006  31.826  29.446  1.00  0.00     0.074 A 
ATOM     57  C   UNL A   1      42.216  32.719  30.270  1.00  0.00     0.031 C 
ATOM     58  C   UNL A   1      44.229  32.134  28.945  1.00  0.00     0.034 A 
BRANCH  45  59
ATOM     59  C   UNL A   1      46.802  27.592  25.587  1.00  0.00     0.023 A 
ATOM     60  C   UNL A   1      47.051  28.015  24.270  1.00  0.00     0.031 A 
ATOM     61  C   UNL A   1      47.686  26.659  26.156  1.00  0.00     0.131 A 
ATOM     62  C   UNL A   1      48.109  27.450  23.539  1.00  0.00     0.055 A 
ATOM     63  C   UNL A   1      48.785  26.162  25.453  1.00  0.00     0.041 A 
ATOM     64  F   UNL A   1      47.489  26.202  27.403  1.00  0.00    -0.206 F 
ATOM     65  C   UNL A   1      48.993  26.545  24.131  1.00  0.00     0.022 A 
BRANCH  62  66
ATOM     66  S   UNL A   1      48.224  27.810  21.766  1.00  0.00     0.124 S 
ATOM     67  O   UNL A   1      48.511  26.487  21.215  1.00  0.00    -0.237 OA
ATOM     68  O   UNL A   1      46.905  28.353  21.467  1.00  0.00    -0.237 OA
ATOM     69  O   UNL A   1      49.327  28.764  21.681  1.00  0.00    -0.744 OA
ENDBRANCH  62  66
ENDBRANCH  45  59
BRANCH  46  70
ATOM     70  C   UNL A   1      38.825  30.319  31.018  1.00  0.00     0.023 A 
ATOM     71  C   UNL A   1      37.726  31.007  30.480  1.00  0.00     0.031 A 
ATOM     72  C   UNL A   1      38.823  30.047  32.398  1.00  0.00     0.131 A 
ATOM     73  C   UNL A   1      36.690  31.438  31.322  1.00  0.00     0.055 A 
ATOM     74  C   UNL A   1      37.766  30.435  33.223  1.00  0.00     0.041 A 
ATOM     75  F   UNL A   1      39.847  29.388  32.963  1.00  0.00    -0.206 F 
ATOM     76  C   UNL A   1      36.696  31.145  32.688  1.00  0.00     0.022 A 
BRANCH  73  77
ATOM     77  S   UNL A   1      35.368  32.460  30.618  1.00  0.00     0.124 S 
ATOM     78  O   UNL A   1      34.336  32.360  31.645  1.00  0.00    -0.237 OA
ATOM     79  O   UNL A   1      36.023  33.757  30.492  1.00  0.00    -0.237 OA
ATOM     80  O   UNL A   1      35.058  31.795  29.354  1.00  0.00    -0.744 OA
ENDBRANCH  73  77
ENDBRANCH  46  70
BRANCH  58  81
ATOM     81  C   UNL A   1      44.768  33.507  29.259  1.00  0.00     0.023 A 
ATOM     82  C   UNL A   1      44.494  34.612  28.434  1.00  0.00     0.031 A 
ATOM     83  C   UNL A   1      45.580  33.708  30.389  1.00  0.00     0.131 A 
ATOM     84  C   UNL A   1      45.071  35.858  28.721  1.00  0.00     0.055 A 
ATOM     85  C   UNL A   1      46.104  34.962  30.702  1.00  0.00     0.041 A 
ATOM     86  F   UNL A   1      45.877  32.686  31.208  1.00  0.00    -0.206 F 
ATOM     87  C   UNL A   1      45.860  36.044  29.860  1.00  0.00     0.022 A 
BRANCH  84  88
ATOM     88  S   UNL A   1      44.844  37.216  27.541  1.00  0.00     0.124 S 
ATOM     89  O   UNL A   1      43.510  36.939  27.015  1.00  0.00    -0.237 OA
ATOM     90  O   UNL A   1      44.961  38.394  28.392  1.00  0.00    -0.237 OA
ATOM     91  O   UNL A   1      45.936  37.028  26.588  1.00  0.00    -0.744 OA
ENDBRANCH  84  88
ENDBRANCH  58  81
ENDBRANCH  32  33
ENDBRANCH  24  27
ENDBRANCH  22  23
ENDBRANCH   1  22
TORSDOF 18
ENDMDL
MODEL 2
REMARK VINA RESULT:     -11.1      1.043      7.776
REMARK SMILES C[C@@]1(C(=O)N[C@@H](CO)C(=O)NCCCCNC(=O)c2ccc(-c3c4nc(c(-c5cc(S(=O)(=O)[O-])ccc5F)c5ccc([nH]5)c(-c5cc(S(=O)(=O)[O-])ccc5F)c5nc(c(-c6cc(S(=O)(=O)[O-])ccc6F)c6ccc3[nH]6)C=C5)C=C4)cc2)CCCO1
REMARK SMILES IDX 14 1 13 2 12 3 11 4 9 5 10 6 6 8 5 9 3 10 4 11 2 13 1 14
REMARK SMILES IDX 82 15 85 16 83 17 84 18 7 19 8 20 15 22 16 23 17 24 18 26
REMARK SMILES IDX 19 27 20 28 81 29 21 30 80 31 22 32 23 33 24 34 74 35 25 36
REMARK SMILES IDX 79 37 73 38 75 39 26 40 78 41 72 42 71 43 27 45 59 46 39 47
REMARK SMILES IDX 58 48 40 49 43 50 57 51 76 52 41 53 42 54 56 56 77 57 44 58
REMARK SMILES IDX 28 59 29 60 37 61 30 62 36 63 38 64 35 65 31 66 32 67 33 68
REMARK SMILES IDX 34 69 60 70 61 71 69 72 62 73 68 74 70 75 67 76 63 77 64 78
REMARK SMILES IDX 65 79 66 80 45 81 46 82 54 83 47 84 53 85 55 86 52 87 48 88
REMARK SMILES IDX 49 89 50 90 51 91
REMARK H PARENT 11 7 5 12 8 21 16 25 75 44 43 55
REMARK Flexibility Score: inf
ROOT
ATOM      1  C   UNL A   1      35.711  21.376  25.785  1.00  0.00     0.023 C 
ENDROOT
BRANCH   1   2
ATOM      2  C   UNL A   1      35.022  22.477  26.587  1.00  0.00     0.023 C 
BRANCH   2   3
ATOM      3  C   UNL A   1      33.629  22.853  26.097  1.00  0.00     0.116 C 
BRANCH   3   4
ATOM      4  N   UNL A   1      33.231  22.096  24.930  1.00  0.00    -0.354 N 
ATOM      5  C   UNL A   1      32.619  22.501  23.785  1.00  0.00     0.244 C 
ATOM      6  O   UNL A   1      32.550  21.689  22.856  1.00  0.00    -0.273 OA
ATOM      7  H   UNL A   1      33.437  21.133  24.970  1.00  0.00     0.163 HD
BRANCH   5   8
ATOM      8  C   UNL A   1      32.061  23.924  23.603  1.00  0.00     0.197 C 
BRANCH   8   9
ATOM      9  N   UNL A   1      32.317  24.443  22.261  1.00  0.00    -0.340 N 
ATOM     10  C   UNL A   1      32.853  25.638  21.880  1.00  0.00     0.252 C 
ATOM     11  O   UNL A   1      33.186  25.736  20.694  1.00  0.00    -0.272 OA
ATOM     12  H   UNL A   1      32.063  23.842  21.523  1.00  0.00     0.164 HD
BRANCH  10  13
ATOM     13  C   UNL A   1      33.033  26.809  22.885  1.00  0.00     0.143 C 
ATOM     14  C   UNL A   1      33.729  27.975  22.165  1.00  0.00     0.053 C 
ATOM     15  C   UNL A   1      33.835  26.414  24.130  1.00  0.00     0.048 C 
ATOM     16  O   UNL A   1      31.754  27.287  23.339  1.00  0.00    -0.365 OA
ATOM     17  C   UNL A   1      32.969  26.798  25.310  1.00  0.00     0.032 C 
ATOM     18  C   UNL A   1      31.861  27.639  24.721  1.00  0.00     0.162 C 
ENDBRANCH  10  13
ENDBRANCH   8   9
BRANCH   8  19
ATOM     19  C   UNL A   1      30.618  24.087  24.094  1.00  0.00     0.191 C 
BRANCH  19  20
ATOM     20  O   UNL A   1      29.794  24.869  23.237  1.00  0.00    -0.394 OA
ATOM     21  H   UNL A   1      30.210  24.939  22.364  1.00  0.00     0.210 HD
ENDBRANCH  19  20
ENDBRANCH   8  19
ENDBRANCH   5   8
ENDBRANCH   3   4
ENDBRANCH   2   3
ENDBRANCH   1   2
BRANCH   1  22
ATOM     22  C   UNL A   1      37.091  21.733  25.242  1.00  0.00     0.116 C 
BRANCH  22  23
ATOM     23  N   UNL A   1      38.085  20.693  25.471  1.00  0.00    -0.352 N 
ATOM     24  C   UNL A   1      39.326  20.792  26.053  1.00  0.00     0.251 C 
ATOM     25  H   UNL A   1      37.832  19.792  25.166  1.00  0.00     0.163 HD
ATOM     26  O   UNL A   1      40.082  19.825  26.062  1.00  0.00    -0.269 OA
BRANCH  24  27
ATOM     27  C   UNL A   1      39.752  22.085  26.622  1.00  0.00     0.039 A 
ATOM     28  C   UNL A   1      40.766  22.097  27.582  1.00  0.00     0.014 A 
ATOM     29  C   UNL A   1      39.204  23.281  26.151  1.00  0.00     0.014 A 
ATOM     30  C   UNL A   1      41.299  23.316  27.999  1.00  0.00     0.010 A 
ATOM     31  C   UNL A   1      39.786  24.490  26.513  1.00  0.00     0.010 A 
ATOM     32  C   UNL A   1      40.851  24.518  27.426  1.00  0.00    -0.014 A 
BRANCH  32  33
ATOM     33  C   UNL A   1      41.513  25.811  27.736  1.00  0.00     0.031 A 
ATOM     34  C   UNL A   1      40.769  26.878  28.488  1.00  0.00     0.074 A 
ATOM     35  C   UNL A   1      42.754  26.047  27.267  1.00  0.00     0.049 A 
ATOM     36  N   UNL A   1      41.140  28.098  28.775  1.00  0.00    -0.248 NA
ATOM     37  C   UNL A   1      39.416  26.534  28.951  1.00  0.00     0.031 C 
ATOM     38  C   UNL A   1      43.556  25.104  26.484  1.00  0.00     0.029 A 
ATOM     39  N   UNL A   1      43.557  27.156  27.367  1.00  0.00    -0.354 N 
ATOM     40  C   UNL A   1      40.066  28.674  29.443  1.00  0.00     0.074 A 
ATOM     41  C   UNL A   1      39.008  27.686  29.462  1.00  0.00     0.031 C 
ATOM     42  C   UNL A   1      44.741  25.664  26.195  1.00  0.00     0.029 A 
ATOM     43  C   UNL A   1      44.768  27.022  26.727  1.00  0.00     0.049 A 
ATOM     44  H   UNL A   1      43.291  27.971  27.851  1.00  0.00     0.167 HD
ATOM     45  C   UNL A   1      39.979  29.904  30.008  1.00  0.00     0.034 A 
ATOM     46  C   UNL A   1      45.780  27.899  26.573  1.00  0.00     0.034 A 
ATOM     47  C   UNL A   1      41.049  30.873  29.985  1.00  0.00     0.049 A 
ATOM     48  C   UNL A   1      45.647  29.272  27.181  1.00  0.00     0.074 A 
ATOM     49  C   UNL A   1      41.094  32.121  30.579  1.00  0.00     0.029 A 
ATOM     50  N   UNL A   1      42.258  30.706  29.321  1.00  0.00    -0.354 N 
ATOM     51  N   UNL A   1      44.646  29.781  27.860  1.00  0.00    -0.248 NA
ATOM     52  C   UNL A   1      46.782  30.187  27.003  1.00  0.00     0.031 C 
ATOM     53  C   UNL A   1      42.299  32.736  30.220  1.00  0.00     0.029 A 
ATOM     54  C   UNL A   1      43.040  31.844  29.460  1.00  0.00     0.049 A 
ATOM     55  H   UNL A   1      42.522  29.899  28.823  1.00  0.00     0.167 HD
ATOM     56  C   UNL A   1      45.041  31.069  28.211  1.00  0.00     0.074 A 
ATOM     57  C   UNL A   1      46.378  31.249  27.684  1.00  0.00     0.031 C 
ATOM     58  C   UNL A   1      44.363  32.016  28.907  1.00  0.00     0.034 A 
BRANCH  45  59
ATOM     59  C   UNL A   1      38.675  30.271  30.673  1.00  0.00     0.023 A 
ATOM     60  C   UNL A   1      37.643  30.915  29.969  1.00  0.00     0.031 A 
ATOM     61  C   UNL A   1      38.469  29.999  32.038  1.00  0.00     0.131 A 
ATOM     62  C   UNL A   1      36.487  31.335  30.646  1.00  0.00     0.055 A 
ATOM     63  C   UNL A   1      37.282  30.345  32.687  1.00  0.00     0.041 A 
ATOM     64  F   UNL A   1      39.425  29.403  32.768  1.00  0.00    -0.206 F 
ATOM     65  C   UNL A   1      36.289  31.032  31.994  1.00  0.00     0.022 A 
BRANCH  62  66
ATOM     66  S   UNL A   1      35.314  32.405  29.771  1.00  0.00     0.124 S 
ATOM     67  O   UNL A   1      36.188  33.474  29.293  1.00  0.00    -0.237 OA
ATOM     68  O   UNL A   1      34.776  31.515  28.749  1.00  0.00    -0.237 OA
ATOM     69  O   UNL A   1      34.369  32.802  30.813  1.00  0.00    -0.744 OA
ENDBRANCH  62  66
ENDBRANCH  45  59
BRANCH  46  70
ATOM     70  C   UNL A   1      46.997  27.523  25.799  1.00  0.00     0.023 A 
ATOM     71  C   UNL A   1      47.122  27.859  24.442  1.00  0.00     0.031 A 
ATOM     72  C   UNL A   1      48.035  26.786  26.395  1.00  0.00     0.131 A 
ATOM     73  C   UNL A   1      48.239  27.423  23.714  1.00  0.00     0.055 A 
ATOM     74  C   UNL A   1      49.168  26.397  25.679  1.00  0.00     0.041 A 
ATOM     75  F   UNL A   1      47.968  26.443  27.692  1.00  0.00    -0.206 F 
ATOM     76  C   UNL A   1      49.269  26.705  24.326  1.00  0.00     0.022 A 
BRANCH  73  77
ATOM     77  S   UNL A   1      48.289  27.739  21.929  1.00  0.00     0.124 S 
ATOM     78  O   UNL A   1      49.416  28.659  21.821  1.00  0.00    -0.237 OA
ATOM     79  O   UNL A   1      48.500  26.400  21.391  1.00  0.00    -0.237 OA
ATOM     80  O   UNL A   1      46.977  28.321  21.648  1.00  0.00    -0.744 OA
ENDBRANCH  73  77
ENDBRANCH  46  70
BRANCH  58  81
ATOM     81  C   UNL A   1      45.078  33.321  29.156  1.00  0.00     0.023 A 
ATOM     82  C   UNL A   1      44.940  34.414  28.283  1.00  0.00     0.031 A 
ATOM     83  C   UNL A   1      45.921  33.466  30.272  1.00  0.00     0.131 A 
ATOM     84  C   UNL A   1      45.675  35.587  28.510  1.00  0.00     0.055 A 
ATOM     85  C   UNL A   1      46.605  34.655  30.525  1.00  0.00     0.041 A 
ATOM     86  F   UNL A   1      46.092  32.452  31.136  1.00  0.00    -0.206 F 
ATOM     87  C   UNL A   1      46.493  35.720  29.635  1.00  0.00     0.022 A 
BRANCH  84  88
ATOM     88  S   UNL A   1      45.613  36.909  27.269  1.00  0.00     0.124 S 
ATOM     89  O   UNL A   1      46.213  38.027  27.989  1.00  0.00    -0.237 OA
ATOM     90  O   UNL A   1      46.406  36.353  26.179  1.00  0.00    -0.237 OA
ATOM     91  O   UNL A   1      44.185  37.048  26.989  1.00  0.00    -0.744 OA
ENDBRANCH  84  88
ENDBRANCH  58  81
ENDBRANCH  32  33
ENDBRANCH  24  27
ENDBRANCH  22  23
ENDBRANCH   1  22
TORSDOF 18
ENDMDL
MODEL 3
REMARK VINA RESULT:     -11.0      5.129      7.870
REMARK SMILES C[C@@]1(C(=O)N[C@@H](CO)C(=O)NCCCCNC(=O)c2ccc(-c3c4nc(c(-c5cc(S(=O)(=O)[O-])ccc5F)c5ccc([nH]5)c(-c5cc(S(=O)(=O)[O-])ccc5F)c5nc(c(-c6cc(S(=O)(=O)[O-])ccc6F)c6ccc3[nH]6)C=C5)C=C4)cc2)CCCO1
REMARK SMILES IDX 14 1 13 2 12 3 11 4 9 5 10 6 6 8 5 9 3 10 4 11 2 13 1 14
REMARK SMILES IDX 82 15 85 16 83 17 84 18 7 19 8 20 15 22 16 23 17 24 18 26
REMARK SMILES IDX 19 27 20 28 81 29 21 30 80 31 22 32 23 33 24 34 74 35 25 36
REMARK SMILES IDX 79 37 73 38 75 39 26 40 78 41 72 42 71 43 27 45 59 46 39 47
REMARK SMILES IDX 58 48 40 49 43 50 57 51 76 52 41 53 42 54 56 56 77 57 44 58
REMARK SMILES IDX 28 59 29 60 37 61 30 62 36 63 38 64 35 65 31 66 32 67 33 68
REMARK SMILES IDX 34 69 60 70 61 71 69 72 62 73 68 74 70 75 67 76 63 77 64 78
REMARK SMILES IDX 65 79 66 80 45 81 46 82 54 83 47 84 53 85 55 86 52 87 48 88
REMARK SMILES IDX 49 89 50 90 51 91
REMARK H PARENT 11 7 5 12 8 21 16 25 75 44 43 55
REMARK Flexibility Score: inf
ROOT
ATOM      1  C   UNL A   1      31.751  30.019  25.368  1.00  0.00     0.023 C 
ENDROOT
BRANCH   1   2
ATOM      2  C   UNL A   1      32.483  28.753  24.932  1.00  0.00     0.023 C 
BRANCH   2   3
ATOM      3  C   UNL A   1      31.991  28.144  23.625  1.00  0.00     0.116 C 
BRANCH   3   4
ATOM      4  N   UNL A   1      30.596  27.764  23.683  1.00  0.00    -0.354 N 
ATOM      5  C   UNL A   1      30.021  26.573  24.002  1.00  0.00     0.244 C 
ATOM      6  O   UNL A   1      28.795  26.553  24.156  1.00  0.00    -0.273 OA
ATOM      7  H   UNL A   1      29.960  28.482  23.456  1.00  0.00     0.163 HD
BRANCH   5   8
ATOM      8  C   UNL A   1      30.841  25.288  24.214  1.00  0.00     0.197 C 
BRANCH   8   9
ATOM      9  N   UNL A   1      30.317  24.481  25.315  1.00  0.00    -0.340 N 
ATOM     10  C   UNL A   1      30.987  23.822  26.303  1.00  0.00     0.252 C 
ATOM     11  O   UNL A   1      30.305  23.414  27.249  1.00  0.00    -0.272 OA
ATOM     12  H   UNL A   1      29.336  24.401  25.346  1.00  0.00     0.164 HD
BRANCH  10  13
ATOM     13  C   UNL A   1      32.523  23.598  26.238  1.00  0.00     0.143 C 
ATOM     14  C   UNL A   1      32.962  22.816  27.487  1.00  0.00     0.053 C 
ATOM     15  C   UNL A   1      33.317  24.905  26.138  1.00  0.00     0.048 C 
ATOM     16  O   UNL A   1      32.870  22.802  25.090  1.00  0.00    -0.365 OA
ATOM     17  C   UNL A   1      34.206  24.748  24.923  1.00  0.00     0.032 C 
ATOM     18  C   UNL A   1      34.103  23.287  24.553  1.00  0.00     0.162 C 
ENDBRANCH  10  13
ENDBRANCH   8   9
BRANCH   8  19
ATOM     19  C   UNL A   1      31.116  24.513  22.919  1.00  0.00     0.191 C 
BRANCH  19  20
ATOM     20  O   UNL A   1      30.687  23.156  22.948  1.00  0.00    -0.394 OA
ATOM     21  H   UNL A   1      31.252  22.626  22.365  1.00  0.00     0.210 HD
ENDBRANCH  19  20
ENDBRANCH   8  19
ENDBRANCH   5   8
ENDBRANCH   3   4
ENDBRANCH   2   3
ENDBRANCH   1   2
BRANCH   1  22
ATOM     22  C   UNL A   1      32.052  30.489  26.788  1.00  0.00     0.116 C 
BRANCH  22  23
ATOM     23  N   UNL A   1      31.982  31.936  26.941  1.00  0.00    -0.352 N 
ATOM     24  C   UNL A   1      32.907  32.798  27.479  1.00  0.00     0.251 C 
ATOM     25  H   UNL A   1      31.154  32.356  26.613  1.00  0.00     0.163 HD
ATOM     26  O   UNL A   1      32.631  33.984  27.630  1.00  0.00    -0.269 OA
BRANCH  24  27
ATOM     27  C   UNL A   1      34.215  32.268  27.912  1.00  0.00     0.039 A 
ATOM     28  C   UNL A   1      35.281  33.156  28.071  1.00  0.00     0.014 A 
ATOM     29  C   UNL A   1      34.361  30.916  28.232  1.00  0.00     0.014 A 
ATOM     30  C   UNL A   1      36.468  32.703  28.645  1.00  0.00     0.010 A 
ATOM     31  C   UNL A   1      35.517  30.484  28.871  1.00  0.00     0.010 A 
ATOM     32  C   UNL A   1      36.575  31.378  29.100  1.00  0.00    -0.014 A 
BRANCH  32  33
ATOM     33  C   UNL A   1      37.768  30.918  29.857  1.00  0.00     0.031 A 
ATOM     34  C   UNL A   1      38.744  29.970  29.222  1.00  0.00     0.074 A 
ATOM     35  C   UNL A   1      37.920  31.296  31.142  1.00  0.00     0.049 A 
ATOM     36  N   UNL A   1      39.791  29.388  29.748  1.00  0.00    -0.248 NA
ATOM     37  C   UNL A   1      38.490  29.605  27.821  1.00  0.00     0.031 C 
ATOM     38  C   UNL A   1      37.010  32.176  31.879  1.00  0.00     0.029 A 
ATOM     39  N   UNL A   1      38.887  30.978  32.063  1.00  0.00    -0.354 N 
ATOM     40  C   UNL A   1      40.317  28.580  28.746  1.00  0.00     0.074 A 
ATOM     41  C   UNL A   1      39.435  28.703  27.604  1.00  0.00     0.031 C 
ATOM     42  C   UNL A   1      37.473  32.346  33.127  1.00  0.00     0.029 A 
ATOM     43  C   UNL A   1      38.684  31.551  33.299  1.00  0.00     0.049 A 
ATOM     44  H   UNL A   1      39.655  30.396  31.859  1.00  0.00     0.167 HD
ATOM     45  C   UNL A   1      41.443  27.824  28.771  1.00  0.00     0.034 A 
ATOM     46  C   UNL A   1      39.385  31.435  34.444  1.00  0.00     0.034 A 
ATOM     47  C   UNL A   1      42.313  27.721  29.917  1.00  0.00     0.049 A 
ATOM     48  C   UNL A   1      40.614  30.563  34.456  1.00  0.00     0.074 A 
ATOM     49  C   UNL A   1      43.511  27.039  30.031  1.00  0.00     0.029 A 
ATOM     50  N   UNL A   1      42.072  28.307  31.154  1.00  0.00    -0.354 N 
ATOM     51  N   UNL A   1      41.131  29.850  33.482  1.00  0.00    -0.248 NA
ATOM     52  C   UNL A   1      41.355  30.482  35.721  1.00  0.00     0.031 C 
ATOM     53  C   UNL A   1      43.960  27.155  31.352  1.00  0.00     0.029 A 
ATOM     54  C   UNL A   1      43.080  27.970  32.046  1.00  0.00     0.049 A 
ATOM     55  H   UNL A   1      41.298  28.878  31.366  1.00  0.00     0.167 HD
ATOM     56  C   UNL A   1      42.272  29.255  34.012  1.00  0.00     0.074 A 
ATOM     57  C   UNL A   1      42.376  29.708  35.384  1.00  0.00     0.031 C 
ATOM     58  C   UNL A   1      43.156  28.413  33.419  1.00  0.00     0.034 A 
BRANCH  45  59
ATOM     59  C   UNL A   1      41.776  27.037  27.527  1.00  0.00     0.023 A 
ATOM     60  C   UNL A   1      41.586  25.645  27.462  1.00  0.00     0.031 A 
ATOM     61  C   UNL A   1      42.318  27.679  26.399  1.00  0.00     0.131 A 
ATOM     62  C   UNL A   1      42.005  24.932  26.328  1.00  0.00     0.055 A 
ATOM     63  C   UNL A   1      42.656  26.975  25.242  1.00  0.00     0.041 A 
ATOM     64  F   UNL A   1      42.542  29.003  26.408  1.00  0.00    -0.206 F 
ATOM     65  C   UNL A   1      42.515  25.591  25.207  1.00  0.00     0.022 A 
BRANCH  62  66
ATOM     66  S   UNL A   1      42.002  23.120  26.397  1.00  0.00     0.124 S 
ATOM     67  O   UNL A   1      40.619  22.841  26.776  1.00  0.00    -0.237 OA
ATOM     68  O   UNL A   1      42.378  22.752  25.037  1.00  0.00    -0.237 OA
ATOM     69  O   UNL A   1      42.996  22.815  27.423  1.00  0.00    -0.744 OA
ENDBRANCH  62  66
ENDBRANCH  45  59
BRANCH  46  70
ATOM     70  C   UNL A   1      38.939  32.141  35.678  1.00  0.00     0.023 A 
ATOM     71  C   UNL A   1      38.298  31.446  36.716  1.00  0.00     0.031 A 
ATOM     72  C   UNL A   1      39.112  33.529  35.822  1.00  0.00     0.131 A 
ATOM     73  C   UNL A   1      37.814  32.145  37.832  1.00  0.00     0.055 A 
ATOM     74  C   UNL A   1      38.672  34.213  36.956  1.00  0.00     0.041 A 
ATOM     75  F   UNL A   1      39.723  34.241  34.861  1.00  0.00    -0.206 F 
ATOM     76  C   UNL A   1      38.008  33.522  37.965  1.00  0.00     0.022 A 
BRANCH  73  77
ATOM     77  S   UNL A   1      36.853  31.240  39.074  1.00  0.00     0.124 S 
ATOM     78  O   UNL A   1      37.724  31.321  40.242  1.00  0.00    -0.237 OA
ATOM     79  O   UNL A   1      35.624  32.023  39.135  1.00  0.00    -0.237 OA
ATOM     80  O   UNL A   1      36.712  29.907  38.492  1.00  0.00    -0.744 OA
ENDBRANCH  73  77
ENDBRANCH  46  70
BRANCH  58  81
ATOM     81  C   UNL A   1      44.324  27.953  34.254  1.00  0.00     0.023 A 
ATOM     82  C   UNL A   1      44.248  26.802  35.057  1.00  0.00     0.031 A 
ATOM     83  C   UNL A   1      45.524  28.687  34.260  1.00  0.00     0.131 A 
ATOM     84  C   UNL A   1      45.332  26.446  35.873  1.00  0.00     0.055 A 
ATOM     85  C   UNL A   1      46.620  28.296  35.029  1.00  0.00     0.041 A 
ATOM     86  F   UNL A   1      45.650  29.797  33.514  1.00  0.00    -0.206 F 
ATOM     87  C   UNL A   1      46.524  27.176  35.851  1.00  0.00     0.022 A 
BRANCH  84  88
ATOM     88  S   UNL A   1      45.136  25.062  37.029  1.00  0.00     0.124 S 
ATOM     89  O   UNL A   1      44.948  23.935  36.121  1.00  0.00    -0.237 OA
ATOM     90  O   UNL A   1      46.395  25.086  37.764  1.00  0.00    -0.237 OA
ATOM     91  O   UNL A   1      43.956  25.432  37.809  1.00  0.00    -0.744 OA
ENDBRANCH  84  88
ENDBRANCH  58  81
ENDBRANCH  32  33
ENDBRANCH  24  27
ENDBRANCH  22  23
ENDBRANCH   1  22
TORSDOF 18
ENDMDL
