MODEL 1
REMARK VINA RESULT:     -10.4      0.000      0.000
REMARK SMILES C[C@@H]1OCC[C@@H]1C#CC(=O)NCCCCNC(=O)c1ccc(-c2c3nc(c(-c4cc(S(=O)(=O)[O-])ccc4F)c4ccc([nH]4)c(-c4cc(S(=O)(=O)[O-])ccc4F)c4nc(c(-c5cc(S(=O)(=O)[O-])ccc5F)c5ccc2[nH]5)C=C4)C=C3)cc1
REMARK SMILES IDX 14 1 13 2 12 3 11 4 9 5 10 6 8 8 7 9 6 10 1 11 2 12 3 13
REMARK SMILES IDX 4 14 5 15 15 16 16 17 17 18 18 20 19 21 20 22 81 23 21 24
REMARK SMILES IDX 80 25 22 26 23 27 24 28 74 29 25 30 79 31 73 32 75 33 26 34
REMARK SMILES IDX 78 35 72 36 71 37 27 39 59 40 39 41 58 42 40 43 43 44 57 45
REMARK SMILES IDX 76 46 41 47 42 48 56 50 77 51 44 52 28 53 29 54 37 55 30 56
REMARK SMILES IDX 36 57 38 58 35 59 31 60 32 61 33 62 34 63 60 64 61 65 69 66
REMARK SMILES IDX 62 67 68 68 70 69 67 70 63 71 64 72 65 73 66 74 45 75 46 76
REMARK SMILES IDX 54 77 47 78 53 79 55 80 52 81 48 82 49 83 50 84 51 85
REMARK H PARENT 11 7 16 19 75 38 43 49
REMARK Flexibility Score: inf
ROOT
ATOM      1  C   UNL A   1      34.188  34.144  28.021  1.00  0.00     0.023 C 
ENDROOT
BRANCH   1   2
ATOM      2  C   UNL A   1      33.096  35.122  28.463  1.00  0.00     0.023 C 
BRANCH   2   3
ATOM      3  C   UNL A   1      33.613  36.439  29.037  1.00  0.00     0.117 C 
BRANCH   3   4
ATOM      4  N   UNL A   1      32.863  36.847  30.209  1.00  0.00    -0.345 N 
ATOM      5  C   UNL A   1      32.918  36.302  31.461  1.00  0.00     0.295 C 
ATOM      6  O   UNL A   1      32.216  36.722  32.372  1.00  0.00    -0.260 OA
ATOM      7  H   UNL A   1      32.242  37.601  30.088  1.00  0.00     0.164 HD
BRANCH   5   8
ATOM      8  C   UNL A   1      33.844  35.225  31.721  1.00  0.00    -0.005 C 
ATOM      9  C   UNL A   1      34.641  34.361  31.981  1.00  0.00    -0.087 C 
BRANCH   9  10
ATOM     10  C   UNL A   1      35.632  33.337  32.354  1.00  0.00     0.096 C 
ATOM     11  C   UNL A   1      35.506  34.197  34.804  1.00  0.00     0.040 C 
ATOM     12  C   UNL A   1      36.348  33.625  33.676  1.00  0.00     0.130 C 
ATOM     13  O   UNL A   1      37.436  34.517  33.369  1.00  0.00    -0.377 OA
ATOM     14  C   UNL A   1      37.726  34.404  31.969  1.00  0.00     0.162 C 
ATOM     15  C   UNL A   1      36.805  33.342  31.392  1.00  0.00     0.048 C 
ENDBRANCH   9  10
ENDBRANCH   5   8
ENDBRANCH   3   4
ENDBRANCH   2   3
ENDBRANCH   1   2
BRANCH   1  16
ATOM     16  C   UNL A   1      34.210  32.810  28.761  1.00  0.00     0.116 C 
BRANCH  16  17
ATOM     17  N   UNL A   1      33.709  31.711  27.951  1.00  0.00    -0.352 N 
ATOM     18  C   UNL A   1      34.343  30.556  27.557  1.00  0.00     0.251 C 
ATOM     19  H   UNL A   1      32.779  31.806  27.641  1.00  0.00     0.163 HD
ATOM     20  O   UNL A   1      33.806  29.827  26.727  1.00  0.00    -0.269 OA
BRANCH  18  21
ATOM     21  C   UNL A   1      35.678  30.214  28.100  1.00  0.00     0.039 A 
ATOM     22  C   UNL A   1      35.767  29.708  29.399  1.00  0.00     0.014 A 
ATOM     23  C   UNL A   1      36.837  30.383  27.338  1.00  0.00     0.014 A 
ATOM     24  C   UNL A   1      37.007  29.307  29.905  1.00  0.00     0.010 A 
ATOM     25  C   UNL A   1      38.058  29.905  27.812  1.00  0.00     0.010 A 
ATOM     26  C   UNL A   1      38.158  29.359  29.101  1.00  0.00    -0.014 A 
BRANCH  26  27
ATOM     27  C   UNL A   1      39.463  28.833  29.592  1.00  0.00     0.031 A 
ATOM     28  C   UNL A   1      40.187  29.524  30.718  1.00  0.00     0.074 A 
ATOM     29  C   UNL A   1      40.020  27.762  28.987  1.00  0.00     0.049 A 
ATOM     30  N   UNL A   1      41.352  29.246  31.243  1.00  0.00    -0.248 NA
ATOM     31  C   UNL A   1      39.525  30.694  31.319  1.00  0.00     0.031 C 
ATOM     32  C   UNL A   1      39.433  27.027  27.864  1.00  0.00     0.029 A 
ATOM     33  N   UNL A   1      41.204  27.106  29.223  1.00  0.00    -0.354 N 
ATOM     34  C   UNL A   1      41.573  30.213  32.219  1.00  0.00     0.074 A 
ATOM     35  C   UNL A   1      40.439  31.111  32.183  1.00  0.00     0.031 C 
ATOM     36  C   UNL A   1      40.243  26.011  27.528  1.00  0.00     0.029 A 
ATOM     37  C   UNL A   1      41.438  26.054  28.365  1.00  0.00     0.049 A 
ATOM     38  H   UNL A   1      41.829  27.365  29.938  1.00  0.00     0.167 HD
ATOM     39  C   UNL A   1      42.619  30.331  33.073  1.00  0.00     0.034 A 
ATOM     40  C   UNL A   1      42.502  25.231  28.245  1.00  0.00     0.034 A 
ATOM     41  C   UNL A   1      43.737  29.419  33.104  1.00  0.00     0.049 A 
ATOM     42  C   UNL A   1      43.668  25.412  29.188  1.00  0.00     0.074 A 
ATOM     43  C   UNL A   1      44.807  29.407  33.982  1.00  0.00     0.029 A 
ATOM     44  N   UNL A   1      43.943  28.374  32.214  1.00  0.00    -0.354 N 
ATOM     45  N   UNL A   1      43.821  26.288  30.154  1.00  0.00    -0.248 NA
ATOM     46  C   UNL A   1      44.799  24.489  29.032  1.00  0.00     0.031 C 
ATOM     47  C   UNL A   1      45.708  28.427  33.560  1.00  0.00     0.029 A 
ATOM     48  C   UNL A   1      45.150  27.748  32.489  1.00  0.00     0.049 A 
ATOM     49  H   UNL A   1      43.324  28.115  31.493  1.00  0.00     0.167 HD
ATOM     50  C   UNL A   1      45.049  25.991  30.743  1.00  0.00     0.074 A 
ATOM     51  C   UNL A   1      45.583  24.847  30.038  1.00  0.00     0.031 C 
ATOM     52  C   UNL A   1      45.677  26.609  31.776  1.00  0.00     0.034 A 
BRANCH  39  53
ATOM     53  C   UNL A   1      42.638  31.510  34.017  1.00  0.00     0.023 A 
ATOM     54  C   UNL A   1      42.100  31.442  35.313  1.00  0.00     0.031 A 
ATOM     55  C   UNL A   1      43.238  32.719  33.616  1.00  0.00     0.131 A 
ATOM     56  C   UNL A   1      42.131  32.574  36.143  1.00  0.00     0.055 A 
ATOM     57  C   UNL A   1      43.337  33.814  34.474  1.00  0.00     0.041 A 
ATOM     58  F   UNL A   1      43.745  32.852  32.380  1.00  0.00    -0.206 F 
ATOM     59  C   UNL A   1      42.773  33.749  35.743  1.00  0.00     0.022 A 
BRANCH  56  60
ATOM     60  S   UNL A   1      41.212  32.531  37.706  1.00  0.00     0.124 S 
ATOM     61  O   UNL A   1      42.033  31.627  38.507  1.00  0.00    -0.237 OA
ATOM     62  O   UNL A   1      41.217  33.931  38.114  1.00  0.00    -0.237 OA
ATOM     63  O   UNL A   1      39.906  31.997  37.321  1.00  0.00    -0.744 OA
ENDBRANCH  56  60
ENDBRANCH  39  53
BRANCH  40  64
ATOM     64  C   UNL A   1      42.550  24.190  27.174  1.00  0.00     0.023 A 
ATOM     65  C   UNL A   1      41.921  22.946  27.338  1.00  0.00     0.031 A 
ATOM     66  C   UNL A   1      43.305  24.391  26.004  1.00  0.00     0.131 A 
ATOM     67  C   UNL A   1      42.122  21.928  26.392  1.00  0.00     0.055 A 
ATOM     68  C   UNL A   1      43.437  23.402  25.027  1.00  0.00     0.041 A 
ATOM     69  F   UNL A   1      43.935  25.557  25.792  1.00  0.00    -0.206 F 
ATOM     70  C   UNL A   1      42.859  22.153  25.229  1.00  0.00     0.022 A 
BRANCH  67  71
ATOM     71  S   UNL A   1      41.530  20.256  26.778  1.00  0.00     0.124 S 
ATOM     72  O   UNL A   1      41.648  19.596  25.484  1.00  0.00    -0.237 OA
ATOM     73  O   UNL A   1      42.473  19.830  27.805  1.00  0.00    -0.237 OA
ATOM     74  O   UNL A   1      40.162  20.479  27.244  1.00  0.00    -0.744 OA
ENDBRANCH  67  71
ENDBRANCH  40  64
BRANCH  52  75
ATOM     75  C   UNL A   1      46.987  26.017  32.246  1.00  0.00     0.023 A 
ATOM     76  C   UNL A   1      48.206  26.297  31.605  1.00  0.00     0.031 A 
ATOM     77  C   UNL A   1      47.009  25.151  33.355  1.00  0.00     0.131 A 
ATOM     78  C   UNL A   1      49.383  25.667  32.036  1.00  0.00     0.055 A 
ATOM     79  C   UNL A   1      48.196  24.590  33.828  1.00  0.00     0.041 A 
ATOM     80  F   UNL A   1      45.876  24.839  34.003  1.00  0.00    -0.206 F 
ATOM     81  C   UNL A   1      49.389  24.835  33.158  1.00  0.00     0.022 A 
BRANCH  78  82
ATOM     82  S   UNL A   1      50.888  25.858  31.041  1.00  0.00     0.124 S 
ATOM     83  O   UNL A   1      50.524  25.169  29.808  1.00  0.00    -0.237 OA
ATOM     84  O   UNL A   1      51.018  27.309  30.947  1.00  0.00    -0.237 OA
ATOM     85  O   UNL A   1      51.915  25.195  31.842  1.00  0.00    -0.744 OA
ENDBRANCH  78  82
ENDBRANCH  52  75
ENDBRANCH  26  27
ENDBRANCH  18  21
ENDBRANCH  16  17
ENDBRANCH   1  16
TORSDOF 15
ENDMDL
MODEL 2
REMARK VINA RESULT:     -10.3      5.720     10.749
REMARK SMILES C[C@@H]1OCC[C@@H]1C#CC(=O)NCCCCNC(=O)c1ccc(-c2c3nc(c(-c4cc(S(=O)(=O)[O-])ccc4F)c4ccc([nH]4)c(-c4cc(S(=O)(=O)[O-])ccc4F)c4nc(c(-c5cc(S(=O)(=O)[O-])ccc5F)c5ccc2[nH]5)C=C4)C=C3)cc1
REMARK SMILES IDX 14 1 13 2 12 3 11 4 9 5 10 6 8 8 7 9 6 10 1 11 2 12 3 13
REMARK SMILES IDX 4 14 5 15 15 16 16 17 17 18 18 20 19 21 20 22 81 23 21 24
REMARK SMILES IDX 80 25 22 26 23 27 24 28 74 29 25 30 79 31 73 32 75 33 26 34
REMARK SMILES IDX 78 35 72 36 71 37 27 39 59 40 39 41 58 42 40 43 43 44 57 45
REMARK SMILES IDX 76 46 41 47 42 48 56 50 77 51 44 52 28 53 29 54 37 55 30 56
REMARK SMILES IDX 36 57 38 58 35 59 31 60 32 61 33 62 34 63 60 64 61 65 69 66
REMARK SMILES IDX 62 67 68 68 70 69 67 70 63 71 64 72 65 73 66 74 45 75 46 76
REMARK SMILES IDX 54 77 47 78 53 79 55 80 52 81 48 82 49 83 50 84 51 85
REMARK H PARENT 11 7 16 19 75 38 43 49
REMARK Flexibility Score: inf
ROOT
ATOM      1  C   UNL A   1      37.957  20.682  24.925  1.00  0.00     0.023 C 
ENDROOT
BRANCH   1   2
ATOM      2  C   UNL A   1      37.426  22.058  24.512  1.00  0.00     0.023 C 
BRANCH   2   3
ATOM      3  C   UNL A   1      35.947  22.082  24.132  1.00  0.00     0.117 C 
BRANCH   3   4
ATOM      4  N   UNL A   1      35.092  22.127  25.302  1.00  0.00    -0.345 N 
ATOM      5  C   UNL A   1      34.332  21.112  25.815  1.00  0.00     0.295 C 
ATOM      6  O   UNL A   1      33.631  21.278  26.804  1.00  0.00    -0.260 OA
ATOM      7  H   UNL A   1      35.055  22.985  25.782  1.00  0.00     0.164 HD
BRANCH   5   8
ATOM      8  C   UNL A   1      34.378  19.812  25.189  1.00  0.00    -0.005 C 
ATOM      9  C   UNL A   1      34.476  18.739  24.653  1.00  0.00    -0.087 C 
BRANCH   9  10
ATOM     10  C   UNL A   1      34.659  17.434  23.995  1.00  0.00     0.096 C 
ATOM     11  C   UNL A   1      32.479  17.876  22.650  1.00  0.00     0.040 C 
ATOM     12  C   UNL A   1      33.382  16.880  23.358  1.00  0.00     0.130 C 
ATOM     13  O   UNL A   1      32.656  16.211  24.406  1.00  0.00    -0.377 OA
ATOM     14  C   UNL A   1      33.577  15.900  25.461  1.00  0.00     0.162 C 
ATOM     15  C   UNL A   1      34.958  16.350  25.013  1.00  0.00     0.048 C 
ENDBRANCH   9  10
ENDBRANCH   5   8
ENDBRANCH   3   4
ENDBRANCH   2   3
ENDBRANCH   1   2
BRANCH   1  16
ATOM     16  C   UNL A   1      38.910  20.680  26.116  1.00  0.00     0.116 C 
BRANCH  16  17
ATOM     17  N   UNL A   1      39.892  19.609  26.048  1.00  0.00    -0.352 N 
ATOM     18  C   UNL A   1      41.265  19.678  26.090  1.00  0.00     0.251 C 
ATOM     19  H   UNL A   1      39.519  18.702  25.961  1.00  0.00     0.163 HD
ATOM     20  O   UNL A   1      41.926  18.673  25.843  1.00  0.00    -0.269 OA
BRANCH  18  21
ATOM     21  C   UNL A   1      41.939  20.961  26.394  1.00  0.00     0.039 A 
ATOM     22  C   UNL A   1      42.234  21.833  25.342  1.00  0.00     0.014 A 
ATOM     23  C   UNL A   1      42.279  21.312  27.703  1.00  0.00     0.014 A 
ATOM     24  C   UNL A   1      42.800  23.082  25.613  1.00  0.00     0.010 A 
ATOM     25  C   UNL A   1      42.765  22.589  27.979  1.00  0.00     0.010 A 
ATOM     26  C   UNL A   1      43.030  23.491  26.937  1.00  0.00    -0.014 A 
BRANCH  26  27
ATOM     27  C   UNL A   1      43.532  24.861  27.243  1.00  0.00     0.031 A 
ATOM     28  C   UNL A   1      42.598  25.908  27.792  1.00  0.00     0.074 A 
ATOM     29  C   UNL A   1      44.818  25.174  26.978  1.00  0.00     0.049 A 
ATOM     30  N   UNL A   1      42.839  27.164  28.068  1.00  0.00    -0.248 NA
ATOM     31  C   UNL A   1      41.207  25.498  28.043  1.00  0.00     0.031 C 
ATOM     32  C   UNL A   1      45.811  24.256  26.413  1.00  0.00     0.029 A 
ATOM     33  N   UNL A   1      45.513  26.348  27.138  1.00  0.00    -0.354 N 
ATOM     34  C   UNL A   1      41.631  27.698  28.507  1.00  0.00     0.074 A 
ATOM     35  C   UNL A   1      40.649  26.640  28.417  1.00  0.00     0.031 C 
ATOM     36  C   UNL A   1      46.987  24.892  26.300  1.00  0.00     0.029 A 
ATOM     37  C   UNL A   1      46.825  26.280  26.723  1.00  0.00     0.049 A 
ATOM     38  H   UNL A   1      45.111  27.164  27.514  1.00  0.00     0.167 HD
ATOM     39  C   UNL A   1      41.372  28.951  28.952  1.00  0.00     0.034 A 
ATOM     40  C   UNL A   1      47.783  27.228  26.662  1.00  0.00     0.034 A 
ATOM     41  C   UNL A   1      42.367  29.992  29.047  1.00  0.00     0.049 A 
ATOM     42  C   UNL A   1      47.452  28.625  27.133  1.00  0.00     0.074 A 
ATOM     43  C   UNL A   1      42.222  31.271  29.559  1.00  0.00     0.029 A 
ATOM     44  N   UNL A   1      43.679  29.888  28.607  1.00  0.00    -0.354 N 
ATOM     45  N   UNL A   1      46.321  29.088  27.613  1.00  0.00    -0.248 NA
ATOM     46  C   UNL A   1      48.526  29.623  27.062  1.00  0.00     0.031 C 
ATOM     47  C   UNL A   1      43.410  31.970  29.332  1.00  0.00     0.029 A 
ATOM     48  C   UNL A   1      44.336  31.096  28.785  1.00  0.00     0.049 A 
ATOM     49  H   UNL A   1      44.084  29.076  28.224  1.00  0.00     0.167 HD
ATOM     50  C   UNL A   1      46.566  30.421  27.938  1.00  0.00     0.074 A 
ATOM     51  C   UNL A   1      47.952  30.680  27.617  1.00  0.00     0.031 C 
ATOM     52  C   UNL A   1      45.719  31.347  28.457  1.00  0.00     0.034 A 
BRANCH  39  53
ATOM     53  C   UNL A   1      39.949  29.292  29.331  1.00  0.00     0.023 A 
ATOM     54  C   UNL A   1      39.532  29.388  30.669  1.00  0.00     0.031 A 
ATOM     55  C   UNL A   1      39.001  29.558  28.325  1.00  0.00     0.131 A 
ATOM     56  C   UNL A   1      38.194  29.692  30.964  1.00  0.00     0.055 A 
ATOM     57  C   UNL A   1      37.693  29.938  28.626  1.00  0.00     0.041 A 
ATOM     58  F   UNL A   1      39.335  29.455  27.029  1.00  0.00    -0.206 F 
ATOM     59  C   UNL A   1      37.280  29.998  29.952  1.00  0.00     0.022 A 
BRANCH  56  60
ATOM     60  S   UNL A   1      37.631  29.563  32.683  1.00  0.00     0.124 S 
ATOM     61  O   UNL A   1      38.692  30.270  33.395  1.00  0.00    -0.237 OA
ATOM     62  O   UNL A   1      36.334  30.229  32.642  1.00  0.00    -0.237 OA
ATOM     63  O   UNL A   1      37.585  28.121  32.921  1.00  0.00    -0.744 OA
ENDBRANCH  56  60
ENDBRANCH  39  53
BRANCH  40  64
ATOM     64  C   UNL A   1      49.134  26.920  26.100  1.00  0.00     0.023 A 
ATOM     65  C   UNL A   1      50.227  26.647  26.938  1.00  0.00     0.031 A 
ATOM     66  C   UNL A   1      49.372  26.984  24.715  1.00  0.00     0.131 A 
ATOM     67  C   UNL A   1      51.515  26.527  26.393  1.00  0.00     0.055 A 
ATOM     68  C   UNL A   1      50.643  26.785  24.171  1.00  0.00     0.041 A 
ATOM     69  F   UNL A   1      48.369  27.248  23.863  1.00  0.00    -0.206 F 
ATOM     70  C   UNL A   1      51.728  26.575  25.015  1.00  0.00     0.022 A 
BRANCH  67  71
ATOM     71  S   UNL A   1      52.932  26.457  27.526  1.00  0.00     0.124 S 
ATOM     72  O   UNL A   1      53.493  27.795  27.378  1.00  0.00    -0.237 OA
ATOM     73  O   UNL A   1      52.287  26.169  28.801  1.00  0.00    -0.237 OA
ATOM     74  O   UNL A   1      53.748  25.373  26.982  1.00  0.00    -0.744 OA
ENDBRANCH  67  71
ENDBRANCH  40  64
BRANCH  52  75
ATOM     75  C   UNL A   1      46.290  32.712  28.769  1.00  0.00     0.023 A 
ATOM     76  C   UNL A   1      46.256  33.766  27.841  1.00  0.00     0.031 A 
ATOM     77  C   UNL A   1      46.886  32.956  30.021  1.00  0.00     0.131 A 
ATOM     78  C   UNL A   1      46.862  34.992  28.151  1.00  0.00     0.055 A 
ATOM     79  C   UNL A   1      47.417  34.203  30.353  1.00  0.00     0.041 A 
ATOM     80  F   UNL A   1      46.957  31.986  30.945  1.00  0.00    -0.206 F 
ATOM     81  C   UNL A   1      47.421  35.224  29.411  1.00  0.00     0.022 A 
BRANCH  78  82
ATOM     82  S   UNL A   1      47.015  36.245  26.848  1.00  0.00     0.124 S 
ATOM     83  O   UNL A   1      46.517  35.527  25.680  1.00  0.00    -0.237 OA
ATOM     84  O   UNL A   1      46.163  37.320  27.346  1.00  0.00    -0.237 OA
ATOM     85  O   UNL A   1      48.445  36.546  26.828  1.00  0.00    -0.744 OA
ENDBRANCH  78  82
ENDBRANCH  52  75
ENDBRANCH  26  27
ENDBRANCH  18  21
ENDBRANCH  16  17
ENDBRANCH   1  16
TORSDOF 15
ENDMDL
MODEL 3
REMARK VINA RESULT:     -10.3      4.016     10.336
REMARK SMILES C[C@@H]1OCC[C@@H]1C#CC(=O)NCCCCNC(=O)c1ccc(-c2c3nc(c(-c4cc(S(=O)(=O)[O-])ccc4F)c4ccc([nH]4)c(-c4cc(S(=O)(=O)[O-])ccc4F)c4nc(c(-c5cc(S(=O)(=O)[O-])ccc5F)c5ccc2[nH]5)C=C4)C=C3)cc1
REMARK SMILES IDX 14 1 13 2 12 3 11 4 9 5 10 6 8 8 7 9 6 10 1 11 2 12 3 13
REMARK SMILES IDX 4 14 5 15 15 16 16 17 17 18 18 20 19 21 20 22 81 23 21 24
REMARK SMILES IDX 80 25 22 26 23 27 24 28 74 29 25 30 79 31 73 32 75 33 26 34
REMARK SMILES IDX 78 35 72 36 71 37 27 39 59 40 39 41 58 42 40 43 43 44 57 45
REMARK SMILES IDX 76 46 41 47 42 48 56 50 77 51 44 52 28 53 29 54 37 55 30 56
REMARK SMILES IDX 36 57 38 58 35 59 31 60 32 61 33 62 34 63 60 64 61 65 69 66
REMARK SMILES IDX 62 67 68 68 70 69 67 70 63 71 64 72 65 73 66 74 45 75 46 76
REMARK SMILES IDX 54 77 47 78 53 79 55 80 52 81 48 82 49 83 50 84 51 85
REMARK H PARENT 11 7 16 19 75 38 43 49
REMARK Flexibility Score: inf
ROOT
ATOM      1  C   UNL A   1      31.611  31.251  26.732  1.00  0.00     0.023 C 
ENDROOT
BRANCH   1   2
ATOM      2  C   UNL A   1      31.812  30.098  25.745  1.00  0.00     0.023 C 
BRANCH   2   3
ATOM      3  C   UNL A   1      33.268  29.689  25.531  1.00  0.00     0.117 C 
BRANCH   3   4
ATOM      4  N   UNL A   1      33.550  29.415  24.135  1.00  0.00    -0.345 N 
ATOM      5  C   UNL A   1      33.748  28.194  23.553  1.00  0.00     0.295 C 
ATOM      6  O   UNL A   1      34.001  28.090  22.359  1.00  0.00    -0.260 OA
ATOM      7  H   UNL A   1      33.604  30.196  23.539  1.00  0.00     0.164 HD
BRANCH   5   8
ATOM      8  C   UNL A   1      33.634  27.002  24.358  1.00  0.00    -0.005 C 
ATOM      9  C   UNL A   1      33.568  26.037  25.075  1.00  0.00    -0.087 C 
BRANCH   9  10
ATOM     10  C   UNL A   1      33.507  24.894  26.003  1.00  0.00     0.096 C 
ATOM     11  C   UNL A   1      35.866  24.180  25.178  1.00  0.00     0.040 C 
ATOM     12  C   UNL A   1      34.484  23.768  25.658  1.00  0.00     0.130 C 
ATOM     13  O   UNL A   1      33.838  22.952  24.663  1.00  0.00    -0.377 OA
ATOM     14  C   UNL A   1      32.426  23.191  24.737  1.00  0.00     0.162 C 
ATOM     15  C   UNL A   1      32.183  24.164  25.878  1.00  0.00     0.048 C 
ENDBRANCH   9  10
ENDBRANCH   5   8
ENDBRANCH   3   4
ENDBRANCH   2   3
ENDBRANCH   1   2
BRANCH   1  16
ATOM     16  C   UNL A   1      32.859  32.073  27.039  1.00  0.00     0.116 C 
BRANCH  16  17
ATOM     17  N   UNL A   1      32.555  33.463  27.342  1.00  0.00    -0.352 N 
ATOM     18  C   UNL A   1      33.081  34.281  28.314  1.00  0.00     0.251 C 
ATOM     19  H   UNL A   1      31.874  33.880  26.765  1.00  0.00     0.163 HD
ATOM     20  O   UNL A   1      32.568  35.377  28.522  1.00  0.00    -0.269 OA
BRANCH  18  21
ATOM     21  C   UNL A   1      34.232  33.828  29.128  1.00  0.00     0.039 A 
ATOM     22  C   UNL A   1      34.007  32.930  30.174  1.00  0.00     0.014 A 
ATOM     23  C   UNL A   1      35.529  34.278  28.866  1.00  0.00     0.014 A 
ATOM     24  C   UNL A   1      35.087  32.430  30.907  1.00  0.00     0.010 A 
ATOM     25  C   UNL A   1      36.612  33.715  29.541  1.00  0.00     0.010 A 
ATOM     26  C   UNL A   1      36.404  32.782  30.568  1.00  0.00    -0.014 A 
BRANCH  26  27
ATOM     27  C   UNL A   1      37.568  32.172  31.271  1.00  0.00     0.031 A 
ATOM     28  C   UNL A   1      38.360  31.070  30.617  1.00  0.00     0.074 A 
ATOM     29  C   UNL A   1      37.879  32.577  32.521  1.00  0.00     0.049 A 
ATOM     30  N   UNL A   1      39.368  30.384  31.092  1.00  0.00    -0.248 NA
ATOM     31  C   UNL A   1      37.955  30.672  29.259  1.00  0.00     0.031 C 
ATOM     32  C   UNL A   1      37.165  33.611  33.275  1.00  0.00     0.029 A 
ATOM     33  N   UNL A   1      38.867  32.167  33.384  1.00  0.00    -0.354 N 
ATOM     34  C   UNL A   1      39.704  29.464  30.104  1.00  0.00     0.074 A 
ATOM     35  C   UNL A   1      38.765  29.650  29.020  1.00  0.00     0.031 C 
ATOM     36  C   UNL A   1      37.754  33.772  34.470  1.00  0.00     0.029 A 
ATOM     37  C   UNL A   1      38.846  32.813  34.600  1.00  0.00     0.049 A 
ATOM     38  H   UNL A   1      39.529  31.476  33.154  1.00  0.00     0.167 HD
ATOM     39  C   UNL A   1      40.711  28.557  30.100  1.00  0.00     0.034 A 
ATOM     40  C   UNL A   1      39.601  32.638  35.706  1.00  0.00     0.034 A 
ATOM     41  C   UNL A   1      41.649  28.392  31.185  1.00  0.00     0.049 A 
ATOM     42  C   UNL A   1      40.692  31.594  35.682  1.00  0.00     0.074 A 
ATOM     43  C   UNL A   1      42.751  27.556  31.245  1.00  0.00     0.029 A 
ATOM     44  N   UNL A   1      41.589  29.055  32.403  1.00  0.00    -0.354 N 
ATOM     45  N   UNL A   1      41.040  30.785  34.708  1.00  0.00    -0.248 NA
ATOM     46  C   UNL A   1      41.498  31.445  36.901  1.00  0.00     0.031 C 
ATOM     47  C   UNL A   1      43.291  27.635  32.530  1.00  0.00     0.029 A 
ATOM     48  C   UNL A   1      42.600  28.605  33.238  1.00  0.00     0.049 A 
ATOM     49  H   UNL A   1      40.925  29.743  32.639  1.00  0.00     0.167 HD
ATOM     50  C   UNL A   1      42.131  30.062  35.188  1.00  0.00     0.074 A 
ATOM     51  C   UNL A   1      42.393  30.544  36.526  1.00  0.00     0.031 C 
ATOM     52  C   UNL A   1      42.852  29.089  34.575  1.00  0.00     0.034 A 
BRANCH  39  53
ATOM     53  C   UNL A   1      40.834  27.635  28.909  1.00  0.00     0.023 A 
ATOM     54  C   UNL A   1      41.819  27.810  27.923  1.00  0.00     0.031 A 
ATOM     55  C   UNL A   1      39.962  26.537  28.781  1.00  0.00     0.131 A 
ATOM     56  C   UNL A   1      41.877  26.932  26.829  1.00  0.00     0.055 A 
ATOM     57  C   UNL A   1      40.076  25.622  27.734  1.00  0.00     0.041 A 
ATOM     58  F   UNL A   1      38.984  26.334  29.678  1.00  0.00    -0.206 F 
ATOM     59  C   UNL A   1      41.033  25.822  26.745  1.00  0.00     0.022 A 
BRANCH  56  60
ATOM     60  S   UNL A   1      42.991  27.329  25.454  1.00  0.00     0.124 S 
ATOM     61  O   UNL A   1      44.144  27.883  26.158  1.00  0.00    -0.237 OA
ATOM     62  O   UNL A   1      43.190  26.030  24.823  1.00  0.00    -0.237 OA
ATOM     63  O   UNL A   1      42.229  28.297  24.665  1.00  0.00    -0.744 OA
ENDBRANCH  56  60
ENDBRANCH  39  53
BRANCH  40  64
ATOM     64  C   UNL A   1      39.338  33.429  36.948  1.00  0.00     0.023 A 
ATOM     65  C   UNL A   1      39.990  34.649  37.187  1.00  0.00     0.031 A 
ATOM     66  C   UNL A   1      38.496  32.928  37.958  1.00  0.00     0.131 A 
ATOM     67  C   UNL A   1      39.853  35.285  38.431  1.00  0.00     0.055 A 
ATOM     68  C   UNL A   1      38.301  33.606  39.163  1.00  0.00     0.041 A 
ATOM     69  F   UNL A   1      37.850  31.764  37.791  1.00  0.00    -0.206 F 
ATOM     70  C   UNL A   1      38.999  34.783  39.413  1.00  0.00     0.022 A 
BRANCH  67  71
ATOM     71  S   UNL A   1      40.926  36.702  38.803  1.00  0.00     0.124 S 
ATOM     72  O   UNL A   1      41.588  36.256  40.023  1.00  0.00    -0.237 OA
ATOM     73  O   UNL A   1      41.759  36.772  37.608  1.00  0.00    -0.237 OA
ATOM     74  O   UNL A   1      39.983  37.806  38.970  1.00  0.00    -0.744 OA
ENDBRANCH  67  71
ENDBRANCH  40  64
BRANCH  52  75
ATOM     75  C   UNL A   1      44.035  28.524  35.327  1.00  0.00     0.023 A 
ATOM     76  C   UNL A   1      43.905  27.456  36.231  1.00  0.00     0.031 A 
ATOM     77  C   UNL A   1      45.317  29.073  35.136  1.00  0.00     0.131 A 
ATOM     78  C   UNL A   1      45.021  27.014  36.957  1.00  0.00     0.055 A 
ATOM     79  C   UNL A   1      46.438  28.576  35.802  1.00  0.00     0.041 A 
ATOM     80  F   UNL A   1      45.503  30.100  34.292  1.00  0.00    -0.206 F 
ATOM     81  C   UNL A   1      46.291  27.552  36.730  1.00  0.00     0.022 A 
BRANCH  78  82
ATOM     82  S   UNL A   1      44.774  25.806  38.287  1.00  0.00     0.124 S 
ATOM     83  O   UNL A   1      46.146  25.504  38.681  1.00  0.00    -0.237 OA
ATOM     84  O   UNL A   1      43.985  26.562  39.254  1.00  0.00    -0.237 OA
ATOM     85  O   UNL A   1      44.063  24.711  37.628  1.00  0.00    -0.744 OA
ENDBRANCH  78  82
ENDBRANCH  52  75
ENDBRANCH  26  27
ENDBRANCH  18  21
ENDBRANCH  16  17
ENDBRANCH   1  16
TORSDOF 15
ENDMDL
