MODEL 1
REMARK VINA RESULT:     -11.0      0.000      0.000
REMARK SMILES C[C@@H]([NH3+])CCC(=O)N[C@H]1C=C[C@@H](C(=O)NCCCCNC(=O)c2ccc(-c3c4nc(c(-c5cc(S(=O)(=O)[O-])ccc5F)c5ccc([nH]5)c(-c5cc(S(=O)(=O)[O-])ccc5F)c5nc(c(-c6cc(S(=O)(=O)[O-])ccc6F)c6ccc3[nH]6)C=C5)C=C4)cc2)C1
REMARK SMILES IDX 16 1 15 2 13 3 14 4 12 6 9 7 10 8 86 9 11 10 8 11 6 12 7 13
REMARK SMILES IDX 5 15 4 16 2 17 1 18 3 19 17 23 18 24 19 25 20 26 21 27 22 29
REMARK SMILES IDX 23 30 24 31 85 32 25 33 84 34 26 35 27 36 28 37 78 38 29 39
REMARK SMILES IDX 83 40 77 41 79 42 30 43 82 44 76 45 75 46 31 48 63 49 43 50
REMARK SMILES IDX 62 51 44 52 47 53 61 54 80 55 45 56 46 57 60 59 81 60 48 61
REMARK SMILES IDX 32 62 33 63 41 64 34 65 40 66 42 67 39 68 35 69 36 70 37 71
REMARK SMILES IDX 38 72 64 73 65 74 73 75 66 76 72 77 74 78 71 79 67 80 68 81
REMARK SMILES IDX 69 82 70 83 49 84 50 85 58 86 51 87 57 88 59 89 56 90 52 91
REMARK SMILES IDX 53 92 54 93 55 94
REMARK H PARENT 15 5 8 14 3 20 3 21 3 22 20 28 79 47 47 58
REMARK Flexibility Score: inf
ROOT
ATOM      1  C   UNL A   1      31.023  26.612  26.270  1.00  0.00     0.116 C 
ENDROOT
BRANCH   1   2
ATOM      2  N   UNL A   1      30.892  25.288  26.845  1.00  0.00    -0.356 N 
ATOM      3  C   UNL A   1      31.530  24.126  26.536  1.00  0.00     0.227 C 
ATOM      4  O   UNL A   1      31.274  23.129  27.219  1.00  0.00    -0.274 OA
ATOM      5  H   UNL A   1      30.234  25.218  27.575  1.00  0.00     0.163 HD
BRANCH   3   6
ATOM      6  C   UNL A   1      32.531  24.025  25.385  1.00  0.00     0.103 C 
ATOM      7  C   UNL A   1      33.635  25.615  23.874  1.00  0.00     0.106 C 
ATOM      8  C   UNL A   1      34.550  25.137  24.956  1.00  0.00    -0.006 C 
ATOM      9  C   UNL A   1      32.275  25.016  24.248  1.00  0.00     0.047 C 
ATOM     10  C   UNL A   1      33.953  24.268  25.779  1.00  0.00    -0.016 C 
BRANCH   7  11
ATOM     11  N   UNL A   1      33.690  27.061  23.825  1.00  0.00    -0.350 N 
ATOM     12  C   UNL A   1      32.964  27.964  23.113  1.00  0.00     0.220 C 
ATOM     13  O   UNL A   1      33.366  29.128  23.078  1.00  0.00    -0.275 OA
ATOM     14  H   UNL A   1      34.375  27.461  24.411  1.00  0.00     0.164 HD
BRANCH  12  15
ATOM     15  C   UNL A   1      31.687  27.568  22.400  1.00  0.00     0.106 C 
BRANCH  15  16
ATOM     16  C   UNL A   1      30.419  28.152  23.033  1.00  0.00     0.074 C 
BRANCH  16  17
ATOM     17  C   UNL A   1      29.812  29.332  22.265  1.00  0.00     0.178 C 
ATOM     18  C   UNL A   1      28.991  30.270  23.153  1.00  0.00     0.075 C 
BRANCH  17  19
ATOM     19  N   UNL A   1      30.859  30.123  21.616  1.00  0.00    -0.355 N 
ATOM     20  H   UNL A   1      31.094  30.923  22.204  1.00  0.00     0.344 HD
ATOM     21  H   UNL A   1      30.524  30.454  20.712  1.00  0.00     0.344 HD
ATOM     22  H   UNL A   1      31.687  29.545  21.481  1.00  0.00     0.344 HD
ENDBRANCH  17  19
ENDBRANCH  16  17
ENDBRANCH  15  16
ENDBRANCH  12  15
ENDBRANCH   7  11
ENDBRANCH   3   6
ENDBRANCH   1   2
BRANCH   1  23
ATOM     23  C   UNL A   1      32.161  27.409  26.901  1.00  0.00     0.023 C 
BRANCH  23  24
ATOM     24  C   UNL A   1      31.911  28.913  26.982  1.00  0.00     0.023 C 
BRANCH  24  25
ATOM     25  C   UNL A   1      33.086  29.780  26.551  1.00  0.00     0.116 C 
BRANCH  25  26
ATOM     26  N   UNL A   1      32.957  31.172  26.958  1.00  0.00    -0.352 N 
ATOM     27  C   UNL A   1      33.840  31.915  27.704  1.00  0.00     0.251 C 
ATOM     28  H   UNL A   1      32.140  31.636  26.664  1.00  0.00     0.163 HD
ATOM     29  O   UNL A   1      33.556  33.058  28.049  1.00  0.00    -0.269 OA
BRANCH  27  30
ATOM     30  C   UNL A   1      35.110  31.290  28.119  1.00  0.00     0.039 A 
ATOM     31  C   UNL A   1      36.281  32.045  28.067  1.00  0.00     0.014 A 
ATOM     32  C   UNL A   1      35.117  29.994  28.644  1.00  0.00     0.014 A 
ATOM     33  C   UNL A   1      37.455  31.521  28.606  1.00  0.00     0.010 A 
ATOM     34  C   UNL A   1      36.267  29.508  29.252  1.00  0.00     0.010 A 
ATOM     35  C   UNL A   1      37.448  30.266  29.237  1.00  0.00    -0.014 A 
BRANCH  35  36
ATOM     36  C   UNL A   1      38.674  29.727  29.878  1.00  0.00     0.031 A 
ATOM     37  C   UNL A   1      39.095  30.233  31.229  1.00  0.00     0.074 A 
ATOM     38  C   UNL A   1      39.431  28.831  29.216  1.00  0.00     0.049 A 
ATOM     39  N   UNL A   1      40.151  29.927  31.936  1.00  0.00    -0.248 NA
ATOM     40  C   UNL A   1      38.230  31.247  31.851  1.00  0.00     0.031 C 
ATOM     41  C   UNL A   1      39.155  28.316  27.873  1.00  0.00     0.029 A 
ATOM     42  N   UNL A   1      40.594  28.199  29.579  1.00  0.00    -0.354 N 
ATOM     43  C   UNL A   1      40.087  30.720  33.076  1.00  0.00     0.074 A 
ATOM     44  C   UNL A   1      38.925  31.571  32.929  1.00  0.00     0.031 C 
ATOM     45  C   UNL A   1      40.103  27.427  27.537  1.00  0.00     0.029 A 
ATOM     46  C   UNL A   1      41.076  27.336  28.621  1.00  0.00     0.049 A 
ATOM     47  H   UNL A   1      41.041  28.349  30.442  1.00  0.00     0.167 HD
ATOM     48  C   UNL A   1      40.905  30.719  34.158  1.00  0.00     0.034 A 
ATOM     49  C   UNL A   1      42.179  26.563  28.618  1.00  0.00     0.034 A 
ATOM     50  C   UNL A   1      42.049  29.850  34.290  1.00  0.00     0.049 A 
ATOM     51  C   UNL A   1      43.070  26.571  29.834  1.00  0.00     0.074 A 
ATOM     52  C   UNL A   1      42.907  29.710  35.366  1.00  0.00     0.029 A 
ATOM     53  N   UNL A   1      42.499  28.974  33.308  1.00  0.00    -0.354 N 
ATOM     54  N   UNL A   1      42.957  27.275  30.938  1.00  0.00    -0.248 NA
ATOM     55  C   UNL A   1      44.227  25.669  29.809  1.00  0.00     0.031 C 
ATOM     56  C   UNL A   1      43.913  28.803  35.011  1.00  0.00     0.029 A 
ATOM     57  C   UNL A   1      43.641  28.318  33.741  1.00  0.00     0.049 A 
ATOM     58  H   UNL A   1      42.071  28.841  32.433  1.00  0.00     0.167 HD
ATOM     59  C   UNL A   1      44.018  26.881  31.748  1.00  0.00     0.074 A 
ATOM     60  C   UNL A   1      44.742  25.862  31.015  1.00  0.00     0.031 C 
ATOM     61  C   UNL A   1      44.364  27.320  32.986  1.00  0.00     0.034 A 
BRANCH  48  62
ATOM     62  C   UNL A   1      40.597  31.705  35.260  1.00  0.00     0.023 A 
ATOM     63  C   UNL A   1      39.609  31.448  36.228  1.00  0.00     0.031 A 
ATOM     64  C   UNL A   1      41.266  32.940  35.320  1.00  0.00     0.131 A 
ATOM     65  C   UNL A   1      39.257  32.441  37.154  1.00  0.00     0.055 A 
ATOM     66  C   UNL A   1      40.973  33.891  36.300  1.00  0.00     0.041 A 
ATOM     67  F   UNL A   1      42.204  33.254  34.412  1.00  0.00    -0.206 F 
ATOM     68  C   UNL A   1      39.950  33.651  37.215  1.00  0.00     0.022 A 
BRANCH  65  69
ATOM     69  S   UNL A   1      37.777  32.189  38.173  1.00  0.00     0.124 S 
ATOM     70  O   UNL A   1      37.453  30.794  37.882  1.00  0.00    -0.237 OA
ATOM     71  O   UNL A   1      38.269  32.464  39.517  1.00  0.00    -0.237 OA
ATOM     72  O   UNL A   1      36.826  33.164  37.643  1.00  0.00    -0.744 OA
ENDBRANCH  65  69
ENDBRANCH  48  62
BRANCH  49  73
ATOM     73  C   UNL A   1      42.508  25.720  27.434  1.00  0.00     0.023 A 
ATOM     74  C   UNL A   1      42.112  24.375  27.368  1.00  0.00     0.031 A 
ATOM     75  C   UNL A   1      43.254  26.241  26.362  1.00  0.00     0.131 A 
ATOM     76  C   UNL A   1      42.503  23.583  26.277  1.00  0.00     0.055 A 
ATOM     77  C   UNL A   1      43.598  25.462  25.255  1.00  0.00     0.041 A 
ATOM     78  F   UNL A   1      43.651  27.524  26.370  1.00  0.00    -0.206 F 
ATOM     79  C   UNL A   1      43.232  24.120  25.214  1.00  0.00     0.022 A 
BRANCH  76  80
ATOM     80  S   UNL A   1      42.104  21.812  26.302  1.00  0.00     0.124 S 
ATOM     81  O   UNL A   1      42.206  21.504  27.724  1.00  0.00    -0.237 OA
ATOM     82  O   UNL A   1      40.760  21.796  25.736  1.00  0.00    -0.237 OA
ATOM     83  O   UNL A   1      43.140  21.219  25.458  1.00  0.00    -0.744 OA
ENDBRANCH  76  80
ENDBRANCH  49  73
BRANCH  61  84
ATOM     84  C   UNL A   1      45.567  26.669  33.626  1.00  0.00     0.023 A 
ATOM     85  C   UNL A   1      45.434  25.580  34.504  1.00  0.00     0.031 A 
ATOM     86  C   UNL A   1      46.859  27.164  33.376  1.00  0.00     0.131 A 
ATOM     87  C   UNL A   1      46.565  25.064  35.153  1.00  0.00     0.055 A 
ATOM     88  C   UNL A   1      47.988  26.603  33.973  1.00  0.00     0.041 A 
ATOM     89  F   UNL A   1      47.044  28.204  32.547  1.00  0.00    -0.206 F 
ATOM     90  C   UNL A   1      47.844  25.557  34.881  1.00  0.00     0.022 A 
BRANCH  87  91
ATOM     91  S   UNL A   1      46.332  23.811  36.444  1.00  0.00     0.124 S 
ATOM     92  O   UNL A   1      46.516  24.595  37.663  1.00  0.00    -0.237 OA
ATOM     93  O   UNL A   1      44.974  23.345  36.184  1.00  0.00    -0.237 OA
ATOM     94  O   UNL A   1      47.385  22.835  36.170  1.00  0.00    -0.744 OA
ENDBRANCH  87  91
ENDBRANCH  61  84
ENDBRANCH  35  36
ENDBRANCH  27  30
ENDBRANCH  25  26
ENDBRANCH  24  25
ENDBRANCH  23  24
ENDBRANCH   1  23
TORSDOF 19
ENDMDL
MODEL 2
REMARK VINA RESULT:     -11.0      1.974      3.419
REMARK SMILES C[C@@H]([NH3+])CCC(=O)N[C@H]1C=C[C@@H](C(=O)NCCCCNC(=O)c2ccc(-c3c4nc(c(-c5cc(S(=O)(=O)[O-])ccc5F)c5ccc([nH]5)c(-c5cc(S(=O)(=O)[O-])ccc5F)c5nc(c(-c6cc(S(=O)(=O)[O-])ccc6F)c6ccc3[nH]6)C=C5)C=C4)cc2)C1
REMARK SMILES IDX 16 1 15 2 13 3 14 4 12 6 9 7 10 8 86 9 11 10 8 11 6 12 7 13
REMARK SMILES IDX 5 15 4 16 2 17 1 18 3 19 17 23 18 24 19 25 20 26 21 27 22 29
REMARK SMILES IDX 23 30 24 31 85 32 25 33 84 34 26 35 27 36 28 37 78 38 29 39
REMARK SMILES IDX 83 40 77 41 79 42 30 43 82 44 76 45 75 46 31 48 63 49 43 50
REMARK SMILES IDX 62 51 44 52 47 53 61 54 80 55 45 56 46 57 60 59 81 60 48 61
REMARK SMILES IDX 32 62 33 63 41 64 34 65 40 66 42 67 39 68 35 69 36 70 37 71
REMARK SMILES IDX 38 72 64 73 65 74 73 75 66 76 72 77 74 78 71 79 67 80 68 81
REMARK SMILES IDX 69 82 70 83 49 84 50 85 58 86 51 87 57 88 59 89 56 90 52 91
REMARK SMILES IDX 53 92 54 93 55 94
REMARK H PARENT 15 5 8 14 3 20 3 21 3 22 20 28 79 47 47 58
REMARK Flexibility Score: inf
ROOT
ATOM      1  C   UNL A   1      32.679  27.496  24.212  1.00  0.00     0.116 C 
ENDROOT
BRANCH   1   2
ATOM      2  N   UNL A   1      32.247  26.226  23.664  1.00  0.00    -0.356 N 
ATOM      3  C   UNL A   1      32.925  25.055  23.515  1.00  0.00     0.227 C 
ATOM      4  O   UNL A   1      32.309  24.086  23.061  1.00  0.00    -0.274 OA
ATOM      5  H   UNL A   1      31.315  26.207  23.348  1.00  0.00     0.163 HD
BRANCH   3   6
ATOM      6  C   UNL A   1      34.402  24.914  23.884  1.00  0.00     0.103 C 
ATOM      7  C   UNL A   1      35.678  23.675  25.577  1.00  0.00     0.106 C 
ATOM      8  C   UNL A   1      35.764  23.035  24.227  1.00  0.00    -0.006 C 
ATOM      9  C   UNL A   1      34.662  24.806  25.388  1.00  0.00     0.047 C 
ATOM     10  C   UNL A   1      35.073  23.710  23.302  1.00  0.00    -0.016 C 
BRANCH   7  11
ATOM     11  N   UNL A   1      35.317  22.663  26.547  1.00  0.00    -0.350 N 
ATOM     12  C   UNL A   1      34.293  21.767  26.570  1.00  0.00     0.220 C 
ATOM     13  O   UNL A   1      34.076  21.169  27.626  1.00  0.00    -0.275 OA
ATOM     14  H   UNL A   1      35.918  22.614  27.326  1.00  0.00     0.164 HD
BRANCH  12  15
ATOM     15  C   UNL A   1      33.455  21.488  25.339  1.00  0.00     0.106 C 
BRANCH  15  16
ATOM     16  C   UNL A   1      33.688  20.099  24.735  1.00  0.00     0.074 C 
BRANCH  16  17
ATOM     17  C   UNL A   1      32.626  19.058  25.110  1.00  0.00     0.178 C 
ATOM     18  C   UNL A   1      32.529  17.909  24.104  1.00  0.00     0.075 C 
BRANCH  17  19
ATOM     19  N   UNL A   1      32.903  18.486  26.428  1.00  0.00    -0.355 N 
ATOM     20  H   UNL A   1      33.262  17.537  26.318  1.00  0.00     0.344 HD
ATOM     21  H   UNL A   1      32.043  18.461  26.975  1.00  0.00     0.344 HD
ATOM     22  H   UNL A   1      33.596  19.058  26.909  1.00  0.00     0.344 HD
ENDBRANCH  17  19
ENDBRANCH  16  17
ENDBRANCH  15  16
ENDBRANCH  12  15
ENDBRANCH   7  11
ENDBRANCH   3   6
ENDBRANCH   1   2
BRANCH   1  23
ATOM     23  C   UNL A   1      32.171  27.719  25.634  1.00  0.00     0.023 C 
BRANCH  23  24
ATOM     24  C   UNL A   1      33.271  27.910  26.676  1.00  0.00     0.023 C 
BRANCH  24  25
ATOM     25  C   UNL A   1      34.277  29.003  26.348  1.00  0.00     0.116 C 
BRANCH  25  26
ATOM     26  N   UNL A   1      33.818  30.338  26.708  1.00  0.00    -0.352 N 
ATOM     27  C   UNL A   1      34.372  31.200  27.623  1.00  0.00     0.251 C 
ATOM     28  H   UNL A   1      33.015  30.661  26.238  1.00  0.00     0.163 HD
ATOM     29  O   UNL A   1      33.820  32.263  27.890  1.00  0.00    -0.269 OA
BRANCH  27  30
ATOM     30  C   UNL A   1      35.611  30.793  28.312  1.00  0.00     0.039 A 
ATOM     31  C   UNL A   1      35.535  29.836  29.324  1.00  0.00     0.014 A 
ATOM     32  C   UNL A   1      36.847  31.291  27.888  1.00  0.00     0.014 A 
ATOM     33  C   UNL A   1      36.712  29.326  29.869  1.00  0.00     0.010 A 
ATOM     34  C   UNL A   1      38.017  30.723  28.376  1.00  0.00     0.010 A 
ATOM     35  C   UNL A   1      37.961  29.736  29.374  1.00  0.00    -0.014 A 
BRANCH  35  36
ATOM     36  C   UNL A   1      39.220  29.150  29.896  1.00  0.00     0.031 A 
ATOM     37  C   UNL A   1      39.881  29.753  31.105  1.00  0.00     0.074 A 
ATOM     38  C   UNL A   1      39.794  28.119  29.246  1.00  0.00     0.049 A 
ATOM     39  N   UNL A   1      41.003  29.421  31.688  1.00  0.00    -0.248 NA
ATOM     40  C   UNL A   1      39.205  30.908  31.716  1.00  0.00     0.031 C 
ATOM     41  C   UNL A   1      39.276  27.494  28.026  1.00  0.00     0.029 A 
ATOM     42  N   UNL A   1      40.942  27.417  29.515  1.00  0.00    -0.354 N 
ATOM     43  C   UNL A   1      41.176  30.334  32.723  1.00  0.00     0.074 A 
ATOM     44  C   UNL A   1      40.079  31.274  32.640  1.00  0.00     0.031 C 
ATOM     45  C   UNL A   1      40.088  26.486  27.669  1.00  0.00     0.029 A 
ATOM     46  C   UNL A   1      41.202  26.414  28.609  1.00  0.00     0.049 A 
ATOM     47  H   UNL A   1      41.525  27.613  30.282  1.00  0.00     0.167 HD
ATOM     48  C   UNL A   1      42.146  30.367  33.671  1.00  0.00     0.034 A 
ATOM     49  C   UNL A   1      42.225  25.541  28.544  1.00  0.00     0.034 A 
ATOM     50  C   UNL A   1      43.221  29.408  33.744  1.00  0.00     0.049 A 
ATOM     51  C   UNL A   1      43.287  25.590  29.612  1.00  0.00     0.074 A 
ATOM     52  C   UNL A   1      44.217  29.300  34.698  1.00  0.00     0.029 A 
ATOM     53  N   UNL A   1      43.445  28.393  32.820  1.00  0.00    -0.354 N 
ATOM     54  N   UNL A   1      43.399  26.415  30.629  1.00  0.00    -0.248 NA
ATOM     55  C   UNL A   1      44.349  24.581  29.533  1.00  0.00     0.031 C 
ATOM     56  C   UNL A   1      45.080  28.266  34.316  1.00  0.00     0.029 A 
ATOM     57  C   UNL A   1      44.581  27.678  33.164  1.00  0.00     0.049 A 
ATOM     58  H   UNL A   1      42.880  28.211  32.036  1.00  0.00     0.167 HD
ATOM     59  C   UNL A   1      44.535  26.007  31.323  1.00  0.00     0.074 A 
ATOM     60  C   UNL A   1      45.054  24.850  30.623  1.00  0.00     0.031 C 
ATOM     61  C   UNL A   1      45.098  26.539  32.439  1.00  0.00     0.034 A 
BRANCH  48  62
ATOM     62  C   UNL A   1      42.088  31.489  34.680  1.00  0.00     0.023 A 
ATOM     63  C   UNL A   1      41.158  31.490  35.735  1.00  0.00     0.031 A 
ATOM     64  C   UNL A   1      42.943  32.599  34.562  1.00  0.00     0.131 A 
ATOM     65  C   UNL A   1      41.045  32.610  36.572  1.00  0.00     0.055 A 
ATOM     66  C   UNL A   1      42.886  33.673  35.452  1.00  0.00     0.041 A 
ATOM     67  F   UNL A   1      43.839  32.669  33.562  1.00  0.00    -0.206 F 
ATOM     68  C   UNL A   1      41.920  33.691  36.454  1.00  0.00     0.022 A 
BRANCH  65  69
ATOM     69  S   UNL A   1      39.635  32.701  37.710  1.00  0.00     0.124 S 
ATOM     70  O   UNL A   1      40.284  32.476  39.001  1.00  0.00    -0.237 OA
ATOM     71  O   UNL A   1      39.128  34.047  37.477  1.00  0.00    -0.237 OA
ATOM     72  O   UNL A   1      38.762  31.618  37.264  1.00  0.00    -0.744 OA
ENDBRANCH  65  69
ENDBRANCH  48  62
BRANCH  49  73
ATOM     73  C   UNL A   1      42.302  24.549  27.434  1.00  0.00     0.023 A 
ATOM     74  C   UNL A   1      41.519  23.383  27.448  1.00  0.00     0.031 A 
ATOM     75  C   UNL A   1      43.186  24.737  26.357  1.00  0.00     0.131 A 
ATOM     76  C   UNL A   1      41.668  22.428  26.429  1.00  0.00     0.055 A 
ATOM     77  C   UNL A   1      43.294  23.807  25.320  1.00  0.00     0.041 A 
ATOM     78  F   UNL A   1      43.951  25.838  26.290  1.00  0.00    -0.206 F 
ATOM     79  C   UNL A   1      42.541  22.638  25.360  1.00  0.00     0.022 A 
BRANCH  76  80
ATOM     80  S   UNL A   1      40.754  20.866  26.563  1.00  0.00     0.124 S 
ATOM     81  O   UNL A   1      40.778  20.629  28.002  1.00  0.00    -0.237 OA
ATOM     82  O   UNL A   1      39.460  21.223  25.992  1.00  0.00    -0.237 OA
ATOM     83  O   UNL A   1      41.550  19.937  25.763  1.00  0.00    -0.744 OA
ENDBRANCH  76  80
ENDBRANCH  49  73
BRANCH  61  84
ATOM     84  C   UNL A   1      46.327  25.844  32.976  1.00  0.00     0.023 A 
ATOM     85  C   UNL A   1      46.229  24.738  33.839  1.00  0.00     0.031 A 
ATOM     86  C   UNL A   1      47.610  26.313  32.645  1.00  0.00     0.131 A 
ATOM     87  C   UNL A   1      47.390  24.180  34.394  1.00  0.00     0.055 A 
ATOM     88  C   UNL A   1      48.764  25.712  33.148  1.00  0.00     0.041 A 
ATOM     89  F   UNL A   1      47.762  27.368  31.827  1.00  0.00    -0.206 F 
ATOM     90  C   UNL A   1      48.658  24.649  34.041  1.00  0.00     0.022 A 
BRANCH  87  91
ATOM     91  S   UNL A   1      47.217  22.904  35.671  1.00  0.00     0.124 S 
ATOM     92  O   UNL A   1      47.977  23.479  36.777  1.00  0.00    -0.237 OA
ATOM     93  O   UNL A   1      45.771  22.842  35.856  1.00  0.00    -0.237 OA
ATOM     94  O   UNL A   1      47.815  21.720  35.056  1.00  0.00    -0.744 OA
ENDBRANCH  87  91
ENDBRANCH  61  84
ENDBRANCH  35  36
ENDBRANCH  27  30
ENDBRANCH  25  26
ENDBRANCH  24  25
ENDBRANCH  23  24
ENDBRANCH   1  23
TORSDOF 19
ENDMDL
MODEL 3
REMARK VINA RESULT:     -10.8      5.082      7.595
REMARK SMILES C[C@@H]([NH3+])CCC(=O)N[C@H]1C=C[C@@H](C(=O)NCCCCNC(=O)c2ccc(-c3c4nc(c(-c5cc(S(=O)(=O)[O-])ccc5F)c5ccc([nH]5)c(-c5cc(S(=O)(=O)[O-])ccc5F)c5nc(c(-c6cc(S(=O)(=O)[O-])ccc6F)c6ccc3[nH]6)C=C5)C=C4)cc2)C1
REMARK SMILES IDX 16 1 15 2 13 3 14 4 12 6 9 7 10 8 86 9 11 10 8 11 6 12 7 13
REMARK SMILES IDX 5 15 4 16 2 17 1 18 3 19 17 23 18 24 19 25 20 26 21 27 22 29
REMARK SMILES IDX 23 30 24 31 85 32 25 33 84 34 26 35 27 36 28 37 78 38 29 39
REMARK SMILES IDX 83 40 77 41 79 42 30 43 82 44 76 45 75 46 31 48 63 49 43 50
REMARK SMILES IDX 62 51 44 52 47 53 61 54 80 55 45 56 46 57 60 59 81 60 48 61
REMARK SMILES IDX 32 62 33 63 41 64 34 65 40 66 42 67 39 68 35 69 36 70 37 71
REMARK SMILES IDX 38 72 64 73 65 74 73 75 66 76 72 77 74 78 71 79 67 80 68 81
REMARK SMILES IDX 69 82 70 83 49 84 50 85 58 86 51 87 57 88 59 89 56 90 52 91
REMARK SMILES IDX 53 92 54 93 55 94
REMARK H PARENT 15 5 8 14 3 20 3 21 3 22 20 28 79 47 47 58
REMARK Flexibility Score: inf
ROOT
ATOM      1  C   UNL A   1      34.688  23.228  25.544  1.00  0.00     0.116 C 
ENDROOT
BRANCH   1   2
ATOM      2  N   UNL A   1      34.097  22.761  26.782  1.00  0.00    -0.356 N 
ATOM      3  C   UNL A   1      32.856  22.970  27.300  1.00  0.00     0.227 C 
ATOM      4  O   UNL A   1      32.574  22.412  28.364  1.00  0.00    -0.274 OA
ATOM      5  H   UNL A   1      34.689  22.204  27.338  1.00  0.00     0.163 HD
BRANCH   3   6
ATOM      6  C   UNL A   1      31.825  23.867  26.613  1.00  0.00     0.103 C 
ATOM      7  C   UNL A   1      31.764  25.223  24.567  1.00  0.00     0.106 C 
ATOM      8  C   UNL A   1      31.020  23.935  24.411  1.00  0.00    -0.006 C 
ATOM      9  C   UNL A   1      32.424  25.107  25.945  1.00  0.00     0.047 C 
ATOM     10  C   UNL A   1      31.048  23.195  25.525  1.00  0.00    -0.016 C 
BRANCH   7  11
ATOM     11  N   UNL A   1      32.672  25.372  23.449  1.00  0.00    -0.350 N 
ATOM     12  C   UNL A   1      33.450  26.417  23.057  1.00  0.00     0.220 C 
ATOM     13  O   UNL A   1      33.956  26.369  21.935  1.00  0.00    -0.275 OA
ATOM     14  H   UNL A   1      32.737  24.577  22.870  1.00  0.00     0.164 HD
BRANCH  12  15
ATOM     15  C   UNL A   1      33.712  27.597  23.971  1.00  0.00     0.106 C 
BRANCH  15  16
ATOM     16  C   UNL A   1      32.894  28.844  23.621  1.00  0.00     0.074 C 
BRANCH  16  17
ATOM     17  C   UNL A   1      31.627  28.563  22.804  1.00  0.00     0.178 C 
ATOM     18  C   UNL A   1      30.367  28.456  23.664  1.00  0.00     0.075 C 
BRANCH  17  19
ATOM     19  N   UNL A   1      31.409  29.612  21.807  1.00  0.00    -0.355 N 
ATOM     20  H   UNL A   1      31.925  29.385  20.956  1.00  0.00     0.344 HD
ATOM     21  H   UNL A   1      31.736  30.504  22.174  1.00  0.00     0.344 HD
ATOM     22  H   UNL A   1      30.414  29.675  21.593  1.00  0.00     0.344 HD
ENDBRANCH  17  19
ENDBRANCH  16  17
ENDBRANCH  15  16
ENDBRANCH  12  15
ENDBRANCH   7  11
ENDBRANCH   3   6
ENDBRANCH   1   2
BRANCH   1  23
ATOM     23  C   UNL A   1      34.888  22.103  24.534  1.00  0.00     0.023 C 
BRANCH  23  24
ATOM     24  C   UNL A   1      35.856  21.011  24.985  1.00  0.00     0.023 C 
BRANCH  24  25
ATOM     25  C   UNL A   1      37.314  21.441  25.056  1.00  0.00     0.116 C 
BRANCH  25  26
ATOM     26  N   UNL A   1      38.218  20.358  25.417  1.00  0.00    -0.352 N 
ATOM     27  C   UNL A   1      39.422  20.451  26.073  1.00  0.00     0.251 C 
ATOM     28  H   UNL A   1      37.933  19.452  25.160  1.00  0.00     0.163 HD
ATOM     29  O   UNL A   1      40.124  19.457  26.230  1.00  0.00    -0.269 OA
BRANCH  27  30
ATOM     30  C   UNL A   1      39.870  21.778  26.536  1.00  0.00     0.039 A 
ATOM     31  C   UNL A   1      40.868  21.851  27.508  1.00  0.00     0.014 A 
ATOM     32  C   UNL A   1      39.366  22.938  25.940  1.00  0.00     0.014 A 
ATOM     33  C   UNL A   1      41.411  23.092  27.836  1.00  0.00     0.010 A 
ATOM     34  C   UNL A   1      39.965  24.162  26.209  1.00  0.00     0.010 A 
ATOM     35  C   UNL A   1      40.992  24.251  27.163  1.00  0.00    -0.014 A 
BRANCH  35  36
ATOM     36  C   UNL A   1      41.612  25.568  27.451  1.00  0.00     0.031 A 
ATOM     37  C   UNL A   1      40.849  26.597  28.239  1.00  0.00     0.074 A 
ATOM     38  C   UNL A   1      42.830  25.854  26.952  1.00  0.00     0.049 A 
ATOM     39  N   UNL A   1      41.191  27.818  28.557  1.00  0.00    -0.248 NA
ATOM     40  C   UNL A   1      39.506  26.210  28.699  1.00  0.00     0.031 C 
ATOM     41  C   UNL A   1      43.636  24.957  26.120  1.00  0.00     0.029 A 
ATOM     42  N   UNL A   1      43.602  26.982  27.065  1.00  0.00    -0.354 N 
ATOM     43  C   UNL A   1      40.102  28.350  29.239  1.00  0.00     0.074 A 
ATOM     44  C   UNL A   1      39.065  27.341  29.224  1.00  0.00     0.031 C 
ATOM     45  C   UNL A   1      44.799  25.558  25.822  1.00  0.00     0.029 A 
ATOM     46  C   UNL A   1      44.808  26.895  26.407  1.00  0.00     0.049 A 
ATOM     47  H   UNL A   1      43.321  27.780  27.568  1.00  0.00     0.167 HD
ATOM     48  C   UNL A   1      39.990  29.559  29.846  1.00  0.00     0.034 A 
ATOM     49  C   UNL A   1      45.805  27.794  26.288  1.00  0.00     0.034 A 
ATOM     50  C   UNL A   1      41.044  30.543  29.862  1.00  0.00     0.049 A 
ATOM     51  C   UNL A   1      45.662  29.127  26.976  1.00  0.00     0.074 A 
ATOM     52  C   UNL A   1      41.071  31.768  30.502  1.00  0.00     0.029 A 
ATOM     53  N   UNL A   1      42.261  30.415  29.200  1.00  0.00    -0.354 N 
ATOM     54  N   UNL A   1      44.654  29.591  27.680  1.00  0.00    -0.248 NA
ATOM     55  C   UNL A   1      46.797  30.050  26.868  1.00  0.00     0.031 C 
ATOM     56  C   UNL A   1      42.270  32.410  30.173  1.00  0.00     0.029 A 
ATOM     57  C   UNL A   1      43.028  31.554  29.389  1.00  0.00     0.049 A 
ATOM     58  H   UNL A   1      42.535  29.631  28.673  1.00  0.00     0.167 HD
ATOM     59  C   UNL A   1      45.046  30.853  28.117  1.00  0.00     0.074 A 
ATOM     60  C   UNL A   1      46.390  31.064  27.618  1.00  0.00     0.031 C 
ATOM     61  C   UNL A   1      44.360  31.756  28.863  1.00  0.00     0.034 A 
BRANCH  48  62
ATOM     62  C   UNL A   1      38.673  29.877  30.513  1.00  0.00     0.023 A 
ATOM     63  C   UNL A   1      37.669  30.613  29.857  1.00  0.00     0.031 A 
ATOM     64  C   UNL A   1      38.432  29.482  31.840  1.00  0.00     0.131 A 
ATOM     65  C   UNL A   1      36.516  31.004  30.553  1.00  0.00     0.055 A 
ATOM     66  C   UNL A   1      37.242  29.798  32.500  1.00  0.00     0.041 A 
ATOM     67  F   UNL A   1      39.359  28.796  32.529  1.00  0.00    -0.206 F 
ATOM     68  C   UNL A   1      36.283  30.579  31.862  1.00  0.00     0.022 A 
BRANCH  65  69
ATOM     69  S   UNL A   1      35.401  32.206  29.775  1.00  0.00     0.124 S 
ATOM     70  O   UNL A   1      34.886  31.440  28.642  1.00  0.00    -0.237 OA
ATOM     71  O   UNL A   1      34.449  32.489  30.841  1.00  0.00    -0.237 OA
ATOM     72  O   UNL A   1      36.286  33.313  29.417  1.00  0.00    -0.744 OA
ENDBRANCH  65  69
ENDBRANCH  48  62
BRANCH  49  73
ATOM     73  C   UNL A   1      47.021  27.472  25.488  1.00  0.00     0.023 A 
ATOM     74  C   UNL A   1      47.119  27.842  24.138  1.00  0.00     0.031 A 
ATOM     75  C   UNL A   1      48.090  26.758  26.056  1.00  0.00     0.131 A 
ATOM     76  C   UNL A   1      48.242  27.458  23.387  1.00  0.00     0.055 A 
ATOM     77  C   UNL A   1      49.228  26.422  25.318  1.00  0.00     0.041 A 
ATOM     78  F   UNL A   1      48.051  26.387  27.346  1.00  0.00    -0.206 F 
ATOM     79  C   UNL A   1      49.302  26.762  23.971  1.00  0.00     0.022 A 
BRANCH  76  80
ATOM     80  S   UNL A   1      48.263  27.820  21.609  1.00  0.00     0.124 S 
ATOM     81  O   UNL A   1      48.591  26.516  21.043  1.00  0.00    -0.237 OA
ATOM     82  O   UNL A   1      46.904  28.296  21.381  1.00  0.00    -0.237 OA
ATOM     83  O   UNL A   1      49.306  28.837  21.481  1.00  0.00    -0.744 OA
ENDBRANCH  76  80
ENDBRANCH  49  73
BRANCH  61  84
ATOM     84  C   UNL A   1      45.076  33.042  29.202  1.00  0.00     0.023 A 
ATOM     85  C   UNL A   1      44.989  34.174  28.373  1.00  0.00     0.031 A 
ATOM     86  C   UNL A   1      45.879  33.125  30.353  1.00  0.00     0.131 A 
ATOM     87  C   UNL A   1      45.744  35.317  28.670  1.00  0.00     0.055 A 
ATOM     88  C   UNL A   1      46.576  34.288  30.679  1.00  0.00     0.041 A 
ATOM     89  F   UNL A   1      46.001  32.073  31.179  1.00  0.00    -0.206 F 
ATOM     90  C   UNL A   1      46.525  35.388  29.827  1.00  0.00     0.022 A 
BRANCH  87  91
ATOM     91  S   UNL A   1      45.782  36.672  27.465  1.00  0.00     0.124 S 
ATOM     92  O   UNL A   1      46.545  36.082  26.369  1.00  0.00    -0.237 OA
ATOM     93  O   UNL A   1      44.364  36.898  27.205  1.00  0.00    -0.237 OA
ATOM     94  O   UNL A   1      46.460  37.751  28.183  1.00  0.00    -0.744 OA
ENDBRANCH  87  91
ENDBRANCH  61  84
ENDBRANCH  35  36
ENDBRANCH  27  30
ENDBRANCH  25  26
ENDBRANCH  24  25
ENDBRANCH  23  24
ENDBRANCH   1  23
TORSDOF 19
ENDMDL
