MODEL 1
REMARK VINA RESULT:     -11.9      0.000      0.000
REMARK SMILES COc1ccc2cc([C@H](C)C(=O)NCCCCNC(=O)c3ccc(-c4c5nc(c(-c6cc(S(=O)(=O)[O-])ccc6F)c6ccc([nH]6)c(-c6cc(S(=O)(=O)[O-])ccc6F)c6nc(c(-c7cc(S(=O)(=O)[O-])ccc7F)c7ccc4[nH]7)C=C6)C=C5)cc3)ccc2c1
REMARK SMILES IDX 16 1 15 2 14 3 13 4 11 5 12 6 9 8 10 9 8 10 3 11 4 12 87 13
REMARK SMILES IDX 5 14 86 15 6 16 85 17 7 18 84 19 2 20 1 21 17 22 18 23 19 24
REMARK SMILES IDX 20 26 21 27 22 28 83 29 23 30 82 31 24 32 25 33 26 34 76 35
REMARK SMILES IDX 27 36 81 37 75 38 77 39 28 40 80 41 74 42 73 43 29 45 61 46
REMARK SMILES IDX 41 47 60 48 42 49 45 50 59 51 78 52 43 53 44 54 58 56 79 57
REMARK SMILES IDX 46 58 30 59 31 60 39 61 32 62 38 63 40 64 37 65 33 66 34 67
REMARK SMILES IDX 35 68 36 69 62 70 63 71 71 72 64 73 70 74 72 75 69 76 65 77
REMARK SMILES IDX 66 78 67 79 68 80 47 81 48 82 56 83 49 84 55 85 57 86 54 87
REMARK SMILES IDX 50 88 51 89 52 90 53 91
REMARK H PARENT 13 7 18 25 77 44 45 55
REMARK Flexibility Score: inf
ROOT
ATOM      1  C   UNL A   1      31.448  31.829  26.554  1.00  0.00     0.023 C 
ENDROOT
BRANCH   1   2
ATOM      2  C   UNL A   1      31.531  30.355  26.178  1.00  0.00     0.023 C 
BRANCH   2   3
ATOM      3  C   UNL A   1      32.207  29.460  27.206  1.00  0.00     0.116 C 
BRANCH   3   4
ATOM      4  N   UNL A   1      31.583  28.161  27.380  1.00  0.00    -0.356 N 
ATOM      5  C   UNL A   1      31.836  26.993  26.703  1.00  0.00     0.227 C 
ATOM      6  O   UNL A   1      31.274  25.965  27.090  1.00  0.00    -0.274 OA
ATOM      7  H   UNL A   1      30.887  28.110  28.074  1.00  0.00     0.163 HD
BRANCH   5   8
ATOM      8  C   UNL A   1      32.785  26.954  25.478  1.00  0.00     0.105 C 
ATOM      9  C   UNL A   1      33.541  25.621  25.455  1.00  0.00     0.023 C 
BRANCH   8  10
ATOM     10  C   UNL A   1      32.034  27.400  24.224  1.00  0.00    -0.035 A 
ATOM     11  C   UNL A   1      28.575  30.160  21.858  1.00  0.00     0.119 A 
ATOM     12  C   UNL A   1      27.865  29.260  22.648  1.00  0.00     0.047 A 
ATOM     13  C   UNL A   1      29.949  30.006  21.679  1.00  0.00     0.055 A 
ATOM     14  C   UNL A   1      28.543  28.244  23.323  1.00  0.00     0.012 A 
ATOM     15  C   UNL A   1      30.651  29.028  22.398  1.00  0.00    -0.015 A 
ATOM     16  C   UNL A   1      29.940  28.147  23.243  1.00  0.00    -0.018 A 
ATOM     17  C   UNL A   1      32.048  28.963  22.363  1.00  0.00     0.009 A 
ATOM     18  C   UNL A   1      30.646  27.272  24.082  1.00  0.00     0.013 A 
ATOM     19  C   UNL A   1      32.734  28.177  23.287  1.00  0.00     0.005 A 
BRANCH  11  20
ATOM     20  O   UNL A   1      27.981  31.209  21.209  1.00  0.00    -0.497 OA
ATOM     21  C   UNL A   1      28.137  32.446  21.912  1.00  0.00     0.278 C 
ENDBRANCH  11  20
ENDBRANCH   8  10
ENDBRANCH   5   8
ENDBRANCH   3   4
ENDBRANCH   2   3
ENDBRANCH   1   2
BRANCH   1  22
ATOM     22  C   UNL A   1      32.701  32.425  27.188  1.00  0.00     0.116 C 
BRANCH  22  23
ATOM     23  N   UNL A   1      32.550  33.816  27.595  1.00  0.00    -0.352 N 
ATOM     24  C   UNL A   1      33.255  34.529  28.538  1.00  0.00     0.251 C 
ATOM     25  H   UNL A   1      31.843  34.318  27.130  1.00  0.00     0.163 HD
ATOM     26  O   UNL A   1      32.928  35.684  28.806  1.00  0.00    -0.269 OA
BRANCH  24  27
ATOM     27  C   UNL A   1      34.391  33.892  29.242  1.00  0.00     0.039 A 
ATOM     28  C   UNL A   1      34.138  32.930  30.224  1.00  0.00     0.014 A 
ATOM     29  C   UNL A   1      35.705  34.221  28.903  1.00  0.00     0.014 A 
ATOM     30  C   UNL A   1      35.207  32.241  30.808  1.00  0.00     0.010 A 
ATOM     31  C   UNL A   1      36.759  33.474  29.420  1.00  0.00     0.010 A 
ATOM     32  C   UNL A   1      36.524  32.477  30.381  1.00  0.00    -0.014 A 
BRANCH  32  33
ATOM     33  C   UNL A   1      37.677  31.724  30.943  1.00  0.00     0.031 A 
ATOM     34  C   UNL A   1      38.147  32.014  32.344  1.00  0.00     0.074 A 
ATOM     35  C   UNL A   1      38.348  30.839  30.178  1.00  0.00     0.049 A 
ATOM     36  N   UNL A   1      39.191  31.556  32.984  1.00  0.00    -0.248 NA
ATOM     37  C   UNL A   1      37.351  32.985  33.109  1.00  0.00     0.031 C 
ATOM     38  C   UNL A   1      38.020  30.493  28.794  1.00  0.00     0.029 A 
ATOM     39  N   UNL A   1      39.453  30.073  30.457  1.00  0.00    -0.354 N 
ATOM     40  C   UNL A   1      39.188  32.194  34.221  1.00  0.00     0.074 A 
ATOM     41  C   UNL A   1      38.082  33.130  34.202  1.00  0.00     0.031 C 
ATOM     42  C   UNL A   1      38.883  29.562  28.357  1.00  0.00     0.029 A 
ATOM     43  C   UNL A   1      39.853  29.276  29.409  1.00  0.00     0.049 A 
ATOM     44  H   UNL A   1      39.916  30.092  31.326  1.00  0.00     0.167 HD
ATOM     45  C   UNL A   1      40.006  31.999  35.284  1.00  0.00     0.034 A 
ATOM     46  C   UNL A   1      40.886  28.415  29.308  1.00  0.00     0.034 A 
ATOM     47  C   UNL A   1      41.097  31.054  35.293  1.00  0.00     0.049 A 
ATOM     48  C   UNL A   1      41.804  28.234  30.491  1.00  0.00     0.074 A 
ATOM     49  C   UNL A   1      41.969  30.747  36.324  1.00  0.00     0.029 A 
ATOM     50  N   UNL A   1      41.468  30.261  34.214  1.00  0.00    -0.354 N 
ATOM     51  N   UNL A   1      41.768  28.821  31.665  1.00  0.00    -0.248 NA
ATOM     52  C   UNL A   1      42.896  27.263  30.335  1.00  0.00     0.031 C 
ATOM     53  C   UNL A   1      42.899  29.814  35.851  1.00  0.00     0.029 A 
ATOM     54  C   UNL A   1      42.566  29.482  34.547  1.00  0.00     0.049 A 
ATOM     55  H   UNL A   1      41.016  30.253  33.338  1.00  0.00     0.167 HD
ATOM     56  C   UNL A   1      42.809  28.258  32.401  1.00  0.00     0.074 A 
ATOM     57  C   UNL A   1      43.447  27.284  31.540  1.00  0.00     0.031 C 
ATOM     58  C   UNL A   1      43.195  28.516  33.677  1.00  0.00     0.034 A 
BRANCH  45  59
ATOM     59  C   UNL A   1      39.751  32.847  36.510  1.00  0.00     0.023 A 
ATOM     60  C   UNL A   1      38.969  32.373  37.579  1.00  0.00     0.031 A 
ATOM     61  C   UNL A   1      40.235  34.164  36.586  1.00  0.00     0.131 A 
ATOM     62  C   UNL A   1      38.603  33.239  38.620  1.00  0.00     0.055 A 
ATOM     63  C   UNL A   1      39.948  34.992  37.675  1.00  0.00     0.041 A 
ATOM     64  F   UNL A   1      40.972  34.682  35.591  1.00  0.00    -0.206 F 
ATOM     65  C   UNL A   1      39.109  34.538  38.689  1.00  0.00     0.022 A 
BRANCH  62  66
ATOM     66  S   UNL A   1      37.310  32.701  39.773  1.00  0.00     0.124 S 
ATOM     67  O   UNL A   1      37.335  33.774  40.765  1.00  0.00    -0.237 OA
ATOM     68  O   UNL A   1      36.129  32.645  38.920  1.00  0.00    -0.237 OA
ATOM     69  O   UNL A   1      37.796  31.408  40.252  1.00  0.00    -0.744 OA
ENDBRANCH  62  66
ENDBRANCH  45  59
BRANCH  46  70
ATOM     70  C   UNL A   1      41.111  27.646  28.052  1.00  0.00     0.023 A 
ATOM     71  C   UNL A   1      40.824  26.272  27.993  1.00  0.00     0.031 A 
ATOM     72  C   UNL A   1      41.649  28.257  26.907  1.00  0.00     0.131 A 
ATOM     73  C   UNL A   1      41.120  25.544  26.831  1.00  0.00     0.055 A 
ATOM     74  C   UNL A   1      41.898  27.539  25.736  1.00  0.00     0.041 A 
ATOM     75  F   UNL A   1      41.934  29.570  26.908  1.00  0.00    -0.206 F 
ATOM     76  C   UNL A   1      41.643  26.170  25.698  1.00  0.00     0.022 A 
BRANCH  73  77
ATOM     77  S   UNL A   1      40.876  23.748  26.847  1.00  0.00     0.124 S 
ATOM     78  O   UNL A   1      41.165  23.421  28.238  1.00  0.00    -0.237 OA
ATOM     79  O   UNL A   1      39.481  23.628  26.435  1.00  0.00    -0.237 OA
ATOM     80  O   UNL A   1      41.853  23.263  25.874  1.00  0.00    -0.744 OA
ENDBRANCH  73  77
ENDBRANCH  46  70
BRANCH  58  81
ATOM     81  C   UNL A   1      44.325  27.684  34.232  1.00  0.00     0.023 A 
ATOM     82  C   UNL A   1      44.101  26.433  34.833  1.00  0.00     0.031 A 
ATOM     83  C   UNL A   1      45.646  28.163  34.171  1.00  0.00     0.131 A 
ATOM     84  C   UNL A   1      45.175  25.728  35.400  1.00  0.00     0.055 A 
ATOM     85  C   UNL A   1      46.717  27.432  34.684  1.00  0.00     0.041 A 
ATOM     86  F   UNL A   1      45.916  29.351  33.610  1.00  0.00    -0.206 F 
ATOM     87  C   UNL A   1      46.484  26.213  35.315  1.00  0.00     0.022 A 
BRANCH  84  88
ATOM     88  S   UNL A   1      44.828  24.211  36.332  1.00  0.00     0.124 S 
ATOM     89  O   UNL A   1      43.607  23.733  35.691  1.00  0.00    -0.237 OA
ATOM     90  O   UNL A   1      46.028  23.417  36.090  1.00  0.00    -0.237 OA
ATOM     91  O   UNL A   1      44.663  24.682  37.706  1.00  0.00    -0.744 OA
ENDBRANCH  84  88
ENDBRANCH  58  81
ENDBRANCH  32  33
ENDBRANCH  24  27
ENDBRANCH  22  23
ENDBRANCH   1  22
TORSDOF 16
ENDMDL
MODEL 2
REMARK VINA RESULT:     -11.9      3.455      6.615
REMARK SMILES COc1ccc2cc([C@H](C)C(=O)NCCCCNC(=O)c3ccc(-c4c5nc(c(-c6cc(S(=O)(=O)[O-])ccc6F)c6ccc([nH]6)c(-c6cc(S(=O)(=O)[O-])ccc6F)c6nc(c(-c7cc(S(=O)(=O)[O-])ccc7F)c7ccc4[nH]7)C=C6)C=C5)cc3)ccc2c1
REMARK SMILES IDX 16 1 15 2 14 3 13 4 11 5 12 6 9 8 10 9 8 10 3 11 4 12 87 13
REMARK SMILES IDX 5 14 86 15 6 16 85 17 7 18 84 19 2 20 1 21 17 22 18 23 19 24
REMARK SMILES IDX 20 26 21 27 22 28 83 29 23 30 82 31 24 32 25 33 26 34 76 35
REMARK SMILES IDX 27 36 81 37 75 38 77 39 28 40 80 41 74 42 73 43 29 45 61 46
REMARK SMILES IDX 41 47 60 48 42 49 45 50 59 51 78 52 43 53 44 54 58 56 79 57
REMARK SMILES IDX 46 58 30 59 31 60 39 61 32 62 38 63 40 64 37 65 33 66 34 67
REMARK SMILES IDX 35 68 36 69 62 70 63 71 71 72 64 73 70 74 72 75 69 76 65 77
REMARK SMILES IDX 66 78 67 79 68 80 47 81 48 82 56 83 49 84 55 85 57 86 54 87
REMARK SMILES IDX 50 88 51 89 52 90 53 91
REMARK H PARENT 13 7 18 25 77 44 45 55
REMARK Flexibility Score: inf
ROOT
ATOM      1  C   UNL A   1      34.467  35.144  28.120  1.00  0.00     0.023 C 
ENDROOT
BRANCH   1   2
ATOM      2  C   UNL A   1      33.196  35.557  28.850  1.00  0.00     0.023 C 
BRANCH   2   3
ATOM      3  C   UNL A   1      33.350  35.787  30.346  1.00  0.00     0.116 C 
BRANCH   3   4
ATOM      4  N   UNL A   1      33.240  34.588  31.156  1.00  0.00    -0.356 N 
ATOM      5  C   UNL A   1      33.874  34.292  32.337  1.00  0.00     0.227 C 
ATOM      6  O   UNL A   1      33.546  33.260  32.929  1.00  0.00    -0.274 OA
ATOM      7  H   UNL A   1      32.629  33.895  30.814  1.00  0.00     0.163 HD
BRANCH   5   8
ATOM      8  C   UNL A   1      34.982  35.210  32.915  1.00  0.00     0.105 C 
ATOM      9  C   UNL A   1      34.591  35.662  34.327  1.00  0.00     0.023 C 
BRANCH   8  10
ATOM     10  C   UNL A   1      36.353  34.570  32.698  1.00  0.00    -0.035 A 
ATOM     11  C   UNL A   1      40.966  34.504  30.724  1.00  0.00     0.119 A 
ATOM     12  C   UNL A   1      40.093  34.341  29.651  1.00  0.00     0.047 A 
ATOM     13  C   UNL A   1      40.495  34.418  32.033  1.00  0.00     0.055 A 
ATOM     14  C   UNL A   1      38.729  34.164  29.887  1.00  0.00     0.012 A 
ATOM     15  C   UNL A   1      39.120  34.301  32.283  1.00  0.00    -0.015 A 
ATOM     16  C   UNL A   1      38.225  34.190  31.195  1.00  0.00    -0.018 A 
ATOM     17  C   UNL A   1      38.609  34.381  33.583  1.00  0.00     0.009 A 
ATOM     18  C   UNL A   1      36.842  34.231  31.429  1.00  0.00     0.013 A 
ATOM     19  C   UNL A   1      37.239  34.542  33.787  1.00  0.00     0.005 A 
BRANCH  11  20
ATOM     20  O   UNL A   1      42.306  34.731  30.564  1.00  0.00    -0.497 OA
ATOM     21  C   UNL A   1      42.935  33.739  29.746  1.00  0.00     0.278 C 
ENDBRANCH  11  20
ENDBRANCH   8  10
ENDBRANCH   5   8
ENDBRANCH   3   4
ENDBRANCH   2   3
ENDBRANCH   1   2
BRANCH   1  22
ATOM     22  C   UNL A   1      34.908  33.697  28.320  1.00  0.00     0.116 C 
BRANCH  22  23
ATOM     23  N   UNL A   1      33.998  32.718  27.737  1.00  0.00    -0.352 N 
ATOM     24  C   UNL A   1      34.188  31.372  27.522  1.00  0.00     0.251 C 
ATOM     25  H   UNL A   1      33.123  33.070  27.456  1.00  0.00     0.163 HD
ATOM     26  O   UNL A   1      33.328  30.717  26.936  1.00  0.00    -0.269 OA
BRANCH  24  27
ATOM     27  C   UNL A   1      35.439  30.726  27.977  1.00  0.00     0.039 A 
ATOM     28  C   UNL A   1      36.668  31.323  27.682  1.00  0.00     0.014 A 
ATOM     29  C   UNL A   1      35.393  29.548  28.726  1.00  0.00     0.014 A 
ATOM     30  C   UNL A   1      37.845  30.781  28.210  1.00  0.00     0.010 A 
ATOM     31  C   UNL A   1      36.553  29.062  29.321  1.00  0.00     0.010 A 
ATOM     32  C   UNL A   1      37.794  29.669  29.068  1.00  0.00    -0.014 A 
BRANCH  32  33
ATOM     33  C   UNL A   1      39.020  29.101  29.689  1.00  0.00     0.031 A 
ATOM     34  C   UNL A   1      39.496  29.626  31.017  1.00  0.00     0.074 A 
ATOM     35  C   UNL A   1      39.747  28.174  29.033  1.00  0.00     0.049 A 
ATOM     36  N   UNL A   1      40.591  29.351  31.678  1.00  0.00    -0.248 NA
ATOM     37  C   UNL A   1      38.637  30.627  31.667  1.00  0.00     0.031 C 
ATOM     38  C   UNL A   1      39.418  27.609  27.723  1.00  0.00     0.029 A 
ATOM     39  N   UNL A   1      40.920  27.550  29.376  1.00  0.00    -0.354 N 
ATOM     40  C   UNL A   1      40.562  30.157  32.812  1.00  0.00     0.074 A 
ATOM     41  C   UNL A   1      39.379  30.986  32.702  1.00  0.00     0.031 C 
ATOM     42  C   UNL A   1      40.347  26.698  27.390  1.00  0.00     0.029 A 
ATOM     43  C   UNL A   1      41.363  26.646  28.437  1.00  0.00     0.049 A 
ATOM     44  H   UNL A   1      41.400  27.731  30.217  1.00  0.00     0.167 HD
ATOM     45  C   UNL A   1      41.419  30.184  33.863  1.00  0.00     0.034 A 
ATOM     46  C   UNL A   1      42.464  25.868  28.421  1.00  0.00     0.034 A 
ATOM     47  C   UNL A   1      42.587  29.343  33.965  1.00  0.00     0.049 A 
ATOM     48  C   UNL A   1      43.422  25.933  29.585  1.00  0.00     0.074 A 
ATOM     49  C   UNL A   1      43.506  29.259  34.997  1.00  0.00     0.029 A 
ATOM     50  N   UNL A   1      42.999  28.437  32.995  1.00  0.00    -0.354 N 
ATOM     51  N   UNL A   1      43.363  26.677  30.665  1.00  0.00    -0.248 NA
ATOM     52  C   UNL A   1      44.589  25.043  29.528  1.00  0.00     0.031 C 
ATOM     53  C   UNL A   1      44.502  28.347  34.627  1.00  0.00     0.029 A 
ATOM     54  C   UNL A   1      44.168  27.806  33.396  1.00  0.00     0.049 A 
ATOM     55  H   UNL A   1      42.529  28.267  32.147  1.00  0.00     0.167 HD
ATOM     56  C   UNL A   1      44.465  26.313  31.435  1.00  0.00     0.074 A 
ATOM     57  C   UNL A   1      45.165  25.281  30.697  1.00  0.00     0.031 C 
ATOM     58  C   UNL A   1      44.858  26.781  32.647  1.00  0.00     0.034 A 
BRANCH  45  59
ATOM     59  C   UNL A   1      41.120  31.174  34.966  1.00  0.00     0.023 A 
ATOM     60  C   UNL A   1      40.032  30.993  35.839  1.00  0.00     0.031 A 
ATOM     61  C   UNL A   1      41.885  32.345  35.107  1.00  0.00     0.131 A 
ATOM     62  C   UNL A   1      39.674  32.010  36.736  1.00  0.00     0.055 A 
ATOM     63  C   UNL A   1      41.581  33.311  36.070  1.00  0.00     0.041 A 
ATOM     64  F   UNL A   1      42.925  32.586  34.294  1.00  0.00    -0.206 F 
ATOM     65  C   UNL A   1      40.457  33.157  36.876  1.00  0.00     0.022 A 
BRANCH  62  66
ATOM     66  S   UNL A   1      38.069  31.892  37.574  1.00  0.00     0.124 S 
ATOM     67  O   UNL A   1      38.449  32.115  38.968  1.00  0.00    -0.237 OA
ATOM     68  O   UNL A   1      37.303  32.958  36.942  1.00  0.00    -0.237 OA
ATOM     69  O   UNL A   1      37.623  30.534  37.268  1.00  0.00    -0.744 OA
ENDBRANCH  62  66
ENDBRANCH  45  59
BRANCH  46  70
ATOM     70  C   UNL A   1      42.724  24.948  27.278  1.00  0.00     0.023 A 
ATOM     71  C   UNL A   1      42.200  23.646  27.274  1.00  0.00     0.031 A 
ATOM     72  C   UNL A   1      43.529  25.338  26.195  1.00  0.00     0.131 A 
ATOM     73  C   UNL A   1      42.523  22.764  26.232  1.00  0.00     0.055 A 
ATOM     74  C   UNL A   1      43.810  24.473  25.136  1.00  0.00     0.041 A 
ATOM     75  F   UNL A   1      44.049  26.576  26.147  1.00  0.00    -0.206 F 
ATOM     76  C   UNL A   1      43.315  23.172  25.157  1.00  0.00     0.022 A 
BRANCH  73  77
ATOM     77  S   UNL A   1      41.950  21.047  26.339  1.00  0.00     0.124 S 
ATOM     78  O   UNL A   1      40.553  21.174  25.941  1.00  0.00    -0.237 OA
ATOM     79  O   UNL A   1      42.831  20.374  25.390  1.00  0.00    -0.237 OA
ATOM     80  O   UNL A   1      42.171  20.701  27.742  1.00  0.00    -0.744 OA
ENDBRANCH  73  77
ENDBRANCH  46  70
BRANCH  58  81
ATOM     81  C   UNL A   1      46.068  26.132  33.274  1.00  0.00     0.023 A 
ATOM     82  C   UNL A   1      45.970  24.953  34.032  1.00  0.00     0.031 A 
ATOM     83  C   UNL A   1      47.337  26.718  33.119  1.00  0.00     0.131 A 
ATOM     84  C   UNL A   1      47.113  24.427  34.655  1.00  0.00     0.055 A 
ATOM     85  C   UNL A   1      48.479  26.158  33.692  1.00  0.00     0.041 A 
ATOM     86  F   UNL A   1      47.487  27.845  32.406  1.00  0.00    -0.206 F 
ATOM     87  C   UNL A   1      48.370  25.014  34.477  1.00  0.00     0.022 A 
BRANCH  84  88
ATOM     88  S   UNL A   1      46.923  23.016  35.779  1.00  0.00     0.124 S 
ATOM     89  O   UNL A   1      46.204  23.614  36.899  1.00  0.00    -0.237 OA
ATOM     90  O   UNL A   1      46.165  22.071  34.966  1.00  0.00    -0.237 OA
ATOM     91  O   UNL A   1      48.300  22.619  36.068  1.00  0.00    -0.744 OA
ENDBRANCH  84  88
ENDBRANCH  58  81
ENDBRANCH  32  33
ENDBRANCH  24  27
ENDBRANCH  22  23
ENDBRANCH   1  22
TORSDOF 16
ENDMDL
MODEL 3
REMARK VINA RESULT:     -11.9      1.588      7.790
REMARK SMILES COc1ccc2cc([C@H](C)C(=O)NCCCCNC(=O)c3ccc(-c4c5nc(c(-c6cc(S(=O)(=O)[O-])ccc6F)c6ccc([nH]6)c(-c6cc(S(=O)(=O)[O-])ccc6F)c6nc(c(-c7cc(S(=O)(=O)[O-])ccc7F)c7ccc4[nH]7)C=C6)C=C5)cc3)ccc2c1
REMARK SMILES IDX 16 1 15 2 14 3 13 4 11 5 12 6 9 8 10 9 8 10 3 11 4 12 87 13
REMARK SMILES IDX 5 14 86 15 6 16 85 17 7 18 84 19 2 20 1 21 17 22 18 23 19 24
REMARK SMILES IDX 20 26 21 27 22 28 83 29 23 30 82 31 24 32 25 33 26 34 76 35
REMARK SMILES IDX 27 36 81 37 75 38 77 39 28 40 80 41 74 42 73 43 29 45 61 46
REMARK SMILES IDX 41 47 60 48 42 49 45 50 59 51 78 52 43 53 44 54 58 56 79 57
REMARK SMILES IDX 46 58 30 59 31 60 39 61 32 62 38 63 40 64 37 65 33 66 34 67
REMARK SMILES IDX 35 68 36 69 62 70 63 71 71 72 64 73 70 74 72 75 69 76 65 77
REMARK SMILES IDX 66 78 67 79 68 80 47 81 48 82 56 83 49 84 55 85 57 86 54 87
REMARK SMILES IDX 50 88 51 89 52 90 53 91
REMARK H PARENT 13 7 18 25 77 44 45 55
REMARK Flexibility Score: inf
ROOT
ATOM      1  C   UNL A   1      31.754  31.217  26.877  1.00  0.00     0.023 C 
ENDROOT
BRANCH   1   2
ATOM      2  C   UNL A   1      32.074  29.872  26.240  1.00  0.00     0.023 C 
BRANCH   2   3
ATOM      3  C   UNL A   1      32.447  28.764  27.214  1.00  0.00     0.116 C 
BRANCH   3   4
ATOM      4  N   UNL A   1      31.492  27.672  27.283  1.00  0.00    -0.356 N 
ATOM      5  C   UNL A   1      31.367  26.592  26.444  1.00  0.00     0.227 C 
ATOM      6  O   UNL A   1      30.559  25.710  26.751  1.00  0.00    -0.274 OA
ATOM      7  H   UNL A   1      30.851  27.712  28.028  1.00  0.00     0.163 HD
BRANCH   5   8
ATOM      8  C   UNL A   1      32.195  26.478  25.139  1.00  0.00     0.105 C 
ATOM      9  C   UNL A   1      32.686  25.035  24.966  1.00  0.00     0.023 C 
BRANCH   8  10
ATOM     10  C   UNL A   1      31.445  27.146  23.987  1.00  0.00    -0.035 A 
ATOM     11  C   UNL A   1      28.033  30.340  22.161  1.00  0.00     0.119 A 
ATOM     12  C   UNL A   1      27.308  29.334  22.794  1.00  0.00     0.047 A 
ATOM     13  C   UNL A   1      29.402  30.190  21.944  1.00  0.00     0.055 A 
ATOM     14  C   UNL A   1      27.968  28.203  23.278  1.00  0.00     0.012 A 
ATOM     15  C   UNL A   1      30.086  29.090  22.479  1.00  0.00    -0.015 A 
ATOM     16  C   UNL A   1      29.362  28.092  23.169  1.00  0.00    -0.018 A 
ATOM     17  C   UNL A   1      31.482  29.003  22.418  1.00  0.00     0.009 A 
ATOM     18  C   UNL A   1      30.054  27.073  23.839  1.00  0.00     0.013 A 
ATOM     19  C   UNL A   1      32.156  28.056  23.188  1.00  0.00     0.005 A 
BRANCH  11  20
ATOM     20  O   UNL A   1      27.458  31.496  21.706  1.00  0.00    -0.497 OA
ATOM     21  C   UNL A   1      28.046  31.956  20.485  1.00  0.00     0.278 C 
ENDBRANCH  11  20
ENDBRANCH   8  10
ENDBRANCH   5   8
ENDBRANCH   3   4
ENDBRANCH   2   3
ENDBRANCH   1   2
BRANCH   1  22
ATOM     22  C   UNL A   1      32.957  32.087  27.232  1.00  0.00     0.116 C 
BRANCH  22  23
ATOM     23  N   UNL A   1      32.620  33.481  27.492  1.00  0.00    -0.352 N 
ATOM     24  C   UNL A   1      33.161  34.352  28.411  1.00  0.00     0.251 C 
ATOM     25  H   UNL A   1      31.901  33.854  26.931  1.00  0.00     0.163 HD
ATOM     26  O   UNL A   1      32.686  35.478  28.543  1.00  0.00    -0.269 OA
BRANCH  24  27
ATOM     27  C   UNL A   1      34.298  33.916  29.252  1.00  0.00     0.039 A 
ATOM     28  C   UNL A   1      34.066  33.061  30.333  1.00  0.00     0.014 A 
ATOM     29  C   UNL A   1      35.598  34.326  28.948  1.00  0.00     0.014 A 
ATOM     30  C   UNL A   1      35.149  32.553  31.059  1.00  0.00     0.010 A 
ATOM     31  C   UNL A   1      36.677  33.752  29.614  1.00  0.00     0.010 A 
ATOM     32  C   UNL A   1      36.467  32.861  30.679  1.00  0.00    -0.014 A 
BRANCH  32  33
ATOM     33  C   UNL A   1      37.641  32.296  31.395  1.00  0.00     0.031 A 
ATOM     34  C   UNL A   1      38.411  31.155  30.782  1.00  0.00     0.074 A 
ATOM     35  C   UNL A   1      37.973  32.749  32.621  1.00  0.00     0.049 A 
ATOM     36  N   UNL A   1      39.391  30.448  31.282  1.00  0.00    -0.248 NA
ATOM     37  C   UNL A   1      37.988  30.733  29.439  1.00  0.00     0.031 C 
ATOM     38  C   UNL A   1      37.287  33.822  33.343  1.00  0.00     0.029 A 
ATOM     39  N   UNL A   1      38.968  32.356  33.481  1.00  0.00    -0.354 N 
ATOM     40  C   UNL A   1      39.690  29.485  30.323  1.00  0.00     0.074 A 
ATOM     41  C   UNL A   1      38.731  29.655  29.251  1.00  0.00     0.031 C 
ATOM     42  C   UNL A   1      37.902  34.023  34.520  1.00  0.00     0.029 A 
ATOM     43  C   UNL A   1      38.995  33.066  34.659  1.00  0.00     0.049 A 
ATOM     44  H   UNL A   1      39.603  31.633  33.274  1.00  0.00     0.167 HD
ATOM     45  C   UNL A   1      40.689  28.567  30.318  1.00  0.00     0.034 A 
ATOM     46  C   UNL A   1      39.806  32.955  35.731  1.00  0.00     0.034 A 
ATOM     47  C   UNL A   1      41.645  28.417  31.389  1.00  0.00     0.049 A 
ATOM     48  C   UNL A   1      40.892  31.908  35.720  1.00  0.00     0.074 A 
ATOM     49  C   UNL A   1      42.717  27.547  31.476  1.00  0.00     0.029 A 
ATOM     50  N   UNL A   1      41.642  29.159  32.564  1.00  0.00    -0.354 N 
ATOM     51  N   UNL A   1      41.183  31.027  34.791  1.00  0.00    -0.248 NA
ATOM     52  C   UNL A   1      41.764  31.851  36.901  1.00  0.00     0.031 C 
ATOM     53  C   UNL A   1      43.326  27.722  32.724  1.00  0.00     0.029 A 
ATOM     54  C   UNL A   1      42.680  28.752  33.389  1.00  0.00     0.049 A 
ATOM     55  H   UNL A   1      40.996  29.871  32.780  1.00  0.00     0.167 HD
ATOM     56  C   UNL A   1      42.299  30.338  35.261  1.00  0.00     0.074 A 
ATOM     57  C   UNL A   1      42.629  30.911  36.549  1.00  0.00     0.031 C 
ATOM     58  C   UNL A   1      42.995  29.330  34.674  1.00  0.00     0.034 A 
BRANCH  45  59
ATOM     59  C   UNL A   1      40.769  27.648  29.120  1.00  0.00     0.023 A 
ATOM     60  C   UNL A   1      41.722  27.849  28.105  1.00  0.00     0.031 A 
ATOM     61  C   UNL A   1      39.844  26.603  28.952  1.00  0.00     0.131 A 
ATOM     62  C   UNL A   1      41.661  27.093  26.925  1.00  0.00     0.055 A 
ATOM     63  C   UNL A   1      39.851  25.789  27.816  1.00  0.00     0.041 A 
ATOM     64  F   UNL A   1      38.897  26.371  29.876  1.00  0.00    -0.206 F 
ATOM     65  C   UNL A   1      40.748  26.047  26.784  1.00  0.00     0.022 A 
BRANCH  62  66
ATOM     66  S   UNL A   1      42.665  27.625  25.510  1.00  0.00     0.124 S 
ATOM     67  O   UNL A   1      41.898  28.770  25.019  1.00  0.00    -0.237 OA
ATOM     68  O   UNL A   1      43.947  27.934  26.131  1.00  0.00    -0.237 OA
ATOM     69  O   UNL A   1      42.660  26.459  24.629  1.00  0.00    -0.744 OA
ENDBRANCH  62  66
ENDBRANCH  45  59
BRANCH  46  70
ATOM     70  C   UNL A   1      39.642  33.862  36.902  1.00  0.00     0.023 A 
ATOM     71  C   UNL A   1      39.072  33.393  38.096  1.00  0.00     0.031 A 
ATOM     72  C   UNL A   1      40.013  35.215  36.835  1.00  0.00     0.131 A 
ATOM     73  C   UNL A   1      38.846  34.279  39.160  1.00  0.00     0.055 A 
ATOM     74  C   UNL A   1      39.831  36.084  37.914  1.00  0.00     0.041 A 
ATOM     75  F   UNL A   1      40.570  35.713  35.718  1.00  0.00    -0.206 F 
ATOM     76  C   UNL A   1      39.233  35.618  39.081  1.00  0.00     0.022 A 
BRANCH  73  77
ATOM     77  S   UNL A   1      37.972  33.669  40.626  1.00  0.00     0.124 S 
ATOM     78  O   UNL A   1      38.955  32.759  41.202  1.00  0.00    -0.237 OA
ATOM     79  O   UNL A   1      37.726  34.902  41.367  1.00  0.00    -0.237 OA
ATOM     80  O   UNL A   1      36.779  33.032  40.071  1.00  0.00    -0.744 OA
ENDBRANCH  73  77
ENDBRANCH  46  70
BRANCH  58  81
ATOM     81  C   UNL A   1      44.220  28.830  35.401  1.00  0.00     0.023 A 
ATOM     82  C   UNL A   1      44.147  27.813  36.368  1.00  0.00     0.031 A 
ATOM     83  C   UNL A   1      45.478  29.396  35.128  1.00  0.00     0.131 A 
ATOM     84  C   UNL A   1      45.302  27.432  37.069  1.00  0.00     0.055 A 
ATOM     85  C   UNL A   1      46.633  28.973  35.786  1.00  0.00     0.041 A 
ATOM     86  F   UNL A   1      45.605  30.371  34.214  1.00  0.00    -0.206 F 
ATOM     87  C   UNL A   1      46.547  27.994  36.773  1.00  0.00     0.022 A 
BRANCH  84  88
ATOM     88  S   UNL A   1      45.142  26.254  38.439  1.00  0.00     0.124 S 
ATOM     89  O   UNL A   1      43.773  26.490  38.885  1.00  0.00    -0.237 OA
ATOM     90  O   UNL A   1      45.386  24.975  37.781  1.00  0.00    -0.237 OA
ATOM     91  O   UNL A   1      46.181  26.676  39.378  1.00  0.00    -0.744 OA
ENDBRANCH  84  88
ENDBRANCH  58  81
ENDBRANCH  32  33
ENDBRANCH  24  27
ENDBRANCH  22  23
ENDBRANCH   1  22
TORSDOF 16
ENDMDL
