MODEL 1
REMARK VINA RESULT:     -10.9      0.000      0.000
REMARK SMILES CCCCCn1c(SCC(=O)NCCCCNC(=O)c2ccc(-c3c4nc(c(-c5cc(S(=O)(=O)[O-])ccc5F)c5ccc([nH]5)c(-c5cc(S(=O)(=O)[O-])ccc5F)c5nc(c(-c6cc(S(=O)(=O)[O-])ccc6F)c6ccc3[nH]6)C=C5)C=C4)cc2)nc2ccccc2c1=O
REMARK SMILES IDX 13 1 12 2 10 3 11 4 9 6 8 7 7 8 6 9 90 10 83 11 89 12 91 13
REMARK SMILES IDX 84 14 88 15 85 16 87 17 86 18 5 19 4 20 3 21 2 22 1 23 14 24
REMARK SMILES IDX 15 25 16 26 17 27 18 28 19 30 20 31 21 32 82 33 22 34 81 35
REMARK SMILES IDX 23 36 24 37 25 38 75 39 26 40 80 41 74 42 76 43 27 44 79 45
REMARK SMILES IDX 73 46 72 47 28 49 60 50 40 51 59 52 41 53 44 54 58 55 77 56
REMARK SMILES IDX 42 57 43 58 57 60 78 61 45 62 29 63 30 64 38 65 31 66 37 67
REMARK SMILES IDX 39 68 36 69 32 70 33 71 34 72 35 73 61 74 62 75 70 76 63 77
REMARK SMILES IDX 69 78 71 79 68 80 64 81 65 82 66 83 67 84 46 85 47 86 55 87
REMARK SMILES IDX 48 88 54 89 56 90 53 91 49 92 50 93 51 94 52 95
REMARK H PARENT 12 5 17 29 76 48 44 59
REMARK Flexibility Score: inf
ROOT
ATOM      1  C   UNL A   1      35.705  22.217  25.744  1.00  0.00     0.116 C 
ENDROOT
BRANCH   1   2
ATOM      2  N   UNL A   1      34.721  21.699  24.814  1.00  0.00    -0.355 N 
ATOM      3  C   UNL A   1      33.614  22.302  24.301  1.00  0.00     0.230 C 
ATOM      4  O   UNL A   1      33.075  21.770  23.326  1.00  0.00    -0.274 OA
ATOM      5  H   UNL A   1      34.876  20.775  24.509  1.00  0.00     0.163 HD
BRANCH   3   6
ATOM      6  C   UNL A   1      33.100  23.630  24.820  1.00  0.00     0.178 C 
BRANCH   6   7
ATOM      7  S   UNL A   1      33.784  25.083  24.071  1.00  0.00    -0.078 SA
BRANCH   7   8
ATOM      8  C   UNL A   1      33.156  26.640  24.539  1.00  0.00     0.171 A 
ATOM      9  N   UNL A   1      32.039  27.315  24.065  1.00  0.00    -0.287 N 
ATOM     10  C   UNL A   1      31.840  28.655  24.432  1.00  0.00     0.262 A 
ATOM     11  N   UNL A   1      33.943  27.146  25.438  1.00  0.00    -0.224 NA
ATOM     12  C   UNL A   1      32.633  29.179  25.546  1.00  0.00     0.066 A 
ATOM     13  O   UNL A   1      31.057  29.423  23.878  1.00  0.00    -0.269 OA
ATOM     14  C   UNL A   1      33.669  28.386  26.003  1.00  0.00     0.079 A 
ATOM     15  C   UNL A   1      32.346  30.416  26.136  1.00  0.00     0.016 A 
ATOM     16  C   UNL A   1      34.456  28.850  27.059  1.00  0.00     0.029 A 
ATOM     17  C   UNL A   1      33.126  30.864  27.201  1.00  0.00     0.001 A 
ATOM     18  C   UNL A   1      34.186  30.083  27.659  1.00  0.00     0.002 A 
BRANCH   9  19
ATOM     19  C   UNL A   1      30.993  26.796  23.186  1.00  0.00     0.128 C 
BRANCH  19  20
ATOM     20  C   UNL A   1      29.917  26.009  23.957  1.00  0.00     0.022 C 
BRANCH  20  21
ATOM     21  C   UNL A   1      28.519  26.638  24.005  1.00  0.00     0.002 C 
BRANCH  21  22
ATOM     22  C   UNL A   1      28.318  27.881  23.129  1.00  0.00    -0.003 C 
ATOM     23  C   UNL A   1      26.974  28.566  23.325  1.00  0.00     0.004 C 
ENDBRANCH  21  22
ENDBRANCH  20  21
ENDBRANCH  19  20
ENDBRANCH   9  19
ENDBRANCH   7   8
ENDBRANCH   6   7
ENDBRANCH   3   6
ENDBRANCH   1   2
BRANCH   1  24
ATOM     24  C   UNL A   1      37.104  22.335  25.140  1.00  0.00     0.023 C 
BRANCH  24  25
ATOM     25  C   UNL A   1      37.939  21.056  25.152  1.00  0.00     0.023 C 
BRANCH  25  26
ATOM     26  C   UNL A   1      39.179  21.083  26.033  1.00  0.00     0.116 C 
BRANCH  26  27
ATOM     27  N   UNL A   1      40.014  19.896  25.915  1.00  0.00    -0.352 N 
ATOM     28  C   UNL A   1      41.382  19.786  26.029  1.00  0.00     0.251 C 
ATOM     29  H   UNL A   1      39.535  19.057  25.727  1.00  0.00     0.163 HD
ATOM     30  O   UNL A   1      41.930  18.704  25.833  1.00  0.00    -0.269 OA
BRANCH  28  31
ATOM     31  C   UNL A   1      42.181  20.992  26.329  1.00  0.00     0.039 A 
ATOM     32  C   UNL A   1      42.505  21.318  27.646  1.00  0.00     0.014 A 
ATOM     33  C   UNL A   1      42.531  21.851  25.284  1.00  0.00     0.014 A 
ATOM     34  C   UNL A   1      42.991  22.588  27.936  1.00  0.00     0.010 A 
ATOM     35  C   UNL A   1      43.111  23.090  25.572  1.00  0.00     0.010 A 
ATOM     36  C   UNL A   1      43.284  23.496  26.905  1.00  0.00    -0.014 A 
BRANCH  36  37
ATOM     37  C   UNL A   1      43.766  24.860  27.247  1.00  0.00     0.031 A 
ATOM     38  C   UNL A   1      45.192  25.266  26.990  1.00  0.00     0.074 A 
ATOM     39  C   UNL A   1      42.893  25.753  27.751  1.00  0.00     0.049 A 
ATOM     40  N   UNL A   1      45.762  26.428  27.184  1.00  0.00    -0.248 NA
ATOM     41  C   UNL A   1      46.102  24.240  26.456  1.00  0.00     0.031 C 
ATOM     42  C   UNL A   1      41.489  25.468  28.042  1.00  0.00     0.029 A 
ATOM     43  N   UNL A   1      43.042  27.076  28.082  1.00  0.00    -0.354 N 
ATOM     44  C   UNL A   1      47.096  26.267  26.826  1.00  0.00     0.074 A 
ATOM     45  C   UNL A   1      47.259  24.886  26.429  1.00  0.00     0.031 C 
ATOM     46  C   UNL A   1      40.891  26.593  28.451  1.00  0.00     0.029 A 
ATOM     47  C   UNL A   1      41.882  27.664  28.526  1.00  0.00     0.049 A 
ATOM     48  H   UNL A   1      43.898  27.559  28.008  1.00  0.00     0.167 HD
ATOM     49  C   UNL A   1      48.088  27.191  26.821  1.00  0.00     0.034 A 
ATOM     50  C   UNL A   1      41.636  28.918  28.957  1.00  0.00     0.034 A 
ATOM     51  C   UNL A   1      47.898  28.572  27.186  1.00  0.00     0.049 A 
ATOM     52  C   UNL A   1      42.753  29.924  28.950  1.00  0.00     0.074 A 
ATOM     53  C   UNL A   1      48.825  29.599  27.138  1.00  0.00     0.029 A 
ATOM     54  N   UNL A   1      46.718  29.122  27.667  1.00  0.00    -0.354 N 
ATOM     55  N   UNL A   1      43.992  29.773  28.542  1.00  0.00    -0.248 NA
ATOM     56  C   UNL A   1      42.450  31.268  29.457  1.00  0.00     0.031 C 
ATOM     57  C   UNL A   1      48.230  30.748  27.660  1.00  0.00     0.029 A 
ATOM     58  C   UNL A   1      46.907  30.464  27.960  1.00  0.00     0.049 A 
ATOM     59  H   UNL A   1      45.873  28.632  27.784  1.00  0.00     0.167 HD
ATOM     60  C   UNL A   1      44.612  31.004  28.735  1.00  0.00     0.074 A 
ATOM     61  C   UNL A   1      43.604  31.896  29.268  1.00  0.00     0.031 C 
ATOM     62  C   UNL A   1      45.901  31.355  28.493  1.00  0.00     0.034 A 
BRANCH  49  63
ATOM     63  C   UNL A   1      49.478  26.765  26.413  1.00  0.00     0.023 A 
ATOM     64  C   UNL A   1      50.004  27.191  25.178  1.00  0.00     0.031 A 
ATOM     65  C   UNL A   1      50.225  25.844  27.169  1.00  0.00     0.131 A 
ATOM     66  C   UNL A   1      51.224  26.676  24.723  1.00  0.00     0.055 A 
ATOM     67  C   UNL A   1      51.460  25.365  26.730  1.00  0.00     0.041 A 
ATOM     68  F   UNL A   1      49.767  25.401  28.352  1.00  0.00    -0.206 F 
ATOM     69  C   UNL A   1      51.958  25.771  25.495  1.00  0.00     0.022 A 
BRANCH  66  70
ATOM     70  S   UNL A   1      51.870  27.103  23.083  1.00  0.00     0.124 S 
ATOM     71  O   UNL A   1      50.692  26.914  22.239  1.00  0.00    -0.237 OA
ATOM     72  O   UNL A   1      52.286  28.490  23.270  1.00  0.00    -0.237 OA
ATOM     73  O   UNL A   1      52.949  26.144  22.868  1.00  0.00    -0.744 OA
ENDBRANCH  66  70
ENDBRANCH  49  63
BRANCH  50  74
ATOM     74  C   UNL A   1      40.246  29.266  29.373  1.00  0.00     0.023 A 
ATOM     75  C   UNL A   1      39.864  29.204  30.726  1.00  0.00     0.031 A 
ATOM     76  C   UNL A   1      39.248  29.501  28.414  1.00  0.00     0.131 A 
ATOM     77  C   UNL A   1      38.509  29.269  31.070  1.00  0.00     0.055 A 
ATOM     78  C   UNL A   1      37.906  29.649  28.771  1.00  0.00     0.041 A 
ATOM     79  F   UNL A   1      39.562  29.558  27.110  1.00  0.00    -0.206 F 
ATOM     80  C   UNL A   1      37.529  29.508  30.104  1.00  0.00     0.022 A 
BRANCH  77  81
ATOM     81  S   UNL A   1      37.962  28.880  32.756  1.00  0.00     0.124 S 
ATOM     82  O   UNL A   1      38.917  29.627  33.569  1.00  0.00    -0.237 OA
ATOM     83  O   UNL A   1      36.596  29.399  32.750  1.00  0.00    -0.237 OA
ATOM     84  O   UNL A   1      38.072  27.427  32.830  1.00  0.00    -0.744 OA
ENDBRANCH  77  81
ENDBRANCH  50  74
BRANCH  62  85
ATOM     85  C   UNL A   1      46.338  32.766  28.807  1.00  0.00     0.023 A 
ATOM     86  C   UNL A   1      46.298  33.755  27.806  1.00  0.00     0.031 A 
ATOM     87  C   UNL A   1      46.944  33.086  30.034  1.00  0.00     0.131 A 
ATOM     88  C   UNL A   1      46.898  35.000  28.030  1.00  0.00     0.055 A 
ATOM     89  C   UNL A   1      47.496  34.347  30.270  1.00  0.00     0.041 A 
ATOM     90  F   UNL A   1      47.017  32.176  31.017  1.00  0.00    -0.206 F 
ATOM     91  C   UNL A   1      47.489  35.304  29.259  1.00  0.00     0.022 A 
BRANCH  88  92
ATOM     92  S   UNL A   1      47.020  36.233  26.704  1.00  0.00     0.124 S 
ATOM     93  O   UNL A   1      45.754  36.949  26.840  1.00  0.00    -0.237 OA
ATOM     94  O   UNL A   1      48.209  36.987  27.094  1.00  0.00    -0.237 OA
ATOM     95  O   UNL A   1      47.155  35.434  25.491  1.00  0.00    -0.744 OA
ENDBRANCH  88  92
ENDBRANCH  62  85
ENDBRANCH  36  37
ENDBRANCH  28  31
ENDBRANCH  26  27
ENDBRANCH  25  26
ENDBRANCH  24  25
ENDBRANCH   1  24
TORSDOF 20
ENDMDL
MODEL 2
REMARK VINA RESULT:     -10.7      5.571      9.703
REMARK SMILES CCCCCn1c(SCC(=O)NCCCCNC(=O)c2ccc(-c3c4nc(c(-c5cc(S(=O)(=O)[O-])ccc5F)c5ccc([nH]5)c(-c5cc(S(=O)(=O)[O-])ccc5F)c5nc(c(-c6cc(S(=O)(=O)[O-])ccc6F)c6ccc3[nH]6)C=C5)C=C4)cc2)nc2ccccc2c1=O
REMARK SMILES IDX 13 1 12 2 10 3 11 4 9 6 8 7 7 8 6 9 90 10 83 11 89 12 91 13
REMARK SMILES IDX 84 14 88 15 85 16 87 17 86 18 5 19 4 20 3 21 2 22 1 23 14 24
REMARK SMILES IDX 15 25 16 26 17 27 18 28 19 30 20 31 21 32 82 33 22 34 81 35
REMARK SMILES IDX 23 36 24 37 25 38 75 39 26 40 80 41 74 42 76 43 27 44 79 45
REMARK SMILES IDX 73 46 72 47 28 49 60 50 40 51 59 52 41 53 44 54 58 55 77 56
REMARK SMILES IDX 42 57 43 58 57 60 78 61 45 62 29 63 30 64 38 65 31 66 37 67
REMARK SMILES IDX 39 68 36 69 32 70 33 71 34 72 35 73 61 74 62 75 70 76 63 77
REMARK SMILES IDX 69 78 71 79 68 80 64 81 65 82 66 83 67 84 46 85 47 86 55 87
REMARK SMILES IDX 48 88 54 89 56 90 53 91 49 92 50 93 51 94 52 95
REMARK H PARENT 12 5 17 29 76 48 44 59
REMARK Flexibility Score: inf
ROOT
ATOM      1  C   UNL A   1      34.407  29.152  27.306  1.00  0.00     0.116 C 
ENDROOT
BRANCH   1   2
ATOM      2  N   UNL A   1      33.193  28.788  28.010  1.00  0.00    -0.355 N 
ATOM      3  C   UNL A   1      31.995  28.377  27.513  1.00  0.00     0.230 C 
ATOM      4  O   UNL A   1      31.196  27.866  28.303  1.00  0.00    -0.274 OA
ATOM      5  H   UNL A   1      33.243  28.847  28.993  1.00  0.00     0.163 HD
BRANCH   3   6
ATOM      6  C   UNL A   1      31.667  28.437  26.035  1.00  0.00     0.178 C 
BRANCH   6   7
ATOM      7  S   UNL A   1      31.103  26.930  25.295  1.00  0.00    -0.078 SA
BRANCH   7   8
ATOM      8  C   UNL A   1      32.251  25.937  24.439  1.00  0.00     0.171 A 
ATOM      9  N   UNL A   1      32.546  25.905  23.084  1.00  0.00    -0.287 N 
ATOM     10  C   UNL A   1      33.357  24.874  22.581  1.00  0.00     0.262 A 
ATOM     11  N   UNL A   1      32.823  25.143  25.293  1.00  0.00    -0.224 NA
ATOM     12  C   UNL A   1      34.112  24.073  23.546  1.00  0.00     0.066 A 
ATOM     13  O   UNL A   1      33.466  24.587  21.391  1.00  0.00    -0.269 OA
ATOM     14  C   UNL A   1      33.802  24.246  24.882  1.00  0.00     0.079 A 
ATOM     15  C   UNL A   1      35.117  23.186  23.140  1.00  0.00     0.016 A 
ATOM     16  C   UNL A   1      34.494  23.498  25.837  1.00  0.00     0.029 A 
ATOM     17  C   UNL A   1      35.814  22.454  24.100  1.00  0.00     0.001 A 
ATOM     18  C   UNL A   1      35.498  22.606  25.450  1.00  0.00     0.002 A 
BRANCH   9  19
ATOM     19  C   UNL A   1      32.101  26.842  22.054  1.00  0.00     0.128 C 
BRANCH  19  20
ATOM     20  C   UNL A   1      30.697  27.404  22.341  1.00  0.00     0.022 C 
BRANCH  20  21
ATOM     21  C   UNL A   1      30.538  28.925  22.222  1.00  0.00     0.002 C 
BRANCH  21  22
ATOM     22  C   UNL A   1      29.436  29.550  23.087  1.00  0.00    -0.003 C 
ATOM     23  C   UNL A   1      28.055  28.955  22.854  1.00  0.00     0.004 C 
ENDBRANCH  21  22
ENDBRANCH  20  21
ENDBRANCH  19  20
ENDBRANCH   9  19
ENDBRANCH   7   8
ENDBRANCH   6   7
ENDBRANCH   3   6
ENDBRANCH   1   2
BRANCH   1  24
ATOM     24  C   UNL A   1      35.058  30.426  27.843  1.00  0.00     0.023 C 
BRANCH  24  25
ATOM     25  C   UNL A   1      34.488  31.737  27.303  1.00  0.00     0.023 C 
BRANCH  25  26
ATOM     26  C   UNL A   1      33.158  32.176  27.900  1.00  0.00     0.116 C 
BRANCH  26  27
ATOM     27  N   UNL A   1      32.983  33.621  27.953  1.00  0.00    -0.352 N 
ATOM     28  C   UNL A   1      33.673  34.548  28.703  1.00  0.00     0.251 C 
ATOM     29  H   UNL A   1      32.274  33.984  27.375  1.00  0.00     0.163 HD
ATOM     30  O   UNL A   1      33.344  35.731  28.671  1.00  0.00    -0.269 OA
BRANCH  28  31
ATOM     31  C   UNL A   1      34.767  34.093  29.586  1.00  0.00     0.039 A 
ATOM     32  C   UNL A   1      36.096  34.387  29.277  1.00  0.00     0.014 A 
ATOM     33  C   UNL A   1      34.461  33.287  30.686  1.00  0.00     0.014 A 
ATOM     34  C   UNL A   1      37.116  33.715  29.939  1.00  0.00     0.010 A 
ATOM     35  C   UNL A   1      35.494  32.689  31.412  1.00  0.00     0.010 A 
ATOM     36  C   UNL A   1      36.827  32.844  31.003  1.00  0.00    -0.014 A 
BRANCH  36  37
ATOM     37  C   UNL A   1      37.937  32.109  31.667  1.00  0.00     0.031 A 
ATOM     38  C   UNL A   1      38.667  31.001  30.956  1.00  0.00     0.074 A 
ATOM     39  C   UNL A   1      38.316  32.479  32.904  1.00  0.00     0.049 A 
ATOM     40  N   UNL A   1      39.687  30.293  31.370  1.00  0.00    -0.248 NA
ATOM     41  C   UNL A   1      38.193  30.631  29.613  1.00  0.00     0.031 C 
ATOM     42  C   UNL A   1      37.678  33.536  33.687  1.00  0.00     0.029 A 
ATOM     43  N   UNL A   1      39.335  32.034  33.709  1.00  0.00    -0.354 N 
ATOM     44  C   UNL A   1      39.957  29.379  30.359  1.00  0.00     0.074 A 
ATOM     45  C   UNL A   1      38.976  29.602  29.319  1.00  0.00     0.031 C 
ATOM     46  C   UNL A   1      38.354  33.700  34.830  1.00  0.00     0.029 A 
ATOM     47  C   UNL A   1      39.426  32.710  34.901  1.00  0.00     0.049 A 
ATOM     48  H   UNL A   1      39.942  31.301  33.456  1.00  0.00     0.167 HD
ATOM     49  C   UNL A   1      40.939  28.446  30.300  1.00  0.00     0.034 A 
ATOM     50  C   UNL A   1      40.266  32.553  35.945  1.00  0.00     0.034 A 
ATOM     51  C   UNL A   1      41.931  28.262  31.330  1.00  0.00     0.049 A 
ATOM     52  C   UNL A   1      41.344  31.507  35.862  1.00  0.00     0.074 A 
ATOM     53  C   UNL A   1      43.011  27.397  31.325  1.00  0.00     0.029 A 
ATOM     54  N   UNL A   1      41.968  28.940  32.541  1.00  0.00    -0.354 N 
ATOM     55  N   UNL A   1      41.628  30.698  34.868  1.00  0.00    -0.248 NA
ATOM     56  C   UNL A   1      42.216  31.347  37.033  1.00  0.00     0.031 C 
ATOM     57  C   UNL A   1      43.654  27.495  32.559  1.00  0.00     0.029 A 
ATOM     58  C   UNL A   1      43.028  28.480  33.307  1.00  0.00     0.049 A 
ATOM     59  H   UNL A   1      41.336  29.642  32.815  1.00  0.00     0.167 HD
ATOM     60  C   UNL A   1      42.717  29.940  35.289  1.00  0.00     0.074 A 
ATOM     61  C   UNL A   1      43.057  30.409  36.617  1.00  0.00     0.031 C 
ATOM     62  C   UNL A   1      43.368  28.947  34.632  1.00  0.00     0.034 A 
BRANCH  49  63
ATOM     63  C   UNL A   1      41.013  27.540  29.095  1.00  0.00     0.023 A 
ATOM     64  C   UNL A   1      41.977  27.785  28.096  1.00  0.00     0.031 A 
ATOM     65  C   UNL A   1      40.064  26.528  28.866  1.00  0.00     0.131 A 
ATOM     66  C   UNL A   1      41.950  27.049  26.905  1.00  0.00     0.055 A 
ATOM     67  C   UNL A   1      40.068  25.769  27.695  1.00  0.00     0.041 A 
ATOM     68  F   UNL A   1      39.121  26.257  29.784  1.00  0.00    -0.206 F 
ATOM     69  C   UNL A   1      41.006  26.037  26.703  1.00  0.00     0.022 A 
BRANCH  66  70
ATOM     70  S   UNL A   1      43.092  27.421  25.546  1.00  0.00     0.124 S 
ATOM     71  O   UNL A   1      42.256  28.237  24.669  1.00  0.00    -0.237 OA
ATOM     72  O   UNL A   1      44.162  28.140  26.234  1.00  0.00    -0.237 OA
ATOM     73  O   UNL A   1      43.452  26.109  25.019  1.00  0.00    -0.744 OA
ENDBRANCH  66  70
ENDBRANCH  49  63
BRANCH  50  74
ATOM     74  C   UNL A   1      40.121  33.463  37.118  1.00  0.00     0.023 A 
ATOM     75  C   UNL A   1      39.434  33.043  38.272  1.00  0.00     0.031 A 
ATOM     76  C   UNL A   1      40.517  34.807  37.036  1.00  0.00     0.131 A 
ATOM     77  C   UNL A   1      39.073  33.981  39.247  1.00  0.00     0.055 A 
ATOM     78  C   UNL A   1      40.228  35.722  38.050  1.00  0.00     0.041 A 
ATOM     79  F   UNL A   1      41.165  35.257  35.949  1.00  0.00    -0.206 F 
ATOM     80  C   UNL A   1      39.480  35.314  39.152  1.00  0.00     0.022 A 
BRANCH  77  81
ATOM     81  S   UNL A   1      37.927  33.536  40.581  1.00  0.00     0.124 S 
ATOM     82  O   UNL A   1      38.689  32.534  41.320  1.00  0.00    -0.237 OA
ATOM     83  O   UNL A   1      37.749  34.820  41.257  1.00  0.00    -0.237 OA
ATOM     84  O   UNL A   1      36.751  33.039  39.875  1.00  0.00    -0.744 OA
ENDBRANCH  77  81
ENDBRANCH  50  74
BRANCH  62  85
ATOM     85  C   UNL A   1      44.522  28.259  35.322  1.00  0.00     0.023 A 
ATOM     86  C   UNL A   1      44.275  27.307  36.330  1.00  0.00     0.031 A 
ATOM     87  C   UNL A   1      45.850  28.662  35.100  1.00  0.00     0.131 A 
ATOM     88  C   UNL A   1      45.332  26.829  37.113  1.00  0.00     0.055 A 
ATOM     89  C   UNL A   1      46.907  28.144  35.851  1.00  0.00     0.041 A 
ATOM     90  F   UNL A   1      46.138  29.574  34.158  1.00  0.00    -0.206 F 
ATOM     91  C   UNL A   1      46.648  27.236  36.874  1.00  0.00     0.022 A 
BRANCH  88  92
ATOM     92  S   UNL A   1      45.028  25.740  38.532  1.00  0.00     0.124 S 
ATOM     93  O   UNL A   1      46.327  25.745  39.201  1.00  0.00    -0.237 OA
ATOM     94  O   UNL A   1      43.960  26.444  39.238  1.00  0.00    -0.237 OA
ATOM     95  O   UNL A   1      44.646  24.469  37.926  1.00  0.00    -0.744 OA
ENDBRANCH  88  92
ENDBRANCH  62  85
ENDBRANCH  36  37
ENDBRANCH  28  31
ENDBRANCH  26  27
ENDBRANCH  25  26
ENDBRANCH  24  25
ENDBRANCH   1  24
TORSDOF 20
ENDMDL
MODEL 3
REMARK VINA RESULT:     -10.6      2.587      8.254
REMARK SMILES CCCCCn1c(SCC(=O)NCCCCNC(=O)c2ccc(-c3c4nc(c(-c5cc(S(=O)(=O)[O-])ccc5F)c5ccc([nH]5)c(-c5cc(S(=O)(=O)[O-])ccc5F)c5nc(c(-c6cc(S(=O)(=O)[O-])ccc6F)c6ccc3[nH]6)C=C5)C=C4)cc2)nc2ccccc2c1=O
REMARK SMILES IDX 13 1 12 2 10 3 11 4 9 6 8 7 7 8 6 9 90 10 83 11 89 12 91 13
REMARK SMILES IDX 84 14 88 15 85 16 87 17 86 18 5 19 4 20 3 21 2 22 1 23 14 24
REMARK SMILES IDX 15 25 16 26 17 27 18 28 19 30 20 31 21 32 82 33 22 34 81 35
REMARK SMILES IDX 23 36 24 37 25 38 75 39 26 40 80 41 74 42 76 43 27 44 79 45
REMARK SMILES IDX 73 46 72 47 28 49 60 50 40 51 59 52 41 53 44 54 58 55 77 56
REMARK SMILES IDX 42 57 43 58 57 60 78 61 45 62 29 63 30 64 38 65 31 66 37 67
REMARK SMILES IDX 39 68 36 69 32 70 33 71 34 72 35 73 61 74 62 75 70 76 63 77
REMARK SMILES IDX 69 78 71 79 68 80 64 81 65 82 66 83 67 84 46 85 47 86 55 87
REMARK SMILES IDX 48 88 54 89 56 90 53 91 49 92 50 93 51 94 52 95
REMARK H PARENT 12 5 17 29 76 48 44 59
REMARK Flexibility Score: inf
ROOT
ATOM      1  C   UNL A   1      33.830  21.579  24.427  1.00  0.00     0.116 C 
ENDROOT
BRANCH   1   2
ATOM      2  N   UNL A   1      33.787  22.315  23.178  1.00  0.00    -0.355 N 
ATOM      3  C   UNL A   1      32.772  23.045  22.640  1.00  0.00     0.230 C 
ATOM      4  O   UNL A   1      33.049  23.801  21.704  1.00  0.00    -0.274 OA
ATOM      5  H   UNL A   1      34.612  22.282  22.641  1.00  0.00     0.163 HD
BRANCH   3   6
ATOM      6  C   UNL A   1      31.369  23.028  23.211  1.00  0.00     0.178 C 
BRANCH   6   7
ATOM      7  S   UNL A   1      31.016  24.234  24.460  1.00  0.00    -0.078 SA
BRANCH   7   8
ATOM      8  C   UNL A   1      30.803  25.897  23.982  1.00  0.00     0.171 A 
ATOM      9  N   UNL A   1      31.761  26.850  23.667  1.00  0.00    -0.287 N 
ATOM     10  C   UNL A   1      31.373  28.191  23.516  1.00  0.00     0.262 A 
ATOM     11  N   UNL A   1      29.532  26.165  23.986  1.00  0.00    -0.224 NA
ATOM     12  C   UNL A   1      29.943  28.471  23.377  1.00  0.00     0.066 A 
ATOM     13  O   UNL A   1      32.146  29.146  23.505  1.00  0.00    -0.269 OA
ATOM     14  C   UNL A   1      29.073  27.426  23.626  1.00  0.00     0.079 A 
ATOM     15  C   UNL A   1      29.475  29.733  22.990  1.00  0.00     0.016 A 
ATOM     16  C   UNL A   1      27.700  27.651  23.512  1.00  0.00     0.029 A 
ATOM     17  C   UNL A   1      28.103  29.945  22.862  1.00  0.00     0.001 A 
ATOM     18  C   UNL A   1      27.214  28.905  23.129  1.00  0.00     0.002 A 
BRANCH   9  19
ATOM     19  C   UNL A   1      33.194  26.639  23.468  1.00  0.00     0.128 C 
BRANCH  19  20
ATOM     20  C   UNL A   1      34.012  26.939  24.738  1.00  0.00     0.022 C 
BRANCH  20  21
ATOM     21  C   UNL A   1      33.286  26.744  26.075  1.00  0.00     0.002 C 
BRANCH  21  22
ATOM     22  C   UNL A   1      32.996  28.025  26.867  1.00  0.00    -0.003 C 
ATOM     23  C   UNL A   1      34.240  28.817  27.240  1.00  0.00     0.004 C 
ENDBRANCH  21  22
ENDBRANCH  20  21
ENDBRANCH  19  20
ENDBRANCH   9  19
ENDBRANCH   7   8
ENDBRANCH   6   7
ENDBRANCH   3   6
ENDBRANCH   1   2
BRANCH   1  24
ATOM     24  C   UNL A   1      34.657  22.273  25.508  1.00  0.00     0.023 C 
BRANCH  24  25
ATOM     25  C   UNL A   1      35.882  21.504  25.999  1.00  0.00     0.023 C 
BRANCH  25  26
ATOM     26  C   UNL A   1      37.139  21.652  25.153  1.00  0.00     0.116 C 
BRANCH  26  27
ATOM     27  N   UNL A   1      38.156  20.648  25.428  1.00  0.00    -0.352 N 
ATOM     28  C   UNL A   1      39.364  20.794  26.074  1.00  0.00     0.251 C 
ATOM     29  H   UNL A   1      37.954  19.739  25.107  1.00  0.00     0.163 HD
ATOM     30  O   UNL A   1      40.135  19.842  26.159  1.00  0.00    -0.269 OA
BRANCH  28  31
ATOM     31  C   UNL A   1      39.743  22.121  26.605  1.00  0.00     0.039 A 
ATOM     32  C   UNL A   1      39.135  23.278  26.119  1.00  0.00     0.014 A 
ATOM     33  C   UNL A   1      40.783  22.207  27.535  1.00  0.00     0.014 A 
ATOM     34  C   UNL A   1      39.698  24.517  26.404  1.00  0.00     0.010 A 
ATOM     35  C   UNL A   1      41.283  23.461  27.896  1.00  0.00     0.010 A 
ATOM     36  C   UNL A   1      40.789  24.622  27.282  1.00  0.00    -0.014 A 
BRANCH  36  37
ATOM     37  C   UNL A   1      41.395  25.956  27.537  1.00  0.00     0.031 A 
ATOM     38  C   UNL A   1      40.663  27.000  28.338  1.00  0.00     0.074 A 
ATOM     39  C   UNL A   1      42.636  26.207  27.082  1.00  0.00     0.049 A 
ATOM     40  N   UNL A   1      41.067  28.193  28.694  1.00  0.00    -0.248 NA
ATOM     41  C   UNL A   1      39.303  26.672  28.792  1.00  0.00     0.031 C 
ATOM     42  C   UNL A   1      43.437  25.270  26.294  1.00  0.00     0.029 A 
ATOM     43  N   UNL A   1      43.451  27.301  27.231  1.00  0.00    -0.354 N 
ATOM     44  C   UNL A   1      40.005  28.768  29.384  1.00  0.00     0.074 A 
ATOM     45  C   UNL A   1      38.928  27.803  29.374  1.00  0.00     0.031 C 
ATOM     46  C   UNL A   1      44.646  25.803  26.080  1.00  0.00     0.029 A 
ATOM     47  C   UNL A   1      44.686  27.149  26.647  1.00  0.00     0.049 A 
ATOM     48  H   UNL A   1      43.178  28.117  27.711  1.00  0.00     0.167 HD
ATOM     49  C   UNL A   1      39.942  29.984  29.978  1.00  0.00     0.034 A 
ATOM     50  C   UNL A   1      45.734  27.994  26.561  1.00  0.00     0.034 A 
ATOM     51  C   UNL A   1      41.040  30.919  30.009  1.00  0.00     0.049 A 
ATOM     52  C   UNL A   1      45.639  29.341  27.222  1.00  0.00     0.074 A 
ATOM     53  C   UNL A   1      41.096  32.142  30.653  1.00  0.00     0.029 A 
ATOM     54  N   UNL A   1      42.261  30.745  29.374  1.00  0.00    -0.354 N 
ATOM     55  N   UNL A   1      44.653  29.841  27.931  1.00  0.00    -0.248 NA
ATOM     56  C   UNL A   1      46.789  30.243  27.077  1.00  0.00     0.031 C 
ATOM     57  C   UNL A   1      42.318  32.741  30.345  1.00  0.00     0.029 A 
ATOM     58  C   UNL A   1      43.061  31.860  29.575  1.00  0.00     0.049 A 
ATOM     59  H   UNL A   1      42.521  29.950  28.856  1.00  0.00     0.167 HD
ATOM     60  C   UNL A   1      45.068  31.110  28.324  1.00  0.00     0.074 A 
ATOM     61  C   UNL A   1      46.406  31.289  27.798  1.00  0.00     0.031 C 
ATOM     62  C   UNL A   1      44.396  32.039  29.051  1.00  0.00     0.034 A 
BRANCH  49  63
ATOM     63  C   UNL A   1      38.657  30.401  30.651  1.00  0.00     0.023 A 
ATOM     64  C   UNL A   1      37.752  31.239  29.969  1.00  0.00     0.031 A 
ATOM     65  C   UNL A   1      38.384  30.085  31.994  1.00  0.00     0.131 A 
ATOM     66  C   UNL A   1      36.636  31.755  30.641  1.00  0.00     0.055 A 
ATOM     67  C   UNL A   1      37.248  30.569  32.646  1.00  0.00     0.041 A 
ATOM     68  F   UNL A   1      39.216  29.294  32.691  1.00  0.00    -0.206 F 
ATOM     69  C   UNL A   1      36.376  31.418  31.973  1.00  0.00     0.022 A 
BRANCH  66  70
ATOM     70  S   UNL A   1      35.520  32.936  29.836  1.00  0.00     0.124 S 
ATOM     71  O   UNL A   1      35.792  34.161  30.585  1.00  0.00    -0.237 OA
ATOM     72  O   UNL A   1      36.007  32.928  28.459  1.00  0.00    -0.237 OA
ATOM     73  O   UNL A   1      34.194  32.364  30.040  1.00  0.00    -0.744 OA
ENDBRANCH  66  70
ENDBRANCH  49  63
BRANCH  50  74
ATOM     74  C   UNL A   1      46.965  27.531  25.857  1.00  0.00     0.023 A 
ATOM     75  C   UNL A   1      47.245  27.956  24.546  1.00  0.00     0.031 A 
ATOM     76  C   UNL A   1      47.781  26.536  26.419  1.00  0.00     0.131 A 
ATOM     77  C   UNL A   1      48.245  27.314  23.805  1.00  0.00     0.055 A 
ATOM     78  C   UNL A   1      48.832  25.958  25.706  1.00  0.00     0.041 A 
ATOM     79  F   UNL A   1      47.545  26.091  27.664  1.00  0.00    -0.206 F 
ATOM     80  C   UNL A   1      49.052  26.330  24.382  1.00  0.00     0.022 A 
BRANCH  77  81
ATOM     81  S   UNL A   1      48.420  27.620  22.025  1.00  0.00     0.124 S 
ATOM     82  O   UNL A   1      49.595  28.485  21.976  1.00  0.00    -0.237 OA
ATOM     83  O   UNL A   1      48.611  26.266  21.511  1.00  0.00    -0.237 OA
ATOM     84  O   UNL A   1      47.157  28.251  21.657  1.00  0.00    -0.744 OA
ENDBRANCH  77  81
ENDBRANCH  50  74
BRANCH  62  85
ATOM     85  C   UNL A   1      45.066  33.362  29.332  1.00  0.00     0.023 A 
ATOM     86  C   UNL A   1      45.759  33.558  30.542  1.00  0.00     0.031 A 
ATOM     87  C   UNL A   1      44.880  34.469  28.487  1.00  0.00     0.131 A 
ATOM     88  C   UNL A   1      46.195  34.840  30.898  1.00  0.00     0.055 A 
ATOM     89  C   UNL A   1      45.362  35.736  28.822  1.00  0.00     0.041 A 
ATOM     90  F   UNL A   1      44.218  34.338  27.326  1.00  0.00    -0.206 F 
ATOM     91  C   UNL A   1      46.007  35.929  30.041  1.00  0.00     0.022 A 
BRANCH  88  92
ATOM     92  S   UNL A   1      46.932  35.161  32.524  1.00  0.00     0.124 S 
ATOM     93  O   UNL A   1      46.223  34.206  33.372  1.00  0.00    -0.237 OA
ATOM     94  O   UNL A   1      48.342  34.861  32.288  1.00  0.00    -0.237 OA
ATOM     95  O   UNL A   1      46.625  36.565  32.779  1.00  0.00    -0.744 OA
ENDBRANCH  88  92
ENDBRANCH  62  85
ENDBRANCH  36  37
ENDBRANCH  28  31
ENDBRANCH  26  27
ENDBRANCH  25  26
ENDBRANCH  24  25
ENDBRANCH   1  24
TORSDOF 20
ENDMDL
