MODEL 1
REMARK VINA RESULT:     -12.5      0.000      0.000
REMARK SMILES Cc1cc(Br)ccc1NS(=O)(=O)c1ccc(C(=O)NCCCCNC(=O)c2ccc(-c3c4nc(c(-c5cc(S(=O)(=O)[O-])ccc5F)c5ccc([nH]5)c(-c5cc(S(=O)(=O)[O-])ccc5F)c5nc(c(-c6cc(S(=O)(=O)[O-])ccc6F)c6ccc3[nH]6)C=C5)C=C4)cc2)cc1
REMARK SMILES IDX 21 1 20 2 19 3 17 4 18 5 16 7 13 8 14 9 91 10 15 11 90 12
REMARK SMILES IDX 10 13 11 14 12 15 9 16 8 18 1 19 2 20 3 21 4 22 7 23 5 24
REMARK SMILES IDX 6 25 22 26 23 27 24 28 25 29 26 31 27 32 28 33 89 34 29 35
REMARK SMILES IDX 88 36 30 37 31 38 32 39 82 40 33 41 87 42 81 43 83 44 34 45
REMARK SMILES IDX 86 46 80 47 79 48 35 50 67 51 47 52 66 53 48 54 51 55 65 56
REMARK SMILES IDX 84 57 49 58 50 59 64 61 85 62 52 63 36 64 37 65 45 66 38 67
REMARK SMILES IDX 44 68 46 69 43 70 39 71 40 72 41 73 42 74 68 75 69 76 77 77
REMARK SMILES IDX 70 78 76 79 78 80 75 81 71 82 72 83 73 84 74 85 53 86 54 87
REMARK SMILES IDX 62 88 55 89 61 90 63 91 60 92 56 93 57 94 58 95 59 96
REMARK H PARENT 19 6 9 17 24 30 83 49 51 60
REMARK Flexibility Score: inf
ROOT
ATOM      1  C   UNL A   1      31.697  30.480  26.905  1.00  0.00     0.023 C 
ENDROOT
BRANCH   1   2
ATOM      2  C   UNL A   1      32.264  29.744  25.692  1.00  0.00     0.116 C 
BRANCH   2   3
ATOM      3  N   UNL A   1      31.355  29.838  24.567  1.00  0.00    -0.352 N 
ATOM      4  C   UNL A   1      31.132  28.949  23.551  1.00  0.00     0.251 C 
ATOM      5  O   UNL A   1      30.266  29.177  22.710  1.00  0.00    -0.269 OA
ATOM      6  H   UNL A   1      30.819  30.662  24.528  1.00  0.00     0.163 HD
BRANCH   4   7
ATOM      7  C   UNL A   1      31.881  27.676  23.468  1.00  0.00     0.039 A 
ATOM      8  C   UNL A   1      33.051  25.162  23.150  1.00  0.00     0.087 A 
ATOM      9  C   UNL A   1      31.877  25.295  23.901  1.00  0.00     0.023 A 
ATOM     10  C   UNL A   1      33.686  26.293  22.621  1.00  0.00     0.023 A 
ATOM     11  C   UNL A   1      31.277  26.546  24.031  1.00  0.00     0.015 A 
ATOM     12  C   UNL A   1      33.092  27.553  22.773  1.00  0.00     0.015 A 
BRANCH   8  13
ATOM     13  S   UNL A   1      33.700  23.527  22.871  1.00  0.00     0.261 S 
ATOM     14  O   UNL A   1      35.144  23.609  22.853  1.00  0.00    -0.201 OA
ATOM     15  O   UNL A   1      32.986  22.956  21.746  1.00  0.00    -0.201 OA
BRANCH  13  16
ATOM     16  N   UNL A   1      33.240  22.597  24.230  1.00  0.00    -0.279 N 
ATOM     17  H   UNL A   1      32.857  23.031  25.027  1.00  0.00     0.180 HD
BRANCH  16  18
ATOM     18  C   UNL A   1      33.419  21.175  24.194  1.00  0.00     0.052 A 
ATOM     19  C   UNL A   1      35.756  21.222  25.262  1.00  0.00     0.046 C 
ATOM     20  C   UNL A   1      34.530  20.519  24.750  1.00  0.00    -0.026 A 
ATOM     21  C   UNL A   1      34.561  19.107  24.727  1.00  0.00     0.021 A 
ATOM     22  C   UNL A   1      33.514  18.375  24.169  1.00  0.00     0.018 A 
ATOM     23  C   UNL A   1      32.411  20.422  23.578  1.00  0.00     0.028 A 
ATOM     24  Br  UNL A   1      33.571  16.487  24.178  1.00  0.00    -0.051 Br
ATOM     25  C   UNL A   1      32.441  19.029  23.584  1.00  0.00     0.018 A 
ENDBRANCH  16  18
ENDBRANCH  13  16
ENDBRANCH   8  13
ENDBRANCH   4   7
ENDBRANCH   2   3
ENDBRANCH   1   2
BRANCH   1  26
ATOM     26  C   UNL A   1      31.565  31.996  26.721  1.00  0.00     0.023 C 
BRANCH  26  27
ATOM     27  C   UNL A   1      32.834  32.797  27.002  1.00  0.00     0.116 C 
BRANCH  27  28
ATOM     28  N   UNL A   1      32.574  34.056  27.683  1.00  0.00    -0.352 N 
ATOM     29  C   UNL A   1      33.209  34.576  28.785  1.00  0.00     0.251 C 
ATOM     30  H   UNL A   1      31.849  34.606  27.305  1.00  0.00     0.163 HD
ATOM     31  O   UNL A   1      32.784  35.599  29.311  1.00  0.00    -0.269 OA
BRANCH  29  32
ATOM     32  C   UNL A   1      34.376  33.867  29.346  1.00  0.00     0.039 A 
ATOM     33  C   UNL A   1      35.658  34.304  29.008  1.00  0.00     0.014 A 
ATOM     34  C   UNL A   1      34.200  32.804  30.236  1.00  0.00     0.014 A 
ATOM     35  C   UNL A   1      36.768  33.717  29.616  1.00  0.00     0.010 A 
ATOM     36  C   UNL A   1      35.304  32.265  30.890  1.00  0.00     0.010 A 
ATOM     37  C   UNL A   1      36.597  32.717  30.589  1.00  0.00    -0.014 A 
BRANCH  37  38
ATOM     38  C   UNL A   1      37.762  32.131  31.299  1.00  0.00     0.031 A 
ATOM     39  C   UNL A   1      38.542  31.013  30.665  1.00  0.00     0.074 A 
ATOM     40  C   UNL A   1      38.075  32.564  32.537  1.00  0.00     0.049 A 
ATOM     41  N   UNL A   1      39.536  30.316  31.151  1.00  0.00    -0.248 NA
ATOM     42  C   UNL A   1      38.124  30.603  29.315  1.00  0.00     0.031 C 
ATOM     43  C   UNL A   1      37.362  33.614  33.270  1.00  0.00     0.029 A 
ATOM     44  N   UNL A   1      39.063  32.169  33.403  1.00  0.00    -0.354 N 
ATOM     45  C   UNL A   1      39.857  29.381  30.174  1.00  0.00     0.074 A 
ATOM     46  C   UNL A   1      38.908  29.559  29.096  1.00  0.00     0.031 C 
ATOM     47  C   UNL A   1      37.950  33.793  34.464  1.00  0.00     0.029 A 
ATOM     48  C   UNL A   1      39.051  32.846  34.602  1.00  0.00     0.049 A 
ATOM     49  H   UNL A   1      39.719  31.468  33.188  1.00  0.00     0.167 HD
ATOM     50  C   UNL A   1      40.865  28.473  30.167  1.00  0.00     0.034 A 
ATOM     51  C   UNL A   1      39.833  32.709  35.692  1.00  0.00     0.034 A 
ATOM     52  C   UNL A   1      41.810  28.319  31.247  1.00  0.00     0.049 A 
ATOM     53  C   UNL A   1      40.936  31.681  35.667  1.00  0.00     0.074 A 
ATOM     54  C   UNL A   1      42.898  27.469  31.325  1.00  0.00     0.029 A 
ATOM     55  N   UNL A   1      41.773  29.028  32.442  1.00  0.00    -0.354 N 
ATOM     56  N   UNL A   1      41.259  30.837  34.713  1.00  0.00    -0.248 NA
ATOM     57  C   UNL A   1      41.789  31.597  36.859  1.00  0.00     0.031 C 
ATOM     58  C   UNL A   1      43.482  27.619  32.589  1.00  0.00     0.029 A 
ATOM     59  C   UNL A   1      42.804  28.616  33.272  1.00  0.00     0.049 A 
ATOM     60  H   UNL A   1      41.112  29.723  32.666  1.00  0.00     0.167 HD
ATOM     61  C   UNL A   1      42.371  30.144  35.181  1.00  0.00     0.074 A 
ATOM     62  C   UNL A   1      42.673  30.681  36.493  1.00  0.00     0.031 C 
ATOM     63  C   UNL A   1      43.084  29.156  34.582  1.00  0.00     0.034 A 
BRANCH  50  64
ATOM     64  C   UNL A   1      40.977  27.570  28.963  1.00  0.00     0.023 A 
ATOM     65  C   UNL A   1      41.980  27.752  27.995  1.00  0.00     0.031 A 
ATOM     66  C   UNL A   1      40.054  26.528  28.764  1.00  0.00     0.131 A 
ATOM     67  C   UNL A   1      41.991  26.959  26.838  1.00  0.00     0.055 A 
ATOM     68  C   UNL A   1      40.121  25.687  27.650  1.00  0.00     0.041 A 
ATOM     69  F   UNL A   1      39.062  26.316  29.643  1.00  0.00    -0.206 F 
ATOM     70  C   UNL A   1      41.084  25.911  26.671  1.00  0.00     0.022 A 
BRANCH  67  71
ATOM     71  S   UNL A   1      43.119  27.411  25.489  1.00  0.00     0.124 S 
ATOM     72  O   UNL A   1      43.485  26.099  24.963  1.00  0.00    -0.237 OA
ATOM     73  O   UNL A   1      42.272  28.231  24.631  1.00  0.00    -0.237 OA
ATOM     74  O   UNL A   1      44.197  28.125  26.170  1.00  0.00    -0.744 OA
ENDBRANCH  67  71
ENDBRANCH  50  64
BRANCH  51  75
ATOM     75  C   UNL A   1      39.603  33.550  36.901  1.00  0.00     0.023 A 
ATOM     76  C   UNL A   1      38.970  33.024  38.038  1.00  0.00     0.031 A 
ATOM     77  C   UNL A   1      39.968  34.908  36.919  1.00  0.00     0.131 A 
ATOM     78  C   UNL A   1      38.675  33.861  39.126  1.00  0.00     0.055 A 
ATOM     79  C   UNL A   1      39.722  35.724  38.025  1.00  0.00     0.041 A 
ATOM     80  F   UNL A   1      40.582  35.461  35.861  1.00  0.00    -0.206 F 
ATOM     81  C   UNL A   1      39.057  35.204  39.132  1.00  0.00     0.022 A 
BRANCH  78  82
ATOM     82  S   UNL A   1      37.699  33.188  40.498  1.00  0.00     0.124 S 
ATOM     83  O   UNL A   1      38.495  32.029  40.889  1.00  0.00    -0.237 OA
ATOM     84  O   UNL A   1      37.687  34.304  41.437  1.00  0.00    -0.237 OA
ATOM     85  O   UNL A   1      36.410  32.882  39.881  1.00  0.00    -0.744 OA
ENDBRANCH  78  82
ENDBRANCH  51  75
BRANCH  63  86
ATOM     86  C   UNL A   1      44.286  28.631  35.327  1.00  0.00     0.023 A 
ATOM     87  C   UNL A   1      44.184  27.565  36.239  1.00  0.00     0.031 A 
ATOM     88  C   UNL A   1      45.550  29.214  35.129  1.00  0.00     0.131 A 
ATOM     89  C   UNL A   1      45.314  27.153  36.960  1.00  0.00     0.055 A 
ATOM     90  C   UNL A   1      46.683  28.760  35.804  1.00  0.00     0.041 A 
ATOM     91  F   UNL A   1      45.704  30.235  34.271  1.00  0.00    -0.206 F 
ATOM     92  C   UNL A   1      46.567  27.732  36.736  1.00  0.00     0.022 A 
BRANCH  89  93
ATOM     93  S   UNL A   1      45.110  25.908  38.263  1.00  0.00     0.124 S 
ATOM     94  O   UNL A   1      46.422  25.921  38.903  1.00  0.00    -0.237 OA
ATOM     95  O   UNL A   1      44.011  26.458  39.051  1.00  0.00    -0.237 OA
ATOM     96  O   UNL A   1      44.792  24.687  37.525  1.00  0.00    -0.744 OA
ENDBRANCH  89  93
ENDBRANCH  63  86
ENDBRANCH  37  38
ENDBRANCH  29  32
ENDBRANCH  27  28
ENDBRANCH  26  27
ENDBRANCH   1  26
TORSDOF 17
ENDMDL
MODEL 2
REMARK VINA RESULT:     -12.5      1.119      1.712
REMARK SMILES Cc1cc(Br)ccc1NS(=O)(=O)c1ccc(C(=O)NCCCCNC(=O)c2ccc(-c3c4nc(c(-c5cc(S(=O)(=O)[O-])ccc5F)c5ccc([nH]5)c(-c5cc(S(=O)(=O)[O-])ccc5F)c5nc(c(-c6cc(S(=O)(=O)[O-])ccc6F)c6ccc3[nH]6)C=C5)C=C4)cc2)cc1
REMARK SMILES IDX 21 1 20 2 19 3 17 4 18 5 16 7 13 8 14 9 91 10 15 11 90 12
REMARK SMILES IDX 10 13 11 14 12 15 9 16 8 18 1 19 2 20 3 21 4 22 7 23 5 24
REMARK SMILES IDX 6 25 22 26 23 27 24 28 25 29 26 31 27 32 28 33 89 34 29 35
REMARK SMILES IDX 88 36 30 37 31 38 32 39 82 40 33 41 87 42 81 43 83 44 34 45
REMARK SMILES IDX 86 46 80 47 79 48 35 50 67 51 47 52 66 53 48 54 51 55 65 56
REMARK SMILES IDX 84 57 49 58 50 59 64 61 85 62 52 63 36 64 37 65 45 66 38 67
REMARK SMILES IDX 44 68 46 69 43 70 39 71 40 72 41 73 42 74 68 75 69 76 77 77
REMARK SMILES IDX 70 78 76 79 78 80 75 81 71 82 72 83 73 84 74 85 53 86 54 87
REMARK SMILES IDX 62 88 55 89 61 90 63 91 60 92 56 93 57 94 58 95 59 96
REMARK H PARENT 19 6 9 17 24 30 83 49 51 60
REMARK Flexibility Score: inf
ROOT
ATOM      1  C   UNL A   1      31.165  31.206  25.834  1.00  0.00     0.023 C 
ENDROOT
BRANCH   1   2
ATOM      2  C   UNL A   1      31.505  29.944  25.043  1.00  0.00     0.116 C 
BRANCH   2   3
ATOM      3  N   UNL A   1      30.704  29.866  23.837  1.00  0.00    -0.352 N 
ATOM      4  C   UNL A   1      30.605  28.854  22.920  1.00  0.00     0.251 C 
ATOM      5  O   UNL A   1      29.817  28.945  21.983  1.00  0.00    -0.269 OA
ATOM      6  H   UNL A   1      30.150  30.656  23.650  1.00  0.00     0.163 HD
BRANCH   4   7
ATOM      7  C   UNL A   1      31.397  27.612  23.062  1.00  0.00     0.039 A 
ATOM      8  C   UNL A   1      32.678  25.135  23.140  1.00  0.00     0.087 A 
ATOM      9  C   UNL A   1      31.400  25.276  23.692  1.00  0.00     0.023 A 
ATOM     10  C   UNL A   1      33.353  26.246  22.617  1.00  0.00     0.023 A 
ATOM     11  C   UNL A   1      30.748  26.507  23.621  1.00  0.00     0.015 A 
ATOM     12  C   UNL A   1      32.703  27.487  22.570  1.00  0.00     0.015 A 
BRANCH   8  13
ATOM     13  S   UNL A   1      33.413  23.513  23.104  1.00  0.00     0.261 S 
ATOM     14  O   UNL A   1      34.684  23.604  22.418  1.00  0.00    -0.201 OA
ATOM     15  O   UNL A   1      32.400  22.581  22.646  1.00  0.00    -0.201 OA
BRANCH  13  16
ATOM     16  N   UNL A   1      33.720  23.095  24.733  1.00  0.00    -0.279 N 
ATOM     17  H   UNL A   1      32.990  23.092  25.394  1.00  0.00     0.180 HD
BRANCH  16  18
ATOM     18  C   UNL A   1      35.056  22.750  25.124  1.00  0.00     0.052 A 
ATOM     19  C   UNL A   1      34.752  20.227  24.735  1.00  0.00     0.046 C 
ATOM     20  C   UNL A   1      35.575  21.447  25.041  1.00  0.00    -0.026 A 
ATOM     21  C   UNL A   1      36.931  21.239  25.379  1.00  0.00     0.021 A 
ATOM     22  C   UNL A   1      37.741  22.300  25.783  1.00  0.00     0.018 A 
ATOM     23  C   UNL A   1      35.869  23.788  25.597  1.00  0.00     0.028 A 
ATOM     24  Br  UNL A   1      39.557  21.994  26.201  1.00  0.00    -0.051 Br
ATOM     25  C   UNL A   1      37.211  23.575  25.903  1.00  0.00     0.018 A 
ENDBRANCH  16  18
ENDBRANCH  13  16
ENDBRANCH   8  13
ENDBRANCH   4   7
ENDBRANCH   2   3
ENDBRANCH   1   2
BRANCH   1  26
ATOM     26  C   UNL A   1      31.881  31.316  27.185  1.00  0.00     0.023 C 
BRANCH  26  27
ATOM     27  C   UNL A   1      33.056  32.289  27.220  1.00  0.00     0.116 C 
BRANCH  27  28
ATOM     28  N   UNL A   1      32.658  33.653  27.534  1.00  0.00    -0.352 N 
ATOM     29  C   UNL A   1      33.154  34.483  28.510  1.00  0.00     0.251 C 
ATOM     30  H   UNL A   1      31.940  34.029  26.975  1.00  0.00     0.163 HD
ATOM     31  O   UNL A   1      32.621  35.566  28.723  1.00  0.00    -0.269 OA
BRANCH  29  32
ATOM     32  C   UNL A   1      34.304  34.034  29.320  1.00  0.00     0.039 A 
ATOM     33  C   UNL A   1      34.070  33.234  30.440  1.00  0.00     0.014 A 
ATOM     34  C   UNL A   1      35.609  34.367  28.946  1.00  0.00     0.014 A 
ATOM     35  C   UNL A   1      35.152  32.711  31.150  1.00  0.00     0.010 A 
ATOM     36  C   UNL A   1      36.685  33.791  29.615  1.00  0.00     0.010 A 
ATOM     37  C   UNL A   1      36.467  32.956  30.721  1.00  0.00    -0.014 A 
BRANCH  37  38
ATOM     38  C   UNL A   1      37.628  32.349  31.420  1.00  0.00     0.031 A 
ATOM     39  C   UNL A   1      38.369  31.204  30.787  1.00  0.00     0.074 A 
ATOM     40  C   UNL A   1      37.969  32.786  32.649  1.00  0.00     0.049 A 
ATOM     41  N   UNL A   1      39.353  30.488  31.267  1.00  0.00    -0.248 NA
ATOM     42  C   UNL A   1      37.922  30.791  29.448  1.00  0.00     0.031 C 
ATOM     43  C   UNL A   1      37.293  33.861  33.381  1.00  0.00     0.029 A 
ATOM     44  N   UNL A   1      38.959  32.377  33.505  1.00  0.00    -0.354 N 
ATOM     45  C   UNL A   1      39.636  29.535  30.295  1.00  0.00     0.074 A 
ATOM     46  C   UNL A   1      38.676  29.726  29.229  1.00  0.00     0.031 C 
ATOM     47  C   UNL A   1      37.903  34.038  34.564  1.00  0.00     0.029 A 
ATOM     48  C   UNL A   1      38.982  33.065  34.697  1.00  0.00     0.049 A 
ATOM     49  H   UNL A   1      39.594  31.656  33.288  1.00  0.00     0.167 HD
ATOM     50  C   UNL A   1      40.621  28.603  30.284  1.00  0.00     0.034 A 
ATOM     51  C   UNL A   1      39.776  32.920  35.776  1.00  0.00     0.034 A 
ATOM     52  C   UNL A   1      41.578  28.436  31.351  1.00  0.00     0.049 A 
ATOM     53  C   UNL A   1      40.853  31.865  35.747  1.00  0.00     0.074 A 
ATOM     54  C   UNL A   1      42.646  27.560  31.423  1.00  0.00     0.029 A 
ATOM     55  N   UNL A   1      41.577  29.159  32.539  1.00  0.00    -0.354 N 
ATOM     56  N   UNL A   1      41.140  31.003  34.798  1.00  0.00    -0.248 NA
ATOM     57  C   UNL A   1      41.721  31.772  36.928  1.00  0.00     0.031 C 
ATOM     58  C   UNL A   1      43.252  27.709  32.677  1.00  0.00     0.029 A 
ATOM     59  C   UNL A   1      42.609  28.729  33.359  1.00  0.00     0.049 A 
ATOM     60  H   UNL A   1      40.936  29.871  32.765  1.00  0.00     0.167 HD
ATOM     61  C   UNL A   1      42.242  30.288  35.257  1.00  0.00     0.074 A 
ATOM     62  C   UNL A   1      42.576  30.831  36.559  1.00  0.00     0.031 C 
ATOM     63  C   UNL A   1      42.921  29.276  34.658  1.00  0.00     0.034 A 
BRANCH  50  64
ATOM     64  C   UNL A   1      40.693  27.684  29.088  1.00  0.00     0.023 A 
ATOM     65  C   UNL A   1      41.647  27.870  28.072  1.00  0.00     0.031 A 
ATOM     66  C   UNL A   1      39.781  26.623  28.947  1.00  0.00     0.131 A 
ATOM     67  C   UNL A   1      41.618  27.061  26.926  1.00  0.00     0.055 A 
ATOM     68  C   UNL A   1      39.811  25.768  27.842  1.00  0.00     0.041 A 
ATOM     69  F   UNL A   1      38.835  26.407  29.874  1.00  0.00    -0.206 F 
ATOM     70  C   UNL A   1      40.723  25.995  26.816  1.00  0.00     0.022 A 
BRANCH  67  71
ATOM     71  S   UNL A   1      42.672  27.513  25.520  1.00  0.00     0.124 S 
ATOM     72  O   UNL A   1      42.750  26.248  24.793  1.00  0.00    -0.237 OA
ATOM     73  O   UNL A   1      41.905  28.573  24.878  1.00  0.00    -0.237 OA
ATOM     74  O   UNL A   1      43.920  27.939  26.151  1.00  0.00    -0.744 OA
ENDBRANCH  67  71
ENDBRANCH  50  64
BRANCH  51  75
ATOM     75  C   UNL A   1      39.585  33.780  36.979  1.00  0.00     0.023 A 
ATOM     76  C   UNL A   1      38.927  33.292  38.120  1.00  0.00     0.031 A 
ATOM     77  C   UNL A   1      40.014  35.119  36.989  1.00  0.00     0.131 A 
ATOM     78  C   UNL A   1      38.670  34.149  39.201  1.00  0.00     0.055 A 
ATOM     79  C   UNL A   1      39.805  35.953  38.090  1.00  0.00     0.041 A 
ATOM     80  F   UNL A   1      40.655  35.635  35.928  1.00  0.00    -0.206 F 
ATOM     81  C   UNL A   1      39.115  35.472  39.199  1.00  0.00     0.022 A 
BRANCH  78  82
ATOM     82  S   UNL A   1      37.663  33.532  40.577  1.00  0.00     0.124 S 
ATOM     83  O   UNL A   1      37.198  34.773  41.186  1.00  0.00    -0.237 OA
ATOM     84  O   UNL A   1      36.654  32.740  39.881  1.00  0.00    -0.237 OA
ATOM     85  O   UNL A   1      38.614  32.761  41.376  1.00  0.00    -0.744 OA
ENDBRANCH  78  82
ENDBRANCH  51  75
BRANCH  63  86
ATOM     86  C   UNL A   1      44.120  28.728  35.392  1.00  0.00     0.023 A 
ATOM     87  C   UNL A   1      44.007  27.669  36.309  1.00  0.00     0.031 A 
ATOM     88  C   UNL A   1      45.394  29.284  35.177  1.00  0.00     0.131 A 
ATOM     89  C   UNL A   1      45.137  27.236  37.019  1.00  0.00     0.055 A 
ATOM     90  C   UNL A   1      46.525  28.810  35.841  1.00  0.00     0.041 A 
ATOM     91  F   UNL A   1      45.559  30.300  34.313  1.00  0.00    -0.206 F 
ATOM     92  C   UNL A   1      46.399  27.788  36.778  1.00  0.00     0.022 A 
BRANCH  89  93
ATOM     93  S   UNL A   1      44.922  26.001  38.329  1.00  0.00     0.124 S 
ATOM     94  O   UNL A   1      46.290  25.536  38.536  1.00  0.00    -0.237 OA
ATOM     95  O   UNL A   1      44.346  26.791  39.412  1.00  0.00    -0.237 OA
ATOM     96  O   UNL A   1      44.018  25.019  37.731  1.00  0.00    -0.744 OA
ENDBRANCH  89  93
ENDBRANCH  63  86
ENDBRANCH  37  38
ENDBRANCH  29  32
ENDBRANCH  27  28
ENDBRANCH  26  27
ENDBRANCH   1  26
TORSDOF 17
ENDMDL
MODEL 3
REMARK VINA RESULT:     -12.4      2.558      3.302
REMARK SMILES Cc1cc(Br)ccc1NS(=O)(=O)c1ccc(C(=O)NCCCCNC(=O)c2ccc(-c3c4nc(c(-c5cc(S(=O)(=O)[O-])ccc5F)c5ccc([nH]5)c(-c5cc(S(=O)(=O)[O-])ccc5F)c5nc(c(-c6cc(S(=O)(=O)[O-])ccc6F)c6ccc3[nH]6)C=C5)C=C4)cc2)cc1
REMARK SMILES IDX 21 1 20 2 19 3 17 4 18 5 16 7 13 8 14 9 91 10 15 11 90 12
REMARK SMILES IDX 10 13 11 14 12 15 9 16 8 18 1 19 2 20 3 21 4 22 7 23 5 24
REMARK SMILES IDX 6 25 22 26 23 27 24 28 25 29 26 31 27 32 28 33 89 34 29 35
REMARK SMILES IDX 88 36 30 37 31 38 32 39 82 40 33 41 87 42 81 43 83 44 34 45
REMARK SMILES IDX 86 46 80 47 79 48 35 50 67 51 47 52 66 53 48 54 51 55 65 56
REMARK SMILES IDX 84 57 49 58 50 59 64 61 85 62 52 63 36 64 37 65 45 66 38 67
REMARK SMILES IDX 44 68 46 69 43 70 39 71 40 72 41 73 42 74 68 75 69 76 77 77
REMARK SMILES IDX 70 78 76 79 78 80 75 81 71 82 72 83 73 84 74 85 53 86 54 87
REMARK SMILES IDX 62 88 55 89 61 90 63 91 60 92 56 93 57 94 58 95 59 96
REMARK H PARENT 19 6 9 17 24 30 83 49 51 60
REMARK Flexibility Score: inf
ROOT
ATOM      1  C   UNL A   1      31.959  29.113  23.386  1.00  0.00     0.023 C 
ENDROOT
BRANCH   1   2
ATOM      2  C   UNL A   1      33.422  28.940  22.982  1.00  0.00     0.116 C 
BRANCH   2   3
ATOM      3  N   UNL A   1      33.547  27.961  21.919  1.00  0.00    -0.352 N 
ATOM      4  C   UNL A   1      33.226  26.631  21.917  1.00  0.00     0.251 C 
ATOM      5  O   UNL A   1      33.346  25.969  20.890  1.00  0.00    -0.269 OA
ATOM      6  H   UNL A   1      33.917  28.305  21.075  1.00  0.00     0.163 HD
BRANCH   4   7
ATOM      7  C   UNL A   1      32.680  25.973  23.125  1.00  0.00     0.039 A 
ATOM      8  C   UNL A   1      31.633  24.469  25.229  1.00  0.00     0.087 A 
ATOM      9  C   UNL A   1      30.858  24.705  24.087  1.00  0.00     0.023 A 
ATOM     10  C   UNL A   1      32.902  25.048  25.357  1.00  0.00     0.023 A 
ATOM     11  C   UNL A   1      31.396  25.428  23.024  1.00  0.00     0.015 A 
ATOM     12  C   UNL A   1      33.430  25.794  24.295  1.00  0.00     0.015 A 
BRANCH   8  13
ATOM     13  S   UNL A   1      30.974  23.407  26.498  1.00  0.00     0.261 S 
ATOM     14  O   UNL A   1      29.531  23.430  26.405  1.00  0.00    -0.201 OA
ATOM     15  O   UNL A   1      31.632  23.750  27.744  1.00  0.00    -0.201 OA
BRANCH  13  16
ATOM     16  N   UNL A   1      31.504  21.827  26.116  1.00  0.00    -0.279 N 
ATOM     17  H   UNL A   1      30.874  21.070  26.136  1.00  0.00     0.180 HD
BRANCH  16  18
ATOM     18  C   UNL A   1      32.878  21.618  25.765  1.00  0.00     0.052 A 
ATOM     19  C   UNL A   1      32.424  21.358  23.249  1.00  0.00     0.046 C 
ATOM     20  C   UNL A   1      33.330  21.495  24.441  1.00  0.00    -0.026 A 
ATOM     21  C   UNL A   1      34.718  21.372  24.210  1.00  0.00     0.021 A 
ATOM     22  C   UNL A   1      35.625  21.377  25.270  1.00  0.00     0.018 A 
ATOM     23  C   UNL A   1      33.800  21.553  26.817  1.00  0.00     0.028 A 
ATOM     24  Br  UNL A   1      37.477  21.239  24.928  1.00  0.00    -0.051 Br
ATOM     25  C   UNL A   1      35.169  21.456  26.577  1.00  0.00     0.018 A 
ENDBRANCH  16  18
ENDBRANCH  13  16
ENDBRANCH   8  13
ENDBRANCH   4   7
ENDBRANCH   2   3
ENDBRANCH   1   2
BRANCH   1  26
ATOM     26  C   UNL A   1      31.702  29.004  24.893  1.00  0.00     0.023 C 
BRANCH  26  27
ATOM     27  C   UNL A   1      32.741  29.685  25.780  1.00  0.00     0.116 C 
BRANCH  27  28
ATOM     28  N   UNL A   1      32.355  31.029  26.180  1.00  0.00    -0.352 N 
ATOM     29  C   UNL A   1      32.984  31.868  27.069  1.00  0.00     0.251 C 
ATOM     30  H   UNL A   1      31.538  31.383  25.760  1.00  0.00     0.163 HD
ATOM     31  O   UNL A   1      32.457  32.928  27.389  1.00  0.00    -0.269 OA
BRANCH  29  32
ATOM     32  C   UNL A   1      34.272  31.456  27.660  1.00  0.00     0.039 A 
ATOM     33  C   UNL A   1      35.261  32.421  27.863  1.00  0.00     0.014 A 
ATOM     34  C   UNL A   1      34.483  30.131  28.051  1.00  0.00     0.014 A 
ATOM     35  C   UNL A   1      36.440  32.069  28.521  1.00  0.00     0.010 A 
ATOM     36  C   UNL A   1      35.630  29.798  28.766  1.00  0.00     0.010 A 
ATOM     37  C   UNL A   1      36.618  30.764  29.010  1.00  0.00    -0.014 A 
BRANCH  37  38
ATOM     38  C   UNL A   1      37.834  30.391  29.776  1.00  0.00     0.031 A 
ATOM     39  C   UNL A   1      38.818  29.416  29.192  1.00  0.00     0.074 A 
ATOM     40  C   UNL A   1      38.014  30.880  31.019  1.00  0.00     0.049 A 
ATOM     41  N   UNL A   1      39.895  28.903  29.730  1.00  0.00    -0.248 NA
ATOM     42  C   UNL A   1      38.534  28.931  27.833  1.00  0.00     0.031 C 
ATOM     43  C   UNL A   1      37.102  31.799  31.706  1.00  0.00     0.029 A 
ATOM     44  N   UNL A   1      39.017  30.667  31.932  1.00  0.00    -0.354 N 
ATOM     45  C   UNL A   1      40.411  28.029  28.781  1.00  0.00     0.074 A 
ATOM     46  C   UNL A   1      39.493  28.034  27.661  1.00  0.00     0.031 C 
ATOM     47  C   UNL A   1      37.600  32.085  32.920  1.00  0.00     0.029 A 
ATOM     48  C   UNL A   1      38.839  31.341  33.118  1.00  0.00     0.049 A 
ATOM     49  H   UNL A   1      39.791  30.085  31.754  1.00  0.00     0.167 HD
ATOM     50  C   UNL A   1      41.558  27.306  28.829  1.00  0.00     0.034 A 
ATOM     51  C   UNL A   1      39.585  31.348  34.241  1.00  0.00     0.034 A 
ATOM     52  C   UNL A   1      42.468  27.323  29.949  1.00  0.00     0.049 A 
ATOM     53  C   UNL A   1      40.846  30.523  34.278  1.00  0.00     0.074 A 
ATOM     54  C   UNL A   1      43.681  26.672  30.085  1.00  0.00     0.029 A 
ATOM     55  N   UNL A   1      42.260  28.026  31.130  1.00  0.00    -0.354 N 
ATOM     56  N   UNL A   1      41.348  29.738  33.351  1.00  0.00    -0.248 NA
ATOM     57  C   UNL A   1      41.649  30.594  35.505  1.00  0.00     0.031 C 
ATOM     58  C   UNL A   1      44.176  26.929  31.369  1.00  0.00     0.029 A 
ATOM     59  C   UNL A   1      43.309  27.802  32.009  1.00  0.00     0.049 A 
ATOM     60  H   UNL A   1      41.482  28.599  31.317  1.00  0.00     0.167 HD
ATOM     61  C   UNL A   1      42.541  29.249  33.875  1.00  0.00     0.074 A 
ATOM     62  C   UNL A   1      42.690  29.840  35.190  1.00  0.00     0.031 C 
ATOM     63  C   UNL A   1      43.437  28.392  33.320  1.00  0.00     0.034 A 
BRANCH  50  64
ATOM     64  C   UNL A   1      41.874  26.425  27.644  1.00  0.00     0.023 A 
ATOM     65  C   UNL A   1      41.551  25.057  27.637  1.00  0.00     0.031 A 
ATOM     66  C   UNL A   1      42.530  26.951  26.518  1.00  0.00     0.131 A 
ATOM     67  C   UNL A   1      41.951  24.247  26.564  1.00  0.00     0.055 A 
ATOM     68  C   UNL A   1      42.852  26.156  25.415  1.00  0.00     0.041 A 
ATOM     69  F   UNL A   1      42.882  28.246  26.474  1.00  0.00    -0.206 F 
ATOM     70  C   UNL A   1      42.577  24.792  25.441  1.00  0.00     0.022 A 
BRANCH  67  71
ATOM     71  S   UNL A   1      41.769  22.448  26.721  1.00  0.00     0.124 S 
ATOM     72  O   UNL A   1      40.355  22.326  27.068  1.00  0.00    -0.237 OA
ATOM     73  O   UNL A   1      42.145  21.976  25.394  1.00  0.00    -0.237 OA
ATOM     74  O   UNL A   1      42.699  22.103  27.794  1.00  0.00    -0.744 OA
ENDBRANCH  67  71
ENDBRANCH  50  64
BRANCH  51  75
ATOM     75  C   UNL A   1      39.163  32.147  35.427  1.00  0.00     0.023 A 
ATOM     76  C   UNL A   1      39.596  33.472  35.597  1.00  0.00     0.031 A 
ATOM     77  C   UNL A   1      38.360  31.583  36.434  1.00  0.00     0.131 A 
ATOM     78  C   UNL A   1      39.268  34.172  36.768  1.00  0.00     0.055 A 
ATOM     79  C   UNL A   1      37.990  32.302  37.573  1.00  0.00     0.041 A 
ATOM     80  F   UNL A   1      37.912  30.322  36.319  1.00  0.00    -0.206 F 
ATOM     81  C   UNL A   1      38.459  33.600  37.751  1.00  0.00     0.022 A 
BRANCH  78  82
ATOM     82  S   UNL A   1      39.994  35.813  37.030  1.00  0.00     0.124 S 
ATOM     83  O   UNL A   1      39.667  36.487  35.779  1.00  0.00    -0.237 OA
ATOM     84  O   UNL A   1      39.279  36.274  38.215  1.00  0.00    -0.237 OA
ATOM     85  O   UNL A   1      41.413  35.528  37.235  1.00  0.00    -0.744 OA
ENDBRANCH  78  82
ENDBRANCH  51  75
BRANCH  63  86
ATOM     86  C   UNL A   1      44.677  28.085  34.123  1.00  0.00     0.023 A 
ATOM     87  C   UNL A   1      44.715  27.032  35.053  1.00  0.00     0.031 A 
ATOM     88  C   UNL A   1      45.834  28.866  33.959  1.00  0.00     0.131 A 
ATOM     89  C   UNL A   1      45.867  26.824  35.826  1.00  0.00     0.055 A 
ATOM     90  C   UNL A   1      46.998  28.617  34.687  1.00  0.00     0.041 A 
ATOM     91  F   UNL A   1      45.853  29.886  33.085  1.00  0.00    -0.206 F 
ATOM     92  C   UNL A   1      47.015  27.599  35.637  1.00  0.00     0.022 A 
BRANCH  89  93
ATOM     93  S   UNL A   1      45.818  25.584  37.148  1.00  0.00     0.124 S 
ATOM     94  O   UNL A   1      44.391  25.290  37.236  1.00  0.00    -0.237 OA
ATOM     95  O   UNL A   1      46.655  24.518  36.607  1.00  0.00    -0.237 OA
ATOM     96  O   UNL A   1      46.379  26.287  38.300  1.00  0.00    -0.744 OA
ENDBRANCH  89  93
ENDBRANCH  63  86
ENDBRANCH  37  38
ENDBRANCH  29  32
ENDBRANCH  27  28
ENDBRANCH  26  27
ENDBRANCH   1  26
TORSDOF 17
ENDMDL
