MODEL 1
REMARK VINA RESULT:     -10.8      0.000      0.000
REMARK SMILES Cc1ccccc1-n1c(S[C@@H](C)C(=O)NCCCCNC(=O)c2ccc(-c3c4nc(c(-c5cc(S(=O)(=O)[O-])ccc5F)c5ccc([nH]5)c(-c5cc(S(=O)(=O)[O-])ccc5F)c5nc(c(-c6cc(S(=O)(=O)[O-])ccc6F)c6ccc3[nH]6)C=C5)C=C4)cc2)nc2sc3c(c2c1=O)C[C@@H](C(C)C)OC3
REMARK SMILES IDX 17 1 16 2 15 3 13 4 14 5 11 7 12 8 10 9 9 10 8 11 92 12
REMARK SMILES IDX 86 13 91 14 93 15 87 16 90 17 88 18 89 19 94 20 100 21 95 22
REMARK SMILES IDX 99 23 7 24 1 25 2 26 3 27 4 28 6 29 5 30 96 31 97 32 98 33
REMARK SMILES IDX 18 34 19 35 20 36 21 37 22 39 23 40 24 41 85 42 25 43 84 44
REMARK SMILES IDX 26 45 27 46 28 47 78 48 29 49 83 50 77 51 79 52 30 53 82 54
REMARK SMILES IDX 76 55 75 56 31 58 63 59 43 60 62 61 44 62 47 63 61 64 80 65
REMARK SMILES IDX 45 66 46 67 60 69 81 70 48 71 32 72 33 73 41 74 34 75 40 76
REMARK SMILES IDX 42 77 39 78 35 79 36 80 37 81 38 82 64 83 65 84 73 85 66 86
REMARK SMILES IDX 72 87 74 88 71 89 67 90 68 91 69 92 70 93 49 94 50 95 58 96
REMARK SMILES IDX 51 97 57 98 59 99 56 100 52 101 53 102 54 103 55 104
REMARK H PARENT 15 6 20 38 79 57 47 68
REMARK Flexibility Score: inf
ROOT
ATOM      1  C   UNL A   1      45.131  21.534  24.881  1.00  0.00     0.023 C 
ENDROOT
BRANCH   1   2
ATOM      2  C   UNL A   1      44.536  22.670  24.065  1.00  0.00     0.116 C 
BRANCH   2   3
ATOM      3  N   UNL A   1      43.640  23.645  24.619  1.00  0.00    -0.355 N 
ATOM      4  C   UNL A   1      43.890  24.937  25.006  1.00  0.00     0.233 C 
ATOM      5  O   UNL A   1      42.848  25.619  25.032  1.00  0.00    -0.274 OA
ATOM      6  H   UNL A   1      42.712  23.341  24.740  1.00  0.00     0.163 HD
BRANCH   4   7
ATOM      7  C   UNL A   1      45.170  25.545  25.635  1.00  0.00     0.140 C 
ATOM      8  C   UNL A   1      45.507  26.956  25.070  1.00  0.00     0.030 C 
BRANCH   7   9
ATOM      9  S   UNL A   1      46.768  24.835  25.992  1.00  0.00    -0.074 SA
BRANCH   9  10
ATOM     10  C   UNL A   1      48.125  25.553  25.191  1.00  0.00     0.177 A 
ATOM     11  N   UNL A   1      49.229  26.132  25.841  1.00  0.00    -0.255 N 
ATOM     12  C   UNL A   1      50.187  26.861  25.086  1.00  0.00     0.267 A 
ATOM     13  N   UNL A   1      47.963  25.504  23.902  1.00  0.00    -0.212 NA
ATOM     14  C   UNL A   1      49.903  26.921  23.647  1.00  0.00     0.081 A 
ATOM     15  O   UNL A   1      51.127  27.454  25.558  1.00  0.00    -0.268 OA
ATOM     16  C   UNL A   1      48.855  26.184  23.166  1.00  0.00     0.132 A 
ATOM     17  C   UNL A   1      50.488  27.711  22.603  1.00  0.00    -0.014 A 
ATOM     18  S   UNL A   1      48.681  26.286  21.473  1.00  0.00    -0.117 S 
ATOM     19  C   UNL A   1      49.941  27.416  21.366  1.00  0.00     0.037 A 
ATOM     20  C   UNL A   1      51.558  28.752  22.667  1.00  0.00     0.070 C 
ATOM     21  C   UNL A   1      50.407  27.962  20.052  1.00  0.00     0.207 C 
ATOM     22  C   UNL A   1      52.343  28.749  21.336  1.00  0.00     0.125 C 
ATOM     23  O   UNL A   1      51.417  28.973  20.244  1.00  0.00    -0.372 OA
BRANCH  11  24
ATOM     24  C   UNL A   1      49.328  26.165  27.278  1.00  0.00     0.054 A 
ATOM     25  C   UNL A   1      48.020  28.331  27.484  1.00  0.00     0.046 C 
ATOM     26  C   UNL A   1      48.987  27.304  28.012  1.00  0.00    -0.027 A 
ATOM     27  C   UNL A   1      49.445  27.421  29.340  1.00  0.00     0.005 A 
ATOM     28  C   UNL A   1      50.217  26.425  29.938  1.00  0.00     0.000 A 
ATOM     29  C   UNL A   1      49.929  25.094  27.967  1.00  0.00     0.027 A 
ATOM     30  C   UNL A   1      50.435  25.240  29.257  1.00  0.00     0.002 A 
ENDBRANCH  11  24
BRANCH  22  31
ATOM     31  C   UNL A   1      53.223  27.490  21.104  1.00  0.00     0.012 C 
ATOM     32  C   UNL A   1      54.153  27.692  19.905  1.00  0.00     0.010 C 
ATOM     33  C   UNL A   1      54.044  27.119  22.341  1.00  0.00     0.010 C 
ENDBRANCH  22  31
ENDBRANCH   9  10
ENDBRANCH   7   9
ENDBRANCH   4   7
ENDBRANCH   2   3
ENDBRANCH   1   2
BRANCH   1  34
ATOM     34  C   UNL A   1      44.454  20.141  25.047  1.00  0.00     0.023 C 
BRANCH  34  35
ATOM     35  C   UNL A   1      43.040  19.806  25.609  1.00  0.00     0.116 C 
BRANCH  35  36
ATOM     36  N   UNL A   1      41.987  20.807  25.846  1.00  0.00    -0.352 N 
ATOM     37  C   UNL A   1      41.316  20.939  27.077  1.00  0.00     0.251 C 
ATOM     38  H   UNL A   1      41.742  21.414  25.110  1.00  0.00     0.163 HD
ATOM     39  O   UNL A   1      40.881  19.958  27.679  1.00  0.00    -0.269 OA
BRANCH  37  40
ATOM     40  C   UNL A   1      41.180  22.342  27.701  1.00  0.00     0.039 A 
ATOM     41  C   UNL A   1      42.261  23.003  28.305  1.00  0.00     0.014 A 
ATOM     42  C   UNL A   1      40.054  23.133  27.469  1.00  0.00     0.014 A 
ATOM     43  C   UNL A   1      42.216  24.412  28.614  1.00  0.00     0.010 A 
ATOM     44  C   UNL A   1      40.019  24.534  27.780  1.00  0.00     0.010 A 
ATOM     45  C   UNL A   1      41.097  25.236  28.318  1.00  0.00    -0.014 A 
BRANCH  45  46
ATOM     46  C   UNL A   1      41.339  26.755  28.051  1.00  0.00     0.031 A 
ATOM     47  C   UNL A   1      40.081  27.396  28.742  1.00  0.00     0.074 A 
ATOM     48  C   UNL A   1      42.385  27.695  28.036  1.00  0.00     0.049 A 
ATOM     49  N   UNL A   1      39.832  27.242  30.019  1.00  0.00    -0.248 NA
ATOM     50  C   UNL A   1      38.924  28.000  28.059  1.00  0.00     0.031 C 
ATOM     51  C   UNL A   1      42.326  28.795  27.035  1.00  0.00     0.029 A 
ATOM     52  N   UNL A   1      43.689  27.963  28.599  1.00  0.00    -0.354 N 
ATOM     53  C   UNL A   1      38.790  28.120  30.355  1.00  0.00     0.074 A 
ATOM     54  C   UNL A   1      38.120  28.358  29.089  1.00  0.00     0.031 C 
ATOM     55  C   UNL A   1      43.347  29.676  27.167  1.00  0.00     0.029 A 
ATOM     56  C   UNL A   1      44.195  29.325  28.301  1.00  0.00     0.049 A 
ATOM     57  H   UNL A   1      44.194  27.304  29.130  1.00  0.00     0.167 HD
ATOM     58  C   UNL A   1      38.982  29.003  31.401  1.00  0.00     0.034 A 
ATOM     59  C   UNL A   1      44.993  30.264  28.989  1.00  0.00     0.034 A 
ATOM     60  C   UNL A   1      40.394  29.167  31.469  1.00  0.00     0.049 A 
ATOM     61  C   UNL A   1      45.457  29.812  30.352  1.00  0.00     0.074 A 
ATOM     62  C   UNL A   1      41.046  29.914  30.536  1.00  0.00     0.029 A 
ATOM     63  N   UNL A   1      41.277  28.553  32.327  1.00  0.00    -0.354 N 
ATOM     64  N   UNL A   1      44.786  30.114  31.433  1.00  0.00    -0.248 NA
ATOM     65  C   UNL A   1      46.610  28.963  30.658  1.00  0.00     0.031 C 
ATOM     66  C   UNL A   1      42.333  29.548  30.740  1.00  0.00     0.029 A 
ATOM     67  C   UNL A   1      42.552  28.738  31.831  1.00  0.00     0.049 A 
ATOM     68  H   UNL A   1      41.041  28.067  33.151  1.00  0.00     0.167 HD
ATOM     69  C   UNL A   1      44.908  28.971  32.171  1.00  0.00     0.074 A 
ATOM     70  C   UNL A   1      46.298  28.647  31.927  1.00  0.00     0.031 C 
ATOM     71  C   UNL A   1      43.806  28.143  32.319  1.00  0.00     0.034 A 
BRANCH  58  72
ATOM     72  C   UNL A   1      38.276  30.213  32.002  1.00  0.00     0.023 A 
ATOM     73  C   UNL A   1      38.613  30.586  33.347  1.00  0.00     0.031 A 
ATOM     74  C   UNL A   1      37.152  30.837  31.479  1.00  0.00     0.131 A 
ATOM     75  C   UNL A   1      37.844  31.438  34.135  1.00  0.00     0.055 A 
ATOM     76  C   UNL A   1      36.385  31.730  32.262  1.00  0.00     0.041 A 
ATOM     77  F   UNL A   1      36.728  30.553  30.239  1.00  0.00    -0.206 F 
ATOM     78  C   UNL A   1      36.713  32.017  33.598  1.00  0.00     0.022 A 
BRANCH  75  79
ATOM     79  S   UNL A   1      38.308  31.628  35.887  1.00  0.00     0.124 S 
ATOM     80  O   UNL A   1      38.237  30.256  36.376  1.00  0.00    -0.237 OA
ATOM     81  O   UNL A   1      39.639  32.220  35.793  1.00  0.00    -0.237 OA
ATOM     82  O   UNL A   1      37.272  32.519  36.408  1.00  0.00    -0.744 OA
ENDBRANCH  75  79
ENDBRANCH  58  72
BRANCH  59  83
ATOM     83  C   UNL A   1      44.873  31.848  28.991  1.00  0.00     0.023 A 
ATOM     84  C   UNL A   1      43.817  32.582  29.570  1.00  0.00     0.031 A 
ATOM     85  C   UNL A   1      45.678  32.630  28.096  1.00  0.00     0.131 A 
ATOM     86  C   UNL A   1      43.611  33.964  29.220  1.00  0.00     0.055 A 
ATOM     87  C   UNL A   1      45.442  33.954  27.718  1.00  0.00     0.041 A 
ATOM     88  F   UNL A   1      46.755  32.146  27.491  1.00  0.00    -0.206 F 
ATOM     89  C   UNL A   1      44.396  34.634  28.278  1.00  0.00     0.022 A 
BRANCH  86  90
ATOM     90  S   UNL A   1      42.327  34.973  30.030  1.00  0.00     0.124 S 
ATOM     91  O   UNL A   1      42.518  36.280  29.409  1.00  0.00    -0.237 OA
ATOM     92  O   UNL A   1      41.100  34.269  29.672  1.00  0.00    -0.237 OA
ATOM     93  O   UNL A   1      42.671  34.908  31.451  1.00  0.00    -0.744 OA
ENDBRANCH  86  90
ENDBRANCH  59  83
BRANCH  71  94
ATOM     94  C   UNL A   1      43.960  26.642  32.447  1.00  0.00     0.023 A 
ATOM     95  C   UNL A   1      43.813  25.962  33.664  1.00  0.00     0.031 A 
ATOM     96  C   UNL A   1      44.365  25.824  31.392  1.00  0.00     0.131 A 
ATOM     97  C   UNL A   1      44.066  24.604  33.837  1.00  0.00     0.055 A 
ATOM     98  C   UNL A   1      44.760  24.499  31.594  1.00  0.00     0.041 A 
ATOM     99  F   UNL A   1      44.438  26.250  30.125  1.00  0.00    -0.206 F 
ATOM    100  C   UNL A   1      44.640  23.880  32.825  1.00  0.00     0.022 A 
BRANCH  97 101
ATOM    101  S   UNL A   1      43.399  23.836  35.330  1.00  0.00     0.124 S 
ATOM    102  O   UNL A   1      41.961  23.914  35.104  1.00  0.00    -0.237 OA
ATOM    103  O   UNL A   1      43.982  22.497  35.276  1.00  0.00    -0.237 OA
ATOM    104  O   UNL A   1      43.915  24.668  36.410  1.00  0.00    -0.744 OA
ENDBRANCH  97 101
ENDBRANCH  71  94
ENDBRANCH  45  46
ENDBRANCH  37  40
ENDBRANCH  35  36
ENDBRANCH  34  35
ENDBRANCH   1  34
TORSDOF 18
ENDMDL
MODEL 2
REMARK VINA RESULT:     -10.1      5.698     12.502
REMARK SMILES Cc1ccccc1-n1c(S[C@@H](C)C(=O)NCCCCNC(=O)c2ccc(-c3c4nc(c(-c5cc(S(=O)(=O)[O-])ccc5F)c5ccc([nH]5)c(-c5cc(S(=O)(=O)[O-])ccc5F)c5nc(c(-c6cc(S(=O)(=O)[O-])ccc6F)c6ccc3[nH]6)C=C5)C=C4)cc2)nc2sc3c(c2c1=O)C[C@@H](C(C)C)OC3
REMARK SMILES IDX 17 1 16 2 15 3 13 4 14 5 11 7 12 8 10 9 9 10 8 11 92 12
REMARK SMILES IDX 86 13 91 14 93 15 87 16 90 17 88 18 89 19 94 20 100 21 95 22
REMARK SMILES IDX 99 23 7 24 1 25 2 26 3 27 4 28 6 29 5 30 96 31 97 32 98 33
REMARK SMILES IDX 18 34 19 35 20 36 21 37 22 39 23 40 24 41 85 42 25 43 84 44
REMARK SMILES IDX 26 45 27 46 28 47 78 48 29 49 83 50 77 51 79 52 30 53 82 54
REMARK SMILES IDX 76 55 75 56 31 58 63 59 43 60 62 61 44 62 47 63 61 64 80 65
REMARK SMILES IDX 45 66 46 67 60 69 81 70 48 71 32 72 33 73 41 74 34 75 40 76
REMARK SMILES IDX 42 77 39 78 35 79 36 80 37 81 38 82 64 83 65 84 73 85 66 86
REMARK SMILES IDX 72 87 74 88 71 89 67 90 68 91 69 92 70 93 49 94 50 95 58 96
REMARK SMILES IDX 51 97 57 98 59 99 56 100 52 101 53 102 54 103 55 104
REMARK H PARENT 15 6 20 38 79 57 47 68
REMARK Flexibility Score: inf
ROOT
ATOM      1  C   UNL A   1      35.012  30.568  27.866  1.00  0.00     0.023 C 
ENDROOT
BRANCH   1   2
ATOM      2  C   UNL A   1      33.725  29.967  27.326  1.00  0.00     0.116 C 
BRANCH   2   3
ATOM      3  N   UNL A   1      33.327  30.075  25.952  1.00  0.00    -0.355 N 
ATOM      4  C   UNL A   1      32.754  29.133  25.135  1.00  0.00     0.233 C 
ATOM      5  O   UNL A   1      32.159  29.660  24.175  1.00  0.00    -0.274 OA
ATOM      6  H   UNL A   1      33.491  30.951  25.535  1.00  0.00     0.163 HD
BRANCH   4   7
ATOM      7  C   UNL A   1      32.968  27.598  25.102  1.00  0.00     0.140 C 
ATOM      8  C   UNL A   1      32.917  26.953  26.517  1.00  0.00     0.030 C 
BRANCH   7   9
ATOM      9  S   UNL A   1      34.133  26.582  24.211  1.00  0.00    -0.074 SA
BRANCH   9  10
ATOM     10  C   UNL A   1      33.700  24.919  24.002  1.00  0.00     0.177 A 
ATOM     11  N   UNL A   1      32.430  24.462  23.604  1.00  0.00    -0.255 N 
ATOM     12  C   UNL A   1      32.136  23.073  23.653  1.00  0.00     0.267 A 
ATOM     13  N   UNL A   1      34.709  24.152  24.290  1.00  0.00    -0.212 NA
ATOM     14  C   UNL A   1      33.246  22.237  24.128  1.00  0.00     0.081 A 
ATOM     15  O   UNL A   1      31.058  22.589  23.403  1.00  0.00    -0.268 OA
ATOM     16  C   UNL A   1      34.457  22.835  24.343  1.00  0.00     0.132 A 
ATOM     17  C   UNL A   1      33.287  20.856  24.514  1.00  0.00    -0.014 A 
ATOM     18  S   UNL A   1      35.674  21.740  24.821  1.00  0.00    -0.117 S 
ATOM     19  C   UNL A   1      34.566  20.457  24.861  1.00  0.00     0.037 A 
ATOM     20  C   UNL A   1      32.192  19.842  24.581  1.00  0.00     0.070 C 
ATOM     21  C   UNL A   1      34.986  19.058  25.189  1.00  0.00     0.207 C 
ATOM     22  C   UNL A   1      32.785  18.443  24.299  1.00  0.00     0.125 C 
ATOM     23  O   UNL A   1      33.844  18.179  25.252  1.00  0.00    -0.372 OA
BRANCH  11  24
ATOM     24  C   UNL A   1      31.354  25.376  23.318  1.00  0.00     0.054 A 
ATOM     25  C   UNL A   1      32.209  25.916  20.989  1.00  0.00     0.046 C 
ATOM     26  C   UNL A   1      31.391  26.231  22.213  1.00  0.00    -0.027 A 
ATOM     27  C   UNL A   1      30.524  27.343  22.183  1.00  0.00     0.005 A 
ATOM     28  C   UNL A   1      29.628  27.600  23.221  1.00  0.00     0.000 A 
ATOM     29  C   UNL A   1      30.308  25.544  24.245  1.00  0.00     0.027 A 
ATOM     30  C   UNL A   1      29.498  26.678  24.245  1.00  0.00     0.002 A 
ENDBRANCH  11  24
BRANCH  22  31
ATOM     31  C   UNL A   1      33.251  18.219  22.834  1.00  0.00     0.012 C 
ATOM     32  C   UNL A   1      33.981  16.880  22.695  1.00  0.00     0.010 C 
ATOM     33  C   UNL A   1      32.092  18.285  21.838  1.00  0.00     0.010 C 
ENDBRANCH  22  31
ENDBRANCH   9  10
ENDBRANCH   7   9
ENDBRANCH   4   7
ENDBRANCH   2   3
ENDBRANCH   1   2
BRANCH   1  34
ATOM     34  C   UNL A   1      36.208  29.721  28.394  1.00  0.00     0.023 C 
BRANCH  34  35
ATOM     35  C   UNL A   1      36.562  29.346  29.865  1.00  0.00     0.116 C 
BRANCH  35  36
ATOM     36  N   UNL A   1      37.655  29.965  30.633  1.00  0.00    -0.352 N 
ATOM     37  C   UNL A   1      38.639  29.216  31.308  1.00  0.00     0.251 C 
ATOM     38  H   UNL A   1      37.701  30.948  30.676  1.00  0.00     0.163 HD
ATOM     39  O   UNL A   1      38.341  28.252  32.011  1.00  0.00    -0.269 OA
BRANCH  37  40
ATOM     40  C   UNL A   1      40.121  29.589  31.108  1.00  0.00     0.039 A 
ATOM     41  C   UNL A   1      40.858  30.288  32.077  1.00  0.00     0.014 A 
ATOM     42  C   UNL A   1      40.877  29.029  30.077  1.00  0.00     0.014 A 
ATOM     43  C   UNL A   1      42.297  30.372  32.026  1.00  0.00     0.010 A 
ATOM     44  C   UNL A   1      42.309  29.118  30.035  1.00  0.00     0.010 A 
ATOM     45  C   UNL A   1      43.076  29.747  31.015  1.00  0.00    -0.014 A 
BRANCH  45  46
ATOM     46  C   UNL A   1      44.535  29.311  31.360  1.00  0.00     0.031 A 
ATOM     47  C   UNL A   1      44.301  28.421  32.634  1.00  0.00     0.074 A 
ATOM     48  C   UNL A   1      45.717  28.897  30.720  1.00  0.00     0.049 A 
ATOM     49  N   UNL A   1      43.550  27.347  32.608  1.00  0.00    -0.248 NA
ATOM     50  C   UNL A   1      44.643  28.778  34.022  1.00  0.00     0.031 C 
ATOM     51  C   UNL A   1      47.018  29.308  31.315  1.00  0.00     0.029 A 
ATOM     52  N   UNL A   1      46.202  28.260  29.517  1.00  0.00    -0.354 N 
ATOM     53  C   UNL A   1      43.741  26.669  33.821  1.00  0.00     0.074 A 
ATOM     54  C   UNL A   1      44.207  27.705  34.724  1.00  0.00     0.031 C 
ATOM     55  C   UNL A   1      48.081  28.788  30.654  1.00  0.00     0.029 A 
ATOM     56  C   UNL A   1      47.645  27.918  29.568  1.00  0.00     0.049 A 
ATOM     57  H   UNL A   1      45.630  28.069  28.738  1.00  0.00     0.167 HD
ATOM     58  C   UNL A   1      44.112  25.338  33.781  1.00  0.00     0.034 A 
ATOM     59  C   UNL A   1      48.441  26.876  29.045  1.00  0.00     0.034 A 
ATOM     60  C   UNL A   1      44.757  25.189  32.522  1.00  0.00     0.049 A 
ATOM     61  C   UNL A   1      47.680  25.850  28.242  1.00  0.00     0.074 A 
ATOM     62  C   UNL A   1      46.009  25.687  32.326  1.00  0.00     0.029 A 
ATOM     63  N   UNL A   1      44.231  24.682  31.355  1.00  0.00    -0.354 N 
ATOM     64  N   UNL A   1      47.227  24.754  28.794  1.00  0.00    -0.248 NA
ATOM     65  C   UNL A   1      47.290  25.939  26.833  1.00  0.00     0.031 C 
ATOM     66  C   UNL A   1      46.112  25.652  30.977  1.00  0.00     0.029 A 
ATOM     67  C   UNL A   1      45.074  25.031  30.320  1.00  0.00     0.049 A 
ATOM     68  H   UNL A   1      43.399  24.162  31.275  1.00  0.00     0.167 HD
ATOM     69  C   UNL A   1      46.024  24.597  28.168  1.00  0.00     0.074 A 
ATOM     70  C   UNL A   1      46.385  24.945  26.810  1.00  0.00     0.031 C 
ATOM     71  C   UNL A   1      44.858  24.843  28.877  1.00  0.00     0.034 A 
BRANCH  58  72
ATOM     72  C   UNL A   1      44.596  24.271  34.757  1.00  0.00     0.023 A 
ATOM     73  C   UNL A   1      45.613  24.639  35.702  1.00  0.00     0.031 A 
ATOM     74  C   UNL A   1      44.345  22.910  34.658  1.00  0.00     0.131 A 
ATOM     75  C   UNL A   1      46.377  23.723  36.421  1.00  0.00     0.055 A 
ATOM     76  C   UNL A   1      45.094  21.975  35.410  1.00  0.00     0.041 A 
ATOM     77  F   UNL A   1      43.431  22.444  33.793  1.00  0.00    -0.206 F 
ATOM     78  C   UNL A   1      46.126  22.374  36.276  1.00  0.00     0.022 A 
BRANCH  75  79
ATOM     79  S   UNL A   1      47.765  24.364  37.412  1.00  0.00     0.124 S 
ATOM     80  O   UNL A   1      47.080  25.174  38.413  1.00  0.00    -0.237 OA
ATOM     81  O   UNL A   1      48.399  23.138  37.886  1.00  0.00    -0.237 OA
ATOM     82  O   UNL A   1      48.543  25.125  36.436  1.00  0.00    -0.744 OA
ENDBRANCH  75  79
ENDBRANCH  58  72
BRANCH  59  83
ATOM     83  C   UNL A   1      49.704  26.174  29.703  1.00  0.00     0.023 A 
ATOM     84  C   UNL A   1      49.678  25.381  30.868  1.00  0.00     0.031 A 
ATOM     85  C   UNL A   1      51.029  26.586  29.332  1.00  0.00     0.131 A 
ATOM     86  C   UNL A   1      50.896  25.087  31.580  1.00  0.00     0.055 A 
ATOM     87  C   UNL A   1      52.200  26.344  30.054  1.00  0.00     0.041 A 
ATOM     88  F   UNL A   1      51.281  27.289  28.237  1.00  0.00    -0.206 F 
ATOM     89  C   UNL A   1      52.140  25.592  31.195  1.00  0.00     0.022 A 
BRANCH  86  90
ATOM     90  S   UNL A   1      50.913  23.976  33.025  1.00  0.00     0.124 S 
ATOM     91  O   UNL A   1      51.425  22.733  32.457  1.00  0.00    -0.237 OA
ATOM     92  O   UNL A   1      51.806  24.671  33.947  1.00  0.00    -0.237 OA
ATOM     93  O   UNL A   1      49.515  23.931  33.453  1.00  0.00    -0.744 OA
ENDBRANCH  86  90
ENDBRANCH  59  83
BRANCH  71  94
ATOM     94  C   UNL A   1      43.622  25.392  28.196  1.00  0.00     0.023 A 
ATOM     95  C   UNL A   1      43.586  26.651  27.582  1.00  0.00     0.031 A 
ATOM     96  C   UNL A   1      42.387  24.741  28.215  1.00  0.00     0.131 A 
ATOM     97  C   UNL A   1      42.435  27.233  27.055  1.00  0.00     0.055 A 
ATOM     98  C   UNL A   1      41.209  25.380  27.822  1.00  0.00     0.041 A 
ATOM     99  F   UNL A   1      42.235  23.479  28.637  1.00  0.00    -0.206 F 
ATOM    100  C   UNL A   1      41.215  26.644  27.261  1.00  0.00     0.022 A 
BRANCH  97 101
ATOM    101  S   UNL A   1      42.669  28.625  25.928  1.00  0.00     0.124 S 
ATOM    102  O   UNL A   1      42.338  28.036  24.635  1.00  0.00    -0.237 OA
ATOM    103  O   UNL A   1      41.718  29.606  26.445  1.00  0.00    -0.237 OA
ATOM    104  O   UNL A   1      44.067  28.992  26.114  1.00  0.00    -0.744 OA
ENDBRANCH  97 101
ENDBRANCH  71  94
ENDBRANCH  45  46
ENDBRANCH  37  40
ENDBRANCH  35  36
ENDBRANCH  34  35
ENDBRANCH   1  34
TORSDOF 18
ENDMDL
MODEL 3
REMARK VINA RESULT:     -10.0      4.041     12.927
REMARK SMILES Cc1ccccc1-n1c(S[C@@H](C)C(=O)NCCCCNC(=O)c2ccc(-c3c4nc(c(-c5cc(S(=O)(=O)[O-])ccc5F)c5ccc([nH]5)c(-c5cc(S(=O)(=O)[O-])ccc5F)c5nc(c(-c6cc(S(=O)(=O)[O-])ccc6F)c6ccc3[nH]6)C=C5)C=C4)cc2)nc2sc3c(c2c1=O)C[C@@H](C(C)C)OC3
REMARK SMILES IDX 17 1 16 2 15 3 13 4 14 5 11 7 12 8 10 9 9 10 8 11 92 12
REMARK SMILES IDX 86 13 91 14 93 15 87 16 90 17 88 18 89 19 94 20 100 21 95 22
REMARK SMILES IDX 99 23 7 24 1 25 2 26 3 27 4 28 6 29 5 30 96 31 97 32 98 33
REMARK SMILES IDX 18 34 19 35 20 36 21 37 22 39 23 40 24 41 85 42 25 43 84 44
REMARK SMILES IDX 26 45 27 46 28 47 78 48 29 49 83 50 77 51 79 52 30 53 82 54
REMARK SMILES IDX 76 55 75 56 31 58 63 59 43 60 62 61 44 62 47 63 61 64 80 65
REMARK SMILES IDX 45 66 46 67 60 69 81 70 48 71 32 72 33 73 41 74 34 75 40 76
REMARK SMILES IDX 42 77 39 78 35 79 36 80 37 81 38 82 64 83 65 84 73 85 66 86
REMARK SMILES IDX 72 87 74 88 71 89 67 90 68 91 69 92 70 93 49 94 50 95 58 96
REMARK SMILES IDX 51 97 57 98 59 99 56 100 52 101 53 102 54 103 55 104
REMARK H PARENT 15 6 20 38 79 57 47 68
REMARK Flexibility Score: inf
ROOT
ATOM      1  C   UNL A   1      37.804  34.223  33.320  1.00  0.00     0.023 C 
ENDROOT
BRANCH   1   2
ATOM      2  C   UNL A   1      36.885  33.057  33.648  1.00  0.00     0.116 C 
BRANCH   2   3
ATOM      3  N   UNL A   1      35.466  33.098  33.439  1.00  0.00    -0.355 N 
ATOM      4  C   UNL A   1      34.755  32.997  32.270  1.00  0.00     0.233 C 
ATOM      5  O   UNL A   1      33.578  32.645  32.478  1.00  0.00    -0.274 OA
ATOM      6  H   UNL A   1      34.925  33.216  34.253  1.00  0.00     0.163 HD
BRANCH   4   7
ATOM      7  C   UNL A   1      35.124  33.494  30.849  1.00  0.00     0.140 C 
ATOM      8  C   UNL A   1      33.943  34.219  30.140  1.00  0.00     0.030 C 
BRANCH   7   9
ATOM      9  S   UNL A   1      36.011  32.713  29.513  1.00  0.00    -0.074 SA
BRANCH   9  10
ATOM     10  C   UNL A   1      35.171  31.459  28.663  1.00  0.00     0.177 A 
ATOM     11  N   UNL A   1      35.630  30.138  28.519  1.00  0.00    -0.255 N 
ATOM     12  C   UNL A   1      34.954  29.250  27.640  1.00  0.00     0.267 A 
ATOM     13  N   UNL A   1      34.068  31.922  28.156  1.00  0.00    -0.212 NA
ATOM     14  C   UNL A   1      33.795  29.841  26.959  1.00  0.00     0.081 A 
ATOM     15  O   UNL A   1      35.310  28.123  27.392  1.00  0.00    -0.268 OA
ATOM     16  C   UNL A   1      33.409  31.102  27.322  1.00  0.00     0.132 A 
ATOM     17  C   UNL A   1      32.998  29.361  25.868  1.00  0.00    -0.014 A 
ATOM     18  S   UNL A   1      32.010  31.639  26.508  1.00  0.00    -0.117 S 
ATOM     19  C   UNL A   1      31.962  30.230  25.566  1.00  0.00     0.037 A 
ATOM     20  C   UNL A   1      33.124  28.112  25.059  1.00  0.00     0.070 C 
ATOM     21  C   UNL A   1      30.872  29.977  24.572  1.00  0.00     0.207 C 
ATOM     22  C   UNL A   1      31.719  27.676  24.584  1.00  0.00     0.125 C 
ATOM     23  O   UNL A   1      31.117  28.761  23.837  1.00  0.00    -0.372 OA
BRANCH  11  24
ATOM     24  C   UNL A   1      36.877  29.704  29.097  1.00  0.00     0.054 A 
ATOM     25  C   UNL A   1      38.181  30.034  26.944  1.00  0.00     0.046 C 
ATOM     26  C   UNL A   1      37.994  29.421  28.306  1.00  0.00    -0.027 A 
ATOM     27  C   UNL A   1      39.043  28.658  28.858  1.00  0.00     0.005 A 
ATOM     28  C   UNL A   1      38.996  28.192  30.172  1.00  0.00     0.000 A 
ATOM     29  C   UNL A   1      36.948  29.399  30.469  1.00  0.00     0.027 A 
ATOM     30  C   UNL A   1      37.955  28.590  30.992  1.00  0.00     0.002 A 
ENDBRANCH  11  24
BRANCH  22  31
ATOM     31  C   UNL A   1      30.785  27.157  25.712  1.00  0.00     0.012 C 
ATOM     32  C   UNL A   1      29.814  26.105  25.171  1.00  0.00     0.010 C 
ATOM     33  C   UNL A   1      31.567  26.583  26.896  1.00  0.00     0.010 C 
ENDBRANCH  22  31
ENDBRANCH   9  10
ENDBRANCH   7   9
ENDBRANCH   4   7
ENDBRANCH   2   3
ENDBRANCH   1   2
BRANCH   1  34
ATOM     34  C   UNL A   1      38.444  34.451  31.919  1.00  0.00     0.023 C 
BRANCH  34  35
ATOM     35  C   UNL A   1      39.952  34.512  31.534  1.00  0.00     0.116 C 
BRANCH  35  36
ATOM     36  N   UNL A   1      40.537  33.815  30.377  1.00  0.00    -0.352 N 
ATOM     37  C   UNL A   1      41.911  33.856  30.069  1.00  0.00     0.251 C 
ATOM     38  H   UNL A   1      39.940  33.295  29.791  1.00  0.00     0.163 HD
ATOM     39  O   UNL A   1      42.540  34.913  30.080  1.00  0.00    -0.269 OA
BRANCH  37  40
ATOM     40  C   UNL A   1      42.643  32.532  29.771  1.00  0.00     0.039 A 
ATOM     41  C   UNL A   1      41.987  31.291  29.786  1.00  0.00     0.014 A 
ATOM     42  C   UNL A   1      43.924  32.521  29.218  1.00  0.00     0.014 A 
ATOM     43  C   UNL A   1      42.587  30.106  29.221  1.00  0.00     0.010 A 
ATOM     44  C   UNL A   1      44.512  31.336  28.658  1.00  0.00     0.010 A 
ATOM     45  C   UNL A   1      43.863  30.103  28.597  1.00  0.00    -0.014 A 
BRANCH  45  46
ATOM     46  C   UNL A   1      44.144  29.052  27.478  1.00  0.00     0.031 A 
ATOM     47  C   UNL A   1      45.698  29.205  27.291  1.00  0.00     0.074 A 
ATOM     48  C   UNL A   1      43.761  27.754  27.096  1.00  0.00     0.049 A 
ATOM     49  N   UNL A   1      46.543  28.995  28.270  1.00  0.00    -0.248 NA
ATOM     50  C   UNL A   1      46.380  29.828  26.144  1.00  0.00     0.031 C 
ATOM     51  C   UNL A   1      43.672  27.447  25.642  1.00  0.00     0.029 A 
ATOM     52  N   UNL A   1      43.252  26.509  27.627  1.00  0.00    -0.354 N 
ATOM     53  C   UNL A   1      47.833  28.984  27.719  1.00  0.00     0.074 A 
ATOM     54  C   UNL A   1      47.687  29.741  26.488  1.00  0.00     0.031 C 
ATOM     55  C   UNL A   1      43.367  26.149  25.400  1.00  0.00     0.029 A 
ATOM     56  C   UNL A   1      43.265  25.397  26.645  1.00  0.00     0.049 A 
ATOM     57  H   UNL A   1      42.930  26.408  28.553  1.00  0.00     0.167 HD
ATOM     58  C   UNL A   1      48.644  27.891  27.960  1.00  0.00     0.034 A 
ATOM     59  C   UNL A   1      43.460  24.001  26.724  1.00  0.00     0.034 A 
ATOM     60  C   UNL A   1      47.735  26.828  28.219  1.00  0.00     0.049 A 
ATOM     61  C   UNL A   1      43.722  23.483  28.117  1.00  0.00     0.074 A 
ATOM     62  C   UNL A   1      47.034  26.257  27.201  1.00  0.00     0.029 A 
ATOM     63  N   UNL A   1      47.344  26.326  29.440  1.00  0.00    -0.354 N 
ATOM     64  N   UNL A   1      44.941  23.326  28.565  1.00  0.00    -0.248 NA
ATOM     65  C   UNL A   1      42.730  23.163  29.144  1.00  0.00     0.031 C 
ATOM     66  C   UNL A   1      46.080  25.571  27.873  1.00  0.00     0.029 A 
ATOM     67  C   UNL A   1      46.221  25.550  29.242  1.00  0.00     0.049 A 
ATOM     68  H   UNL A   1      47.789  26.493  30.303  1.00  0.00     0.167 HD
ATOM     69  C   UNL A   1      44.817  23.716  29.867  1.00  0.00     0.074 A 
ATOM     70  C   UNL A   1      43.551  23.103  30.207  1.00  0.00     0.031 C 
ATOM     71  C   UNL A   1      45.361  24.929  30.262  1.00  0.00     0.034 A 
BRANCH  58  72
ATOM     72  C   UNL A   1      49.977  27.343  27.464  1.00  0.00     0.023 A 
ATOM     73  C   UNL A   1      50.473  27.824  26.205  1.00  0.00     0.031 A 
ATOM     74  C   UNL A   1      50.638  26.234  27.975  1.00  0.00     0.131 A 
ATOM     75  C   UNL A   1      51.480  27.200  25.473  1.00  0.00     0.055 A 
ATOM     76  C   UNL A   1      51.685  25.614  27.254  1.00  0.00     0.041 A 
ATOM     77  F   UNL A   1      50.251  25.683  29.134  1.00  0.00    -0.206 F 
ATOM     78  C   UNL A   1      52.095  26.079  25.993  1.00  0.00     0.022 A 
BRANCH  75  79
ATOM     79  S   UNL A   1      51.831  27.827  23.799  1.00  0.00     0.124 S 
ATOM     80  O   UNL A   1      52.837  28.850  24.058  1.00  0.00    -0.237 OA
ATOM     81  O   UNL A   1      52.285  26.625  23.107  1.00  0.00    -0.237 OA
ATOM     82  O   UNL A   1      50.534  28.340  23.360  1.00  0.00    -0.744 OA
ENDBRANCH  75  79
ENDBRANCH  58  72
BRANCH  59  83
ATOM     83  C   UNL A   1      44.180  23.045  25.680  1.00  0.00     0.023 A 
ATOM     84  C   UNL A   1      44.008  21.648  25.604  1.00  0.00     0.031 A 
ATOM     85  C   UNL A   1      45.328  23.512  24.953  1.00  0.00     0.131 A 
ATOM     86  C   UNL A   1      44.951  20.835  24.879  1.00  0.00     0.055 A 
ATOM     87  C   UNL A   1      46.269  22.714  24.298  1.00  0.00     0.041 A 
ATOM     88  F   UNL A   1      45.637  24.797  24.849  1.00  0.00    -0.206 F 
ATOM     89  C   UNL A   1      46.088  21.359  24.261  1.00  0.00     0.022 A 
BRANCH  86  90
ATOM     90  S   UNL A   1      44.699  19.042  24.668  1.00  0.00     0.124 S 
ATOM     91  O   UNL A   1      43.617  18.765  25.607  1.00  0.00    -0.237 OA
ATOM     92  O   UNL A   1      44.358  18.936  23.252  1.00  0.00    -0.237 OA
ATOM     93  O   UNL A   1      45.993  18.459  25.024  1.00  0.00    -0.744 OA
ENDBRANCH  86  90
ENDBRANCH  59  83
BRANCH  71  94
ATOM     94  C   UNL A   1      44.724  25.760  31.356  1.00  0.00     0.023 A 
ATOM     95  C   UNL A   1      44.361  25.231  32.602  1.00  0.00     0.031 A 
ATOM     96  C   UNL A   1      44.346  27.092  31.180  1.00  0.00     0.131 A 
ATOM     97  C   UNL A   1      43.665  25.937  33.580  1.00  0.00     0.055 A 
ATOM     98  C   UNL A   1      43.523  27.754  32.095  1.00  0.00     0.041 A 
ATOM     99  F   UNL A   1      44.711  27.819  30.116  1.00  0.00    -0.206 F 
ATOM    100  C   UNL A   1      43.151  27.175  33.295  1.00  0.00     0.022 A 
BRANCH  97 101
ATOM    101  S   UNL A   1      43.688  25.251  35.250  1.00  0.00     0.124 S 
ATOM    102  O   UNL A   1      44.855  24.378  35.211  1.00  0.00    -0.237 OA
ATOM    103  O   UNL A   1      43.814  26.449  36.076  1.00  0.00    -0.237 OA
ATOM    104  O   UNL A   1      42.401  24.578  35.368  1.00  0.00    -0.744 OA
ENDBRANCH  97 101
ENDBRANCH  71  94
ENDBRANCH  45  46
ENDBRANCH  37  40
ENDBRANCH  35  36
ENDBRANCH  34  35
ENDBRANCH   1  34
TORSDOF 18
ENDMDL
