MODEL 1
REMARK VINA RESULT:     -11.2      0.000      0.000
REMARK SMILES CC[C@@H](C)[C@@H](C(=O)NCCCCNC(=O)c1ccc(-c2c3nc(c(-c4cc(S(=O)(=O)[O-])ccc4F)c4ccc([nH]4)c(-c4cc(S(=O)(=O)[O-])ccc4F)c4nc(c(-c5cc(S(=O)(=O)[O-])ccc5F)c5ccc2[nH]5)C=C4)C=C3)cc1)S(=O)(=O)c1ccc(OC)cc1
REMARK SMILES IDX 10 1 9 2 8 3 6 4 7 5 5 7 3 8 4 9 2 10 1 11 79 12 80 13 81 14
REMARK SMILES IDX 82 15 83 16 89 17 84 18 88 19 85 20 86 21 87 22 11 23 12 24
REMARK SMILES IDX 13 25 14 26 15 28 16 29 17 30 78 31 18 32 77 33 19 34 20 35
REMARK SMILES IDX 21 36 71 37 22 38 76 39 70 40 72 41 23 42 75 43 69 44 68 45
REMARK SMILES IDX 24 47 56 48 36 49 55 50 37 51 40 52 54 53 73 54 38 55 39 56
REMARK SMILES IDX 53 58 74 59 41 60 25 61 26 62 34 63 27 64 33 65 35 66 32 67
REMARK SMILES IDX 28 68 29 69 30 70 31 71 57 72 58 73 66 74 59 75 65 76 67 77
REMARK SMILES IDX 64 78 60 79 61 80 62 81 63 82 42 83 43 84 51 85 44 86 50 87
REMARK SMILES IDX 52 88 49 89 45 90 46 91 47 92 48 93
REMARK H PARENT 8 6 13 27 72 46 40 57
REMARK Flexibility Score: inf
ROOT
ATOM      1  C   UNL A   1      31.979  28.581  27.459  1.00  0.00     0.023 C 
ENDROOT
BRANCH   1   2
ATOM      2  C   UNL A   1      32.054  27.286  26.633  1.00  0.00     0.116 C 
BRANCH   2   3
ATOM      3  N   UNL A   1      30.889  26.462  26.899  1.00  0.00    -0.355 N 
ATOM      4  C   UNL A   1      30.414  25.361  26.245  1.00  0.00     0.239 C 
ATOM      5  O   UNL A   1      29.200  25.173  26.338  1.00  0.00    -0.274 OA
ATOM      6  H   UNL A   1      30.356  26.742  27.677  1.00  0.00     0.163 HD
BRANCH   4   7
ATOM      7  C   UNL A   1      31.325  24.431  25.441  1.00  0.00     0.205 C 
BRANCH   7   8
ATOM      8  C   UNL A   1      30.937  24.304  23.929  1.00  0.00     0.014 C 
ATOM      9  C   UNL A   1      31.977  23.544  23.095  1.00  0.00     0.009 C 
BRANCH   8  10
ATOM     10  C   UNL A   1      30.717  25.686  23.286  1.00  0.00     0.002 C 
ATOM     11  C   UNL A   1      31.641  26.052  22.135  1.00  0.00     0.004 C 
ENDBRANCH   8  10
ENDBRANCH   7   8
BRANCH   7  12
ATOM     12  S   UNL A   1      31.346  22.859  26.361  1.00  0.00     0.190 S 
ATOM     13  O   UNL A   1      31.306  23.122  27.789  1.00  0.00    -0.223 OA
ATOM     14  O   UNL A   1      30.300  22.015  25.803  1.00  0.00    -0.223 OA
BRANCH  12  15
ATOM     15  C   UNL A   1      32.910  22.046  26.058  1.00  0.00     0.068 A 
ATOM     16  C   UNL A   1      32.937  20.831  25.369  1.00  0.00     0.024 A 
ATOM     17  C   UNL A   1      34.104  22.635  26.479  1.00  0.00     0.024 A 
ATOM     18  C   UNL A   1      34.167  20.261  25.026  1.00  0.00     0.048 A 
ATOM     19  C   UNL A   1      35.331  22.080  26.100  1.00  0.00     0.048 A 
ATOM     20  C   UNL A   1      35.364  20.904  25.350  1.00  0.00     0.118 A 
BRANCH  20  21
ATOM     21  O   UNL A   1      36.503  20.283  24.915  1.00  0.00    -0.497 OA
ATOM     22  C   UNL A   1      37.656  21.114  24.814  1.00  0.00     0.278 C 
ENDBRANCH  20  21
ENDBRANCH  12  15
ENDBRANCH   7  12
ENDBRANCH   4   7
ENDBRANCH   2   3
ENDBRANCH   1   2
BRANCH   1  23
ATOM     23  C   UNL A   1      31.522  29.813  26.691  1.00  0.00     0.023 C 
BRANCH  23  24
ATOM     24  C   UNL A   1      32.644  30.753  26.294  1.00  0.00     0.116 C 
BRANCH  24  25
ATOM     25  N   UNL A   1      32.452  32.110  26.794  1.00  0.00    -0.352 N 
ATOM     26  C   UNL A   1      33.262  32.858  27.618  1.00  0.00     0.251 C 
ATOM     27  H   UNL A   1      31.625  32.554  26.500  1.00  0.00     0.163 HD
ATOM     28  O   UNL A   1      32.871  33.939  28.049  1.00  0.00    -0.269 OA
BRANCH  26  29
ATOM     29  C   UNL A   1      34.578  32.317  28.009  1.00  0.00     0.039 A 
ATOM     30  C   UNL A   1      35.690  33.163  28.020  1.00  0.00     0.014 A 
ATOM     31  C   UNL A   1      34.686  31.000  28.457  1.00  0.00     0.014 A 
ATOM     32  C   UNL A   1      36.883  32.717  28.592  1.00  0.00     0.010 A 
ATOM     33  C   UNL A   1      35.837  30.597  29.118  1.00  0.00     0.010 A 
ATOM     34  C   UNL A   1      36.945  31.455  29.203  1.00  0.00    -0.014 A 
BRANCH  34  35
ATOM     35  C   UNL A   1      38.145  30.999  29.951  1.00  0.00     0.031 A 
ATOM     36  C   UNL A   1      39.070  29.994  29.323  1.00  0.00     0.074 A 
ATOM     37  C   UNL A   1      38.333  31.395  31.227  1.00  0.00     0.049 A 
ATOM     38  N   UNL A   1      40.065  29.336  29.857  1.00  0.00    -0.248 NA
ATOM     39  C   UNL A   1      38.805  29.649  27.917  1.00  0.00     0.031 C 
ATOM     40  C   UNL A   1      37.471  32.324  31.964  1.00  0.00     0.029 A 
ATOM     41  N   UNL A   1      39.299  31.050  32.139  1.00  0.00    -0.354 N 
ATOM     42  C   UNL A   1      40.523  28.475  28.865  1.00  0.00     0.074 A 
ATOM     43  C   UNL A   1      39.655  28.654  27.720  1.00  0.00     0.031 C 
ATOM     44  C   UNL A   1      37.958  32.487  33.205  1.00  0.00     0.029 A 
ATOM     45  C   UNL A   1      39.133  31.640  33.372  1.00  0.00     0.049 A 
ATOM     46  H   UNL A   1      40.041  30.438  31.931  1.00  0.00     0.167 HD
ATOM     47  C   UNL A   1      41.584  27.633  28.898  1.00  0.00     0.034 A 
ATOM     48  C   UNL A   1      39.836  31.496  34.513  1.00  0.00     0.034 A 
ATOM     49  C   UNL A   1      42.461  27.500  30.033  1.00  0.00     0.049 A 
ATOM     50  C   UNL A   1      41.013  30.555  34.526  1.00  0.00     0.074 A 
ATOM     51  C   UNL A   1      43.618  26.750  30.146  1.00  0.00     0.029 A 
ATOM     52  N   UNL A   1      42.274  28.131  31.257  1.00  0.00    -0.354 N 
ATOM     53  N   UNL A   1      41.468  29.791  33.560  1.00  0.00    -0.248 NA
ATOM     54  C   UNL A   1      41.770  30.458  35.781  1.00  0.00     0.031 C 
ATOM     55  C   UNL A   1      44.100  26.883  31.454  1.00  0.00     0.029 A 
ATOM     56  C   UNL A   1      43.278  27.762  32.139  1.00  0.00     0.049 A 
ATOM     57  H   UNL A   1      41.537  28.748  31.467  1.00  0.00     0.167 HD
ATOM     58  C   UNL A   1      42.579  29.138  34.086  1.00  0.00     0.074 A 
ATOM     59  C   UNL A   1      42.731  29.608  35.448  1.00  0.00     0.031 C 
ATOM     60  C   UNL A   1      43.401  28.234  33.498  1.00  0.00     0.034 A 
BRANCH  47  61
ATOM     61  C   UNL A   1      41.835  26.785  27.675  1.00  0.00     0.023 A 
ATOM     62  C   UNL A   1      41.448  25.434  27.622  1.00  0.00     0.031 A 
ATOM     63  C   UNL A   1      42.506  27.321  26.563  1.00  0.00     0.131 A 
ATOM     64  C   UNL A   1      41.808  24.645  26.522  1.00  0.00     0.055 A 
ATOM     65  C   UNL A   1      42.788  26.550  25.432  1.00  0.00     0.041 A 
ATOM     66  F   UNL A   1      42.918  28.598  26.562  1.00  0.00    -0.206 F 
ATOM     67  C   UNL A   1      42.453  25.198  25.414  1.00  0.00     0.022 A 
BRANCH  64  68
ATOM     68  S   UNL A   1      41.550  22.852  26.623  1.00  0.00     0.124 S 
ATOM     69  O   UNL A   1      42.170  22.397  25.381  1.00  0.00    -0.237 OA
ATOM     70  O   UNL A   1      42.252  22.501  27.853  1.00  0.00    -0.237 OA
ATOM     71  O   UNL A   1      40.097  22.717  26.673  1.00  0.00    -0.744 OA
ENDBRANCH  64  68
ENDBRANCH  47  61
BRANCH  48  72
ATOM     72  C   UNL A   1      39.441  32.237  35.744  1.00  0.00     0.023 A 
ATOM     73  C   UNL A   1      38.643  31.629  36.726  1.00  0.00     0.031 A 
ATOM     74  C   UNL A   1      39.826  33.575  35.941  1.00  0.00     0.131 A 
ATOM     75  C   UNL A   1      38.219  32.372  37.840  1.00  0.00     0.055 A 
ATOM     76  C   UNL A   1      39.439  34.295  37.072  1.00  0.00     0.041 A 
ATOM     77  F   UNL A   1      40.597  34.200  35.036  1.00  0.00    -0.206 F 
ATOM     78  C   UNL A   1      38.619  33.697  38.025  1.00  0.00     0.022 A 
BRANCH  75  79
ATOM     79  S   UNL A   1      37.069  31.598  39.011  1.00  0.00     0.124 S 
ATOM     80  O   UNL A   1      37.837  31.631  40.250  1.00  0.00    -0.237 OA
ATOM     81  O   UNL A   1      35.920  32.495  38.943  1.00  0.00    -0.237 OA
ATOM     82  O   UNL A   1      36.852  30.268  38.446  1.00  0.00    -0.744 OA
ENDBRANCH  75  79
ENDBRANCH  48  72
BRANCH  60  83
ATOM     83  C   UNL A   1      44.553  27.723  34.322  1.00  0.00     0.023 A 
ATOM     84  C   UNL A   1      44.432  26.573  35.119  1.00  0.00     0.031 A 
ATOM     85  C   UNL A   1      45.787  28.395  34.304  1.00  0.00     0.131 A 
ATOM     86  C   UNL A   1      45.518  26.150  35.901  1.00  0.00     0.055 A 
ATOM     87  C   UNL A   1      46.879  27.943  35.045  1.00  0.00     0.041 A 
ATOM     88  F   UNL A   1      45.953  29.500  33.559  1.00  0.00    -0.206 F 
ATOM     89  C   UNL A   1      46.744  26.820  35.857  1.00  0.00     0.022 A 
BRANCH  86  90
ATOM     90  S   UNL A   1      45.288  24.747  37.026  1.00  0.00     0.124 S 
ATOM     91  O   UNL A   1      46.598  24.654  37.665  1.00  0.00    -0.237 OA
ATOM     92  O   UNL A   1      44.195  25.203  37.878  1.00  0.00    -0.237 OA
ATOM     93  O   UNL A   1      44.955  23.641  36.131  1.00  0.00    -0.744 OA
ENDBRANCH  86  90
ENDBRANCH  60  83
ENDBRANCH  34  35
ENDBRANCH  26  29
ENDBRANCH  24  25
ENDBRANCH  23  24
ENDBRANCH   1  23
TORSDOF 19
ENDMDL
MODEL 2
REMARK VINA RESULT:     -11.1      2.215      3.775
REMARK SMILES CC[C@@H](C)[C@@H](C(=O)NCCCCNC(=O)c1ccc(-c2c3nc(c(-c4cc(S(=O)(=O)[O-])ccc4F)c4ccc([nH]4)c(-c4cc(S(=O)(=O)[O-])ccc4F)c4nc(c(-c5cc(S(=O)(=O)[O-])ccc5F)c5ccc2[nH]5)C=C4)C=C3)cc1)S(=O)(=O)c1ccc(OC)cc1
REMARK SMILES IDX 10 1 9 2 8 3 6 4 7 5 5 7 3 8 4 9 2 10 1 11 79 12 80 13 81 14
REMARK SMILES IDX 82 15 83 16 89 17 84 18 88 19 85 20 86 21 87 22 11 23 12 24
REMARK SMILES IDX 13 25 14 26 15 28 16 29 17 30 78 31 18 32 77 33 19 34 20 35
REMARK SMILES IDX 21 36 71 37 22 38 76 39 70 40 72 41 23 42 75 43 69 44 68 45
REMARK SMILES IDX 24 47 56 48 36 49 55 50 37 51 40 52 54 53 73 54 38 55 39 56
REMARK SMILES IDX 53 58 74 59 41 60 25 61 26 62 34 63 27 64 33 65 35 66 32 67
REMARK SMILES IDX 28 68 29 69 30 70 31 71 57 72 58 73 66 74 59 75 65 76 67 77
REMARK SMILES IDX 64 78 60 79 61 80 62 81 63 82 42 83 43 84 51 85 44 86 50 87
REMARK SMILES IDX 52 88 49 89 45 90 46 91 47 92 48 93
REMARK H PARENT 8 6 13 27 72 46 40 57
REMARK Flexibility Score: inf
ROOT
ATOM      1  C   UNL A   1      31.827  27.879  27.216  1.00  0.00     0.023 C 
ENDROOT
BRANCH   1   2
ATOM      2  C   UNL A   1      32.012  26.488  26.588  1.00  0.00     0.116 C 
BRANCH   2   3
ATOM      3  N   UNL A   1      33.412  26.274  26.267  1.00  0.00    -0.355 N 
ATOM      4  C   UNL A   1      33.992  25.505  25.299  1.00  0.00     0.239 C 
ATOM      5  O   UNL A   1      35.127  25.100  25.553  1.00  0.00    -0.274 OA
ATOM      6  H   UNL A   1      34.045  26.763  26.839  1.00  0.00     0.163 HD
BRANCH   4   7
ATOM      7  C   UNL A   1      33.275  25.157  23.992  1.00  0.00     0.205 C 
BRANCH   7   8
ATOM      8  C   UNL A   1      33.833  23.881  23.275  1.00  0.00     0.014 C 
ATOM      9  C   UNL A   1      33.089  23.537  21.978  1.00  0.00     0.009 C 
BRANCH   8  10
ATOM     10  C   UNL A   1      33.788  22.650  24.199  1.00  0.00     0.002 C 
ATOM     11  C   UNL A   1      35.091  21.885  24.372  1.00  0.00     0.004 C 
ENDBRANCH   8  10
ENDBRANCH   7   8
BRANCH   7  12
ATOM     12  S   UNL A   1      33.323  26.679  22.994  1.00  0.00     0.190 S 
ATOM     13  O   UNL A   1      34.124  27.686  23.667  1.00  0.00    -0.223 OA
ATOM     14  O   UNL A   1      33.713  26.302  21.644  1.00  0.00    -0.223 OA
BRANCH  12  15
ATOM     15  C   UNL A   1      31.667  27.352  22.905  1.00  0.00     0.068 A 
ATOM     16  C   UNL A   1      30.582  26.576  23.319  1.00  0.00     0.024 A 
ATOM     17  C   UNL A   1      31.460  28.657  22.456  1.00  0.00     0.024 A 
ATOM     18  C   UNL A   1      29.306  27.146  23.366  1.00  0.00     0.048 A 
ATOM     19  C   UNL A   1      30.189  29.234  22.541  1.00  0.00     0.048 A 
ATOM     20  C   UNL A   1      29.113  28.486  23.022  1.00  0.00     0.118 A 
BRANCH  20  21
ATOM     21  O   UNL A   1      27.834  28.952  23.160  1.00  0.00    -0.497 OA
ATOM     22  C   UNL A   1      27.615  30.290  22.722  1.00  0.00     0.278 C 
ENDBRANCH  20  21
ENDBRANCH  12  15
ENDBRANCH   7  12
ENDBRANCH   4   7
ENDBRANCH   2   3
ENDBRANCH   1   2
BRANCH   1  23
ATOM     23  C   UNL A   1      31.646  29.019  26.224  1.00  0.00     0.023 C 
BRANCH  23  24
ATOM     24  C   UNL A   1      32.838  29.952  26.121  1.00  0.00     0.116 C 
BRANCH  24  25
ATOM     25  N   UNL A   1      32.551  31.297  26.607  1.00  0.00    -0.352 N 
ATOM     26  C   UNL A   1      33.303  32.107  27.426  1.00  0.00     0.251 C 
ATOM     27  H   UNL A   1      31.696  31.680  26.307  1.00  0.00     0.163 HD
ATOM     28  O   UNL A   1      32.837  33.162  27.846  1.00  0.00    -0.269 OA
BRANCH  26  29
ATOM     29  C   UNL A   1      34.653  31.663  27.826  1.00  0.00     0.039 A 
ATOM     30  C   UNL A   1      35.694  32.593  27.874  1.00  0.00     0.014 A 
ATOM     31  C   UNL A   1      34.858  30.348  28.247  1.00  0.00     0.014 A 
ATOM     32  C   UNL A   1      36.910  32.230  28.455  1.00  0.00     0.010 A 
ATOM     33  C   UNL A   1      36.028  30.022  28.918  1.00  0.00     0.010 A 
ATOM     34  C   UNL A   1      37.063  30.962  29.039  1.00  0.00    -0.014 A 
BRANCH  34  35
ATOM     35  C   UNL A   1      38.285  30.586  29.795  1.00  0.00     0.031 A 
ATOM     36  C   UNL A   1      39.233  29.575  29.213  1.00  0.00     0.074 A 
ATOM     37  C   UNL A   1      38.475  31.058  31.045  1.00  0.00     0.049 A 
ATOM     38  N   UNL A   1      40.254  28.978  29.769  1.00  0.00    -0.248 NA
ATOM     39  C   UNL A   1      38.964  29.144  27.832  1.00  0.00     0.031 C 
ATOM     40  C   UNL A   1      37.593  32.000  31.740  1.00  0.00     0.029 A 
ATOM     41  N   UNL A   1      39.461  30.794  31.963  1.00  0.00    -0.354 N 
ATOM     42  C   UNL A   1      40.728  28.077  28.821  1.00  0.00     0.074 A 
ATOM     43  C   UNL A   1      39.842  28.166  27.679  1.00  0.00     0.031 C 
ATOM     44  C   UNL A   1      38.088  32.247  32.964  1.00  0.00     0.029 A 
ATOM     45  C   UNL A   1      39.290  31.446  33.163  1.00  0.00     0.049 A 
ATOM     46  H   UNL A   1      40.219  30.193  31.779  1.00  0.00     0.167 HD
ATOM     47  C   UNL A   1      41.815  27.271  28.887  1.00  0.00     0.034 A 
ATOM     48  C   UNL A   1      40.010  31.387  34.301  1.00  0.00     0.034 A 
ATOM     49  C   UNL A   1      42.708  27.228  30.017  1.00  0.00     0.049 A 
ATOM     50  C   UNL A   1      41.216  30.484  34.351  1.00  0.00     0.074 A 
ATOM     51  C   UNL A   1      43.888  26.521  30.157  1.00  0.00     0.029 A 
ATOM     52  N   UNL A   1      42.515  27.920  31.206  1.00  0.00    -0.354 N 
ATOM     53  N   UNL A   1      41.683  29.682  33.424  1.00  0.00    -0.248 NA
ATOM     54  C   UNL A   1      41.988  30.480  35.600  1.00  0.00     0.031 C 
ATOM     55  C   UNL A   1      44.380  26.741  31.449  1.00  0.00     0.029 A 
ATOM     56  C   UNL A   1      43.539  27.632  32.094  1.00  0.00     0.049 A 
ATOM     57  H   UNL A   1      41.761  28.526  31.391  1.00  0.00     0.167 HD
ATOM     58  C   UNL A   1      42.819  29.093  33.971  1.00  0.00     0.074 A 
ATOM     59  C   UNL A   1      42.972  29.642  35.303  1.00  0.00     0.031 C 
ATOM     60  C   UNL A   1      43.663  28.182  33.423  1.00  0.00     0.034 A 
BRANCH  47  61
ATOM     61  C   UNL A   1      42.078  26.364  27.710  1.00  0.00     0.023 A 
ATOM     62  C   UNL A   1      41.624  25.033  27.688  1.00  0.00     0.031 A 
ATOM     63  C   UNL A   1      42.827  26.821  26.613  1.00  0.00     0.131 A 
ATOM     64  C   UNL A   1      41.994  24.184  26.637  1.00  0.00     0.055 A 
ATOM     65  C   UNL A   1      43.121  25.993  25.527  1.00  0.00     0.041 A 
ATOM     66  F   UNL A   1      43.305  28.076  26.585  1.00  0.00    -0.206 F 
ATOM     67  C   UNL A   1      42.718  24.661  25.543  1.00  0.00     0.022 A 
BRANCH  64  68
ATOM     68  S   UNL A   1      41.638  22.412  26.791  1.00  0.00     0.124 S 
ATOM     69  O   UNL A   1      40.226  22.428  27.163  1.00  0.00    -0.237 OA
ATOM     70  O   UNL A   1      41.940  21.912  25.454  1.00  0.00    -0.237 OA
ATOM     71  O   UNL A   1      42.549  21.970  27.844  1.00  0.00    -0.744 OA
ENDBRANCH  64  68
ENDBRANCH  47  61
BRANCH  48  72
ATOM     72  C   UNL A   1      39.606  32.183  35.494  1.00  0.00     0.023 A 
ATOM     73  C   UNL A   1      38.784  31.627  36.487  1.00  0.00     0.031 A 
ATOM     74  C   UNL A   1      40.006  33.524  35.642  1.00  0.00     0.131 A 
ATOM     75  C   UNL A   1      38.353  32.420  37.563  1.00  0.00     0.055 A 
ATOM     76  C   UNL A   1      39.611  34.295  36.736  1.00  0.00     0.041 A 
ATOM     77  F   UNL A   1      40.799  34.100  34.725  1.00  0.00    -0.206 F 
ATOM     78  C   UNL A   1      38.768  33.746  37.700  1.00  0.00     0.022 A 
BRANCH  75  79
ATOM     79  S   UNL A   1      37.174  31.710  38.746  1.00  0.00     0.124 S 
ATOM     80  O   UNL A   1      36.039  32.617  38.617  1.00  0.00    -0.237 OA
ATOM     81  O   UNL A   1      36.986  30.365  38.213  1.00  0.00    -0.237 OA
ATOM     82  O   UNL A   1      37.888  31.780  40.019  1.00  0.00    -0.744 OA
ENDBRANCH  75  79
ENDBRANCH  48  72
BRANCH  60  83
ATOM     83  C   UNL A   1      44.839  27.753  34.260  1.00  0.00     0.023 A 
ATOM     84  C   UNL A   1      46.062  28.443  34.215  1.00  0.00     0.031 A 
ATOM     85  C   UNL A   1      44.730  26.642  35.113  1.00  0.00     0.131 A 
ATOM     86  C   UNL A   1      47.145  27.989  34.982  1.00  0.00     0.055 A 
ATOM     87  C   UNL A   1      45.796  26.224  35.911  1.00  0.00     0.041 A 
ATOM     88  F   UNL A   1      43.583  25.949  35.191  1.00  0.00    -0.206 F 
ATOM     89  C   UNL A   1      47.015  26.893  35.841  1.00  0.00     0.022 A 
BRANCH  86  90
ATOM     90  S   UNL A   1      48.750  28.813  34.797  1.00  0.00     0.124 S 
ATOM     91  O   UNL A   1      49.628  27.695  34.464  1.00  0.00    -0.237 OA
ATOM     92  O   UNL A   1      48.493  29.764  33.721  1.00  0.00    -0.237 OA
ATOM     93  O   UNL A   1      48.980  29.412  36.110  1.00  0.00    -0.744 OA
ENDBRANCH  86  90
ENDBRANCH  60  83
ENDBRANCH  34  35
ENDBRANCH  26  29
ENDBRANCH  24  25
ENDBRANCH  23  24
ENDBRANCH   1  23
TORSDOF 19
ENDMDL
MODEL 3
REMARK VINA RESULT:     -11.1      5.299     10.571
REMARK SMILES CC[C@@H](C)[C@@H](C(=O)NCCCCNC(=O)c1ccc(-c2c3nc(c(-c4cc(S(=O)(=O)[O-])ccc4F)c4ccc([nH]4)c(-c4cc(S(=O)(=O)[O-])ccc4F)c4nc(c(-c5cc(S(=O)(=O)[O-])ccc5F)c5ccc2[nH]5)C=C4)C=C3)cc1)S(=O)(=O)c1ccc(OC)cc1
REMARK SMILES IDX 10 1 9 2 8 3 6 4 7 5 5 7 3 8 4 9 2 10 1 11 79 12 80 13 81 14
REMARK SMILES IDX 82 15 83 16 89 17 84 18 88 19 85 20 86 21 87 22 11 23 12 24
REMARK SMILES IDX 13 25 14 26 15 28 16 29 17 30 78 31 18 32 77 33 19 34 20 35
REMARK SMILES IDX 21 36 71 37 22 38 76 39 70 40 72 41 23 42 75 43 69 44 68 45
REMARK SMILES IDX 24 47 56 48 36 49 55 50 37 51 40 52 54 53 73 54 38 55 39 56
REMARK SMILES IDX 53 58 74 59 41 60 25 61 26 62 34 63 27 64 33 65 35 66 32 67
REMARK SMILES IDX 28 68 29 69 30 70 31 71 57 72 58 73 66 74 59 75 65 76 67 77
REMARK SMILES IDX 64 78 60 79 61 80 62 81 63 82 42 83 43 84 51 85 44 86 50 87
REMARK SMILES IDX 52 88 49 89 45 90 46 91 47 92 48 93
REMARK H PARENT 8 6 13 27 72 46 40 57
REMARK Flexibility Score: inf
ROOT
ATOM      1  C   UNL A   1      34.952  21.489  24.603  1.00  0.00     0.023 C 
ENDROOT
BRANCH   1   2
ATOM      2  C   UNL A   1      35.409  22.865  24.093  1.00  0.00     0.116 C 
BRANCH   2   3
ATOM      3  N   UNL A   1      34.858  23.111  22.772  1.00  0.00    -0.355 N 
ATOM      4  C   UNL A   1      33.635  23.585  22.395  1.00  0.00     0.239 C 
ATOM      5  O   UNL A   1      33.246  23.225  21.283  1.00  0.00    -0.274 OA
ATOM      6  H   UNL A   1      35.466  22.901  22.027  1.00  0.00     0.163 HD
BRANCH   4   7
ATOM      7  C   UNL A   1      32.797  24.494  23.298  1.00  0.00     0.205 C 
BRANCH   7   8
ATOM      8  C   UNL A   1      31.428  23.872  23.740  1.00  0.00     0.014 C 
ATOM      9  C   UNL A   1      30.685  24.715  24.784  1.00  0.00     0.009 C 
BRANCH   8  10
ATOM     10  C   UNL A   1      31.611  22.452  24.305  1.00  0.00     0.002 C 
ATOM     11  C   UNL A   1      31.038  22.196  25.691  1.00  0.00     0.004 C 
ENDBRANCH   8  10
ENDBRANCH   7   8
BRANCH   7  12
ATOM     12  S   UNL A   1      32.667  26.076  22.408  1.00  0.00     0.190 S 
ATOM     13  O   UNL A   1      33.864  26.297  21.615  1.00  0.00    -0.223 OA
ATOM     14  O   UNL A   1      31.390  26.080  21.711  1.00  0.00    -0.223 OA
BRANCH  12  15
ATOM     15  C   UNL A   1      32.627  27.402  23.608  1.00  0.00     0.068 A 
ATOM     16  C   UNL A   1      33.736  27.625  24.429  1.00  0.00     0.024 A 
ATOM     17  C   UNL A   1      31.509  28.231  23.707  1.00  0.00     0.024 A 
ATOM     18  C   UNL A   1      33.750  28.736  25.278  1.00  0.00     0.048 A 
ATOM     19  C   UNL A   1      31.545  29.361  24.529  1.00  0.00     0.048 A 
ATOM     20  C   UNL A   1      32.678  29.630  25.298  1.00  0.00     0.118 A 
BRANCH  20  21
ATOM     21  O   UNL A   1      32.826  30.711  26.125  1.00  0.00    -0.497 OA
ATOM     22  C   UNL A   1      31.691  31.037  26.921  1.00  0.00     0.278 C 
ENDBRANCH  20  21
ENDBRANCH  12  15
ENDBRANCH   7  12
ENDBRANCH   4   7
ENDBRANCH   2   3
ENDBRANCH   1   2
BRANCH   1  23
ATOM     23  C   UNL A   1      35.986  20.724  25.417  1.00  0.00     0.023 C 
BRANCH  23  24
ATOM     24  C   UNL A   1      37.381  21.316  25.367  1.00  0.00     0.116 C 
BRANCH  24  25
ATOM     25  N   UNL A   1      38.429  20.319  25.561  1.00  0.00    -0.352 N 
ATOM     26  C   UNL A   1      39.682  20.466  26.110  1.00  0.00     0.251 C 
ATOM     27  H   UNL A   1      38.208  19.410  25.253  1.00  0.00     0.163 HD
ATOM     28  O   UNL A   1      40.487  19.540  26.066  1.00  0.00    -0.269 OA
BRANCH  26  29
ATOM     29  C   UNL A   1      40.052  21.764  26.707  1.00  0.00     0.039 A 
ATOM     30  C   UNL A   1      40.955  21.795  27.771  1.00  0.00     0.014 A 
ATOM     31  C   UNL A   1      39.579  22.950  26.144  1.00  0.00     0.014 A 
ATOM     32  C   UNL A   1      41.473  23.021  28.193  1.00  0.00     0.010 A 
ATOM     33  C   UNL A   1      40.173  24.155  26.493  1.00  0.00     0.010 A 
ATOM     34  C   UNL A   1      41.135  24.203  27.514  1.00  0.00    -0.014 A 
BRANCH  34  35
ATOM     35  C   UNL A   1      41.772  25.506  27.834  1.00  0.00     0.031 A 
ATOM     36  C   UNL A   1      40.986  26.552  28.574  1.00  0.00     0.074 A 
ATOM     37  C   UNL A   1      43.003  25.787  27.357  1.00  0.00     0.049 A 
ATOM     38  N   UNL A   1      41.281  27.805  28.800  1.00  0.00    -0.248 NA
ATOM     39  C   UNL A   1      39.669  26.142  29.085  1.00  0.00     0.031 C 
ATOM     40  C   UNL A   1      43.841  24.873  26.576  1.00  0.00     0.029 A 
ATOM     41  N   UNL A   1      43.756  26.932  27.440  1.00  0.00    -0.354 N 
ATOM     42  C   UNL A   1      40.174  28.342  29.448  1.00  0.00     0.074 A 
ATOM     43  C   UNL A   1      39.180  27.292  29.521  1.00  0.00     0.031 C 
ATOM     44  C   UNL A   1      44.996  25.485  26.270  1.00  0.00     0.029 A 
ATOM     45  C   UNL A   1      44.963  26.850  26.784  1.00  0.00     0.049 A 
ATOM     46  H   UNL A   1      43.459  27.737  27.924  1.00  0.00     0.167 HD
ATOM     47  C   UNL A   1      40.011  29.588  29.957  1.00  0.00     0.034 A 
ATOM     48  C   UNL A   1      45.925  27.777  26.601  1.00  0.00     0.034 A 
ATOM     49  C   UNL A   1      41.029  30.607  29.911  1.00  0.00     0.049 A 
ATOM     50  C   UNL A   1      45.723  29.154  27.177  1.00  0.00     0.074 A 
ATOM     51  C   UNL A   1      41.011  31.870  30.474  1.00  0.00     0.029 A 
ATOM     52  N   UNL A   1      42.249  30.479  29.258  1.00  0.00    -0.354 N 
ATOM     53  N   UNL A   1      44.694  29.629  27.839  1.00  0.00    -0.248 NA
ATOM     54  C   UNL A   1      46.813  30.120  26.982  1.00  0.00     0.031 C 
ATOM     55  C   UNL A   1      42.195  32.526  30.116  1.00  0.00     0.029 A 
ATOM     56  C   UNL A   1      42.977  31.652  29.380  1.00  0.00     0.049 A 
ATOM     57  H   UNL A   1      42.551  29.674  28.779  1.00  0.00     0.167 HD
ATOM     58  C   UNL A   1      45.021  30.943  28.157  1.00  0.00     0.074 A 
ATOM     59  C   UNL A   1      46.348  31.181  27.627  1.00  0.00     0.031 C 
ATOM     60  C   UNL A   1      44.294  31.870  28.830  1.00  0.00     0.034 A 
BRANCH  47  61
ATOM     61  C   UNL A   1      38.679  29.910  30.589  1.00  0.00     0.023 A 
ATOM     62  C   UNL A   1      37.683  30.613  29.889  1.00  0.00     0.031 A 
ATOM     63  C   UNL A   1      38.417  29.548  31.921  1.00  0.00     0.131 A 
ATOM     64  C   UNL A   1      36.509  31.004  30.547  1.00  0.00     0.055 A 
ATOM     65  C   UNL A   1      37.209  29.868  32.545  1.00  0.00     0.041 A 
ATOM     66  F   UNL A   1      39.337  28.894  32.646  1.00  0.00    -0.206 F 
ATOM     67  C   UNL A   1      36.253  30.616  31.863  1.00  0.00     0.022 A 
BRANCH  64  68
ATOM     68  S   UNL A   1      35.387  32.153  29.703  1.00  0.00     0.124 S 
ATOM     69  O   UNL A   1      34.860  31.313  28.630  1.00  0.00    -0.237 OA
ATOM     70  O   UNL A   1      34.444  32.507  30.758  1.00  0.00    -0.237 OA
ATOM     71  O   UNL A   1      36.268  33.233  29.265  1.00  0.00    -0.744 OA
ENDBRANCH  64  68
ENDBRANCH  47  61
BRANCH  48  72
ATOM     72  C   UNL A   1      47.153  27.450  25.823  1.00  0.00     0.023 A 
ATOM     73  C   UNL A   1      47.245  27.761  24.457  1.00  0.00     0.031 A 
ATOM     74  C   UNL A   1      48.239  26.789  26.424  1.00  0.00     0.131 A 
ATOM     75  C   UNL A   1      48.380  27.374  23.727  1.00  0.00     0.055 A 
ATOM     76  C   UNL A   1      49.384  26.446  25.704  1.00  0.00     0.041 A 
ATOM     77  F   UNL A   1      48.205  26.477  27.729  1.00  0.00    -0.206 F 
ATOM     78  C   UNL A   1      49.454  26.728  24.342  1.00  0.00     0.022 A 
BRANCH  75  79
ATOM     79  S   UNL A   1      48.399  27.663  21.935  1.00  0.00     0.124 S 
ATOM     80  O   UNL A   1      47.089  28.265  21.716  1.00  0.00    -0.237 OA
ATOM     81  O   UNL A   1      49.547  28.551  21.785  1.00  0.00    -0.237 OA
ATOM     82  O   UNL A   1      48.573  26.324  21.377  1.00  0.00    -0.744 OA
ENDBRANCH  75  79
ENDBRANCH  48  72
BRANCH  60  83
ATOM     83  C   UNL A   1      44.939  33.213  29.051  1.00  0.00     0.023 A 
ATOM     84  C   UNL A   1      44.683  34.300  28.198  1.00  0.00     0.031 A 
ATOM     85  C   UNL A   1      45.817  33.405  30.131  1.00  0.00     0.131 A 
ATOM     86  C   UNL A   1      45.332  35.524  28.417  1.00  0.00     0.055 A 
ATOM     87  C   UNL A   1      46.422  34.638  30.372  1.00  0.00     0.041 A 
ATOM     88  F   UNL A   1      46.095  32.397  30.973  1.00  0.00    -0.206 F 
ATOM     89  C   UNL A   1      46.188  35.703  29.508  1.00  0.00     0.022 A 
BRANCH  86  90
ATOM     90  S   UNL A   1      45.091  36.864  27.220  1.00  0.00     0.124 S 
ATOM     91  O   UNL A   1      46.206  36.653  26.301  1.00  0.00    -0.237 OA
ATOM     92  O   UNL A   1      43.763  36.576  26.688  1.00  0.00    -0.237 OA
ATOM     93  O   UNL A   1      45.181  38.073  28.037  1.00  0.00    -0.744 OA
ENDBRANCH  86  90
ENDBRANCH  60  83
ENDBRANCH  34  35
ENDBRANCH  26  29
ENDBRANCH  24  25
ENDBRANCH  23  24
ENDBRANCH   1  23
TORSDOF 19
ENDMDL
