MODEL 1
REMARK VINA RESULT:     -12.1      0.000      0.000
REMARK SMILES CCn1c(SCC(=O)NCCCCNC(=O)c2ccc(-c3c4nc(c(-c5cc(S(=O)(=O)[O-])ccc5F)c5ccc([nH]5)c(-c5cc(S(=O)(=O)[O-])ccc5F)c5nc(c(-c6cc(S(=O)(=O)[O-])ccc6F)c6ccc3[nH]6)C=C5)C=C4)cc2)nc2ccc(C)cc2c1=O
REMARK SMILES IDX 11 1 10 2 9 3 7 4 8 5 6 7 5 8 4 9 3 10 88 11 80 12 87 13
REMARK SMILES IDX 89 14 81 15 86 16 82 17 84 18 83 19 85 20 2 21 1 22 12 23
REMARK SMILES IDX 13 24 14 25 15 26 16 28 17 29 18 30 79 31 19 32 78 33 20 34
REMARK SMILES IDX 21 35 22 36 72 37 23 38 77 39 71 40 73 41 24 42 76 43 70 44
REMARK SMILES IDX 69 45 25 47 57 48 37 49 56 50 38 51 41 52 55 53 74 54 39 55
REMARK SMILES IDX 40 56 54 58 75 59 42 60 26 61 27 62 35 63 28 64 34 65 36 66
REMARK SMILES IDX 33 67 29 68 30 69 31 70 32 71 58 72 59 73 67 74 60 75 66 76
REMARK SMILES IDX 68 77 65 78 61 79 62 80 63 81 64 82 43 83 44 84 52 85 45 86
REMARK SMILES IDX 51 87 53 88 50 89 46 90 47 91 48 92 49 93
REMARK H PARENT 9 6 14 27 73 46 41 57
REMARK Flexibility Score: inf
ROOT
ATOM      1  C   UNL A   1      35.143  23.002  23.676  1.00  0.00     0.023 C 
ENDROOT
BRANCH   1   2
ATOM      2  C   UNL A   1      34.261  23.224  24.905  1.00  0.00     0.116 C 
BRANCH   2   3
ATOM      3  N   UNL A   1      33.340  22.137  25.175  1.00  0.00    -0.355 N 
ATOM      4  C   UNL A   1      31.984  22.141  25.302  1.00  0.00     0.230 C 
ATOM      5  O   UNL A   1      31.416  21.043  25.304  1.00  0.00    -0.274 OA
ATOM      6  H   UNL A   1      33.762  21.254  25.283  1.00  0.00     0.163 HD
BRANCH   4   7
ATOM      7  C   UNL A   1      31.162  23.418  25.365  1.00  0.00     0.178 C 
BRANCH   7   8
ATOM      8  S   UNL A   1      30.770  24.171  23.808  1.00  0.00    -0.078 SA
BRANCH   8   9
ATOM      9  C   UNL A   1      30.682  25.911  23.751  1.00  0.00     0.171 A 
ATOM     10  N   UNL A   1      31.721  26.831  23.738  1.00  0.00    -0.287 N 
ATOM     11  C   UNL A   1      31.441  28.207  23.687  1.00  0.00     0.262 A 
ATOM     12  N   UNL A   1      29.437  26.266  23.665  1.00  0.00    -0.224 NA
ATOM     13  C   UNL A   1      30.041  28.611  23.525  1.00  0.00     0.066 A 
ATOM     14  O   UNL A   1      32.293  29.092  23.754  1.00  0.00    -0.269 OA
ATOM     15  C   UNL A   1      29.093  27.605  23.509  1.00  0.00     0.079 A 
ATOM     16  C   UNL A   1      29.680  29.952  23.346  1.00  0.00     0.019 A 
ATOM     17  C   UNL A   1      27.756  27.944  23.298  1.00  0.00     0.029 A 
ATOM     18  C   UNL A   1      28.339  30.294  23.141  1.00  0.00    -0.050 A 
ATOM     19  C   UNL A   1      27.379  29.278  23.109  1.00  0.00     0.006 A 
ATOM     20  C   UNL A   1      27.961  31.727  22.912  1.00  0.00     0.044 C 
BRANCH  10  21
ATOM     21  C   UNL A   1      33.148  26.540  23.696  1.00  0.00     0.125 C 
ATOM     22  C   UNL A   1      33.597  26.207  22.279  1.00  0.00     0.028 C 
ENDBRANCH  10  21
ENDBRANCH   8   9
ENDBRANCH   7   8
ENDBRANCH   4   7
ENDBRANCH   2   3
ENDBRANCH   1   2
BRANCH   1  23
ATOM     23  C   UNL A   1      36.455  22.256  23.911  1.00  0.00     0.023 C 
BRANCH  23  24
ATOM     24  C   UNL A   1      36.789  21.928  25.359  1.00  0.00     0.116 C 
BRANCH  24  25
ATOM     25  N   UNL A   1      37.855  20.951  25.510  1.00  0.00    -0.352 N 
ATOM     26  C   UNL A   1      39.122  21.108  26.024  1.00  0.00     0.251 C 
ATOM     27  H   UNL A   1      37.638  20.042  25.198  1.00  0.00     0.163 HD
ATOM     28  O   UNL A   1      39.903  20.159  26.007  1.00  0.00    -0.269 OA
BRANCH  26  29
ATOM     29  C   UNL A   1      39.557  22.425  26.540  1.00  0.00     0.039 A 
ATOM     30  C   UNL A   1      38.959  23.606  26.102  1.00  0.00     0.014 A 
ATOM     31  C   UNL A   1      40.622  22.477  27.447  1.00  0.00     0.014 A 
ATOM     32  C   UNL A   1      39.542  24.831  26.412  1.00  0.00     0.010 A 
ATOM     33  C   UNL A   1      41.150  23.714  27.829  1.00  0.00     0.010 A 
ATOM     34  C   UNL A   1      40.655  24.900  27.266  1.00  0.00    -0.014 A 
BRANCH  34  35
ATOM     35  C   UNL A   1      41.294  26.217  27.536  1.00  0.00     0.031 A 
ATOM     36  C   UNL A   1      40.612  27.237  28.413  1.00  0.00     0.074 A 
ATOM     37  C   UNL A   1      42.525  26.466  27.046  1.00  0.00     0.049 A 
ATOM     38  N   UNL A   1      41.039  28.416  28.786  1.00  0.00    -0.248 NA
ATOM     39  C   UNL A   1      39.281  26.892  28.941  1.00  0.00     0.031 C 
ATOM     40  C   UNL A   1      43.292  25.543  26.207  1.00  0.00     0.029 A 
ATOM     41  N   UNL A   1      43.364  27.540  27.208  1.00  0.00    -0.354 N 
ATOM     42  C   UNL A   1      40.032  28.957  29.579  1.00  0.00     0.074 A 
ATOM     43  C   UNL A   1      38.954  27.993  29.606  1.00  0.00     0.031 C 
ATOM     44  C   UNL A   1      44.509  26.058  25.985  1.00  0.00     0.029 A 
ATOM     45  C   UNL A   1      44.591  27.380  26.602  1.00  0.00     0.049 A 
ATOM     46  H   UNL A   1      43.113  28.350  27.710  1.00  0.00     0.167 HD
ATOM     47  C   UNL A   1      40.016  30.140  30.238  1.00  0.00     0.034 A 
ATOM     48  C   UNL A   1      45.659  28.202  26.545  1.00  0.00     0.034 A 
ATOM     49  C   UNL A   1      41.107  31.080  30.228  1.00  0.00     0.049 A 
ATOM     50  C   UNL A   1      45.589  29.534  27.247  1.00  0.00     0.074 A 
ATOM     51  C   UNL A   1      41.185  32.303  30.874  1.00  0.00     0.029 A 
ATOM     52  N   UNL A   1      42.308  30.906  29.558  1.00  0.00    -0.354 N 
ATOM     53  N   UNL A   1      44.637  30.016  28.010  1.00  0.00    -0.248 NA
ATOM     54  C   UNL A   1      46.734  30.439  27.078  1.00  0.00     0.031 C 
ATOM     55  C   UNL A   1      42.409  32.889  30.554  1.00  0.00     0.029 A 
ATOM     56  C   UNL A   1      43.125  32.007  29.761  1.00  0.00     0.049 A 
ATOM     57  H   UNL A   1      42.546  30.117  29.020  1.00  0.00     0.167 HD
ATOM     58  C   UNL A   1      45.081  31.265  28.434  1.00  0.00     0.074 A 
ATOM     59  C   UNL A   1      46.397  31.454  27.862  1.00  0.00     0.031 C 
ATOM     60  C   UNL A   1      44.450  32.175  29.217  1.00  0.00     0.034 A 
BRANCH  47  61
ATOM     61  C   UNL A   1      38.804  30.504  31.060  1.00  0.00     0.023 A 
ATOM     62  C   UNL A   1      37.703  31.134  30.449  1.00  0.00     0.031 A 
ATOM     63  C   UNL A   1      38.812  30.385  32.460  1.00  0.00     0.131 A 
ATOM     64  C   UNL A   1      36.678  31.666  31.242  1.00  0.00     0.055 A 
ATOM     65  C   UNL A   1      37.769  30.881  33.244  1.00  0.00     0.041 A 
ATOM     66  F   UNL A   1      39.840  29.790  33.088  1.00  0.00    -0.206 F 
ATOM     67  C   UNL A   1      36.703  31.539  32.635  1.00  0.00     0.022 A 
BRANCH  64  68
ATOM     68  S   UNL A   1      35.309  32.599  30.504  1.00  0.00     0.124 S 
ATOM     69  O   UNL A   1      34.313  32.570  31.574  1.00  0.00    -0.237 OA
ATOM     70  O   UNL A   1      35.925  33.900  30.259  1.00  0.00    -0.237 OA
ATOM     71  O   UNL A   1      34.961  31.829  29.315  1.00  0.00    -0.744 OA
ENDBRANCH  64  68
ENDBRANCH  47  61
BRANCH  48  72
ATOM     72  C   UNL A   1      46.896  27.760  25.835  1.00  0.00     0.023 A 
ATOM     73  C   UNL A   1      47.110  28.063  24.479  1.00  0.00     0.031 A 
ATOM     74  C   UNL A   1      47.849  26.960  26.488  1.00  0.00     0.131 A 
ATOM     75  C   UNL A   1      48.212  27.522  23.806  1.00  0.00     0.055 A 
ATOM     76  C   UNL A   1      48.985  26.482  25.834  1.00  0.00     0.041 A 
ATOM     77  F   UNL A   1      47.685  26.632  27.780  1.00  0.00    -0.206 F 
ATOM     78  C   UNL A   1      49.162  26.748  24.480  1.00  0.00     0.022 A 
BRANCH  75  79
ATOM     79  S   UNL A   1      48.375  27.689  22.007  1.00  0.00     0.124 S 
ATOM     80  O   UNL A   1      49.533  28.567  21.887  1.00  0.00    -0.237 OA
ATOM     81  O   UNL A   1      48.587  26.303  21.592  1.00  0.00    -0.237 OA
ATOM     82  O   UNL A   1      47.097  28.264  21.600  1.00  0.00    -0.744 OA
ENDBRANCH  75  79
ENDBRANCH  48  72
BRANCH  60  83
ATOM     83  C   UNL A   1      45.157  33.468  29.540  1.00  0.00     0.023 A 
ATOM     84  C   UNL A   1      45.093  34.547  28.637  1.00  0.00     0.031 A 
ATOM     85  C   UNL A   1      46.013  33.576  30.648  1.00  0.00     0.131 A 
ATOM     86  C   UNL A   1      45.905  35.672  28.836  1.00  0.00     0.055 A 
ATOM     87  C   UNL A   1      46.784  34.718  30.868  1.00  0.00     0.041 A 
ATOM     88  F   UNL A   1      46.116  32.570  31.530  1.00  0.00    -0.206 F 
ATOM     89  C   UNL A   1      46.744  35.765  29.952  1.00  0.00     0.022 A 
BRANCH  86  90
ATOM     90  S   UNL A   1      45.971  37.008  27.612  1.00  0.00     0.124 S 
ATOM     91  O   UNL A   1      47.228  37.669  27.956  1.00  0.00    -0.237 OA
ATOM     92  O   UNL A   1      45.980  36.270  26.351  1.00  0.00    -0.237 OA
ATOM     93  O   UNL A   1      44.766  37.787  27.875  1.00  0.00    -0.744 OA
ENDBRANCH  86  90
ENDBRANCH  60  83
ENDBRANCH  34  35
ENDBRANCH  26  29
ENDBRANCH  24  25
ENDBRANCH  23  24
ENDBRANCH   1  23
TORSDOF 17
ENDMDL
MODEL 2
REMARK VINA RESULT:     -12.0      0.662      7.492
REMARK SMILES CCn1c(SCC(=O)NCCCCNC(=O)c2ccc(-c3c4nc(c(-c5cc(S(=O)(=O)[O-])ccc5F)c5ccc([nH]5)c(-c5cc(S(=O)(=O)[O-])ccc5F)c5nc(c(-c6cc(S(=O)(=O)[O-])ccc6F)c6ccc3[nH]6)C=C5)C=C4)cc2)nc2ccc(C)cc2c1=O
REMARK SMILES IDX 11 1 10 2 9 3 7 4 8 5 6 7 5 8 4 9 3 10 88 11 80 12 87 13
REMARK SMILES IDX 89 14 81 15 86 16 82 17 84 18 83 19 85 20 2 21 1 22 12 23
REMARK SMILES IDX 13 24 14 25 15 26 16 28 17 29 18 30 79 31 19 32 78 33 20 34
REMARK SMILES IDX 21 35 22 36 72 37 23 38 77 39 71 40 73 41 24 42 76 43 70 44
REMARK SMILES IDX 69 45 25 47 57 48 37 49 56 50 38 51 41 52 55 53 74 54 39 55
REMARK SMILES IDX 40 56 54 58 75 59 42 60 26 61 27 62 35 63 28 64 34 65 36 66
REMARK SMILES IDX 33 67 29 68 30 69 31 70 32 71 58 72 59 73 67 74 60 75 66 76
REMARK SMILES IDX 68 77 65 78 61 79 62 80 63 81 64 82 43 83 44 84 52 85 45 86
REMARK SMILES IDX 51 87 53 88 50 89 46 90 47 91 48 92 49 93
REMARK H PARENT 9 6 14 27 73 46 41 57
REMARK Flexibility Score: inf
ROOT
ATOM      1  C   UNL A   1      35.786  23.097  23.568  1.00  0.00     0.023 C 
ENDROOT
BRANCH   1   2
ATOM      2  C   UNL A   1      34.591  22.976  24.515  1.00  0.00     0.116 C 
BRANCH   2   3
ATOM      3  N   UNL A   1      33.721  21.851  24.226  1.00  0.00    -0.355 N 
ATOM      4  C   UNL A   1      32.552  21.797  23.532  1.00  0.00     0.230 C 
ATOM      5  O   UNL A   1      32.126  20.675  23.236  1.00  0.00    -0.274 OA
ATOM      6  H   UNL A   1      34.026  20.989  24.591  1.00  0.00     0.163 HD
BRANCH   4   7
ATOM      7  C   UNL A   1      31.811  23.036  23.057  1.00  0.00     0.178 C 
BRANCH   7   8
ATOM      8  S   UNL A   1      30.968  23.968  24.309  1.00  0.00    -0.078 SA
BRANCH   8   9
ATOM      9  C   UNL A   1      30.794  25.684  24.060  1.00  0.00     0.171 A 
ATOM     10  N   UNL A   1      31.786  26.643  23.911  1.00  0.00    -0.287 N 
ATOM     11  C   UNL A   1      31.439  27.990  23.715  1.00  0.00     0.262 A 
ATOM     12  N   UNL A   1      29.531  25.971  23.975  1.00  0.00    -0.224 NA
ATOM     13  C   UNL A   1      30.017  28.309  23.553  1.00  0.00     0.066 A 
ATOM     14  O   UNL A   1      32.248  28.915  23.655  1.00  0.00    -0.269 OA
ATOM     15  C   UNL A   1      29.118  27.266  23.680  1.00  0.00     0.079 A 
ATOM     16  C   UNL A   1      29.586  29.604  23.236  1.00  0.00     0.019 A 
ATOM     17  C   UNL A   1      27.761  27.518  23.475  1.00  0.00     0.029 A 
ATOM     18  C   UNL A   1      28.225  29.859  23.037  1.00  0.00    -0.050 A 
ATOM     19  C   UNL A   1      27.315  28.803  23.150  1.00  0.00     0.006 A 
ATOM     20  C   UNL A   1      27.772  31.238  22.661  1.00  0.00     0.044 C 
BRANCH  10  21
ATOM     21  C   UNL A   1      33.224  26.414  23.856  1.00  0.00     0.125 C 
ATOM     22  C   UNL A   1      33.668  26.056  22.444  1.00  0.00     0.028 C 
ENDBRANCH  10  21
ENDBRANCH   8   9
ENDBRANCH   7   8
ENDBRANCH   4   7
ENDBRANCH   2   3
ENDBRANCH   1   2
BRANCH   1  23
ATOM     23  C   UNL A   1      36.988  22.208  23.880  1.00  0.00     0.023 C 
BRANCH  23  24
ATOM     24  C   UNL A   1      37.198  21.855  25.345  1.00  0.00     0.116 C 
BRANCH  24  25
ATOM     25  N   UNL A   1      38.228  20.852  25.567  1.00  0.00    -0.352 N 
ATOM     26  C   UNL A   1      39.453  20.974  26.183  1.00  0.00     0.251 C 
ATOM     27  H   UNL A   1      38.017  19.953  25.225  1.00  0.00     0.163 HD
ATOM     28  O   UNL A   1      40.211  20.008  26.214  1.00  0.00    -0.269 OA
BRANCH  26  29
ATOM     29  C   UNL A   1      39.872  22.275  26.750  1.00  0.00     0.039 A 
ATOM     30  C   UNL A   1      39.321  23.473  26.297  1.00  0.00     0.014 A 
ATOM     31  C   UNL A   1      40.877  22.293  27.724  1.00  0.00     0.014 A 
ATOM     32  C   UNL A   1      39.902  24.682  26.667  1.00  0.00     0.010 A 
ATOM     33  C   UNL A   1      41.399  23.514  28.163  1.00  0.00     0.010 A 
ATOM     34  C   UNL A   1      40.958  24.718  27.593  1.00  0.00    -0.014 A 
BRANCH  34  35
ATOM     35  C   UNL A   1      41.598  26.020  27.927  1.00  0.00     0.031 A 
ATOM     36  C   UNL A   1      42.983  26.346  27.428  1.00  0.00     0.074 A 
ATOM     37  C   UNL A   1      40.898  26.939  28.622  1.00  0.00     0.049 A 
ATOM     38  N   UNL A   1      43.676  27.444  27.588  1.00  0.00    -0.248 NA
ATOM     39  C   UNL A   1      43.682  25.311  26.647  1.00  0.00     0.031 C 
ATOM     40  C   UNL A   1      39.541  26.744  29.135  1.00  0.00     0.029 A 
ATOM     41  N   UNL A   1      41.208  28.226  28.987  1.00  0.00    -0.354 N 
ATOM     42  C   UNL A   1      44.890  27.230  26.943  1.00  0.00     0.074 A 
ATOM     43  C   UNL A   1      44.856  25.884  26.418  1.00  0.00     0.031 C 
ATOM     44  C   UNL A   1      39.109  27.887  29.685  1.00  0.00     0.029 A 
ATOM     45  C   UNL A   1      40.181  28.878  29.634  1.00  0.00     0.049 A 
ATOM     46  H   UNL A   1      42.081  28.643  28.806  1.00  0.00     0.167 HD
ATOM     47  C   UNL A   1      45.929  28.085  26.788  1.00  0.00     0.034 A 
ATOM     48  C   UNL A   1      40.109  30.131  30.132  1.00  0.00     0.034 A 
ATOM     49  C   UNL A   1      45.941  29.435  27.291  1.00  0.00     0.049 A 
ATOM     50  C   UNL A   1      41.302  31.040  29.987  1.00  0.00     0.074 A 
ATOM     51  C   UNL A   1      46.947  30.380  27.175  1.00  0.00     0.029 A 
ATOM     52  N   UNL A   1      44.905  30.040  27.986  1.00  0.00    -0.354 N 
ATOM     53  N   UNL A   1      42.431  30.826  29.354  1.00  0.00    -0.248 NA
ATOM     54  C   UNL A   1      41.217  32.359  30.629  1.00  0.00     0.031 C 
ATOM     55  C   UNL A   1      46.542  31.535  27.843  1.00  0.00     0.029 A 
ATOM     56  C   UNL A   1      45.257  31.338  28.322  1.00  0.00     0.049 A 
ATOM     57  H   UNL A   1      44.047  29.612  28.208  1.00  0.00     0.167 HD
ATOM     58  C   UNL A   1      43.176  31.992  29.496  1.00  0.00     0.074 A 
ATOM     59  C   UNL A   1      42.361  32.917  30.255  1.00  0.00     0.031 C 
ATOM     60  C   UNL A   1      44.427  32.266  29.048  1.00  0.00     0.034 A 
BRANCH  47  61
ATOM     61  C   UNL A   1      47.147  27.628  26.024  1.00  0.00     0.023 A 
ATOM     62  C   UNL A   1      47.273  27.929  24.654  1.00  0.00     0.031 A 
ATOM     63  C   UNL A   1      48.086  26.758  26.604  1.00  0.00     0.131 A 
ATOM     64  C   UNL A   1      48.286  27.325  23.899  1.00  0.00     0.055 A 
ATOM     65  C   UNL A   1      49.118  26.189  25.856  1.00  0.00     0.041 A 
ATOM     66  F   UNL A   1      48.008  26.442  27.908  1.00  0.00    -0.206 F 
ATOM     67  C   UNL A   1      49.211  26.460  24.494  1.00  0.00     0.022 A 
BRANCH  64  68
ATOM     68  S   UNL A   1      48.402  27.583  22.108  1.00  0.00     0.124 S 
ATOM     69  O   UNL A   1      47.098  28.173  21.804  1.00  0.00    -0.237 OA
ATOM     70  O   UNL A   1      49.538  28.494  22.004  1.00  0.00    -0.237 OA
ATOM     71  O   UNL A   1      48.613  26.242  21.573  1.00  0.00    -0.744 OA
ENDBRANCH  64  68
ENDBRANCH  47  61
BRANCH  48  72
ATOM     72  C   UNL A   1      38.842  30.602  30.766  1.00  0.00     0.023 A 
ATOM     73  C   UNL A   1      37.894  31.347  30.043  1.00  0.00     0.031 A 
ATOM     74  C   UNL A   1      38.598  30.375  32.131  1.00  0.00     0.131 A 
ATOM     75  C   UNL A   1      36.781  31.889  30.699  1.00  0.00     0.055 A 
ATOM     76  C   UNL A   1      37.451  30.855  32.766  1.00  0.00     0.041 A 
ATOM     77  F   UNL A   1      39.478  29.680  32.870  1.00  0.00    -0.206 F 
ATOM     78  C   UNL A   1      36.544  31.632  32.052  1.00  0.00     0.022 A 
BRANCH  75  79
ATOM     79  S   UNL A   1      35.682  33.057  29.851  1.00  0.00     0.124 S 
ATOM     80  O   UNL A   1      35.525  34.107  30.851  1.00  0.00    -0.237 OA
ATOM     81  O   UNL A   1      36.472  33.417  28.675  1.00  0.00    -0.237 OA
ATOM     82  O   UNL A   1      34.489  32.263  29.571  1.00  0.00    -0.744 OA
ENDBRANCH  75  79
ENDBRANCH  48  72
BRANCH  60  83
ATOM     83  C   UNL A   1      45.018  33.625  29.333  1.00  0.00     0.023 A 
ATOM     84  C   UNL A   1      44.796  34.689  28.437  1.00  0.00     0.031 A 
ATOM     85  C   UNL A   1      45.918  33.823  30.393  1.00  0.00     0.131 A 
ATOM     86  C   UNL A   1      45.501  35.890  28.593  1.00  0.00     0.055 A 
ATOM     87  C   UNL A   1      46.582  35.037  30.572  1.00  0.00     0.041 A 
ATOM     88  F   UNL A   1      46.170  32.835  31.266  1.00  0.00    -0.206 F 
ATOM     89  C   UNL A   1      46.387  36.071  29.660  1.00  0.00     0.022 A 
BRANCH  86  90
ATOM     90  S   UNL A   1      45.365  37.221  27.369  1.00  0.00     0.124 S 
ATOM     91  O   UNL A   1      46.355  36.818  26.374  1.00  0.00    -0.237 OA
ATOM     92  O   UNL A   1      43.972  37.107  26.944  1.00  0.00    -0.237 OA
ATOM     93  O   UNL A   1      45.695  38.427  28.122  1.00  0.00    -0.744 OA
ENDBRANCH  86  90
ENDBRANCH  60  83
ENDBRANCH  34  35
ENDBRANCH  26  29
ENDBRANCH  24  25
ENDBRANCH  23  24
ENDBRANCH   1  23
TORSDOF 17
ENDMDL
MODEL 3
REMARK VINA RESULT:     -12.0      1.753      7.705
REMARK SMILES CCn1c(SCC(=O)NCCCCNC(=O)c2ccc(-c3c4nc(c(-c5cc(S(=O)(=O)[O-])ccc5F)c5ccc([nH]5)c(-c5cc(S(=O)(=O)[O-])ccc5F)c5nc(c(-c6cc(S(=O)(=O)[O-])ccc6F)c6ccc3[nH]6)C=C5)C=C4)cc2)nc2ccc(C)cc2c1=O
REMARK SMILES IDX 11 1 10 2 9 3 7 4 8 5 6 7 5 8 4 9 3 10 88 11 80 12 87 13
REMARK SMILES IDX 89 14 81 15 86 16 82 17 84 18 83 19 85 20 2 21 1 22 12 23
REMARK SMILES IDX 13 24 14 25 15 26 16 28 17 29 18 30 79 31 19 32 78 33 20 34
REMARK SMILES IDX 21 35 22 36 72 37 23 38 77 39 71 40 73 41 24 42 76 43 70 44
REMARK SMILES IDX 69 45 25 47 57 48 37 49 56 50 38 51 41 52 55 53 74 54 39 55
REMARK SMILES IDX 40 56 54 58 75 59 42 60 26 61 27 62 35 63 28 64 34 65 36 66
REMARK SMILES IDX 33 67 29 68 30 69 31 70 32 71 58 72 59 73 67 74 60 75 66 76
REMARK SMILES IDX 68 77 65 78 61 79 62 80 63 81 64 82 43 83 44 84 52 85 45 86
REMARK SMILES IDX 51 87 53 88 50 89 46 90 47 91 48 92 49 93
REMARK H PARENT 9 6 14 27 73 46 41 57
REMARK Flexibility Score: inf
ROOT
ATOM      1  C   UNL A   1      34.631  20.249  24.917  1.00  0.00     0.023 C 
ENDROOT
BRANCH   1   2
ATOM      2  C   UNL A   1      33.174  20.503  25.308  1.00  0.00     0.116 C 
BRANCH   2   3
ATOM      3  N   UNL A   1      33.015  21.219  26.559  1.00  0.00    -0.355 N 
ATOM      4  C   UNL A   1      32.624  22.501  26.797  1.00  0.00     0.230 C 
ATOM      5  O   UNL A   1      32.349  22.796  27.966  1.00  0.00    -0.274 OA
ATOM      6  H   UNL A   1      33.223  20.693  27.365  1.00  0.00     0.163 HD
BRANCH   4   7
ATOM      7  C   UNL A   1      32.447  23.532  25.695  1.00  0.00     0.178 C 
BRANCH   7   8
ATOM      8  S   UNL A   1      30.881  24.364  25.650  1.00  0.00    -0.078 SA
BRANCH   8   9
ATOM      9  C   UNL A   1      30.804  25.896  24.823  1.00  0.00     0.171 A 
ATOM     10  N   UNL A   1      31.848  26.694  24.377  1.00  0.00    -0.287 N 
ATOM     11  C   UNL A   1      31.578  27.908  23.723  1.00  0.00     0.262 A 
ATOM     12  N   UNL A   1      29.560  26.200  24.615  1.00  0.00    -0.224 NA
ATOM     13  C   UNL A   1      30.176  28.223  23.428  1.00  0.00     0.066 A 
ATOM     14  O   UNL A   1      32.437  28.713  23.368  1.00  0.00    -0.269 OA
ATOM     15  C   UNL A   1      29.220  27.334  23.884  1.00  0.00     0.079 A 
ATOM     16  C   UNL A   1      29.820  29.350  22.676  1.00  0.00     0.019 A 
ATOM     17  C   UNL A   1      27.881  27.568  23.574  1.00  0.00     0.029 A 
ATOM     18  C   UNL A   1      28.476  29.590  22.370  1.00  0.00    -0.050 A 
ATOM     19  C   UNL A   1      27.508  28.684  22.817  1.00  0.00     0.006 A 
ATOM     20  C   UNL A   1      28.102  30.776  21.533  1.00  0.00     0.044 C 
BRANCH  10  21
ATOM     21  C   UNL A   1      33.272  26.388  24.438  1.00  0.00     0.125 C 
ATOM     22  C   UNL A   1      33.874  26.847  25.759  1.00  0.00     0.028 C 
ENDBRANCH  10  21
ENDBRANCH   8   9
ENDBRANCH   7   8
ENDBRANCH   4   7
ENDBRANCH   2   3
ENDBRANCH   1   2
BRANCH   1  23
ATOM     23  C   UNL A   1      35.678  21.117  25.611  1.00  0.00     0.023 C 
BRANCH  23  24
ATOM     24  C   UNL A   1      36.987  21.315  24.862  1.00  0.00     0.116 C 
BRANCH  24  25
ATOM     25  N   UNL A   1      37.966  20.266  25.101  1.00  0.00    -0.352 N 
ATOM     26  C   UNL A   1      39.161  20.321  25.784  1.00  0.00     0.251 C 
ATOM     27  H   UNL A   1      37.741  19.387  24.718  1.00  0.00     0.163 HD
ATOM     28  O   UNL A   1      39.881  19.326  25.821  1.00  0.00    -0.269 OA
BRANCH  26  29
ATOM     29  C   UNL A   1      39.597  21.586  26.417  1.00  0.00     0.039 A 
ATOM     30  C   UNL A   1      39.005  22.803  26.083  1.00  0.00     0.014 A 
ATOM     31  C   UNL A   1      40.658  21.552  27.329  1.00  0.00     0.014 A 
ATOM     32  C   UNL A   1      39.592  23.993  26.503  1.00  0.00     0.010 A 
ATOM     33  C   UNL A   1      41.189  22.748  27.822  1.00  0.00     0.010 A 
ATOM     34  C   UNL A   1      40.701  23.981  27.365  1.00  0.00    -0.014 A 
BRANCH  34  35
ATOM     35  C   UNL A   1      41.343  25.267  27.754  1.00  0.00     0.031 A 
ATOM     36  C   UNL A   1      42.750  25.587  27.313  1.00  0.00     0.074 A 
ATOM     37  C   UNL A   1      40.629  26.179  28.444  1.00  0.00     0.049 A 
ATOM     38  N   UNL A   1      43.449  26.672  27.524  1.00  0.00    -0.248 NA
ATOM     39  C   UNL A   1      43.464  24.561  26.535  1.00  0.00     0.031 C 
ATOM     40  C   UNL A   1      39.252  25.989  28.902  1.00  0.00     0.029 A 
ATOM     41  N   UNL A   1      40.940  27.453  28.850  1.00  0.00    -0.354 N 
ATOM     42  C   UNL A   1      44.683  26.458  26.919  1.00  0.00     0.074 A 
ATOM     43  C   UNL A   1      44.652  25.124  26.361  1.00  0.00     0.031 C 
ATOM     44  C   UNL A   1      38.814  27.124  29.463  1.00  0.00     0.029 A 
ATOM     45  C   UNL A   1      39.898  28.103  29.474  1.00  0.00     0.049 A 
ATOM     46  H   UNL A   1      41.824  27.863  28.711  1.00  0.00     0.167 HD
ATOM     47  C   UNL A   1      45.737  27.303  26.822  1.00  0.00     0.034 A 
ATOM     48  C   UNL A   1      39.822  29.344  29.998  1.00  0.00     0.034 A 
ATOM     49  C   UNL A   1      45.747  28.641  27.357  1.00  0.00     0.049 A 
ATOM     50  C   UNL A   1      41.031  30.242  29.919  1.00  0.00     0.074 A 
ATOM     51  C   UNL A   1      46.767  29.575  27.300  1.00  0.00     0.029 A 
ATOM     52  N   UNL A   1      44.693  29.242  28.028  1.00  0.00    -0.354 N 
ATOM     53  N   UNL A   1      42.180  30.028  29.322  1.00  0.00    -0.248 NA
ATOM     54  C   UNL A   1      40.938  31.546  30.588  1.00  0.00     0.031 C 
ATOM     55  C   UNL A   1      46.352  30.719  27.980  1.00  0.00     0.029 A 
ATOM     56  C   UNL A   1      45.048  30.528  28.406  1.00  0.00     0.049 A 
ATOM     57  H   UNL A   1      43.822  28.820  28.209  1.00  0.00     0.167 HD
ATOM     58  C   UNL A   1      42.933  31.181  29.519  1.00  0.00     0.074 A 
ATOM     59  C   UNL A   1      42.101  32.098  30.269  1.00  0.00     0.031 C 
ATOM     60  C   UNL A   1      44.202  31.450  29.123  1.00  0.00     0.034 A 
BRANCH  47  61
ATOM     61  C   UNL A   1      46.977  26.848  26.093  1.00  0.00     0.023 A 
ATOM     62  C   UNL A   1      48.024  26.229  26.803  1.00  0.00     0.031 A 
ATOM     63  C   UNL A   1      47.190  27.177  24.744  1.00  0.00     0.131 A 
ATOM     64  C   UNL A   1      49.255  26.006  26.172  1.00  0.00     0.055 A 
ATOM     65  C   UNL A   1      48.405  26.917  24.108  1.00  0.00     0.041 A 
ATOM     66  F   UNL A   1      46.220  27.768  24.025  1.00  0.00    -0.206 F 
ATOM     67  C   UNL A   1      49.449  26.343  24.828  1.00  0.00     0.022 A 
BRANCH  64  68
ATOM     68  S   UNL A   1      50.668  25.333  27.087  1.00  0.00     0.124 S 
ATOM     69  O   UNL A   1      50.033  24.304  27.910  1.00  0.00    -0.237 OA
ATOM     70  O   UNL A   1      51.519  24.834  26.011  1.00  0.00    -0.237 OA
ATOM     71  O   UNL A   1      51.186  26.481  27.825  1.00  0.00    -0.744 OA
ENDBRANCH  64  68
ENDBRANCH  47  61
BRANCH  48  72
ATOM     72  C   UNL A   1      38.539  29.817  30.597  1.00  0.00     0.023 A 
ATOM     73  C   UNL A   1      37.593  30.527  29.835  1.00  0.00     0.031 A 
ATOM     74  C   UNL A   1      38.274  29.628  31.964  1.00  0.00     0.131 A 
ATOM     75  C   UNL A   1      36.462  31.072  30.456  1.00  0.00     0.055 A 
ATOM     76  C   UNL A   1      37.110  30.111  32.565  1.00  0.00     0.041 A 
ATOM     77  F   UNL A   1      39.150  28.967  32.737  1.00  0.00    -0.206 F 
ATOM     78  C   UNL A   1      36.205  30.853  31.813  1.00  0.00     0.022 A 
BRANCH  75  79
ATOM     79  S   UNL A   1      35.362  32.199  29.555  1.00  0.00     0.124 S 
ATOM     80  O   UNL A   1      34.866  31.346  28.482  1.00  0.00    -0.237 OA
ATOM     81  O   UNL A   1      34.386  32.556  30.582  1.00  0.00    -0.237 OA
ATOM     82  O   UNL A   1      36.247  33.285  29.144  1.00  0.00    -0.744 OA
ENDBRANCH  75  79
ENDBRANCH  48  72
BRANCH  60  83
ATOM     83  C   UNL A   1      44.798  32.794  29.462  1.00  0.00     0.023 A 
ATOM     84  C   UNL A   1      44.724  33.849  28.532  1.00  0.00     0.031 A 
ATOM     85  C   UNL A   1      45.568  32.981  30.622  1.00  0.00     0.131 A 
ATOM     86  C   UNL A   1      45.443  35.030  28.758  1.00  0.00     0.055 A 
ATOM     87  C   UNL A   1      46.245  34.177  30.866  1.00  0.00     0.041 A 
ATOM     88  F   UNL A   1      45.678  32.001  31.532  1.00  0.00    -0.206 F 
ATOM     89  C   UNL A   1      46.197  35.202  29.924  1.00  0.00     0.022 A 
BRANCH  86  90
ATOM     90  S   UNL A   1      45.503  36.344  27.510  1.00  0.00     0.124 S 
ATOM     91  O   UNL A   1      44.143  36.315  26.978  1.00  0.00    -0.237 OA
ATOM     92  O   UNL A   1      45.831  37.518  28.316  1.00  0.00    -0.237 OA
ATOM     93  O   UNL A   1      46.543  35.907  26.586  1.00  0.00    -0.744 OA
ENDBRANCH  86  90
ENDBRANCH  60  83
ENDBRANCH  34  35
ENDBRANCH  26  29
ENDBRANCH  24  25
ENDBRANCH  23  24
ENDBRANCH   1  23
TORSDOF 17
ENDMDL
