MODEL 1
REMARK VINA RESULT:     -11.6      0.000      0.000
REMARK SMILES CCC(CC)(NC(=O)Nc1cc(Cl)cc(Cl)c1)C(=O)NCCCCNC(=O)c1ccc(-c2c3nc(c(-c4cc(S(=O)(=O)[O-])ccc4F)c4ccc([nH]4)c(-c4cc(S(=O)(=O)[O-])ccc4F)c4nc(c(-c5cc(S(=O)(=O)[O-])ccc5F)c5ccc2[nH]5)C=C4)C=C3)cc1
REMARK SMILES IDX 23 1 22 2 21 3 20 4 18 5 19 6 3 8 2 9 1 10 4 11 5 12 6 13
REMARK SMILES IDX 7 14 8 16 9 17 10 19 11 20 17 21 12 22 15 23 13 24 14 25
REMARK SMILES IDX 16 26 24 27 25 28 26 29 27 31 28 32 29 33 90 34 30 35 89 36
REMARK SMILES IDX 31 37 32 38 33 39 83 40 34 41 88 42 82 43 84 44 35 45 87 46
REMARK SMILES IDX 81 47 80 48 36 50 68 51 48 52 67 53 49 54 52 55 66 56 85 57
REMARK SMILES IDX 50 58 51 59 65 61 86 62 53 63 37 64 38 65 46 66 39 67 45 68
REMARK SMILES IDX 47 69 44 70 40 71 41 72 42 73 43 74 69 75 70 76 78 77 71 78
REMARK SMILES IDX 77 79 79 80 76 81 72 82 73 83 74 84 75 85 54 86 55 87 63 88
REMARK SMILES IDX 56 89 62 90 64 91 61 92 57 93 58 94 59 95 60 96
REMARK H PARENT 20 7 6 15 9 18 25 30 84 49 52 60
REMARK Flexibility Score: inf
ROOT
ATOM      1  C   UNL A   1      31.390  31.682  26.301  1.00  0.00     0.023 C 
ENDROOT
BRANCH   1   2
ATOM      2  C   UNL A   1      31.614  30.390  25.502  1.00  0.00     0.023 C 
BRANCH   2   3
ATOM      3  C   UNL A   1      32.649  29.409  26.081  1.00  0.00     0.116 C 
BRANCH   3   4
ATOM      4  N   UNL A   1      33.633  29.041  25.075  1.00  0.00    -0.354 N 
ATOM      5  C   UNL A   1      33.412  28.563  23.786  1.00  0.00     0.245 C 
ATOM      6  O   UNL A   1      33.571  29.267  22.795  1.00  0.00    -0.272 OA
ATOM      7  H   UNL A   1      34.576  29.144  25.338  1.00  0.00     0.163 HD
BRANCH   5   8
ATOM      8  C   UNL A   1      32.838  27.120  23.729  1.00  0.00     0.120 C 
BRANCH   8   9
ATOM      9  C   UNL A   1      31.460  26.762  24.321  1.00  0.00     0.035 C 
ATOM     10  C   UNL A   1      30.227  27.392  23.713  1.00  0.00     0.007 C 
ENDBRANCH   8   9
BRANCH   8  11
ATOM     11  C   UNL A   1      33.993  26.396  24.527  1.00  0.00     0.035 C 
ATOM     12  C   UNL A   1      33.731  25.739  25.866  1.00  0.00     0.007 C 
ENDBRANCH   8  11
BRANCH   8  13
ATOM     13  N   UNL A   1      32.763  26.784  22.285  1.00  0.00    -0.323 N 
ATOM     14  C   UNL A   1      32.850  25.638  21.585  1.00  0.00     0.320 C 
ATOM     15  H   UNL A   1      32.617  27.573  21.715  1.00  0.00     0.166 HD
ATOM     16  O   UNL A   1      32.929  25.773  20.358  1.00  0.00    -0.248 OA
ATOM     17  N   UNL A   1      32.906  24.372  22.046  1.00  0.00    -0.308 N 
ATOM     18  H   UNL A   1      33.107  23.777  21.287  1.00  0.00     0.171 HD
BRANCH  17  19
ATOM     19  C   UNL A   1      32.784  23.573  23.213  1.00  0.00     0.045 A 
ATOM     20  C   UNL A   1      31.664  23.403  24.030  1.00  0.00     0.046 A 
ATOM     21  C   UNL A   1      33.860  22.712  23.468  1.00  0.00     0.046 A 
ATOM     22  C   UNL A   1      31.688  22.580  25.167  1.00  0.00     0.044 A 
ATOM     23  C   UNL A   1      33.874  21.861  24.584  1.00  0.00     0.044 A 
ATOM     24  Cl  UNL A   1      30.296  22.477  26.179  1.00  0.00    -0.084 Cl
ATOM     25  C   UNL A   1      32.804  21.821  25.465  1.00  0.00     0.041 A 
ATOM     26  Cl  UNL A   1      35.235  20.848  24.862  1.00  0.00    -0.084 Cl
ENDBRANCH  17  19
ENDBRANCH   8  13
ENDBRANCH   5   8
ENDBRANCH   3   4
ENDBRANCH   2   3
ENDBRANCH   1   2
BRANCH   1  27
ATOM     27  C   UNL A   1      32.579  32.118  27.147  1.00  0.00     0.116 C 
BRANCH  27  28
ATOM     28  N   UNL A   1      32.512  33.535  27.450  1.00  0.00    -0.352 N 
ATOM     29  C   UNL A   1      33.173  34.266  28.400  1.00  0.00     0.251 C 
ATOM     30  H   UNL A   1      31.895  34.051  26.883  1.00  0.00     0.163 HD
ATOM     31  O   UNL A   1      32.773  35.397  28.661  1.00  0.00    -0.269 OA
BRANCH  29  32
ATOM     32  C   UNL A   1      34.341  33.704  29.113  1.00  0.00     0.039 A 
ATOM     33  C   UNL A   1      34.115  32.765  30.124  1.00  0.00     0.014 A 
ATOM     34  C   UNL A   1      35.645  34.130  28.841  1.00  0.00     0.014 A 
ATOM     35  C   UNL A   1      35.192  32.226  30.831  1.00  0.00     0.010 A 
ATOM     36  C   UNL A   1      36.724  33.538  29.496  1.00  0.00     0.010 A 
ATOM     37  C   UNL A   1      36.509  32.588  30.506  1.00  0.00    -0.014 A 
BRANCH  37  38
ATOM     38  C   UNL A   1      37.666  31.992  31.225  1.00  0.00     0.031 A 
ATOM     39  C   UNL A   1      38.451  30.872  30.598  1.00  0.00     0.074 A 
ATOM     40  C   UNL A   1      37.981  32.431  32.458  1.00  0.00     0.049 A 
ATOM     41  N   UNL A   1      39.446  30.179  31.093  1.00  0.00    -0.248 NA
ATOM     42  C   UNL A   1      38.049  30.461  29.244  1.00  0.00     0.031 C 
ATOM     43  C   UNL A   1      37.277  33.492  33.183  1.00  0.00     0.029 A 
ATOM     44  N   UNL A   1      38.967  32.036  33.328  1.00  0.00    -0.354 N 
ATOM     45  C   UNL A   1      39.782  29.246  30.116  1.00  0.00     0.074 A 
ATOM     46  C   UNL A   1      38.844  29.425  29.028  1.00  0.00     0.031 C 
ATOM     47  C   UNL A   1      37.865  33.675  34.375  1.00  0.00     0.029 A 
ATOM     48  C   UNL A   1      38.955  32.715  34.524  1.00  0.00     0.049 A 
ATOM     49  H   UNL A   1      39.624  31.333  33.114  1.00  0.00     0.167 HD
ATOM     50  C   UNL A   1      40.793  28.341  30.119  1.00  0.00     0.034 A 
ATOM     51  C   UNL A   1      39.720  32.569  35.625  1.00  0.00     0.034 A 
ATOM     52  C   UNL A   1      41.721  28.177  31.213  1.00  0.00     0.049 A 
ATOM     53  C   UNL A   1      40.813  31.530  35.620  1.00  0.00     0.074 A 
ATOM     54  C   UNL A   1      42.805  27.319  31.303  1.00  0.00     0.029 A 
ATOM     55  N   UNL A   1      41.674  28.880  32.412  1.00  0.00    -0.354 N 
ATOM     56  N   UNL A   1      41.144  30.683  34.673  1.00  0.00    -0.248 NA
ATOM     57  C   UNL A   1      41.643  31.438  36.828  1.00  0.00     0.031 C 
ATOM     58  C   UNL A   1      43.367  27.452  32.578  1.00  0.00     0.029 A 
ATOM     59  C   UNL A   1      42.688  28.452  33.256  1.00  0.00     0.049 A 
ATOM     60  H   UNL A   1      41.015  29.579  32.629  1.00  0.00     0.167 HD
ATOM     61  C   UNL A   1      42.240  29.979  35.162  1.00  0.00     0.074 A 
ATOM     62  C   UNL A   1      42.523  30.512  36.478  1.00  0.00     0.031 C 
ATOM     63  C   UNL A   1      42.953  28.984  34.573  1.00  0.00     0.034 A 
BRANCH  50  64
ATOM     64  C   UNL A   1      40.924  27.442  28.912  1.00  0.00     0.023 A 
ATOM     65  C   UNL A   1      41.890  27.679  27.916  1.00  0.00     0.031 A 
ATOM     66  C   UNL A   1      40.059  26.347  28.738  1.00  0.00     0.131 A 
ATOM     67  C   UNL A   1      41.917  26.883  26.762  1.00  0.00     0.055 A 
ATOM     68  C   UNL A   1      40.146  25.507  27.625  1.00  0.00     0.041 A 
ATOM     69  F   UNL A   1      39.103  26.080  29.643  1.00  0.00    -0.206 F 
ATOM     70  C   UNL A   1      41.069  25.783  26.620  1.00  0.00     0.022 A 
BRANCH  67  71
ATOM     71  S   UNL A   1      42.977  27.396  25.382  1.00  0.00     0.124 S 
ATOM     72  O   UNL A   1      44.185  27.826  26.082  1.00  0.00    -0.237 OA
ATOM     73  O   UNL A   1      43.093  26.172  24.600  1.00  0.00    -0.237 OA
ATOM     74  O   UNL A   1      42.218  28.473  24.748  1.00  0.00    -0.744 OA
ENDBRANCH  67  71
ENDBRANCH  50  64
BRANCH  51  75
ATOM     75  C   UNL A   1      39.470  33.408  36.832  1.00  0.00     0.023 A 
ATOM     76  C   UNL A   1      40.211  34.576  37.070  1.00  0.00     0.031 A 
ATOM     77  C   UNL A   1      38.512  33.029  37.789  1.00  0.00     0.131 A 
ATOM     78  C   UNL A   1      40.017  35.298  38.258  1.00  0.00     0.055 A 
ATOM     79  C   UNL A   1      38.283  33.782  38.943  1.00  0.00     0.041 A 
ATOM     80  F   UNL A   1      37.772  31.923  37.610  1.00  0.00    -0.206 F 
ATOM     81  C   UNL A   1      39.048  34.916  39.189  1.00  0.00     0.022 A 
BRANCH  78  82
ATOM     82  S   UNL A   1      41.115  36.697  38.614  1.00  0.00     0.124 S 
ATOM     83  O   UNL A   1      40.159  37.758  38.906  1.00  0.00    -0.237 OA
ATOM     84  O   UNL A   1      41.886  36.195  39.748  1.00  0.00    -0.237 OA
ATOM     85  O   UNL A   1      41.870  36.861  37.373  1.00  0.00    -0.744 OA
ENDBRANCH  78  82
ENDBRANCH  51  75
BRANCH  63  86
ATOM     86  C   UNL A   1      44.138  28.443  35.338  1.00  0.00     0.023 A 
ATOM     87  C   UNL A   1      44.004  27.406  36.279  1.00  0.00     0.031 A 
ATOM     88  C   UNL A   1      45.419  28.984  35.129  1.00  0.00     0.131 A 
ATOM     89  C   UNL A   1      45.121  26.983  37.016  1.00  0.00     0.055 A 
ATOM     90  C   UNL A   1      46.538  28.516  35.820  1.00  0.00     0.041 A 
ATOM     91  F   UNL A   1      45.605  29.978  34.245  1.00  0.00    -0.206 F 
ATOM     92  C   UNL A   1      46.389  27.519  36.780  1.00  0.00     0.022 A 
BRANCH  89  93
ATOM     93  S   UNL A   1      44.877  25.787  38.358  1.00  0.00     0.124 S 
ATOM     94  O   UNL A   1      46.250  25.440  38.709  1.00  0.00    -0.237 OA
ATOM     95  O   UNL A   1      44.145  26.572  39.346  1.00  0.00    -0.237 OA
ATOM     96  O   UNL A   1      44.108  24.716  37.728  1.00  0.00    -0.744 OA
ENDBRANCH  89  93
ENDBRANCH  63  86
ENDBRANCH  37  38
ENDBRANCH  29  32
ENDBRANCH  27  28
ENDBRANCH   1  27
TORSDOF 18
ENDMDL
MODEL 2
REMARK VINA RESULT:     -11.6      1.344      1.707
REMARK SMILES CCC(CC)(NC(=O)Nc1cc(Cl)cc(Cl)c1)C(=O)NCCCCNC(=O)c1ccc(-c2c3nc(c(-c4cc(S(=O)(=O)[O-])ccc4F)c4ccc([nH]4)c(-c4cc(S(=O)(=O)[O-])ccc4F)c4nc(c(-c5cc(S(=O)(=O)[O-])ccc5F)c5ccc2[nH]5)C=C4)C=C3)cc1
REMARK SMILES IDX 23 1 22 2 21 3 20 4 18 5 19 6 3 8 2 9 1 10 4 11 5 12 6 13
REMARK SMILES IDX 7 14 8 16 9 17 10 19 11 20 17 21 12 22 15 23 13 24 14 25
REMARK SMILES IDX 16 26 24 27 25 28 26 29 27 31 28 32 29 33 90 34 30 35 89 36
REMARK SMILES IDX 31 37 32 38 33 39 83 40 34 41 88 42 82 43 84 44 35 45 87 46
REMARK SMILES IDX 81 47 80 48 36 50 68 51 48 52 67 53 49 54 52 55 66 56 85 57
REMARK SMILES IDX 50 58 51 59 65 61 86 62 53 63 37 64 38 65 46 66 39 67 45 68
REMARK SMILES IDX 47 69 44 70 40 71 41 72 42 73 43 74 69 75 70 76 78 77 71 78
REMARK SMILES IDX 77 79 79 80 76 81 72 82 73 83 74 84 75 85 54 86 55 87 63 88
REMARK SMILES IDX 56 89 62 90 64 91 61 92 57 93 58 94 59 95 60 96
REMARK H PARENT 20 7 6 15 9 18 25 30 84 49 52 60
REMARK Flexibility Score: inf
ROOT
ATOM      1  C   UNL A   1      31.353  31.944  26.496  1.00  0.00     0.023 C 
ENDROOT
BRANCH   1   2
ATOM      2  C   UNL A   1      31.469  30.658  25.665  1.00  0.00     0.023 C 
BRANCH   2   3
ATOM      3  C   UNL A   1      32.480  29.615  26.174  1.00  0.00     0.116 C 
BRANCH   3   4
ATOM      4  N   UNL A   1      33.372  29.195  25.105  1.00  0.00    -0.354 N 
ATOM      5  C   UNL A   1      33.038  28.690  23.851  1.00  0.00     0.245 C 
ATOM      6  O   UNL A   1      33.137  29.364  22.832  1.00  0.00    -0.272 OA
ATOM      7  H   UNL A   1      34.335  29.278  25.291  1.00  0.00     0.163 HD
BRANCH   5   8
ATOM      8  C   UNL A   1      32.424  27.263  23.878  1.00  0.00     0.120 C 
BRANCH   8   9
ATOM      9  C   UNL A   1      31.173  26.925  24.713  1.00  0.00     0.035 C 
ATOM     10  C   UNL A   1      29.817  27.333  24.181  1.00  0.00     0.007 C 
ENDBRANCH   8   9
BRANCH   8  11
ATOM     11  C   UNL A   1      33.688  26.494  24.432  1.00  0.00     0.035 C 
ATOM     12  C   UNL A   1      33.659  25.801  25.778  1.00  0.00     0.007 C 
ENDBRANCH   8  11
BRANCH   8  13
ATOM     13  N   UNL A   1      32.069  26.960  22.469  1.00  0.00    -0.323 N 
ATOM     14  C   UNL A   1      31.951  25.825  21.757  1.00  0.00     0.320 C 
ATOM     15  H   UNL A   1      31.879  27.768  21.940  1.00  0.00     0.166 HD
ATOM     16  O   UNL A   1      31.819  25.978  20.536  1.00  0.00    -0.248 OA
ATOM     17  N   UNL A   1      31.999  24.549  22.192  1.00  0.00    -0.308 N 
ATOM     18  H   UNL A   1      32.021  23.957  21.405  1.00  0.00     0.171 HD
BRANCH  17  19
ATOM     19  C   UNL A   1      32.032  23.738  23.357  1.00  0.00     0.045 A 
ATOM     20  C   UNL A   1      31.044  23.586  24.331  1.00  0.00     0.046 A 
ATOM     21  C   UNL A   1      33.111  22.845  23.438  1.00  0.00     0.046 A 
ATOM     22  C   UNL A   1      31.217  22.748  25.444  1.00  0.00     0.044 A 
ATOM     23  C   UNL A   1      33.268  21.980  24.531  1.00  0.00     0.044 A 
ATOM     24  Cl  UNL A   1      29.991  22.668  26.653  1.00  0.00    -0.084 Cl
ATOM     25  C   UNL A   1      32.342  21.955  25.563  1.00  0.00     0.041 A 
ATOM     26  Cl  UNL A   1      34.627  20.927  24.590  1.00  0.00    -0.084 Cl
ENDBRANCH  17  19
ENDBRANCH   8  13
ENDBRANCH   5   8
ENDBRANCH   3   4
ENDBRANCH   2   3
ENDBRANCH   1   2
BRANCH   1  27
ATOM     27  C   UNL A   1      32.635  32.358  27.207  1.00  0.00     0.116 C 
BRANCH  27  28
ATOM     28  N   UNL A   1      32.609  33.767  27.549  1.00  0.00    -0.352 N 
ATOM     29  C   UNL A   1      33.280  34.449  28.529  1.00  0.00     0.251 C 
ATOM     30  H   UNL A   1      32.017  34.320  26.989  1.00  0.00     0.163 HD
ATOM     31  O   UNL A   1      32.913  35.584  28.817  1.00  0.00    -0.269 OA
BRANCH  29  32
ATOM     32  C   UNL A   1      34.419  33.828  29.241  1.00  0.00     0.039 A 
ATOM     33  C   UNL A   1      35.713  34.249  28.921  1.00  0.00     0.014 A 
ATOM     34  C   UNL A   1      34.233  32.801  30.172  1.00  0.00     0.014 A 
ATOM     35  C   UNL A   1      36.813  33.672  29.561  1.00  0.00     0.010 A 
ATOM     36  C   UNL A   1      35.325  32.278  30.862  1.00  0.00     0.010 A 
ATOM     37  C   UNL A   1      36.628  32.699  30.556  1.00  0.00    -0.014 A 
BRANCH  37  38
ATOM     38  C   UNL A   1      37.789  32.107  31.271  1.00  0.00     0.031 A 
ATOM     39  C   UNL A   1      38.584  30.997  30.635  1.00  0.00     0.074 A 
ATOM     40  C   UNL A   1      38.101  32.538  32.508  1.00  0.00     0.049 A 
ATOM     41  N   UNL A   1      39.583  30.308  31.125  1.00  0.00    -0.248 NA
ATOM     42  C   UNL A   1      38.185  30.595  29.278  1.00  0.00     0.031 C 
ATOM     43  C   UNL A   1      37.388  33.587  33.241  1.00  0.00     0.029 A 
ATOM     44  N   UNL A   1      39.090  32.144  33.375  1.00  0.00    -0.354 N 
ATOM     45  C   UNL A   1      39.927  29.386  30.141  1.00  0.00     0.074 A 
ATOM     46  C   UNL A   1      38.988  29.567  29.054  1.00  0.00     0.031 C 
ATOM     47  C   UNL A   1      37.974  33.765  34.435  1.00  0.00     0.029 A 
ATOM     48  C   UNL A   1      39.072  32.813  34.576  1.00  0.00     0.049 A 
ATOM     49  H   UNL A   1      39.752  31.448  33.155  1.00  0.00     0.167 HD
ATOM     50  C   UNL A   1      40.946  28.489  30.137  1.00  0.00     0.034 A 
ATOM     51  C   UNL A   1      39.837  32.664  35.676  1.00  0.00     0.034 A 
ATOM     52  C   UNL A   1      41.875  28.324  31.229  1.00  0.00     0.049 A 
ATOM     53  C   UNL A   1      40.939  31.634  35.663  1.00  0.00     0.074 A 
ATOM     54  C   UNL A   1      42.966  27.475  31.313  1.00  0.00     0.029 A 
ATOM     55  N   UNL A   1      41.822  29.016  32.433  1.00  0.00    -0.354 N 
ATOM     56  N   UNL A   1      41.277  30.797  34.709  1.00  0.00    -0.248 NA
ATOM     57  C   UNL A   1      41.769  31.538  36.870  1.00  0.00     0.031 C 
ATOM     58  C   UNL A   1      43.526  27.601  32.589  1.00  0.00     0.029 A 
ATOM     59  C   UNL A   1      42.839  28.590  33.275  1.00  0.00     0.049 A 
ATOM     60  H   UNL A   1      41.158  29.708  32.656  1.00  0.00     0.167 HD
ATOM     61  C   UNL A   1      42.379  30.098  35.193  1.00  0.00     0.074 A 
ATOM     62  C   UNL A   1      42.657  30.622  36.513  1.00  0.00     0.031 C 
ATOM     63  C   UNL A   1      43.099  29.113  34.596  1.00  0.00     0.034 A 
BRANCH  50  64
ATOM     64  C   UNL A   1      41.084  27.602  28.921  1.00  0.00     0.023 A 
ATOM     65  C   UNL A   1      42.081  27.825  27.954  1.00  0.00     0.031 A 
ATOM     66  C   UNL A   1      40.196  26.532  28.713  1.00  0.00     0.131 A 
ATOM     67  C   UNL A   1      42.117  27.042  26.791  1.00  0.00     0.055 A 
ATOM     68  C   UNL A   1      40.290  25.703  27.592  1.00  0.00     0.041 A 
ATOM     69  F   UNL A   1      39.211  26.280  29.590  1.00  0.00    -0.206 F 
ATOM     70  C   UNL A   1      41.245  25.966  26.614  1.00  0.00     0.022 A 
BRANCH  67  71
ATOM     71  S   UNL A   1      43.225  27.543  25.445  1.00  0.00     0.124 S 
ATOM     72  O   UNL A   1      42.305  28.239  24.549  1.00  0.00    -0.237 OA
ATOM     73  O   UNL A   1      44.201  28.377  26.133  1.00  0.00    -0.237 OA
ATOM     74  O   UNL A   1      43.739  26.273  24.932  1.00  0.00    -0.744 OA
ENDBRANCH  67  71
ENDBRANCH  50  64
BRANCH  51  75
ATOM     75  C   UNL A   1      39.581  33.491  36.890  1.00  0.00     0.023 A 
ATOM     76  C   UNL A   1      38.903  32.960  37.999  1.00  0.00     0.031 A 
ATOM     77  C   UNL A   1      39.974  34.840  36.942  1.00  0.00     0.131 A 
ATOM     78  C   UNL A   1      38.596  33.786  39.092  1.00  0.00     0.055 A 
ATOM     79  C   UNL A   1      39.717  35.642  38.055  1.00  0.00     0.041 A 
ATOM     80  F   UNL A   1      40.629  35.397  35.911  1.00  0.00    -0.206 F 
ATOM     81  C   UNL A   1      39.011  35.119  39.133  1.00  0.00     0.022 A 
BRANCH  78  82
ATOM     82  S   UNL A   1      37.565  33.115  40.425  1.00  0.00     0.124 S 
ATOM     83  O   UNL A   1      37.525  34.233  41.360  1.00  0.00    -0.237 OA
ATOM     84  O   UNL A   1      36.320  32.820  39.724  1.00  0.00    -0.237 OA
ATOM     85  O   UNL A   1      38.315  31.946  40.880  1.00  0.00    -0.744 OA
ENDBRANCH  78  82
ENDBRANCH  51  75
BRANCH  63  86
ATOM     86  C   UNL A   1      44.288  28.576  35.357  1.00  0.00     0.023 A 
ATOM     87  C   UNL A   1      44.160  27.542  36.302  1.00  0.00     0.031 A 
ATOM     88  C   UNL A   1      45.568  29.117  35.140  1.00  0.00     0.131 A 
ATOM     89  C   UNL A   1      45.281  27.122  37.034  1.00  0.00     0.055 A 
ATOM     90  C   UNL A   1      46.690  28.651  35.826  1.00  0.00     0.041 A 
ATOM     91  F   UNL A   1      45.749  30.108  34.251  1.00  0.00    -0.206 F 
ATOM     92  C   UNL A   1      46.548  27.658  36.790  1.00  0.00     0.022 A 
BRANCH  89  93
ATOM     93  S   UNL A   1      45.044  25.930  38.382  1.00  0.00     0.124 S 
ATOM     94  O   UNL A   1      44.701  24.713  37.655  1.00  0.00    -0.237 OA
ATOM     95  O   UNL A   1      46.349  25.936  39.036  1.00  0.00    -0.237 OA
ATOM     96  O   UNL A   1      43.957  26.512  39.167  1.00  0.00    -0.744 OA
ENDBRANCH  89  93
ENDBRANCH  63  86
ENDBRANCH  37  38
ENDBRANCH  29  32
ENDBRANCH  27  28
ENDBRANCH   1  27
TORSDOF 18
ENDMDL
MODEL 3
REMARK VINA RESULT:     -11.3      2.727      3.590
REMARK SMILES CCC(CC)(NC(=O)Nc1cc(Cl)cc(Cl)c1)C(=O)NCCCCNC(=O)c1ccc(-c2c3nc(c(-c4cc(S(=O)(=O)[O-])ccc4F)c4ccc([nH]4)c(-c4cc(S(=O)(=O)[O-])ccc4F)c4nc(c(-c5cc(S(=O)(=O)[O-])ccc5F)c5ccc2[nH]5)C=C4)C=C3)cc1
REMARK SMILES IDX 23 1 22 2 21 3 20 4 18 5 19 6 3 8 2 9 1 10 4 11 5 12 6 13
REMARK SMILES IDX 7 14 8 16 9 17 10 19 11 20 17 21 12 22 15 23 13 24 14 25
REMARK SMILES IDX 16 26 24 27 25 28 26 29 27 31 28 32 29 33 90 34 30 35 89 36
REMARK SMILES IDX 31 37 32 38 33 39 83 40 34 41 88 42 82 43 84 44 35 45 87 46
REMARK SMILES IDX 81 47 80 48 36 50 68 51 48 52 67 53 49 54 52 55 66 56 85 57
REMARK SMILES IDX 50 58 51 59 65 61 86 62 53 63 37 64 38 65 46 66 39 67 45 68
REMARK SMILES IDX 47 69 44 70 40 71 41 72 42 73 43 74 69 75 70 76 78 77 71 78
REMARK SMILES IDX 77 79 79 80 76 81 72 82 73 83 74 84 75 85 54 86 55 87 63 88
REMARK SMILES IDX 56 89 62 90 64 91 61 92 57 93 58 94 59 95 60 96
REMARK H PARENT 20 7 6 15 9 18 25 30 84 49 52 60
REMARK Flexibility Score: inf
ROOT
ATOM      1  C   UNL A   1      33.600  29.171  23.669  1.00  0.00     0.023 C 
ENDROOT
BRANCH   1   2
ATOM      2  C   UNL A   1      32.544  28.539  22.752  1.00  0.00     0.023 C 
BRANCH   2   3
ATOM      3  C   UNL A   1      32.856  27.121  22.239  1.00  0.00     0.116 C 
BRANCH   3   4
ATOM      4  N   UNL A   1      31.680  26.270  22.321  1.00  0.00    -0.354 N 
ATOM      5  C   UNL A   1      31.012  25.829  23.460  1.00  0.00     0.245 C 
ATOM      6  O   UNL A   1      29.933  26.301  23.804  1.00  0.00    -0.272 OA
ATOM      7  H   UNL A   1      31.308  25.968  21.461  1.00  0.00     0.163 HD
BRANCH   5   8
ATOM      8  C   UNL A   1      31.801  24.790  24.303  1.00  0.00     0.120 C 
BRANCH   8   9
ATOM      9  C   UNL A   1      33.235  25.060  24.801  1.00  0.00     0.035 C 
ATOM     10  C   UNL A   1      33.420  25.831  26.089  1.00  0.00     0.007 C 
ENDBRANCH   8   9
BRANCH   8  11
ATOM     11  C   UNL A   1      31.787  23.607  23.257  1.00  0.00     0.035 C 
ATOM     12  C   UNL A   1      33.053  23.163  22.555  1.00  0.00     0.007 C 
ENDBRANCH   8  11
BRANCH   8  13
ATOM     13  N   UNL A   1      30.981  24.567  25.520  1.00  0.00    -0.323 N 
ATOM     14  C   UNL A   1      30.784  23.515  26.336  1.00  0.00     0.320 C 
ATOM     15  H   UNL A   1      30.468  25.363  25.788  1.00  0.00     0.166 HD
ATOM     16  O   UNL A   1      29.867  23.646  27.156  1.00  0.00    -0.248 OA
ATOM     17  N   UNL A   1      31.425  22.328  26.349  1.00  0.00    -0.308 N 
ATOM     18  H   UNL A   1      30.951  21.730  26.972  1.00  0.00     0.171 HD
BRANCH  17  19
ATOM     19  C   UNL A   1      32.524  21.616  25.802  1.00  0.00     0.045 A 
ATOM     20  C   UNL A   1      33.886  21.832  26.018  1.00  0.00     0.046 A 
ATOM     21  C   UNL A   1      32.196  20.441  25.110  1.00  0.00     0.046 A 
ATOM     22  C   UNL A   1      34.873  21.048  25.400  1.00  0.00     0.044 A 
ATOM     23  C   UNL A   1      33.181  19.634  24.521  1.00  0.00     0.044 A 
ATOM     24  Cl  UNL A   1      36.539  21.419  25.644  1.00  0.00    -0.084 Cl
ATOM     25  C   UNL A   1      34.526  19.956  24.627  1.00  0.00     0.041 A 
ATOM     26  Cl  UNL A   1      32.716  18.220  23.660  1.00  0.00    -0.084 Cl
ENDBRANCH  17  19
ENDBRANCH   8  13
ENDBRANCH   5   8
ENDBRANCH   3   4
ENDBRANCH   2   3
ENDBRANCH   1   2
BRANCH   1  27
ATOM     27  C   UNL A   1      33.250  29.145  25.151  1.00  0.00     0.116 C 
BRANCH  27  28
ATOM     28  N   UNL A   1      32.711  30.421  25.581  1.00  0.00    -0.352 N 
ATOM     29  C   UNL A   1      33.016  31.183  26.677  1.00  0.00     0.251 C 
ATOM     30  H   UNL A   1      32.018  30.799  24.993  1.00  0.00     0.163 HD
ATOM     31  O   UNL A   1      32.257  32.095  26.995  1.00  0.00    -0.269 OA
BRANCH  29  32
ATOM     32  C   UNL A   1      34.230  30.909  27.478  1.00  0.00     0.039 A 
ATOM     33  C   UNL A   1      34.395  29.631  28.019  1.00  0.00     0.014 A 
ATOM     34  C   UNL A   1      35.173  31.905  27.749  1.00  0.00     0.014 A 
ATOM     35  C   UNL A   1      35.520  29.341  28.795  1.00  0.00     0.010 A 
ATOM     36  C   UNL A   1      36.331  31.595  28.462  1.00  0.00     0.010 A 
ATOM     37  C   UNL A   1      36.511  30.313  29.002  1.00  0.00    -0.014 A 
BRANCH  37  38
ATOM     38  C   UNL A   1      37.731  30.004  29.794  1.00  0.00     0.031 A 
ATOM     39  C   UNL A   1      38.778  29.075  29.239  1.00  0.00     0.074 A 
ATOM     40  C   UNL A   1      37.876  30.527  31.026  1.00  0.00     0.049 A 
ATOM     41  N   UNL A   1      39.873  28.631  29.803  1.00  0.00    -0.248 NA
ATOM     42  C   UNL A   1      38.549  28.559  27.882  1.00  0.00     0.031 C 
ATOM     43  C   UNL A   1      36.917  31.418  31.683  1.00  0.00     0.029 A 
ATOM     44  N   UNL A   1      38.877  30.379  31.953  1.00  0.00    -0.354 N 
ATOM     45  C   UNL A   1      40.460  27.778  28.873  1.00  0.00     0.074 A 
ATOM     46  C   UNL A   1      39.565  27.721  27.736  1.00  0.00     0.031 C 
ATOM     47  C   UNL A   1      37.385  31.751  32.896  1.00  0.00     0.029 A 
ATOM     48  C   UNL A   1      38.651  31.062  33.126  1.00  0.00     0.049 A 
ATOM     49  H   UNL A   1      39.684  29.836  31.793  1.00  0.00     0.167 HD
ATOM     50  C   UNL A   1      41.645  27.121  28.952  1.00  0.00     0.034 A 
ATOM     51  C   UNL A   1      39.369  31.112  34.266  1.00  0.00     0.034 A 
ATOM     52  C   UNL A   1      42.527  27.190  30.093  1.00  0.00     0.049 A 
ATOM     53  C   UNL A   1      40.664  30.343  34.345  1.00  0.00     0.074 A 
ATOM     54  C   UNL A   1      43.767  26.598  30.261  1.00  0.00     0.029 A 
ATOM     55  N   UNL A   1      42.261  27.888  31.265  1.00  0.00    -0.354 N 
ATOM     56  N   UNL A   1      41.225  29.572  33.441  1.00  0.00    -0.248 NA
ATOM     57  C   UNL A   1      41.429  30.462  35.593  1.00  0.00     0.031 C 
ATOM     58  C   UNL A   1      44.217  26.878  31.557  1.00  0.00     0.029 A 
ATOM     59  C   UNL A   1      43.298  27.714  32.170  1.00  0.00     0.049 A 
ATOM     60  H   UNL A   1      41.453  28.427  31.430  1.00  0.00     0.167 HD
ATOM     61  C   UNL A   1      42.423  29.140  34.004  1.00  0.00     0.074 A 
ATOM     62  C   UNL A   1      42.510  29.749  35.315  1.00  0.00     0.031 C 
ATOM     63  C   UNL A   1      43.368  28.318  33.481  1.00  0.00     0.034 A 
BRANCH  50  64
ATOM     64  C   UNL A   1      42.036  26.250  27.780  1.00  0.00     0.023 A 
ATOM     65  C   UNL A   1      41.610  24.914  27.679  1.00  0.00     0.031 A 
ATOM     66  C   UNL A   1      42.863  26.753  26.761  1.00  0.00     0.131 A 
ATOM     67  C   UNL A   1      42.073  24.107  26.629  1.00  0.00     0.055 A 
ATOM     68  C   UNL A   1      43.253  25.969  25.673  1.00  0.00     0.041 A 
ATOM     69  F   UNL A   1      43.319  28.015  26.810  1.00  0.00    -0.206 F 
ATOM     70  C   UNL A   1      42.870  24.632  25.611  1.00  0.00     0.022 A 
BRANCH  67  71
ATOM     71  S   UNL A   1      41.736  22.326  26.693  1.00  0.00     0.124 S 
ATOM     72  O   UNL A   1      42.572  21.908  27.817  1.00  0.00    -0.237 OA
ATOM     73  O   UNL A   1      40.297  22.283  26.916  1.00  0.00    -0.237 OA
ATOM     74  O   UNL A   1      42.180  21.845  25.386  1.00  0.00    -0.744 OA
ENDBRANCH  67  71
ENDBRANCH  50  64
BRANCH  51  75
ATOM     75  C   UNL A   1      38.876  31.898  35.433  1.00  0.00     0.023 A 
ATOM     76  C   UNL A   1      38.293  31.262  36.541  1.00  0.00     0.031 A 
ATOM     77  C   UNL A   1      38.943  33.303  35.439  1.00  0.00     0.131 A 
ATOM     78  C   UNL A   1      37.757  32.031  37.586  1.00  0.00     0.055 A 
ATOM     79  C   UNL A   1      38.459  34.061  36.507  1.00  0.00     0.041 A 
ATOM     80  F   UNL A   1      39.494  33.961  34.406  1.00  0.00    -0.206 F 
ATOM     81  C   UNL A   1      37.849  33.425  37.582  1.00  0.00     0.022 A 
BRANCH  78  82
ATOM     82  S   UNL A   1      36.854  31.185  38.912  1.00  0.00     0.124 S 
ATOM     83  O   UNL A   1      36.713  29.842  38.365  1.00  0.00    -0.237 OA
ATOM     84  O   UNL A   1      37.770  31.327  40.039  1.00  0.00    -0.237 OA
ATOM     85  O   UNL A   1      35.613  31.949  39.020  1.00  0.00    -0.744 OA
ENDBRANCH  78  82
ENDBRANCH  51  75
BRANCH  63  86
ATOM     86  C   UNL A   1      44.601  28.070  34.318  1.00  0.00     0.023 A 
ATOM     87  C   UNL A   1      44.685  26.990  35.215  1.00  0.00     0.031 A 
ATOM     88  C   UNL A   1      45.704  28.938  34.223  1.00  0.00     0.131 A 
ATOM     89  C   UNL A   1      45.823  26.839  36.022  1.00  0.00     0.055 A 
ATOM     90  C   UNL A   1      46.859  28.746  34.983  1.00  0.00     0.041 A 
ATOM     91  F   UNL A   1      45.678  29.987  33.385  1.00  0.00    -0.206 F 
ATOM     92  C   UNL A   1      46.917  27.700  35.899  1.00  0.00     0.022 A 
BRANCH  89  93
ATOM     93  S   UNL A   1      45.818  25.558  37.306  1.00  0.00     0.124 S 
ATOM     94  O   UNL A   1      47.159  25.684  37.867  1.00  0.00    -0.237 OA
ATOM     95  O   UNL A   1      44.722  25.987  38.170  1.00  0.00    -0.237 OA
ATOM     96  O   UNL A   1      45.570  24.325  36.560  1.00  0.00    -0.744 OA
ENDBRANCH  89  93
ENDBRANCH  63  86
ENDBRANCH  37  38
ENDBRANCH  29  32
ENDBRANCH  27  28
ENDBRANCH   1  27
TORSDOF 18
ENDMDL
