MODEL 1
REMARK VINA RESULT:     -10.7      0.000      0.000
REMARK SMILES CC(C)(C)OC(=O)CSc1ccnc(C(=O)NCCCCNC(=O)c2ccc(-c3c4nc(c(-c5cc(S(=O)(=O)[O-])ccc5F)c5ccc([nH]5)c(-c5cc(S(=O)(=O)[O-])ccc5F)c5nc(c(-c6cc(S(=O)(=O)[O-])ccc6F)c6ccc3[nH]6)C=C5)C=C4)cc2)c1
REMARK SMILES IDX 18 1 17 2 15 3 16 4 14 6 10 7 11 8 88 9 12 10 13 11 9 12
REMARK SMILES IDX 8 13 6 14 7 15 5 16 2 17 1 18 3 19 4 20 19 21 20 22 21 23
REMARK SMILES IDX 22 24 23 25 24 27 25 28 26 29 87 30 27 31 86 32 28 33 29 34
REMARK SMILES IDX 30 35 80 36 31 37 85 38 79 39 81 40 32 41 84 42 78 43 77 44
REMARK SMILES IDX 33 46 65 47 45 48 64 49 46 50 49 51 63 52 82 53 47 54 48 55
REMARK SMILES IDX 62 57 83 58 50 59 34 60 35 61 43 62 36 63 42 64 44 65 41 66
REMARK SMILES IDX 37 67 38 68 39 69 40 70 66 71 67 72 75 73 68 74 74 75 76 76
REMARK SMILES IDX 73 77 69 78 70 79 71 80 72 81 51 82 52 83 60 84 53 85 59 86
REMARK SMILES IDX 61 87 58 88 54 89 55 90 56 91 57 92
REMARK H PARENT 17 5 22 26 81 45 49 56
REMARK Flexibility Score: inf
ROOT
ATOM      1  C   UNL A   1      31.444  27.426  26.291  1.00  0.00     0.116 C 
ENDROOT
BRANCH   1   2
ATOM      2  N   UNL A   1      31.284  26.088  26.824  1.00  0.00    -0.351 N 
ATOM      3  C   UNL A   1      31.835  24.866  26.500  1.00  0.00     0.269 C 
ATOM      4  O   UNL A   1      31.484  23.914  27.201  1.00  0.00    -0.268 OA
ATOM      5  H   UNL A   1      30.650  26.042  27.575  1.00  0.00     0.163 HD
BRANCH   3   6
ATOM      6  C   UNL A   1      32.837  24.645  25.394  1.00  0.00     0.129 A 
ATOM      7  C   UNL A   1      34.988  24.083  24.504  1.00  0.00     0.012 A 
ATOM      8  C   UNL A   1      34.464  24.152  23.219  1.00  0.00     0.035 A 
ATOM      9  C   UNL A   1      34.184  24.402  25.597  1.00  0.00     0.049 A 
ATOM     10  C   UNL A   1      33.131  24.486  23.090  1.00  0.00     0.113 A 
ATOM     11  N   UNL A   1      32.312  24.706  24.139  1.00  0.00    -0.251 NA
BRANCH   7  12
ATOM     12  S   UNL A   1      36.671  23.588  24.817  1.00  0.00    -0.114 SA
BRANCH  12  13
ATOM     13  C   UNL A   1      36.396  22.084  25.809  1.00  0.00     0.197 C 
BRANCH  13  14
ATOM     14  C   UNL A   1      36.084  20.844  25.000  1.00  0.00     0.316 C 
ATOM     15  O   UNL A   1      36.783  19.839  25.039  1.00  0.00    -0.251 OA
BRANCH  14  16
ATOM     16  O   UNL A   1      34.906  20.959  24.330  1.00  0.00    -0.459 OA
BRANCH  16  17
ATOM     17  C   UNL A   1      33.691  20.336  24.840  1.00  0.00     0.104 C 
ATOM     18  C   UNL A   1      32.553  20.957  24.013  1.00  0.00     0.056 C 
ATOM     19  C   UNL A   1      33.483  20.700  26.314  1.00  0.00     0.056 C 
ATOM     20  C   UNL A   1      33.676  18.815  24.649  1.00  0.00     0.056 C 
ENDBRANCH  16  17
ENDBRANCH  14  16
ENDBRANCH  13  14
ENDBRANCH  12  13
ENDBRANCH   7  12
ENDBRANCH   3   6
ENDBRANCH   1   2
BRANCH   1  21
ATOM     21  C   UNL A   1      32.155  28.339  27.289  1.00  0.00     0.023 C 
BRANCH  21  22
ATOM     22  C   UNL A   1      31.754  29.812  27.179  1.00  0.00     0.023 C 
BRANCH  22  23
ATOM     23  C   UNL A   1      32.754  30.708  26.450  1.00  0.00     0.116 C 
BRANCH  23  24
ATOM     24  N   UNL A   1      32.695  32.103  26.860  1.00  0.00    -0.352 N 
ATOM     25  C   UNL A   1      33.598  32.802  27.630  1.00  0.00     0.251 C 
ATOM     26  H   UNL A   1      31.912  32.611  26.547  1.00  0.00     0.163 HD
ATOM     27  O   UNL A   1      33.364  33.956  27.959  1.00  0.00    -0.269 OA
BRANCH  25  28
ATOM     28  C   UNL A   1      34.823  32.115  28.092  1.00  0.00     0.039 A 
ATOM     29  C   UNL A   1      36.023  32.828  28.122  1.00  0.00     0.014 A 
ATOM     30  C   UNL A   1      34.770  30.796  28.549  1.00  0.00     0.014 A 
ATOM     31  C   UNL A   1      37.159  32.241  28.682  1.00  0.00     0.010 A 
ATOM     32  C   UNL A   1      35.886  30.234  29.163  1.00  0.00     0.010 A 
ATOM     33  C   UNL A   1      37.089  30.955  29.244  1.00  0.00    -0.014 A 
BRANCH  33  34
ATOM     34  C   UNL A   1      38.259  30.349  29.932  1.00  0.00     0.031 A 
ATOM     35  C   UNL A   1      38.605  30.769  31.333  1.00  0.00     0.074 A 
ATOM     36  C   UNL A   1      39.045  29.480  29.268  1.00  0.00     0.049 A 
ATOM     37  N   UNL A   1      39.632  30.429  32.069  1.00  0.00    -0.248 NA
ATOM     38  C   UNL A   1      37.690  31.722  31.980  1.00  0.00     0.031 C 
ATOM     39  C   UNL A   1      38.834  29.031  27.889  1.00  0.00     0.029 A 
ATOM     40  N   UNL A   1      40.188  28.827  29.656  1.00  0.00    -0.354 N 
ATOM     41  C   UNL A   1      39.494  31.135  33.259  1.00  0.00     0.074 A 
ATOM     42  C   UNL A   1      38.316  31.965  33.120  1.00  0.00     0.031 C 
ATOM     43  C   UNL A   1      39.805  28.166  27.555  1.00  0.00     0.029 A 
ATOM     44  C   UNL A   1      40.729  28.027  28.676  1.00  0.00     0.049 A 
ATOM     45  H   UNL A   1      40.584  28.921  30.552  1.00  0.00     0.167 HD
ATOM     46  C   UNL A   1      40.267  31.080  34.374  1.00  0.00     0.034 A 
ATOM     47  C   UNL A   1      41.849  27.276  28.677  1.00  0.00     0.034 A 
ATOM     48  C   UNL A   1      41.430  30.237  34.501  1.00  0.00     0.049 A 
ATOM     49  C   UNL A   1      42.697  27.239  29.923  1.00  0.00     0.074 A 
ATOM     50  C   UNL A   1      42.255  30.064  35.599  1.00  0.00     0.029 A 
ATOM     51  N   UNL A   1      41.938  29.426  33.494  1.00  0.00    -0.354 N 
ATOM     52  N   UNL A   1      42.526  27.876  31.058  1.00  0.00    -0.248 NA
ATOM     53  C   UNL A   1      43.882  26.372  29.892  1.00  0.00     0.031 C 
ATOM     54  C   UNL A   1      43.290  29.194  35.239  1.00  0.00     0.029 A 
ATOM     55  C   UNL A   1      43.076  28.769  33.938  1.00  0.00     0.049 A 
ATOM     56  H   UNL A   1      41.547  29.330  32.596  1.00  0.00     0.167 HD
ATOM     57  C   UNL A   1      43.566  27.461  31.886  1.00  0.00     0.074 A 
ATOM     58  C   UNL A   1      44.349  26.510  31.124  1.00  0.00     0.031 C 
ATOM     59  C   UNL A   1      43.848  27.829  33.161  1.00  0.00     0.034 A 
BRANCH  46  60
ATOM     60  C   UNL A   1      39.882  31.973  35.527  1.00  0.00     0.023 A 
ATOM     61  C   UNL A   1      39.045  31.520  36.561  1.00  0.00     0.031 A 
ATOM     62  C   UNL A   1      40.335  33.303  35.582  1.00  0.00     0.131 A 
ATOM     63  C   UNL A   1      38.625  32.408  37.563  1.00  0.00     0.055 A 
ATOM     64  C   UNL A   1      39.979  34.159  36.626  1.00  0.00     0.041 A 
ATOM     65  F   UNL A   1      41.122  33.798  34.612  1.00  0.00    -0.206 F 
ATOM     66  C   UNL A   1      39.106  33.717  37.617  1.00  0.00     0.022 A 
BRANCH  63  67
ATOM     67  S   UNL A   1      37.335  31.864  38.715  1.00  0.00     0.124 S 
ATOM     68  O   UNL A   1      36.273  32.830  38.445  1.00  0.00    -0.237 OA
ATOM     69  O   UNL A   1      37.079  30.496  38.280  1.00  0.00    -0.237 OA
ATOM     70  O   UNL A   1      37.968  31.995  40.025  1.00  0.00    -0.744 OA
ENDBRANCH  63  67
ENDBRANCH  46  60
BRANCH  47  71
ATOM     71  C   UNL A   1      42.248  26.506  27.465  1.00  0.00     0.023 A 
ATOM     72  C   UNL A   1      41.952  25.139  27.349  1.00  0.00     0.031 A 
ATOM     73  C   UNL A   1      42.979  27.112  26.428  1.00  0.00     0.131 A 
ATOM     74  C   UNL A   1      42.428  24.410  26.248  1.00  0.00     0.055 A 
ATOM     75  C   UNL A   1      43.406  26.396  25.309  1.00  0.00     0.041 A 
ATOM     76  F   UNL A   1      43.283  28.419  26.485  1.00  0.00    -0.206 F 
ATOM     77  C   UNL A   1      43.143  25.032  25.222  1.00  0.00     0.022 A 
BRANCH  74  78
ATOM     78  S   UNL A   1      42.174  22.614  26.222  1.00  0.00     0.124 S 
ATOM     79  O   UNL A   1      42.855  22.199  27.442  1.00  0.00    -0.237 OA
ATOM     80  O   UNL A   1      40.719  22.515  26.232  1.00  0.00    -0.237 OA
ATOM     81  O   UNL A   1      42.817  22.199  24.976  1.00  0.00    -0.744 OA
ENDBRANCH  74  78
ENDBRANCH  47  71
BRANCH  59  82
ATOM     82  C   UNL A   1      45.028  27.159  33.820  1.00  0.00     0.023 A 
ATOM     83  C   UNL A   1      44.885  25.975  34.563  1.00  0.00     0.031 A 
ATOM     84  C   UNL A   1      46.311  27.725  33.713  1.00  0.00     0.131 A 
ATOM     85  C   UNL A   1      45.996  25.422  35.216  1.00  0.00     0.055 A 
ATOM     86  C   UNL A   1      47.424  27.139  34.317  1.00  0.00     0.041 A 
ATOM     87  F   UNL A   1      46.502  28.855  33.015  1.00  0.00    -0.206 F 
ATOM     88  C   UNL A   1      47.268  25.988  35.086  1.00  0.00     0.022 A 
BRANCH  85  89
ATOM     89  S   UNL A   1      45.747  23.996  36.308  1.00  0.00     0.124 S 
ATOM     90  O   UNL A   1      44.836  24.538  37.311  1.00  0.00    -0.237 OA
ATOM     91  O   UNL A   1      45.179  23.004  35.402  1.00  0.00    -0.237 OA
ATOM     92  O   UNL A   1      47.092  23.693  36.793  1.00  0.00    -0.744 OA
ENDBRANCH  85  89
ENDBRANCH  59  82
ENDBRANCH  33  34
ENDBRANCH  25  28
ENDBRANCH  23  24
ENDBRANCH  22  23
ENDBRANCH  21  22
ENDBRANCH   1  21
TORSDOF 19
ENDMDL
MODEL 2
REMARK VINA RESULT:     -10.6      5.122      8.152
REMARK SMILES CC(C)(C)OC(=O)CSc1ccnc(C(=O)NCCCCNC(=O)c2ccc(-c3c4nc(c(-c5cc(S(=O)(=O)[O-])ccc5F)c5ccc([nH]5)c(-c5cc(S(=O)(=O)[O-])ccc5F)c5nc(c(-c6cc(S(=O)(=O)[O-])ccc6F)c6ccc3[nH]6)C=C5)C=C4)cc2)c1
REMARK SMILES IDX 18 1 17 2 15 3 16 4 14 6 10 7 11 8 88 9 12 10 13 11 9 12
REMARK SMILES IDX 8 13 6 14 7 15 5 16 2 17 1 18 3 19 4 20 19 21 20 22 21 23
REMARK SMILES IDX 22 24 23 25 24 27 25 28 26 29 87 30 27 31 86 32 28 33 29 34
REMARK SMILES IDX 30 35 80 36 31 37 85 38 79 39 81 40 32 41 84 42 78 43 77 44
REMARK SMILES IDX 33 46 65 47 45 48 64 49 46 50 49 51 63 52 82 53 47 54 48 55
REMARK SMILES IDX 62 57 83 58 50 59 34 60 35 61 43 62 36 63 42 64 44 65 41 66
REMARK SMILES IDX 37 67 38 68 39 69 40 70 66 71 67 72 75 73 68 74 74 75 76 76
REMARK SMILES IDX 73 77 69 78 70 79 71 80 72 81 51 82 52 83 60 84 53 85 59 86
REMARK SMILES IDX 61 87 58 88 54 89 55 90 56 91 57 92
REMARK H PARENT 17 5 22 26 81 45 49 56
REMARK Flexibility Score: inf
ROOT
ATOM      1  C   UNL A   1      34.969  23.234  24.117  1.00  0.00     0.116 C 
ENDROOT
BRANCH   1   2
ATOM      2  N   UNL A   1      33.988  22.238  23.737  1.00  0.00    -0.351 N 
ATOM      3  C   UNL A   1      32.623  22.139  23.904  1.00  0.00     0.269 C 
ATOM      4  O   UNL A   1      32.092  21.138  23.416  1.00  0.00    -0.268 OA
ATOM      5  H   UNL A   1      34.379  21.471  23.260  1.00  0.00     0.163 HD
BRANCH   3   6
ATOM      6  C   UNL A   1      31.768  23.171  24.596  1.00  0.00     0.129 A 
ATOM      7  C   UNL A   1      30.472  25.181  24.712  1.00  0.00     0.012 A 
ATOM      8  C   UNL A   1      30.103  24.857  26.012  1.00  0.00     0.035 A 
ATOM      9  C   UNL A   1      31.369  24.366  24.024  1.00  0.00     0.049 A 
ATOM     10  C   UNL A   1      30.611  23.691  26.548  1.00  0.00     0.113 A 
ATOM     11  N   UNL A   1      31.405  22.841  25.866  1.00  0.00    -0.251 NA
BRANCH   7  12
ATOM     12  S   UNL A   1      29.828  26.615  23.873  1.00  0.00    -0.114 SA
BRANCH  12  13
ATOM     13  C   UNL A   1      31.377  27.468  23.435  1.00  0.00     0.197 C 
BRANCH  13  14
ATOM     14  C   UNL A   1      31.724  28.641  24.325  1.00  0.00     0.316 C 
ATOM     15  O   UNL A   1      30.913  29.512  24.613  1.00  0.00    -0.251 OA
BRANCH  14  16
ATOM     16  O   UNL A   1      32.984  28.541  24.827  1.00  0.00    -0.459 OA
BRANCH  16  17
ATOM     17  C   UNL A   1      33.233  27.870  26.097  1.00  0.00     0.104 C 
ATOM     18  C   UNL A   1      34.341  28.698  26.769  1.00  0.00     0.056 C 
ATOM     19  C   UNL A   1      33.759  26.450  25.854  1.00  0.00     0.056 C 
ATOM     20  C   UNL A   1      32.002  27.845  27.010  1.00  0.00     0.056 C 
ENDBRANCH  16  17
ENDBRANCH  14  16
ENDBRANCH  13  14
ENDBRANCH  12  13
ENDBRANCH   7  12
ENDBRANCH   3   6
ENDBRANCH   1   2
BRANCH   1  21
ATOM     21  C   UNL A   1      36.313  22.979  23.436  1.00  0.00     0.023 C 
BRANCH  21  22
ATOM     22  C   UNL A   1      37.020  21.707  23.911  1.00  0.00     0.023 C 
BRANCH  22  23
ATOM     23  C   UNL A   1      37.485  21.724  25.366  1.00  0.00     0.116 C 
BRANCH  23  24
ATOM     24  N   UNL A   1      38.434  20.669  25.687  1.00  0.00    -0.352 N 
ATOM     25  C   UNL A   1      39.647  20.784  26.330  1.00  0.00     0.251 C 
ATOM     26  H   UNL A   1      38.177  19.760  25.412  1.00  0.00     0.163 HD
ATOM     27  O   UNL A   1      40.373  19.808  26.454  1.00  0.00    -0.269 OA
BRANCH  25  28
ATOM     28  C   UNL A   1      40.074  22.113  26.817  1.00  0.00     0.039 A 
ATOM     29  C   UNL A   1      41.034  22.183  27.828  1.00  0.00     0.014 A 
ATOM     30  C   UNL A   1      39.570  23.279  26.235  1.00  0.00     0.014 A 
ATOM     31  C   UNL A   1      41.549  23.424  28.204  1.00  0.00     0.010 A 
ATOM     32  C   UNL A   1      40.128  24.511  26.567  1.00  0.00     0.010 A 
ATOM     33  C   UNL A   1      41.130  24.594  27.549  1.00  0.00    -0.014 A 
BRANCH  33  34
ATOM     34  C   UNL A   1      41.734  25.914  27.865  1.00  0.00     0.031 A 
ATOM     35  C   UNL A   1      40.926  26.955  28.589  1.00  0.00     0.074 A 
ATOM     36  C   UNL A   1      42.979  26.197  27.437  1.00  0.00     0.049 A 
ATOM     37  N   UNL A   1      41.237  28.193  28.877  1.00  0.00    -0.248 NA
ATOM     38  C   UNL A   1      39.576  26.558  29.019  1.00  0.00     0.031 C 
ATOM     39  C   UNL A   1      43.844  25.282  26.686  1.00  0.00     0.029 A 
ATOM     40  N   UNL A   1      43.733  27.338  27.558  1.00  0.00    -0.354 N 
ATOM     41  C   UNL A   1      40.119  28.727  29.508  1.00  0.00     0.074 A 
ATOM     42  C   UNL A   1      39.104  27.693  29.508  1.00  0.00     0.031 C 
ATOM     43  C   UNL A   1      45.012  25.892  26.430  1.00  0.00     0.029 A 
ATOM     44  C   UNL A   1      44.969  27.251  26.959  1.00  0.00     0.049 A 
ATOM     45  H   UNL A   1      43.419  28.142  28.030  1.00  0.00     0.167 HD
ATOM     46  C   UNL A   1      39.961  29.958  30.057  1.00  0.00     0.034 A 
ATOM     47  C   UNL A   1      45.950  28.168  26.841  1.00  0.00     0.034 A 
ATOM     48  C   UNL A   1      40.988  30.970  30.062  1.00  0.00     0.049 A 
ATOM     49  C   UNL A   1      45.748  29.532  27.451  1.00  0.00     0.074 A 
ATOM     50  C   UNL A   1      40.954  32.231  30.633  1.00  0.00     0.029 A 
ATOM     51  N   UNL A   1      42.234  30.842  29.462  1.00  0.00    -0.354 N 
ATOM     52  N   UNL A   1      44.702  30.005  28.088  1.00  0.00    -0.248 NA
ATOM     53  C   UNL A   1      46.863  30.481  27.336  1.00  0.00     0.031 C 
ATOM     54  C   UNL A   1      42.155  32.883  30.332  1.00  0.00     0.029 A 
ATOM     55  C   UNL A   1      42.967  32.007  29.629  1.00  0.00     0.049 A 
ATOM     56  H   UNL A   1      42.551  30.040  28.987  1.00  0.00     0.167 HD
ATOM     57  C   UNL A   1      45.048  31.297  28.476  1.00  0.00     0.074 A 
ATOM     58  C   UNL A   1      46.402  31.522  28.013  1.00  0.00     0.031 C 
ATOM     59  C   UNL A   1      44.315  32.215  29.155  1.00  0.00     0.034 A 
BRANCH  46  60
ATOM     60  C   UNL A   1      38.622  30.272  30.678  1.00  0.00     0.023 A 
ATOM     61  C   UNL A   1      37.619  30.947  29.960  1.00  0.00     0.031 A 
ATOM     62  C   UNL A   1      38.352  29.917  32.011  1.00  0.00     0.131 A 
ATOM     63  C   UNL A   1      36.425  31.313  30.600  1.00  0.00     0.055 A 
ATOM     64  C   UNL A   1      37.130  30.213  32.618  1.00  0.00     0.041 A 
ATOM     65  F   UNL A   1      39.279  29.288  32.752  1.00  0.00    -0.206 F 
ATOM     66  C   UNL A   1      36.163  30.928  31.916  1.00  0.00     0.022 A 
BRANCH  63  67
ATOM     67  S   UNL A   1      35.280  32.416  29.728  1.00  0.00     0.124 S 
ATOM     68  O   UNL A   1      34.368  32.801  30.802  1.00  0.00    -0.237 OA
ATOM     69  O   UNL A   1      36.165  33.465  29.235  1.00  0.00    -0.237 OA
ATOM     70  O   UNL A   1      34.695  31.559  28.700  1.00  0.00    -0.744 OA
ENDBRANCH  63  67
ENDBRANCH  46  60
BRANCH  47  71
ATOM     71  C   UNL A   1      47.209  27.843  26.111  1.00  0.00     0.023 A 
ATOM     72  C   UNL A   1      47.293  27.993  24.718  1.00  0.00     0.031 A 
ATOM     73  C   UNL A   1      48.327  27.325  26.787  1.00  0.00     0.131 A 
ATOM     74  C   UNL A   1      48.451  27.583  24.038  1.00  0.00     0.055 A 
ATOM     75  C   UNL A   1      49.496  26.968  26.114  1.00  0.00     0.041 A 
ATOM     76  F   UNL A   1      48.301  27.168  28.121  1.00  0.00    -0.206 F 
ATOM     77  C   UNL A   1      49.557  27.082  24.729  1.00  0.00     0.022 A 
BRANCH  74  78
ATOM     78  S   UNL A   1      48.456  27.631  22.225  1.00  0.00     0.124 S 
ATOM     79  O   UNL A   1      47.141  28.192  21.939  1.00  0.00    -0.237 OA
ATOM     80  O   UNL A   1      49.598  28.496  21.950  1.00  0.00    -0.237 OA
ATOM     81  O   UNL A   1      48.633  26.229  21.848  1.00  0.00    -0.744 OA
ENDBRANCH  74  78
ENDBRANCH  47  71
BRANCH  59  82
ATOM     82  C   UNL A   1      44.989  33.525  29.476  1.00  0.00     0.023 A 
ATOM     83  C   UNL A   1      44.903  34.631  28.613  1.00  0.00     0.031 A 
ATOM     84  C   UNL A   1      45.740  33.662  30.657  1.00  0.00     0.131 A 
ATOM     85  C   UNL A   1      45.601  35.809  28.917  1.00  0.00     0.055 A 
ATOM     86  C   UNL A   1      46.386  34.854  30.983  1.00  0.00     0.041 A 
ATOM     87  F   UNL A   1      45.854  32.636  31.515  1.00  0.00    -0.206 F 
ATOM     88  C   UNL A   1      46.330  35.933  30.103  1.00  0.00     0.022 A 
BRANCH  85  89
ATOM     89  S   UNL A   1      45.615  37.154  27.701  1.00  0.00     0.124 S 
ATOM     90  O   UNL A   1      45.802  38.328  28.548  1.00  0.00    -0.237 OA
ATOM     91  O   UNL A   1      46.745  36.795  26.851  1.00  0.00    -0.237 OA
ATOM     92  O   UNL A   1      44.304  37.054  27.062  1.00  0.00    -0.744 OA
ENDBRANCH  85  89
ENDBRANCH  59  82
ENDBRANCH  33  34
ENDBRANCH  25  28
ENDBRANCH  23  24
ENDBRANCH  22  23
ENDBRANCH  21  22
ENDBRANCH   1  21
TORSDOF 19
ENDMDL
MODEL 3
REMARK VINA RESULT:     -10.6      2.163      2.558
REMARK SMILES CC(C)(C)OC(=O)CSc1ccnc(C(=O)NCCCCNC(=O)c2ccc(-c3c4nc(c(-c5cc(S(=O)(=O)[O-])ccc5F)c5ccc([nH]5)c(-c5cc(S(=O)(=O)[O-])ccc5F)c5nc(c(-c6cc(S(=O)(=O)[O-])ccc6F)c6ccc3[nH]6)C=C5)C=C4)cc2)c1
REMARK SMILES IDX 18 1 17 2 15 3 16 4 14 6 10 7 11 8 88 9 12 10 13 11 9 12
REMARK SMILES IDX 8 13 6 14 7 15 5 16 2 17 1 18 3 19 4 20 19 21 20 22 21 23
REMARK SMILES IDX 22 24 23 25 24 27 25 28 26 29 87 30 27 31 86 32 28 33 29 34
REMARK SMILES IDX 30 35 80 36 31 37 85 38 79 39 81 40 32 41 84 42 78 43 77 44
REMARK SMILES IDX 33 46 65 47 45 48 64 49 46 50 49 51 63 52 82 53 47 54 48 55
REMARK SMILES IDX 62 57 83 58 50 59 34 60 35 61 43 62 36 63 42 64 44 65 41 66
REMARK SMILES IDX 37 67 38 68 39 69 40 70 66 71 67 72 75 73 68 74 74 75 76 76
REMARK SMILES IDX 73 77 69 78 70 79 71 80 72 81 51 82 52 83 60 84 53 85 59 86
REMARK SMILES IDX 61 87 58 88 54 89 55 90 56 91 57 92
REMARK H PARENT 17 5 22 26 81 45 49 56
REMARK Flexibility Score: inf
ROOT
ATOM      1  C   UNL A   1      31.005  27.362  26.352  1.00  0.00     0.116 C 
ENDROOT
BRANCH   1   2
ATOM      2  N   UNL A   1      30.855  25.997  26.815  1.00  0.00    -0.351 N 
ATOM      3  C   UNL A   1      31.503  24.817  26.515  1.00  0.00     0.269 C 
ATOM      4  O   UNL A   1      31.123  23.821  27.135  1.00  0.00    -0.268 OA
ATOM      5  H   UNL A   1      30.141  25.889  27.484  1.00  0.00     0.163 HD
BRANCH   3   6
ATOM      6  C   UNL A   1      32.637  24.690  25.528  1.00  0.00     0.129 A 
ATOM      7  C   UNL A   1      34.888  24.210  24.870  1.00  0.00     0.012 A 
ATOM      8  C   UNL A   1      34.526  24.381  23.540  1.00  0.00     0.035 A 
ATOM      9  C   UNL A   1      33.951  24.436  25.876  1.00  0.00     0.049 A 
ATOM     10  C   UNL A   1      33.215  24.719  23.273  1.00  0.00     0.113 A 
ATOM     11  N   UNL A   1      32.270  24.850  24.226  1.00  0.00    -0.251 NA
BRANCH   7  12
ATOM     12  S   UNL A   1      36.526  23.698  25.349  1.00  0.00    -0.114 SA
BRANCH  12  13
ATOM     13  C   UNL A   1      36.165  22.068  26.080  1.00  0.00     0.197 C 
BRANCH  13  14
ATOM     14  C   UNL A   1      35.956  20.959  25.073  1.00  0.00     0.316 C 
ATOM     15  O   UNL A   1      36.709  19.997  24.986  1.00  0.00    -0.251 OA
BRANCH  14  16
ATOM     16  O   UNL A   1      34.800  21.119  24.374  1.00  0.00    -0.459 OA
BRANCH  16  17
ATOM     17  C   UNL A   1      33.595  20.385  24.741  1.00  0.00     0.104 C 
ATOM     18  C   UNL A   1      32.467  21.056  23.941  1.00  0.00     0.056 C 
ATOM     19  C   UNL A   1      33.305  20.552  26.237  1.00  0.00     0.056 C 
ATOM     20  C   UNL A   1      33.663  18.901  24.363  1.00  0.00     0.056 C 
ENDBRANCH  16  17
ENDBRANCH  14  16
ENDBRANCH  13  14
ENDBRANCH  12  13
ENDBRANCH   7  12
ENDBRANCH   3   6
ENDBRANCH   1   2
BRANCH   1  21
ATOM     21  C   UNL A   1      31.803  28.201  27.349  1.00  0.00     0.023 C 
BRANCH  21  22
ATOM     22  C   UNL A   1      32.122  29.615  26.857  1.00  0.00     0.023 C 
BRANCH  22  23
ATOM     23  C   UNL A   1      33.536  30.108  27.161  1.00  0.00     0.116 C 
BRANCH  23  24
ATOM     24  N   UNL A   1      33.584  31.479  27.647  1.00  0.00    -0.352 N 
ATOM     25  C   UNL A   1      34.591  32.094  28.356  1.00  0.00     0.251 C 
ATOM     26  H   UNL A   1      32.799  32.036  27.442  1.00  0.00     0.163 HD
ATOM     27  O   UNL A   1      34.446  33.237  28.766  1.00  0.00    -0.269 OA
BRANCH  25  28
ATOM     28  C   UNL A   1      35.822  31.332  28.654  1.00  0.00     0.039 A 
ATOM     29  C   UNL A   1      37.059  31.905  28.350  1.00  0.00     0.014 A 
ATOM     30  C   UNL A   1      35.753  30.088  29.286  1.00  0.00     0.014 A 
ATOM     31  C   UNL A   1      38.232  31.262  28.748  1.00  0.00     0.010 A 
ATOM     32  C   UNL A   1      36.921  29.478  29.737  1.00  0.00     0.010 A 
ATOM     33  C   UNL A   1      38.172  30.065  29.481  1.00  0.00    -0.014 A 
BRANCH  33  34
ATOM     34  C   UNL A   1      39.403  29.414  29.998  1.00  0.00     0.031 A 
ATOM     35  C   UNL A   1      40.105  29.985  31.199  1.00  0.00     0.074 A 
ATOM     36  C   UNL A   1      39.924  28.359  29.344  1.00  0.00     0.049 A 
ATOM     37  N   UNL A   1      41.236  29.622  31.747  1.00  0.00    -0.248 NA
ATOM     38  C   UNL A   1      39.464  31.138  31.849  1.00  0.00     0.031 C 
ATOM     39  C   UNL A   1      39.356  27.744  28.141  1.00  0.00     0.029 A 
ATOM     40  N   UNL A   1      41.056  27.621  29.587  1.00  0.00    -0.354 N 
ATOM     41  C   UNL A   1      41.449  30.508  32.797  1.00  0.00     0.074 A 
ATOM     42  C   UNL A   1      40.358  31.460  32.769  1.00  0.00     0.031 C 
ATOM     43  C   UNL A   1      40.131  26.715  27.764  1.00  0.00     0.029 A 
ATOM     44  C   UNL A   1      41.272  26.619  28.669  1.00  0.00     0.049 A 
ATOM     45  H   UNL A   1      41.656  27.792  30.348  1.00  0.00     0.167 HD
ATOM     46  C   UNL A   1      42.451  30.513  33.713  1.00  0.00     0.034 A 
ATOM     47  C   UNL A   1      42.282  25.732  28.562  1.00  0.00     0.034 A 
ATOM     48  C   UNL A   1      43.522  29.548  33.735  1.00  0.00     0.049 A 
ATOM     49  C   UNL A   1      43.388  25.764  29.586  1.00  0.00     0.074 A 
ATOM     50  C   UNL A   1      44.558  29.429  34.645  1.00  0.00     0.029 A 
ATOM     51  N   UNL A   1      43.699  28.537  32.800  1.00  0.00    -0.354 N 
ATOM     52  N   UNL A   1      43.550  26.579  30.603  1.00  0.00    -0.248 NA
ATOM     53  C   UNL A   1      44.442  24.750  29.455  1.00  0.00     0.031 C 
ATOM     54  C   UNL A   1      45.390  28.384  34.230  1.00  0.00     0.029 A 
ATOM     55  C   UNL A   1      44.839  27.805  33.099  1.00  0.00     0.049 A 
ATOM     56  H   UNL A   1      43.103  28.364  32.036  1.00  0.00     0.167 HD
ATOM     57  C   UNL A   1      44.707  26.154  31.250  1.00  0.00     0.074 A 
ATOM     58  C   UNL A   1      45.194  25.004  30.516  1.00  0.00     0.031 C 
ATOM     59  C   UNL A   1      45.313  26.665  32.351  1.00  0.00     0.034 A 
BRANCH  46  60
ATOM     60  C   UNL A   1      42.434  31.611  34.749  1.00  0.00     0.023 A 
ATOM     61  C   UNL A   1      41.508  31.611  35.806  1.00  0.00     0.031 A 
ATOM     62  C   UNL A   1      43.338  32.685  34.665  1.00  0.00     0.131 A 
ATOM     63  C   UNL A   1      41.454  32.699  36.690  1.00  0.00     0.055 A 
ATOM     64  C   UNL A   1      43.332  33.726  35.596  1.00  0.00     0.041 A 
ATOM     65  F   UNL A   1      44.233  32.748  33.665  1.00  0.00    -0.206 F 
ATOM     66  C   UNL A   1      42.377  33.744  36.608  1.00  0.00     0.022 A 
BRANCH  63  67
ATOM     67  S   UNL A   1      40.075  32.792  37.864  1.00  0.00     0.124 S 
ATOM     68  O   UNL A   1      39.779  34.223  37.857  1.00  0.00    -0.237 OA
ATOM     69  O   UNL A   1      39.075  31.930  37.245  1.00  0.00    -0.237 OA
ATOM     70  O   UNL A   1      40.650  32.288  39.109  1.00  0.00    -0.744 OA
ENDBRANCH  63  67
ENDBRANCH  46  60
BRANCH  47  71
ATOM     71  C   UNL A   1      42.311  24.745  27.446  1.00  0.00     0.023 A 
ATOM     72  C   UNL A   1      41.585  23.546  27.525  1.00  0.00     0.031 A 
ATOM     73  C   UNL A   1      43.107  24.960  26.307  1.00  0.00     0.131 A 
ATOM     74  C   UNL A   1      41.709  22.584  26.510  1.00  0.00     0.055 A 
ATOM     75  C   UNL A   1      43.186  24.024  25.275  1.00  0.00     0.041 A 
ATOM     76  F   UNL A   1      43.815  26.093  26.178  1.00  0.00    -0.206 F 
ATOM     77  C   UNL A   1      42.496  22.820  25.380  1.00  0.00     0.022 A 
BRANCH  74  78
ATOM     78  S   UNL A   1      40.894  20.979  26.732  1.00  0.00     0.124 S 
ATOM     79  O   UNL A   1      39.670  21.157  25.959  1.00  0.00    -0.237 OA
ATOM     80  O   UNL A   1      41.879  20.061  26.172  1.00  0.00    -0.237 OA
ATOM     81  O   UNL A   1      40.711  20.888  28.180  1.00  0.00    -0.744 OA
ENDBRANCH  74  78
ENDBRANCH  47  71
BRANCH  59  82
ATOM     82  C   UNL A   1      46.541  25.946  32.850  1.00  0.00     0.023 A 
ATOM     83  C   UNL A   1      47.784  26.070  32.205  1.00  0.00     0.031 A 
ATOM     84  C   UNL A   1      46.461  25.112  33.980  1.00  0.00     0.131 A 
ATOM     85  C   UNL A   1      48.885  25.332  32.662  1.00  0.00     0.055 A 
ATOM     86  C   UNL A   1      47.573  24.423  34.464  1.00  0.00     0.041 A 
ATOM     87  F   UNL A   1      45.298  24.958  34.633  1.00  0.00    -0.206 F 
ATOM     88  C   UNL A   1      48.791  24.520  33.796  1.00  0.00     0.022 A 
BRANCH  85  89
ATOM     89  S   UNL A   1      50.424  25.378  31.705  1.00  0.00     0.124 S 
ATOM     90  O   UNL A   1      51.273  26.226  32.536  1.00  0.00    -0.237 OA
ATOM     91  O   UNL A   1      50.797  23.968  31.645  1.00  0.00    -0.237 OA
ATOM     92  O   UNL A   1      50.020  25.967  30.430  1.00  0.00    -0.744 OA
ENDBRANCH  85  89
ENDBRANCH  59  82
ENDBRANCH  33  34
ENDBRANCH  25  28
ENDBRANCH  23  24
ENDBRANCH  22  23
ENDBRANCH  21  22
ENDBRANCH   1  21
TORSDOF 19
ENDMDL
