MODEL 1
REMARK VINA RESULT:     -11.5      0.000      0.000
REMARK SMILES O=C(Cc1ccn(C(F)F)c(=O)c1)NCCCCNC(=O)c1ccc(-c2c3nc(c(-c4cc(S(=O)(=O)[O-])ccc4F)c4ccc([nH]4)c(-c4cc(S(=O)(=O)[O-])ccc4F)c4nc(c(-c5cc(S(=O)(=O)[O-])ccc5F)c5ccc2[nH]5)C=C4)C=C3)cc1
REMARK SMILES IDX 17 1 16 2 15 3 14 4 1 5 2 6 3 8 4 9 5 10 13 11 6 12 11 13
REMARK SMILES IDX 7 14 12 15 8 16 9 17 10 18 18 19 19 20 20 21 21 23 22 24
REMARK SMILES IDX 23 25 84 26 24 27 83 28 25 29 26 30 27 31 77 32 28 33 82 34
REMARK SMILES IDX 76 35 78 36 29 37 81 38 75 39 74 40 30 42 62 43 42 44 61 45
REMARK SMILES IDX 43 46 46 47 60 48 79 49 44 50 45 51 59 53 80 54 47 55 31 56
REMARK SMILES IDX 32 57 40 58 33 59 39 60 41 61 38 62 34 63 35 64 36 65 37 66
REMARK SMILES IDX 63 67 64 68 72 69 65 70 71 71 73 72 70 73 66 74 67 75 68 76
REMARK SMILES IDX 69 77 48 78 49 79 57 80 50 81 56 82 58 83 55 84 51 85 52 86
REMARK SMILES IDX 53 87 54 88
REMARK H PARENT 14 7 19 22 78 41 46 52
REMARK Flexibility Score: inf
ROOT
ATOM      1  C   UNL A   1      31.608  29.303  26.977  1.00  0.00     0.023 C 
ENDROOT
BRANCH   1   2
ATOM      2  C   UNL A   1      32.339  27.970  27.151  1.00  0.00     0.023 C 
BRANCH   2   3
ATOM      3  C   UNL A   1      31.516  26.727  26.817  1.00  0.00     0.116 C 
BRANCH   3   4
ATOM      4  N   UNL A   1      30.951  26.777  25.483  1.00  0.00    -0.356 N 
ATOM      5  O   UNL A   1      32.875  26.199  24.358  1.00  0.00    -0.275 OA
ATOM      6  C   UNL A   1      31.679  26.474  24.351  1.00  0.00     0.224 C 
ATOM      7  H   UNL A   1      30.008  27.038  25.380  1.00  0.00     0.163 HD
BRANCH   6   8
ATOM      8  C   UNL A   1      30.868  26.517  23.057  1.00  0.00     0.135 C 
BRANCH   8   9
ATOM      9  C   UNL A   1      29.967  27.727  22.986  1.00  0.00    -0.032 A 
ATOM     10  C   UNL A   1      30.586  29.019  22.767  1.00  0.00     0.022 A 
ATOM     11  C   UNL A   1      28.632  27.659  23.134  1.00  0.00     0.076 A 
ATOM     12  C   UNL A   1      29.844  30.134  22.769  1.00  0.00     0.095 A 
ATOM     13  C   UNL A   1      27.789  28.889  23.122  1.00  0.00     0.255 A 
ATOM     14  N   UNL A   1      28.475  30.082  22.958  1.00  0.00    -0.258 N 
ATOM     15  O   UNL A   1      26.578  28.769  23.268  1.00  0.00    -0.269 OA
BRANCH  14  16
ATOM     16  C   UNL A   1      27.695  31.294  22.995  1.00  0.00     0.451 C 
ATOM     17  F   UNL A   1      27.281  31.568  24.258  1.00  0.00    -0.185 F 
ATOM     18  F   UNL A   1      28.422  32.349  22.555  1.00  0.00    -0.185 F 
ENDBRANCH  14  16
ENDBRANCH   8   9
ENDBRANCH   6   8
ENDBRANCH   3   4
ENDBRANCH   2   3
ENDBRANCH   1   2
BRANCH   1  19
ATOM     19  C   UNL A   1      32.306  30.335  26.097  1.00  0.00     0.116 C 
BRANCH  19  20
ATOM     20  N   UNL A   1      32.114  31.705  26.545  1.00  0.00    -0.352 N 
ATOM     21  C   UNL A   1      32.934  32.490  27.327  1.00  0.00     0.251 C 
ATOM     22  H   UNL A   1      31.278  32.134  26.248  1.00  0.00     0.163 HD
ATOM     23  O   UNL A   1      32.548  33.596  27.696  1.00  0.00    -0.269 OA
BRANCH  21  24
ATOM     24  C   UNL A   1      34.255  31.978  27.761  1.00  0.00     0.039 A 
ATOM     25  C   UNL A   1      34.438  30.627  28.060  1.00  0.00     0.014 A 
ATOM     26  C   UNL A   1      35.318  32.875  27.910  1.00  0.00     0.014 A 
ATOM     27  C   UNL A   1      35.609  30.212  28.689  1.00  0.00     0.010 A 
ATOM     28  C   UNL A   1      36.527  32.437  28.463  1.00  0.00     0.010 A 
ATOM     29  C   UNL A   1      36.661  31.116  28.918  1.00  0.00    -0.014 A 
BRANCH  29  30
ATOM     30  C   UNL A   1      37.876  30.660  29.647  1.00  0.00     0.031 A 
ATOM     31  C   UNL A   1      38.117  31.066  31.078  1.00  0.00     0.074 A 
ATOM     32  C   UNL A   1      38.742  29.827  29.035  1.00  0.00     0.049 A 
ATOM     33  N   UNL A   1      39.086  30.710  31.883  1.00  0.00    -0.248 NA
ATOM     34  C   UNL A   1      37.148  31.991  31.689  1.00  0.00     0.031 C 
ATOM     35  C   UNL A   1      38.619  29.370  27.652  1.00  0.00     0.029 A 
ATOM     36  N   UNL A   1      39.877  29.205  29.494  1.00  0.00    -0.354 N 
ATOM     37  C   UNL A   1      38.857  31.377  33.082  1.00  0.00     0.074 A 
ATOM     38  C   UNL A   1      37.675  32.187  32.890  1.00  0.00     0.031 C 
ATOM     39  C   UNL A   1      39.607  28.504  27.388  1.00  0.00     0.029 A 
ATOM     40  C   UNL A   1      40.473  28.390  28.560  1.00  0.00     0.049 A 
ATOM     41  H   UNL A   1      40.230  29.329  30.405  1.00  0.00     0.167 HD
ATOM     42  C   UNL A   1      39.558  31.307  34.239  1.00  0.00     0.034 A 
ATOM     43  C   UNL A   1      41.594  27.642  28.627  1.00  0.00     0.034 A 
ATOM     44  C   UNL A   1      40.721  30.479  34.428  1.00  0.00     0.049 A 
ATOM     45  C   UNL A   1      42.367  27.596  29.919  1.00  0.00     0.074 A 
ATOM     46  C   UNL A   1      41.465  30.304  35.581  1.00  0.00     0.029 A 
ATOM     47  N   UNL A   1      41.312  29.692  33.449  1.00  0.00    -0.354 N 
ATOM     48  N   UNL A   1      42.092  28.177  31.063  1.00  0.00    -0.248 NA
ATOM     49  C   UNL A   1      43.598  26.793  29.938  1.00  0.00     0.031 C 
ATOM     50  C   UNL A   1      42.537  29.461  35.287  1.00  0.00     0.029 A 
ATOM     51  C   UNL A   1      42.428  29.054  33.967  1.00  0.00     0.049 A 
ATOM     52  H   UNL A   1      40.987  29.600  32.525  1.00  0.00     0.167 HD
ATOM     53  C   UNL A   1      43.106  27.801  31.939  1.00  0.00     0.074 A 
ATOM     54  C   UNL A   1      43.984  26.916  31.201  1.00  0.00     0.031 C 
ATOM     55  C   UNL A   1      43.295  28.163  33.233  1.00  0.00     0.034 A 
BRANCH  42  56
ATOM     56  C   UNL A   1      39.093  32.128  35.418  1.00  0.00     0.023 A 
ATOM     57  C   UNL A   1      39.606  33.424  35.620  1.00  0.00     0.031 A 
ATOM     58  C   UNL A   1      38.255  31.583  36.406  1.00  0.00     0.131 A 
ATOM     59  C   UNL A   1      39.299  34.118  36.796  1.00  0.00     0.055 A 
ATOM     60  C   UNL A   1      37.922  32.294  37.560  1.00  0.00     0.041 A 
ATOM     61  F   UNL A   1      37.741  30.350  36.260  1.00  0.00    -0.206 F 
ATOM     62  C   UNL A   1      38.456  33.563  37.764  1.00  0.00     0.022 A 
BRANCH  59  63
ATOM     63  S   UNL A   1      40.031  35.739  37.149  1.00  0.00     0.124 S 
ATOM     64  O   UNL A   1      39.655  36.500  35.959  1.00  0.00    -0.237 OA
ATOM     65  O   UNL A   1      39.344  36.124  38.378  1.00  0.00    -0.237 OA
ATOM     66  O   UNL A   1      41.456  35.459  37.283  1.00  0.00    -0.744 OA
ENDBRANCH  59  63
ENDBRANCH  42  56
BRANCH  43  67
ATOM     67  C   UNL A   1      42.007  26.851  27.432  1.00  0.00     0.023 A 
ATOM     68  C   UNL A   1      41.710  25.478  27.339  1.00  0.00     0.031 A 
ATOM     69  C   UNL A   1      42.805  27.423  26.427  1.00  0.00     0.131 A 
ATOM     70  C   UNL A   1      42.274  24.710  26.313  1.00  0.00     0.055 A 
ATOM     71  C   UNL A   1      43.302  26.668  25.363  1.00  0.00     0.041 A 
ATOM     72  F   UNL A   1      43.125  28.725  26.478  1.00  0.00    -0.206 F 
ATOM     73  C   UNL A   1      43.054  25.299  25.314  1.00  0.00     0.022 A 
BRANCH  70  74
ATOM     74  S   UNL A   1      42.140  22.900  26.330  1.00  0.00     0.124 S 
ATOM     75  O   UNL A   1      40.711  22.705  26.558  1.00  0.00    -0.237 OA
ATOM     76  O   UNL A   1      42.620  22.553  24.994  1.00  0.00    -0.237 OA
ATOM     77  O   UNL A   1      43.017  22.500  27.425  1.00  0.00    -0.744 OA
ENDBRANCH  70  74
ENDBRANCH  43  67
BRANCH  55  78
ATOM     78  C   UNL A   1      44.496  27.620  33.969  1.00  0.00     0.023 A 
ATOM     79  C   UNL A   1      44.401  26.402  34.670  1.00  0.00     0.031 A 
ATOM     80  C   UNL A   1      45.671  28.378  34.106  1.00  0.00     0.131 A 
ATOM     81  C   UNL A   1      45.447  26.000  35.511  1.00  0.00     0.055 A 
ATOM     82  C   UNL A   1      46.729  27.949  34.910  1.00  0.00     0.041 A 
ATOM     83  F   UNL A   1      45.805  29.551  33.466  1.00  0.00    -0.206 F 
ATOM     84  C   UNL A   1      46.613  26.763  35.630  1.00  0.00     0.022 A 
BRANCH  81  85
ATOM     85  S   UNL A   1      45.295  24.520  36.550  1.00  0.00     0.124 S 
ATOM     86  O   UNL A   1      44.947  25.096  37.847  1.00  0.00    -0.237 OA
ATOM     87  O   UNL A   1      44.222  23.785  35.886  1.00  0.00    -0.237 OA
ATOM     88  O   UNL A   1      46.615  23.902  36.478  1.00  0.00    -0.744 OA
ENDBRANCH  81  85
ENDBRANCH  55  78
ENDBRANCH  29  30
ENDBRANCH  21  24
ENDBRANCH  19  20
ENDBRANCH   1  19
TORSDOF 16
ENDMDL
MODEL 2
REMARK VINA RESULT:     -11.5      6.125     11.092
REMARK SMILES O=C(Cc1ccn(C(F)F)c(=O)c1)NCCCCNC(=O)c1ccc(-c2c3nc(c(-c4cc(S(=O)(=O)[O-])ccc4F)c4ccc([nH]4)c(-c4cc(S(=O)(=O)[O-])ccc4F)c4nc(c(-c5cc(S(=O)(=O)[O-])ccc5F)c5ccc2[nH]5)C=C4)C=C3)cc1
REMARK SMILES IDX 17 1 16 2 15 3 14 4 1 5 2 6 3 8 4 9 5 10 13 11 6 12 11 13
REMARK SMILES IDX 7 14 12 15 8 16 9 17 10 18 18 19 19 20 20 21 21 23 22 24
REMARK SMILES IDX 23 25 84 26 24 27 83 28 25 29 26 30 27 31 77 32 28 33 82 34
REMARK SMILES IDX 76 35 78 36 29 37 81 38 75 39 74 40 30 42 62 43 42 44 61 45
REMARK SMILES IDX 43 46 46 47 60 48 79 49 44 50 45 51 59 53 80 54 47 55 31 56
REMARK SMILES IDX 32 57 40 58 33 59 39 60 41 61 38 62 34 63 35 64 36 65 37 66
REMARK SMILES IDX 63 67 64 68 72 69 65 70 71 71 73 72 70 73 66 74 67 75 68 76
REMARK SMILES IDX 69 77 48 78 49 79 57 80 50 81 56 82 58 83 55 84 51 85 52 86
REMARK SMILES IDX 53 87 54 88
REMARK H PARENT 14 7 19 22 78 41 46 52
REMARK Flexibility Score: inf
ROOT
ATOM      1  C   UNL A   1      36.053  21.979  25.769  1.00  0.00     0.023 C 
ENDROOT
BRANCH   1   2
ATOM      2  C   UNL A   1      35.721  23.359  26.342  1.00  0.00     0.023 C 
BRANCH   2   3
ATOM      3  C   UNL A   1      34.750  24.194  25.509  1.00  0.00     0.116 C 
BRANCH   3   4
ATOM      4  N   UNL A   1      33.556  23.458  25.143  1.00  0.00    -0.356 N 
ATOM      5  O   UNL A   1      34.164  23.033  22.963  1.00  0.00    -0.275 OA
ATOM      6  C   UNL A   1      33.372  22.904  23.893  1.00  0.00     0.224 C 
ATOM      7  H   UNL A   1      32.845  23.350  25.815  1.00  0.00     0.163 HD
BRANCH   6   8
ATOM      8  C   UNL A   1      32.077  22.108  23.747  1.00  0.00     0.135 C 
BRANCH   8   9
ATOM      9  C   UNL A   1      32.304  20.619  23.855  1.00  0.00    -0.032 A 
ATOM     10  C   UNL A   1      32.662  20.081  25.152  1.00  0.00     0.022 A 
ATOM     11  C   UNL A   1      32.209  19.783  22.806  1.00  0.00     0.076 A 
ATOM     12  C   UNL A   1      32.947  18.780  25.291  1.00  0.00     0.095 A 
ATOM     13  C   UNL A   1      32.508  18.329  22.946  1.00  0.00     0.255 A 
ATOM     14  N   UNL A   1      32.890  17.916  24.212  1.00  0.00    -0.258 N 
ATOM     15  O   UNL A   1      32.411  17.614  21.955  1.00  0.00    -0.269 OA
BRANCH  14  16
ATOM     16  C   UNL A   1      33.236  16.526  24.369  1.00  0.00     0.451 C 
ATOM     17  F   UNL A   1      34.520  16.299  23.994  1.00  0.00    -0.185 F 
ATOM     18  F   UNL A   1      33.104  16.139  25.661  1.00  0.00    -0.185 F 
ENDBRANCH  14  16
ENDBRANCH   8   9
ENDBRANCH   6   8
ENDBRANCH   3   4
ENDBRANCH   2   3
ENDBRANCH   1   2
BRANCH   1  19
ATOM     19  C   UNL A   1      37.316  21.899  24.918  1.00  0.00     0.116 C 
BRANCH  19  20
ATOM     20  N   UNL A   1      38.229  20.846  25.333  1.00  0.00    -0.352 N 
ATOM     21  C   UNL A   1      39.386  20.939  26.077  1.00  0.00     0.251 C 
ATOM     22  H   UNL A   1      37.987  19.936  25.042  1.00  0.00     0.163 HD
ATOM     23  O   UNL A   1      40.091  19.945  26.235  1.00  0.00    -0.269 OA
BRANCH  21  24
ATOM     24  C   UNL A   1      39.802  22.245  26.639  1.00  0.00     0.039 A 
ATOM     25  C   UNL A   1      39.300  23.441  26.124  1.00  0.00     0.014 A 
ATOM     26  C   UNL A   1      40.744  22.273  27.673  1.00  0.00     0.014 A 
ATOM     27  C   UNL A   1      39.877  24.651  26.501  1.00  0.00     0.010 A 
ATOM     28  C   UNL A   1      41.261  23.497  28.112  1.00  0.00     0.010 A 
ATOM     29  C   UNL A   1      40.879  24.694  27.485  1.00  0.00    -0.014 A 
BRANCH  29  30
ATOM     30  C   UNL A   1      41.522  25.994  27.823  1.00  0.00     0.031 A 
ATOM     31  C   UNL A   1      42.899  26.331  27.313  1.00  0.00     0.074 A 
ATOM     32  C   UNL A   1      40.839  26.900  28.549  1.00  0.00     0.049 A 
ATOM     33  N   UNL A   1      43.582  27.439  27.457  1.00  0.00    -0.248 NA
ATOM     34  C   UNL A   1      43.605  25.295  26.541  1.00  0.00     0.031 C 
ATOM     35  C   UNL A   1      39.503  26.686  29.104  1.00  0.00     0.029 A 
ATOM     36  N   UNL A   1      41.157  28.181  28.929  1.00  0.00    -0.354 N 
ATOM     37  C   UNL A   1      44.797  27.229  26.814  1.00  0.00     0.074 A 
ATOM     38  C   UNL A   1      44.775  25.876  26.308  1.00  0.00     0.031 C 
ATOM     39  C   UNL A   1      39.095  27.810  29.709  1.00  0.00     0.029 A 
ATOM     40  C   UNL A   1      40.162  28.806  29.645  1.00  0.00     0.049 A 
ATOM     41  H   UNL A   1      42.015  28.612  28.709  1.00  0.00     0.167 HD
ATOM     42  C   UNL A   1      45.829  28.091  26.649  1.00  0.00     0.034 A 
ATOM     43  C   UNL A   1      40.110  30.036  30.198  1.00  0.00     0.034 A 
ATOM     44  C   UNL A   1      45.833  29.447  27.138  1.00  0.00     0.049 A 
ATOM     45  C   UNL A   1      41.279  30.969  30.016  1.00  0.00     0.074 A 
ATOM     46  C   UNL A   1      46.813  30.410  26.972  1.00  0.00     0.029 A 
ATOM     47  N   UNL A   1      44.821  30.032  27.884  1.00  0.00    -0.354 N 
ATOM     48  N   UNL A   1      42.389  30.777  29.343  1.00  0.00    -0.248 NA
ATOM     49  C   UNL A   1      41.193  32.286  30.662  1.00  0.00     0.031 C 
ATOM     50  C   UNL A   1      46.422  31.555  27.666  1.00  0.00     0.029 A 
ATOM     51  C   UNL A   1      45.167  31.334  28.210  1.00  0.00     0.049 A 
ATOM     52  H   UNL A   1      43.980  29.589  28.144  1.00  0.00     0.167 HD
ATOM     53  C   UNL A   1      43.126  31.951  29.473  1.00  0.00     0.074 A 
ATOM     54  C   UNL A   1      42.321  32.859  30.264  1.00  0.00     0.031 C 
ATOM     55  C   UNL A   1      44.359  32.242  28.988  1.00  0.00     0.034 A 
BRANCH  42  56
ATOM     56  C   UNL A   1      47.049  27.624  25.893  1.00  0.00     0.023 A 
ATOM     57  C   UNL A   1      47.190  27.932  24.526  1.00  0.00     0.031 A 
ATOM     58  C   UNL A   1      47.996  26.769  26.484  1.00  0.00     0.131 A 
ATOM     59  C   UNL A   1      48.237  27.364  23.790  1.00  0.00     0.055 A 
ATOM     60  C   UNL A   1      49.059  26.235  25.754  1.00  0.00     0.041 A 
ATOM     61  F   UNL A   1      47.904  26.445  27.784  1.00  0.00    -0.206 F 
ATOM     62  C   UNL A   1      49.174  26.522  24.397  1.00  0.00     0.022 A 
BRANCH  59  63
ATOM     63  S   UNL A   1      48.388  27.640  22.003  1.00  0.00     0.124 S 
ATOM     64  O   UNL A   1      48.608  26.282  21.510  1.00  0.00    -0.237 OA
ATOM     65  O   UNL A   1      47.089  28.221  21.673  1.00  0.00    -0.237 OA
ATOM     66  O   UNL A   1      49.531  28.538  21.882  1.00  0.00    -0.744 OA
ENDBRANCH  59  63
ENDBRANCH  42  56
BRANCH  43  67
ATOM     67  C   UNL A   1      38.880  30.445  30.935  1.00  0.00     0.023 A 
ATOM     68  C   UNL A   1      37.914  31.265  30.323  1.00  0.00     0.031 A 
ATOM     69  C   UNL A   1      38.711  30.125  32.293  1.00  0.00     0.131 A 
ATOM     70  C   UNL A   1      36.870  31.803  31.087  1.00  0.00     0.055 A 
ATOM     71  C   UNL A   1      37.626  30.601  33.031  1.00  0.00     0.041 A 
ATOM     72  F   UNL A   1      39.612  29.356  32.923  1.00  0.00    -0.206 F 
ATOM     73  C   UNL A   1      36.710  31.462  32.432  1.00  0.00     0.022 A 
BRANCH  70  74
ATOM     74  S   UNL A   1      35.780  33.079  30.397  1.00  0.00     0.124 S 
ATOM     75  O   UNL A   1      36.579  33.593  29.289  1.00  0.00    -0.237 OA
ATOM     76  O   UNL A   1      34.606  32.295  30.019  1.00  0.00    -0.237 OA
ATOM     77  O   UNL A   1      35.577  33.998  31.512  1.00  0.00    -0.744 OA
ENDBRANCH  70  74
ENDBRANCH  43  67
BRANCH  55  78
ATOM     78  C   UNL A   1      44.950  33.599  29.284  1.00  0.00     0.023 A 
ATOM     79  C   UNL A   1      44.661  34.692  28.443  1.00  0.00     0.031 A 
ATOM     80  C   UNL A   1      45.913  33.772  30.293  1.00  0.00     0.131 A 
ATOM     81  C   UNL A   1      45.362  35.895  28.600  1.00  0.00     0.055 A 
ATOM     82  C   UNL A   1      46.576  34.988  30.473  1.00  0.00     0.041 A 
ATOM     83  F   UNL A   1      46.230  32.757  31.113  1.00  0.00    -0.206 F 
ATOM     84  C   UNL A   1      46.312  36.051  29.614  1.00  0.00     0.022 A 
BRANCH  81  85
ATOM     85  S   UNL A   1      45.132  37.269  27.437  1.00  0.00     0.124 S 
ATOM     86  O   UNL A   1      43.795  37.001  26.912  1.00  0.00    -0.237 OA
ATOM     87  O   UNL A   1      45.237  38.433  28.311  1.00  0.00    -0.237 OA
ATOM     88  O   UNL A   1      46.221  37.106  26.478  1.00  0.00    -0.744 OA
ENDBRANCH  81  85
ENDBRANCH  55  78
ENDBRANCH  29  30
ENDBRANCH  21  24
ENDBRANCH  19  20
ENDBRANCH   1  19
TORSDOF 16
ENDMDL
MODEL 3
REMARK VINA RESULT:     -11.5      1.992      2.254
REMARK SMILES O=C(Cc1ccn(C(F)F)c(=O)c1)NCCCCNC(=O)c1ccc(-c2c3nc(c(-c4cc(S(=O)(=O)[O-])ccc4F)c4ccc([nH]4)c(-c4cc(S(=O)(=O)[O-])ccc4F)c4nc(c(-c5cc(S(=O)(=O)[O-])ccc5F)c5ccc2[nH]5)C=C4)C=C3)cc1
REMARK SMILES IDX 17 1 16 2 15 3 14 4 1 5 2 6 3 8 4 9 5 10 13 11 6 12 11 13
REMARK SMILES IDX 7 14 12 15 8 16 9 17 10 18 18 19 19 20 20 21 21 23 22 24
REMARK SMILES IDX 23 25 84 26 24 27 83 28 25 29 26 30 27 31 77 32 28 33 82 34
REMARK SMILES IDX 76 35 78 36 29 37 81 38 75 39 74 40 30 42 62 43 42 44 61 45
REMARK SMILES IDX 43 46 46 47 60 48 79 49 44 50 45 51 59 53 80 54 47 55 31 56
REMARK SMILES IDX 32 57 40 58 33 59 39 60 41 61 38 62 34 63 35 64 36 65 37 66
REMARK SMILES IDX 63 67 64 68 72 69 65 70 71 71 73 72 70 73 66 74 67 75 68 76
REMARK SMILES IDX 69 77 48 78 49 79 57 80 50 81 56 82 58 83 55 84 51 85 52 86
REMARK SMILES IDX 53 87 54 88
REMARK H PARENT 14 7 19 22 78 41 46 52
REMARK Flexibility Score: inf
ROOT
ATOM      1  C   UNL A   1      31.599  29.574  27.149  1.00  0.00     0.023 C 
ENDROOT
BRANCH   1   2
ATOM      2  C   UNL A   1      32.179  28.216  27.550  1.00  0.00     0.023 C 
BRANCH   2   3
ATOM      3  C   UNL A   1      31.542  27.008  26.867  1.00  0.00     0.116 C 
BRANCH   3   4
ATOM      4  N   UNL A   1      31.456  27.163  25.429  1.00  0.00    -0.356 N 
ATOM      5  O   UNL A   1      30.336  25.194  25.016  1.00  0.00    -0.275 OA
ATOM      6  C   UNL A   1      30.824  26.247  24.614  1.00  0.00     0.224 C 
ATOM      7  H   UNL A   1      31.866  27.956  25.015  1.00  0.00     0.163 HD
BRANCH   6   8
ATOM      8  C   UNL A   1      30.785  26.645  23.140  1.00  0.00     0.135 C 
BRANCH   8   9
ATOM      9  C   UNL A   1      29.887  27.833  22.891  1.00  0.00    -0.032 A 
ATOM     10  C   UNL A   1      30.497  29.047  22.386  1.00  0.00     0.022 A 
ATOM     11  C   UNL A   1      28.565  27.819  23.133  1.00  0.00     0.076 A 
ATOM     12  C   UNL A   1      29.763  30.154  22.216  1.00  0.00     0.095 A 
ATOM     13  C   UNL A   1      27.729  29.038  22.934  1.00  0.00     0.255 A 
ATOM     14  N   UNL A   1      28.408  30.164  22.498  1.00  0.00    -0.258 N 
ATOM     15  O   UNL A   1      26.529  28.970  23.176  1.00  0.00    -0.269 OA
BRANCH  14  16
ATOM     16  C   UNL A   1      27.638  31.373  22.347  1.00  0.00     0.451 C 
ATOM     17  F   UNL A   1      27.295  31.886  23.555  1.00  0.00    -0.185 F 
ATOM     18  F   UNL A   1      28.347  32.316  21.679  1.00  0.00    -0.185 F 
ENDBRANCH  14  16
ENDBRANCH   8   9
ENDBRANCH   6   8
ENDBRANCH   3   4
ENDBRANCH   2   3
ENDBRANCH   1   2
BRANCH   1  19
ATOM     19  C   UNL A   1      32.555  30.519  26.429  1.00  0.00     0.116 C 
BRANCH  19  20
ATOM     20  N   UNL A   1      32.455  31.899  26.877  1.00  0.00    -0.352 N 
ATOM     21  C   UNL A   1      33.347  32.641  27.622  1.00  0.00     0.251 C 
ATOM     22  H   UNL A   1      31.633  32.372  26.611  1.00  0.00     0.163 HD
ATOM     23  O   UNL A   1      33.036  33.767  28.001  1.00  0.00    -0.269 OA
BRANCH  21  24
ATOM     24  C   UNL A   1      34.654  32.059  28.006  1.00  0.00     0.039 A 
ATOM     25  C   UNL A   1      34.758  30.724  28.398  1.00  0.00     0.014 A 
ATOM     26  C   UNL A   1      35.788  32.878  28.013  1.00  0.00     0.014 A 
ATOM     27  C   UNL A   1      35.938  30.265  28.978  1.00  0.00     0.010 A 
ATOM     28  C   UNL A   1      36.999  32.388  28.517  1.00  0.00     0.010 A 
ATOM     29  C   UNL A   1      37.068  31.097  29.064  1.00  0.00    -0.014 A 
BRANCH  29  30
ATOM     30  C   UNL A   1      38.296  30.601  29.745  1.00  0.00     0.031 A 
ATOM     31  C   UNL A   1      38.613  31.008  31.160  1.00  0.00     0.074 A 
ATOM     32  C   UNL A   1      39.102  29.732  29.103  1.00  0.00     0.049 A 
ATOM     33  N   UNL A   1      39.603  30.622  31.926  1.00  0.00    -0.248 NA
ATOM     34  C   UNL A   1      37.706  31.973  31.804  1.00  0.00     0.031 C 
ATOM     35  C   UNL A   1      38.903  29.269  27.731  1.00  0.00     0.029 A 
ATOM     36  N   UNL A   1      40.233  29.071  29.518  1.00  0.00    -0.354 N 
ATOM     37  C   UNL A   1      39.450  31.306  33.127  1.00  0.00     0.074 A 
ATOM     38  C   UNL A   1      38.292  32.158  32.980  1.00  0.00     0.031 C 
ATOM     39  C   UNL A   1      39.846  28.365  27.432  1.00  0.00     0.029 A 
ATOM     40  C   UNL A   1      40.757  28.228  28.566  1.00  0.00     0.049 A 
ATOM     41  H   UNL A   1      40.629  29.189  30.411  1.00  0.00     0.167 HD
ATOM     42  C   UNL A   1      40.197  31.218  34.254  1.00  0.00     0.034 A 
ATOM     43  C   UNL A   1      41.852  27.438  28.591  1.00  0.00     0.034 A 
ATOM     44  C   UNL A   1      41.337  30.348  34.399  1.00  0.00     0.049 A 
ATOM     45  C   UNL A   1      42.677  27.373  29.850  1.00  0.00     0.074 A 
ATOM     46  C   UNL A   1      42.123  30.154  35.521  1.00  0.00     0.029 A 
ATOM     47  N   UNL A   1      41.855  29.533  33.403  1.00  0.00    -0.354 N 
ATOM     48  N   UNL A   1      42.474  27.972  30.999  1.00  0.00    -0.248 NA
ATOM     49  C   UNL A   1      43.877  26.525  29.822  1.00  0.00     0.031 C 
ATOM     50  C   UNL A   1      43.149  29.269  35.189  1.00  0.00     0.029 A 
ATOM     51  C   UNL A   1      42.968  28.857  33.878  1.00  0.00     0.049 A 
ATOM     52  H   UNL A   1      41.487  29.447  32.494  1.00  0.00     0.167 HD
ATOM     53  C   UNL A   1      43.511  27.564  31.834  1.00  0.00     0.074 A 
ATOM     54  C   UNL A   1      44.322  26.642  31.067  1.00  0.00     0.031 C 
ATOM     55  C   UNL A   1      43.768  27.929  33.115  1.00  0.00     0.034 A 
BRANCH  42  56
ATOM     56  C   UNL A   1      39.815  32.064  35.444  1.00  0.00     0.023 A 
ATOM     57  C   UNL A   1      38.958  31.542  36.432  1.00  0.00     0.031 A 
ATOM     58  C   UNL A   1      40.185  33.417  35.531  1.00  0.00     0.131 A 
ATOM     59  C   UNL A   1      38.477  32.378  37.448  1.00  0.00     0.055 A 
ATOM     60  C   UNL A   1      39.732  34.236  36.566  1.00  0.00     0.041 A 
ATOM     61  F   UNL A   1      40.999  33.962  34.612  1.00  0.00    -0.206 F 
ATOM     62  C   UNL A   1      38.863  33.719  37.523  1.00  0.00     0.022 A 
BRANCH  59  63
ATOM     63  S   UNL A   1      37.282  31.776  38.672  1.00  0.00     0.124 S 
ATOM     64  O   UNL A   1      38.027  31.935  39.919  1.00  0.00    -0.237 OA
ATOM     65  O   UNL A   1      36.167  32.701  38.490  1.00  0.00    -0.237 OA
ATOM     66  O   UNL A   1      37.031  30.397  38.269  1.00  0.00    -0.744 OA
ENDBRANCH  59  63
ENDBRANCH  42  56
BRANCH  43  67
ATOM     67  C   UNL A   1      42.182  26.624  27.387  1.00  0.00     0.023 A 
ATOM     68  C   UNL A   1      41.818  25.267  27.313  1.00  0.00     0.031 A 
ATOM     69  C   UNL A   1      42.969  27.154  26.350  1.00  0.00     0.131 A 
ATOM     70  C   UNL A   1      42.308  24.468  26.271  1.00  0.00     0.055 A 
ATOM     71  C   UNL A   1      43.391  26.372  25.273  1.00  0.00     0.041 A 
ATOM     72  F   UNL A   1      43.351  28.440  26.382  1.00  0.00    -0.206 F 
ATOM     73  C   UNL A   1      43.077  25.017  25.241  1.00  0.00     0.022 A 
BRANCH  70  74
ATOM     74  S   UNL A   1      42.089  22.667  26.304  1.00  0.00     0.124 S 
ATOM     75  O   UNL A   1      40.641  22.540  26.437  1.00  0.00    -0.237 OA
ATOM     76  O   UNL A   1      42.642  22.277  25.009  1.00  0.00    -0.237 OA
ATOM     77  O   UNL A   1      42.872  22.247  27.462  1.00  0.00    -0.744 OA
ENDBRANCH  70  74
ENDBRANCH  43  67
BRANCH  55  78
ATOM     78  C   UNL A   1      44.979  27.346  33.803  1.00  0.00     0.023 A 
ATOM     79  C   UNL A   1      46.242  27.947  33.637  1.00  0.00     0.031 A 
ATOM     80  C   UNL A   1      44.911  26.120  34.486  1.00  0.00     0.131 A 
ATOM     81  C   UNL A   1      47.390  27.298  34.108  1.00  0.00     0.055 A 
ATOM     82  C   UNL A   1      46.054  25.499  34.994  1.00  0.00     0.041 A 
ATOM     83  F   UNL A   1      43.731  25.503  34.662  1.00  0.00    -0.206 F 
ATOM     84  C   UNL A   1      47.302  26.082  34.792  1.00  0.00     0.022 A 
BRANCH  81  85
ATOM     85  S   UNL A   1      49.045  27.963  33.773  1.00  0.00     0.124 S 
ATOM     86  O   UNL A   1      49.349  27.373  32.471  1.00  0.00    -0.237 OA
ATOM     87  O   UNL A   1      48.804  29.402  33.765  1.00  0.00    -0.237 OA
ATOM     88  O   UNL A   1      49.854  27.469  34.883  1.00  0.00    -0.744 OA
ENDBRANCH  81  85
ENDBRANCH  55  78
ENDBRANCH  29  30
ENDBRANCH  21  24
ENDBRANCH  19  20
ENDBRANCH   1  19
TORSDOF 16
ENDMDL
