MODEL 1
REMARK VINA RESULT:      -9.9      0.000      0.000
REMARK SMILES CCC(CC)(C[C@H](O)COC)C(=O)NCCCCNC(=O)c1ccc(-c2c3nc(c(-c4cc(S(=O)(=O)[O-])ccc4F)c4ccc([nH]4)c(-c4cc(S(=O)(=O)[O-])ccc4F)c4nc(c(-c5cc(S(=O)(=O)[O-])ccc5F)c5ccc2[nH]5)C=C4)C=C3)cc1
REMARK SMILES IDX 16 1 15 2 14 3 12 4 13 5 3 7 2 8 1 9 4 10 5 11 6 12 7 13
REMARK SMILES IDX 9 14 10 15 11 16 8 17 17 19 18 20 19 21 20 22 21 24 22 25
REMARK SMILES IDX 23 26 84 27 24 28 83 29 25 30 26 31 27 32 77 33 28 34 82 35
REMARK SMILES IDX 76 36 78 37 29 38 81 39 75 40 74 41 30 43 62 44 42 45 61 46
REMARK SMILES IDX 43 47 46 48 60 49 79 50 44 51 45 52 59 54 80 55 47 56 31 57
REMARK SMILES IDX 32 58 40 59 33 60 39 61 41 62 38 63 34 64 35 65 36 66 37 67
REMARK SMILES IDX 63 68 64 69 72 70 65 71 71 72 73 73 70 74 66 75 67 76 68 77
REMARK SMILES IDX 69 78 48 79 49 80 57 81 50 82 56 83 58 84 55 85 51 86 52 87
REMARK SMILES IDX 53 88 54 89
REMARK H PARENT 14 6 8 18 19 23 78 42 46 53
REMARK Flexibility Score: inf
ROOT
ATOM      1  C   UNL A   1      34.614  22.201  24.640  1.00  0.00     0.023 C 
ENDROOT
BRANCH   1   2
ATOM      2  C   UNL A   1      34.902  23.531  23.951  1.00  0.00     0.116 C 
BRANCH   2   3
ATOM      3  N   UNL A   1      34.725  24.666  24.841  1.00  0.00    -0.356 N 
ATOM      4  C   UNL A   1      33.863  25.719  24.850  1.00  0.00     0.226 C 
ATOM      5  O   UNL A   1      34.039  26.544  25.753  1.00  0.00    -0.274 OA
ATOM      6  H   UNL A   1      35.359  24.675  25.593  1.00  0.00     0.163 HD
BRANCH   4   7
ATOM      7  C   UNL A   1      32.772  25.930  23.770  1.00  0.00     0.051 C 
BRANCH   7   8
ATOM      8  C   UNL A   1      31.823  24.674  23.741  1.00  0.00     0.013 C 
ATOM      9  C   UNL A   1      30.325  24.940  23.614  1.00  0.00     0.005 C 
ENDBRANCH   7   8
BRANCH   7  10
ATOM     10  C   UNL A   1      33.434  26.090  22.364  1.00  0.00     0.013 C 
ATOM     11  C   UNL A   1      32.884  25.176  21.274  1.00  0.00     0.005 C 
ENDBRANCH   7  10
BRANCH   7  12
ATOM     12  C   UNL A   1      31.918  27.189  24.155  1.00  0.00     0.051 C 
BRANCH  12  13
ATOM     13  C   UNL A   1      31.791  28.309  23.096  1.00  0.00     0.141 C 
BRANCH  13  14
ATOM     14  C   UNL A   1      30.356  28.878  23.097  1.00  0.00     0.191 C 
BRANCH  14  15
ATOM     15  O   UNL A   1      30.148  29.918  22.135  1.00  0.00    -0.382 OA
ATOM     16  C   UNL A   1      28.784  30.081  21.761  1.00  0.00     0.195 C 
ENDBRANCH  14  15
ENDBRANCH  13  14
BRANCH  13  17
ATOM     17  O   UNL A   1      32.704  29.359  23.410  1.00  0.00    -0.391 OA
ATOM     18  H   UNL A   1      32.390  29.836  24.194  1.00  0.00     0.211 HD
ENDBRANCH  13  17
ENDBRANCH  12  13
ENDBRANCH   7  12
ENDBRANCH   4   7
ENDBRANCH   2   3
ENDBRANCH   1   2
BRANCH   1  19
ATOM     19  C   UNL A   1      35.757  21.647  25.491  1.00  0.00     0.023 C 
BRANCH  19  20
ATOM     20  C   UNL A   1      37.151  21.760  24.882  1.00  0.00     0.116 C 
BRANCH  20  21
ATOM     21  N   UNL A   1      38.068  20.731  25.346  1.00  0.00    -0.352 N 
ATOM     22  C   UNL A   1      39.249  20.868  26.037  1.00  0.00     0.251 C 
ATOM     23  H   UNL A   1      37.808  19.805  25.135  1.00  0.00     0.163 HD
ATOM     24  O   UNL A   1      39.949  19.880  26.247  1.00  0.00    -0.269 OA
BRANCH  22  25
ATOM     25  C   UNL A   1      39.688  22.207  26.487  1.00  0.00     0.039 A 
ATOM     26  C   UNL A   1      40.779  22.303  27.355  1.00  0.00     0.014 A 
ATOM     27  C   UNL A   1      39.047  23.363  26.034  1.00  0.00     0.014 A 
ATOM     28  C   UNL A   1      41.277  23.561  27.703  1.00  0.00     0.010 A 
ATOM     29  C   UNL A   1      39.587  24.613  26.327  1.00  0.00     0.010 A 
ATOM     30  C   UNL A   1      40.712  24.725  27.159  1.00  0.00    -0.014 A 
BRANCH  30  31
ATOM     31  C   UNL A   1      41.285  26.068  27.439  1.00  0.00     0.031 A 
ATOM     32  C   UNL A   1      42.654  26.423  26.927  1.00  0.00     0.074 A 
ATOM     33  C   UNL A   1      40.606  26.936  28.214  1.00  0.00     0.049 A 
ATOM     34  N   UNL A   1      43.366  27.500  27.142  1.00  0.00    -0.248 NA
ATOM     35  C   UNL A   1      43.325  25.417  26.090  1.00  0.00     0.031 C 
ATOM     36  C   UNL A   1      39.287  26.691  28.804  1.00  0.00     0.029 A 
ATOM     37  N   UNL A   1      40.933  28.195  28.652  1.00  0.00    -0.354 N 
ATOM     38  C   UNL A   1      44.574  27.295  26.484  1.00  0.00     0.074 A 
ATOM     39  C   UNL A   1      44.517  25.967  25.910  1.00  0.00     0.031 C 
ATOM     40  C   UNL A   1      38.911  27.771  29.507  1.00  0.00     0.029 A 
ATOM     41  C   UNL A   1      39.974  28.769  29.457  1.00  0.00     0.049 A 
ATOM     42  H   UNL A   1      41.775  28.646  28.413  1.00  0.00     0.167 HD
ATOM     43  C   UNL A   1      45.625  28.143  26.353  1.00  0.00     0.034 A 
ATOM     44  C   UNL A   1      39.960  29.957  30.092  1.00  0.00     0.034 A 
ATOM     45  C   UNL A   1      45.657  29.472  26.915  1.00  0.00     0.049 A 
ATOM     46  C   UNL A   1      41.145  30.877  29.942  1.00  0.00     0.074 A 
ATOM     47  C   UNL A   1      46.642  30.437  26.788  1.00  0.00     0.029 A 
ATOM     48  N   UNL A   1      44.664  30.022  27.716  1.00  0.00    -0.354 N 
ATOM     49  N   UNL A   1      42.258  30.690  29.271  1.00  0.00    -0.248 NA
ATOM     50  C   UNL A   1      41.065  32.175  30.625  1.00  0.00     0.031 C 
ATOM     51  C   UNL A   1      46.273  31.545  27.561  1.00  0.00     0.029 A 
ATOM     52  C   UNL A   1      45.026  31.301  28.113  1.00  0.00     0.049 A 
ATOM     53  H   UNL A   1      43.827  29.570  27.965  1.00  0.00     0.167 HD
ATOM     54  C   UNL A   1      42.996  31.859  29.427  1.00  0.00     0.074 A 
ATOM     55  C   UNL A   1      42.196  32.750  30.244  1.00  0.00     0.031 C 
ATOM     56  C   UNL A   1      44.221  32.173  28.935  1.00  0.00     0.034 A 
BRANCH  43  57
ATOM     57  C   UNL A   1      46.830  27.643  25.595  1.00  0.00     0.023 A 
ATOM     58  C   UNL A   1      47.082  28.031  24.267  1.00  0.00     0.031 A 
ATOM     59  C   UNL A   1      47.727  26.742  26.197  1.00  0.00     0.131 A 
ATOM     60  C   UNL A   1      48.153  27.463  23.562  1.00  0.00     0.055 A 
ATOM     61  C   UNL A   1      48.839  26.243  25.516  1.00  0.00     0.041 A 
ATOM     62  F   UNL A   1      47.529  26.319  27.456  1.00  0.00    -0.206 F 
ATOM     63  C   UNL A   1      49.048  26.590  24.184  1.00  0.00     0.022 A 
BRANCH  60  64
ATOM     64  S   UNL A   1      48.274  27.770  21.777  1.00  0.00     0.124 S 
ATOM     65  O   UNL A   1      46.951  28.318  21.484  1.00  0.00    -0.237 OA
ATOM     66  O   UNL A   1      49.387  28.707  21.693  1.00  0.00    -0.237 OA
ATOM     67  O   UNL A   1      48.529  26.444  21.218  1.00  0.00    -0.744 OA
ENDBRANCH  60  64
ENDBRANCH  43  57
BRANCH  44  68
ATOM     68  C   UNL A   1      38.796  30.352  30.936  1.00  0.00     0.023 A 
ATOM     69  C   UNL A   1      37.707  31.043  30.383  1.00  0.00     0.031 A 
ATOM     70  C   UNL A   1      38.777  30.085  32.316  1.00  0.00     0.131 A 
ATOM     71  C   UNL A   1      36.666  31.487  31.212  1.00  0.00     0.055 A 
ATOM     72  C   UNL A   1      37.714  30.485  33.130  1.00  0.00     0.041 A 
ATOM     73  F   UNL A   1      39.790  29.422  32.895  1.00  0.00    -0.206 F 
ATOM     74  C   UNL A   1      36.657  31.203  32.580  1.00  0.00     0.022 A 
BRANCH  71  75
ATOM     75  S   UNL A   1      35.361  32.519  30.489  1.00  0.00     0.124 S 
ATOM     76  O   UNL A   1      35.004  31.756  29.299  1.00  0.00    -0.237 OA
ATOM     77  O   UNL A   1      34.369  32.543  31.559  1.00  0.00    -0.237 OA
ATOM     78  O   UNL A   1      36.034  33.791  30.237  1.00  0.00    -0.744 OA
ENDBRANCH  71  75
ENDBRANCH  44  68
BRANCH  56  79
ATOM     79  C   UNL A   1      44.743  33.558  29.231  1.00  0.00     0.023 A 
ATOM     80  C   UNL A   1      44.505  34.640  28.367  1.00  0.00     0.031 A 
ATOM     81  C   UNL A   1      45.503  33.790  30.392  1.00  0.00     0.131 A 
ATOM     82  C   UNL A   1      45.068  35.894  28.647  1.00  0.00     0.055 A 
ATOM     83  C   UNL A   1      46.012  35.053  30.696  1.00  0.00     0.041 A 
ATOM     84  F   UNL A   1      45.761  32.791  31.251  1.00  0.00    -0.206 F 
ATOM     85  C   UNL A   1      45.806  36.111  29.814  1.00  0.00     0.022 A 
BRANCH  82  86
ATOM     86  S   UNL A   1      44.894  37.221  27.424  1.00  0.00     0.124 S 
ATOM     87  O   UNL A   1      45.976  36.920  26.493  1.00  0.00    -0.237 OA
ATOM     88  O   UNL A   1      43.542  37.006  26.920  1.00  0.00    -0.237 OA
ATOM     89  O   UNL A   1      45.074  38.440  28.211  1.00  0.00    -0.744 OA
ENDBRANCH  82  86
ENDBRANCH  56  79
ENDBRANCH  30  31
ENDBRANCH  22  25
ENDBRANCH  20  21
ENDBRANCH  19  20
ENDBRANCH   1  19
TORSDOF 21
ENDMDL
MODEL 2
REMARK VINA RESULT:      -9.8      2.357      8.459
REMARK SMILES CCC(CC)(C[C@H](O)COC)C(=O)NCCCCNC(=O)c1ccc(-c2c3nc(c(-c4cc(S(=O)(=O)[O-])ccc4F)c4ccc([nH]4)c(-c4cc(S(=O)(=O)[O-])ccc4F)c4nc(c(-c5cc(S(=O)(=O)[O-])ccc5F)c5ccc2[nH]5)C=C4)C=C3)cc1
REMARK SMILES IDX 16 1 15 2 14 3 12 4 13 5 3 7 2 8 1 9 4 10 5 11 6 12 7 13
REMARK SMILES IDX 9 14 10 15 11 16 8 17 17 19 18 20 19 21 20 22 21 24 22 25
REMARK SMILES IDX 23 26 84 27 24 28 83 29 25 30 26 31 27 32 77 33 28 34 82 35
REMARK SMILES IDX 76 36 78 37 29 38 81 39 75 40 74 41 30 43 62 44 42 45 61 46
REMARK SMILES IDX 43 47 46 48 60 49 79 50 44 51 45 52 59 54 80 55 47 56 31 57
REMARK SMILES IDX 32 58 40 59 33 60 39 61 41 62 38 63 34 64 35 65 36 66 37 67
REMARK SMILES IDX 63 68 64 69 72 70 65 71 71 72 73 73 70 74 66 75 67 76 68 77
REMARK SMILES IDX 69 78 48 79 49 80 57 81 50 82 56 83 58 84 55 85 51 86 52 87
REMARK SMILES IDX 53 88 54 89
REMARK H PARENT 14 6 8 18 19 23 78 42 46 53
REMARK Flexibility Score: inf
ROOT
ATOM      1  C   UNL A   1      37.260  20.671  24.879  1.00  0.00     0.023 C 
ENDROOT
BRANCH   1   2
ATOM      2  C   UNL A   1      35.810  20.206  24.963  1.00  0.00     0.116 C 
BRANCH   2   3
ATOM      3  N   UNL A   1      35.107  20.782  26.097  1.00  0.00    -0.356 N 
ATOM      4  C   UNL A   1      34.011  21.581  26.207  1.00  0.00     0.226 C 
ATOM      5  O   UNL A   1      33.720  21.929  27.357  1.00  0.00    -0.274 OA
ATOM      6  H   UNL A   1      35.506  20.545  26.965  1.00  0.00     0.163 HD
BRANCH   4   7
ATOM      7  C   UNL A   1      33.210  22.094  24.984  1.00  0.00     0.051 C 
BRANCH   7   8
ATOM      8  C   UNL A   1      34.201  22.344  23.786  1.00  0.00     0.013 C 
ATOM      9  C   UNL A   1      34.852  23.723  23.702  1.00  0.00     0.005 C 
ENDBRANCH   7   8
BRANCH   7  10
ATOM     10  C   UNL A   1      32.500  23.440  25.336  1.00  0.00     0.013 C 
ATOM     11  C   UNL A   1      31.031  23.529  24.934  1.00  0.00     0.005 C 
ENDBRANCH   7  10
BRANCH   7  12
ATOM     12  C   UNL A   1      32.181  20.989  24.556  1.00  0.00     0.051 C 
BRANCH  12  13
ATOM     13  C   UNL A   1      32.662  19.930  23.537  1.00  0.00     0.141 C 
BRANCH  13  14
ATOM     14  C   UNL A   1      32.575  18.520  24.158  1.00  0.00     0.191 C 
BRANCH  14  15
ATOM     15  O   UNL A   1      33.411  17.553  23.512  1.00  0.00    -0.382 OA
ATOM     16  C   UNL A   1      33.410  16.283  24.153  1.00  0.00     0.195 C 
ENDBRANCH  14  15
ENDBRANCH  13  14
BRANCH  13  17
ATOM     17  O   UNL A   1      31.829  19.978  22.381  1.00  0.00    -0.391 OA
ATOM     18  H   UNL A   1      30.978  20.380  22.612  1.00  0.00     0.211 HD
ENDBRANCH  13  17
ENDBRANCH  12  13
ENDBRANCH   7  12
ENDBRANCH   4   7
ENDBRANCH   2   3
ENDBRANCH   1   2
BRANCH   1  19
ATOM     19  C   UNL A   1      38.308  19.563  24.989  1.00  0.00     0.023 C 
BRANCH  19  20
ATOM     20  C   UNL A   1      39.230  19.642  26.201  1.00  0.00     0.116 C 
BRANCH  20  21
ATOM     21  N   UNL A   1      40.496  18.950  26.008  1.00  0.00    -0.352 N 
ATOM     22  C   UNL A   1      41.774  19.455  26.045  1.00  0.00     0.251 C 
ATOM     23  H   UNL A   1      40.428  17.986  25.823  1.00  0.00     0.163 HD
ATOM     24  O   UNL A   1      42.723  18.733  25.746  1.00  0.00    -0.269 OA
BRANCH  22  25
ATOM     25  C   UNL A   1      41.998  20.872  26.406  1.00  0.00     0.039 A 
ATOM     26  C   UNL A   1      42.318  21.189  27.728  1.00  0.00     0.014 A 
ATOM     27  C   UNL A   1      41.920  21.880  25.441  1.00  0.00     0.014 A 
ATOM     28  C   UNL A   1      42.641  22.506  28.065  1.00  0.00     0.010 A 
ATOM     29  C   UNL A   1      42.309  23.178  25.764  1.00  0.00     0.010 A 
ATOM     30  C   UNL A   1      42.680  23.503  27.077  1.00  0.00    -0.014 A 
BRANCH  30  31
ATOM     31  C   UNL A   1      43.114  24.890  27.394  1.00  0.00     0.031 A 
ATOM     32  C   UNL A   1      42.158  25.846  28.053  1.00  0.00     0.074 A 
ATOM     33  C   UNL A   1      44.340  25.308  27.021  1.00  0.00     0.049 A 
ATOM     34  N   UNL A   1      42.312  27.117  28.324  1.00  0.00    -0.248 NA
ATOM     35  C   UNL A   1      40.841  25.307  28.425  1.00  0.00     0.031 C 
ATOM     36  C   UNL A   1      45.342  24.486  26.338  1.00  0.00     0.029 A 
ATOM     37  N   UNL A   1      44.950  26.530  27.151  1.00  0.00    -0.354 N 
ATOM     38  C   UNL A   1      41.107  27.535  28.881  1.00  0.00     0.074 A 
ATOM     39  C   UNL A   1      40.217  26.393  28.856  1.00  0.00     0.031 C 
ATOM     40  C   UNL A   1      46.447  25.220  26.129  1.00  0.00     0.029 A 
ATOM     41  C   UNL A   1      46.220  26.575  26.621  1.00  0.00     0.049 A 
ATOM     42  H   UNL A   1      44.520  27.303  27.584  1.00  0.00     0.167 HD
ATOM     43  C   UNL A   1      40.781  28.751  29.385  1.00  0.00     0.034 A 
ATOM     44  C   UNL A   1      47.096  27.595  26.531  1.00  0.00     0.034 A 
ATOM     45  C   UNL A   1      41.688  29.874  29.421  1.00  0.00     0.049 A 
ATOM     46  C   UNL A   1      46.706  28.941  27.087  1.00  0.00     0.074 A 
ATOM     47  C   UNL A   1      41.484  31.129  29.967  1.00  0.00     0.029 A 
ATOM     48  N   UNL A   1      42.970  29.879  28.884  1.00  0.00    -0.354 N 
ATOM     49  N   UNL A   1      45.582  29.306  27.658  1.00  0.00    -0.248 NA
ATOM     50  C   UNL A   1      47.710  30.011  26.995  1.00  0.00     0.031 C 
ATOM     51  C   UNL A   1      42.616  31.911  29.706  1.00  0.00     0.029 A 
ATOM     52  C   UNL A   1      43.555  31.124  29.060  1.00  0.00     0.049 A 
ATOM     53  H   UNL A   1      43.399  29.111  28.442  1.00  0.00     0.167 HD
ATOM     54  C   UNL A   1      45.757  30.638  28.023  1.00  0.00     0.074 A 
ATOM     55  C   UNL A   1      47.098  31.007  27.617  1.00  0.00     0.031 C 
ATOM     56  C   UNL A   1      44.890  31.479  28.642  1.00  0.00     0.034 A 
BRANCH  43  57
ATOM     57  C   UNL A   1      39.379  28.931  29.912  1.00  0.00     0.023 A 
ATOM     58  C   UNL A   1      38.352  29.467  29.114  1.00  0.00     0.031 A 
ATOM     59  C   UNL A   1      39.067  28.589  31.240  1.00  0.00     0.131 A 
ATOM     60  C   UNL A   1      37.089  29.718  29.671  1.00  0.00     0.055 A 
ATOM     61  C   UNL A   1      37.785  28.764  31.765  1.00  0.00     0.041 A 
ATOM     62  F   UNL A   1      40.009  28.091  32.056  1.00  0.00    -0.206 F 
ATOM     63  C   UNL A   1      36.790  29.347  30.984  1.00  0.00     0.022 A 
BRANCH  60  64
ATOM     64  S   UNL A   1      35.887  30.667  28.698  1.00  0.00     0.124 S 
ATOM     65  O   UNL A   1      35.033  29.604  28.170  1.00  0.00    -0.237 OA
ATOM     66  O   UNL A   1      35.282  31.533  29.703  1.00  0.00    -0.237 OA
ATOM     67  O   UNL A   1      36.712  31.346  27.702  1.00  0.00    -0.744 OA
ENDBRANCH  60  64
ENDBRANCH  43  57
BRANCH  44  68
ATOM     68  C   UNL A   1      48.425  27.398  25.884  1.00  0.00     0.023 A 
ATOM     69  C   UNL A   1      48.579  27.537  24.496  1.00  0.00     0.031 A 
ATOM     70  C   UNL A   1      49.550  27.020  26.638  1.00  0.00     0.131 A 
ATOM     71  C   UNL A   1      49.816  27.255  23.897  1.00  0.00     0.055 A 
ATOM     72  C   UNL A   1      50.793  26.790  26.044  1.00  0.00     0.041 A 
ATOM     73  F   UNL A   1      49.459  26.879  27.970  1.00  0.00    -0.206 F 
ATOM     74  C   UNL A   1      50.927  26.894  24.663  1.00  0.00     0.022 A 
BRANCH  71  75
ATOM     75  S   UNL A   1      49.930  27.286  22.087  1.00  0.00     0.124 S 
ATOM     76  O   UNL A   1      51.313  26.880  21.870  1.00  0.00    -0.237 OA
ATOM     77  O   UNL A   1      48.908  26.317  21.704  1.00  0.00    -0.237 OA
ATOM     78  O   UNL A   1      49.626  28.675  21.751  1.00  0.00    -0.744 OA
ENDBRANCH  71  75
ENDBRANCH  44  68
BRANCH  56  79
ATOM     79  C   UNL A   1      45.393  32.866  28.959  1.00  0.00     0.023 A 
ATOM     80  C   UNL A   1      45.106  33.966  28.132  1.00  0.00     0.031 A 
ATOM     81  C   UNL A   1      46.184  33.084  30.102  1.00  0.00     0.131 A 
ATOM     82  C   UNL A   1      45.651  35.223  28.429  1.00  0.00     0.055 A 
ATOM     83  C   UNL A   1      46.676  34.349  30.424  1.00  0.00     0.041 A 
ATOM     84  F   UNL A   1      46.489  32.068  30.925  1.00  0.00    -0.206 F 
ATOM     85  C   UNL A   1      46.421  35.425  29.578  1.00  0.00     0.022 A 
BRANCH  82  86
ATOM     86  S   UNL A   1      45.412  36.578  27.248  1.00  0.00     0.124 S 
ATOM     87  O   UNL A   1      45.617  37.753  28.088  1.00  0.00    -0.237 OA
ATOM     88  O   UNL A   1      46.449  36.316  26.256  1.00  0.00    -0.237 OA
ATOM     89  O   UNL A   1      44.042  36.385  26.776  1.00  0.00    -0.744 OA
ENDBRANCH  82  86
ENDBRANCH  56  79
ENDBRANCH  30  31
ENDBRANCH  22  25
ENDBRANCH  20  21
ENDBRANCH  19  20
ENDBRANCH   1  19
TORSDOF 21
ENDMDL
MODEL 3
REMARK VINA RESULT:      -9.8      4.629      7.215
REMARK SMILES CCC(CC)(C[C@H](O)COC)C(=O)NCCCCNC(=O)c1ccc(-c2c3nc(c(-c4cc(S(=O)(=O)[O-])ccc4F)c4ccc([nH]4)c(-c4cc(S(=O)(=O)[O-])ccc4F)c4nc(c(-c5cc(S(=O)(=O)[O-])ccc5F)c5ccc2[nH]5)C=C4)C=C3)cc1
REMARK SMILES IDX 16 1 15 2 14 3 12 4 13 5 3 7 2 8 1 9 4 10 5 11 6 12 7 13
REMARK SMILES IDX 9 14 10 15 11 16 8 17 17 19 18 20 19 21 20 22 21 24 22 25
REMARK SMILES IDX 23 26 84 27 24 28 83 29 25 30 26 31 27 32 77 33 28 34 82 35
REMARK SMILES IDX 76 36 78 37 29 38 81 39 75 40 74 41 30 43 62 44 42 45 61 46
REMARK SMILES IDX 43 47 46 48 60 49 79 50 44 51 45 52 59 54 80 55 47 56 31 57
REMARK SMILES IDX 32 58 40 59 33 60 39 61 41 62 38 63 34 64 35 65 36 66 37 67
REMARK SMILES IDX 63 68 64 69 72 70 65 71 71 72 73 73 70 74 66 75 67 76 68 77
REMARK SMILES IDX 69 78 48 79 49 80 57 81 50 82 56 83 58 84 55 85 51 86 52 87
REMARK SMILES IDX 53 88 54 89
REMARK H PARENT 14 6 8 18 19 23 78 42 46 53
REMARK Flexibility Score: inf
ROOT
ATOM      1  C   UNL A   1      33.921  26.346  24.337  1.00  0.00     0.023 C 
ENDROOT
BRANCH   1   2
ATOM      2  C   UNL A   1      33.896  25.096  25.211  1.00  0.00     0.116 C 
BRANCH   2   3
ATOM      3  N   UNL A   1      34.814  24.072  24.741  1.00  0.00    -0.356 N 
ATOM      4  C   UNL A   1      34.725  22.718  24.634  1.00  0.00     0.226 C 
ATOM      5  O   UNL A   1      35.745  22.148  24.231  1.00  0.00    -0.274 OA
ATOM      6  H   UNL A   1      35.677  24.432  24.436  1.00  0.00     0.163 HD
BRANCH   4   7
ATOM      7  C   UNL A   1      33.468  21.915  25.053  1.00  0.00     0.051 C 
BRANCH   7   8
ATOM      8  C   UNL A   1      32.302  22.217  24.039  1.00  0.00     0.013 C 
ATOM      9  C   UNL A   1      32.701  22.536  22.600  1.00  0.00     0.005 C 
ENDBRANCH   7   8
BRANCH   7  10
ATOM     10  C   UNL A   1      33.012  22.343  26.484  1.00  0.00     0.013 C 
ATOM     11  C   UNL A   1      33.994  22.024  27.607  1.00  0.00     0.005 C 
ENDBRANCH   7  10
BRANCH   7  12
ATOM     12  C   UNL A   1      33.802  20.383  24.984  1.00  0.00     0.051 C 
BRANCH  12  13
ATOM     13  C   UNL A   1      32.651  19.394  25.282  1.00  0.00     0.141 C 
BRANCH  13  14
ATOM     14  C   UNL A   1      32.565  18.332  24.165  1.00  0.00     0.191 C 
BRANCH  14  15
ATOM     15  O   UNL A   1      33.465  17.233  24.345  1.00  0.00    -0.382 OA
ATOM     16  C   UNL A   1      34.023  16.751  23.127  1.00  0.00     0.195 C 
ENDBRANCH  14  15
ENDBRANCH  13  14
BRANCH  13  17
ATOM     17  O   UNL A   1      32.903  18.739  26.523  1.00  0.00    -0.391 OA
ATOM     18  H   UNL A   1      33.852  18.559  26.607  1.00  0.00     0.211 HD
ENDBRANCH  13  17
ENDBRANCH  12  13
ENDBRANCH   7  12
ENDBRANCH   4   7
ENDBRANCH   2   3
ENDBRANCH   1   2
BRANCH   1  19
ATOM     19  C   UNL A   1      33.097  27.523  24.859  1.00  0.00     0.023 C 
BRANCH  19  20
ATOM     20  C   UNL A   1      33.891  28.760  25.265  1.00  0.00     0.116 C 
BRANCH  20  21
ATOM     21  N   UNL A   1      33.051  29.889  25.634  1.00  0.00    -0.352 N 
ATOM     22  C   UNL A   1      33.206  30.785  26.666  1.00  0.00     0.251 C 
ATOM     23  H   UNL A   1      32.260  30.033  25.066  1.00  0.00     0.163 HD
ATOM     24  O   UNL A   1      32.326  31.613  26.890  1.00  0.00    -0.269 OA
BRANCH  22  25
ATOM     25  C   UNL A   1      34.409  30.720  27.524  1.00  0.00     0.039 A 
ATOM     26  C   UNL A   1      34.682  29.538  28.215  1.00  0.00     0.014 A 
ATOM     27  C   UNL A   1      35.279  31.809  27.624  1.00  0.00     0.014 A 
ATOM     28  C   UNL A   1      35.870  29.419  28.942  1.00  0.00     0.010 A 
ATOM     29  C   UNL A   1      36.494  31.665  28.291  1.00  0.00     0.010 A 
ATOM     30  C   UNL A   1      36.805  30.467  28.951  1.00  0.00    -0.014 A 
BRANCH  30  31
ATOM     31  C   UNL A   1      38.117  30.327  29.636  1.00  0.00     0.031 A 
ATOM     32  C   UNL A   1      39.201  29.484  29.023  1.00  0.00     0.074 A 
ATOM     33  C   UNL A   1      38.304  30.898  30.843  1.00  0.00     0.049 A 
ATOM     34  N   UNL A   1      40.373  29.162  29.506  1.00  0.00    -0.248 NA
ATOM     35  C   UNL A   1      38.912  28.899  27.706  1.00  0.00     0.031 C 
ATOM     36  C   UNL A   1      37.313  31.705  31.560  1.00  0.00     0.029 A 
ATOM     37  N   UNL A   1      39.385  30.877  31.689  1.00  0.00    -0.354 N 
ATOM     38  C   UNL A   1      40.955  28.322  28.562  1.00  0.00     0.074 A 
ATOM     39  C   UNL A   1      39.981  28.142  27.506  1.00  0.00     0.031 C 
ATOM     40  C   UNL A   1      37.840  32.118  32.724  1.00  0.00     0.029 A 
ATOM     41  C   UNL A   1      39.187  31.573  32.860  1.00  0.00     0.049 A 
ATOM     42  H   UNL A   1      40.225  30.409  31.476  1.00  0.00     0.167 HD
ATOM     43  C   UNL A   1      42.194  27.768  28.566  1.00  0.00     0.034 A 
ATOM     44  C   UNL A   1      39.993  31.741  33.926  1.00  0.00     0.034 A 
ATOM     45  C   UNL A   1      43.161  27.974  29.618  1.00  0.00     0.049 A 
ATOM     46  C   UNL A   1      41.360  31.106  33.913  1.00  0.00     0.074 A 
ATOM     47  C   UNL A   1      44.465  27.516  29.691  1.00  0.00     0.029 A 
ATOM     48  N   UNL A   1      42.928  28.693  30.784  1.00  0.00    -0.354 N 
ATOM     49  N   UNL A   1      41.916  30.358  32.988  1.00  0.00    -0.248 NA
ATOM     50  C   UNL A   1      42.214  31.349  35.084  1.00  0.00     0.031 C 
ATOM     51  C   UNL A   1      44.999  27.904  30.926  1.00  0.00     0.029 A 
ATOM     52  C   UNL A   1      44.053  28.665  31.594  1.00  0.00     0.049 A 
ATOM     53  H   UNL A   1      42.086  29.153  31.003  1.00  0.00     0.167 HD
ATOM     54  C   UNL A   1      43.195  30.068  33.453  1.00  0.00     0.074 A 
ATOM     55  C   UNL A   1      43.332  30.732  34.734  1.00  0.00     0.031 C 
ATOM     56  C   UNL A   1      44.171  29.325  32.872  1.00  0.00     0.034 A 
BRANCH  43  57
ATOM     57  C   UNL A   1      42.556  26.869  27.410  1.00  0.00     0.023 A 
ATOM     58  C   UNL A   1      42.367  25.477  27.467  1.00  0.00     0.031 A 
ATOM     59  C   UNL A   1      43.125  27.406  26.241  1.00  0.00     0.131 A 
ATOM     60  C   UNL A   1      42.814  24.664  26.415  1.00  0.00     0.055 A 
ATOM     61  C   UNL A   1      43.492  26.600  25.162  1.00  0.00     0.041 A 
ATOM     62  F   UNL A   1      43.348  28.726  26.134  1.00  0.00    -0.206 F 
ATOM     63  C   UNL A   1      43.353  25.217  25.251  1.00  0.00     0.022 A 
BRANCH  60  64
ATOM     64  S   UNL A   1      42.812  22.865  26.650  1.00  0.00     0.124 S 
ATOM     65  O   UNL A   1      42.279  22.402  25.370  1.00  0.00    -0.237 OA
ATOM     66  O   UNL A   1      44.221  22.578  26.897  1.00  0.00    -0.237 OA
ATOM     67  O   UNL A   1      41.924  22.670  27.794  1.00  0.00    -0.744 OA
ENDBRANCH  60  64
ENDBRANCH  43  57
BRANCH  44  68
ATOM     68  C   UNL A   1      39.537  32.536  35.103  1.00  0.00     0.023 A 
ATOM     69  C   UNL A   1      38.889  31.916  36.183  1.00  0.00     0.031 A 
ATOM     70  C   UNL A   1      39.701  33.931  35.144  1.00  0.00     0.131 A 
ATOM     71  C   UNL A   1      38.385  32.694  37.236  1.00  0.00     0.055 A 
ATOM     72  C   UNL A   1      39.243  34.696  36.219  1.00  0.00     0.041 A 
ATOM     73  F   UNL A   1      40.320  34.573  34.140  1.00  0.00    -0.206 F 
ATOM     74  C   UNL A   1      38.568  34.079  37.267  1.00  0.00     0.022 A 
BRANCH  71  75
ATOM     75  S   UNL A   1      37.409  31.877  38.528  1.00  0.00     0.124 S 
ATOM     76  O   UNL A   1      36.197  32.687  38.543  1.00  0.00    -0.237 OA
ATOM     77  O   UNL A   1      37.272  30.526  37.993  1.00  0.00    -0.237 OA
ATOM     78  O   UNL A   1      38.253  31.992  39.715  1.00  0.00    -0.744 OA
ENDBRANCH  71  75
ENDBRANCH  44  68
BRANCH  56  79
ATOM     79  C   UNL A   1      45.489  29.238  33.602  1.00  0.00     0.023 A 
ATOM     80  C   UNL A   1      46.518  30.171  33.388  1.00  0.00     0.031 A 
ATOM     81  C   UNL A   1      45.720  28.194  34.515  1.00  0.00     0.131 A 
ATOM     82  C   UNL A   1      47.752  30.011  34.037  1.00  0.00     0.055 A 
ATOM     83  C   UNL A   1      46.929  28.072  35.202  1.00  0.00     0.041 A 
ATOM     84  F   UNL A   1      44.772  27.274  34.756  1.00  0.00    -0.206 F 
ATOM     85  C   UNL A   1      47.957  28.977  34.954  1.00  0.00     0.022 A 
BRANCH  82  86
ATOM     86  S   UNL A   1      49.116  31.124  33.603  1.00  0.00     0.124 S 
ATOM     87  O   UNL A   1      48.841  32.283  34.447  1.00  0.00    -0.237 OA
ATOM     88  O   UNL A   1      50.290  30.336  33.966  1.00  0.00    -0.237 OA
ATOM     89  O   UNL A   1      48.938  31.345  32.169  1.00  0.00    -0.744 OA
ENDBRANCH  82  86
ENDBRANCH  56  79
ENDBRANCH  30  31
ENDBRANCH  22  25
ENDBRANCH  20  21
ENDBRANCH  19  20
ENDBRANCH   1  19
TORSDOF 21
ENDMDL
