MODEL 1
REMARK VINA RESULT:     -10.4      0.000      0.000
REMARK SMILES [NH3+][C@@H](C(=O)NCCCCNC(=O)c1ccc(-c2c3nc(c(-c4cc(S(=O)(=O)[O-])ccc4F)c4ccc([nH]4)c(-c4cc(S(=O)(=O)[O-])ccc4F)c4nc(c(-c5cc(S(=O)(=O)[O-])ccc5F)c5ccc2[nH]5)C=C4)C=C3)cc1)C(C(F)(F)F)C(F)(F)F
REMARK SMILES IDX 8 1 7 2 6 3 5 4 3 5 4 6 2 8 1 9 76 13 77 14 78 15 79 16
REMARK SMILES IDX 80 17 81 18 82 19 83 20 84 21 9 22 10 23 11 24 12 26 13 27
REMARK SMILES IDX 14 28 75 29 15 30 74 31 16 32 17 33 18 34 68 35 19 36 73 37
REMARK SMILES IDX 67 38 69 39 20 40 72 41 66 42 65 43 21 45 53 46 33 47 52 48
REMARK SMILES IDX 34 49 37 50 51 51 70 52 35 53 36 54 50 56 71 57 38 58 22 59
REMARK SMILES IDX 23 60 31 61 24 62 30 63 32 64 29 65 25 66 26 67 27 68 28 69
REMARK SMILES IDX 54 70 55 71 63 72 56 73 62 74 64 75 61 76 57 77 58 78 59 79
REMARK SMILES IDX 60 80 39 81 40 82 48 83 41 84 47 85 49 86 46 87 42 88 43 89
REMARK SMILES IDX 44 90 45 91
REMARK H PARENT 5 7 1 10 1 11 1 12 10 25 69 44 37 55
REMARK Flexibility Score: inf
ROOT
ATOM      1  C   UNL A   1      41.389  19.334  27.624  1.00  0.00     0.023 C 
ENDROOT
BRANCH   1   2
ATOM      2  C   UNL A   1      42.683  18.516  27.581  1.00  0.00     0.023 C 
BRANCH   2   3
ATOM      3  C   UNL A   1      43.143  18.119  26.176  1.00  0.00     0.116 C 
BRANCH   3   4
ATOM      4  N   UNL A   1      44.589  18.201  26.057  1.00  0.00    -0.351 N 
ATOM      5  C   UNL A   1      45.359  19.155  25.460  1.00  0.00     0.279 C 
ATOM      6  O   UNL A   1      46.543  18.908  25.235  1.00  0.00    -0.268 OA
ATOM      7  H   UNL A   1      45.086  17.458  26.468  1.00  0.00     0.163 HD
BRANCH   5   8
ATOM      8  C   UNL A   1      44.715  20.481  24.998  1.00  0.00     0.292 C 
BRANCH   8   9
ATOM      9  N   UNL A   1      44.952  20.587  23.541  1.00  0.00    -0.346 N 
ATOM     10  H   UNL A   1      44.759  21.541  23.235  1.00  0.00     0.345 HD
ATOM     11  H   UNL A   1      44.338  19.940  23.049  1.00  0.00     0.345 HD
ATOM     12  H   UNL A   1      45.924  20.354  23.338  1.00  0.00     0.345 HD
ENDBRANCH   8   9
BRANCH   8  13
ATOM     13  C   UNL A   1      45.309  21.681  25.755  1.00  0.00     0.267 C 
BRANCH  13  14
ATOM     14  C   UNL A   1      45.925  22.681  24.819  1.00  0.00     0.406 C 
ATOM     15  F   UNL A   1      46.863  22.127  24.020  1.00  0.00    -0.170 F 
ATOM     16  F   UNL A   1      45.001  23.255  24.016  1.00  0.00    -0.170 F 
ATOM     17  F   UNL A   1      46.514  23.705  25.476  1.00  0.00    -0.170 F 
ENDBRANCH  13  14
BRANCH  13  18
ATOM     18  C   UNL A   1      44.232  22.441  26.483  1.00  0.00     0.406 C 
ATOM     19  F   UNL A   1      43.247  22.864  25.665  1.00  0.00    -0.170 F 
ATOM     20  F   UNL A   1      43.631  21.686  27.429  1.00  0.00    -0.170 F 
ATOM     21  F   UNL A   1      44.720  23.544  27.092  1.00  0.00    -0.170 F 
ENDBRANCH  13  18
ENDBRANCH   8  13
ENDBRANCH   5   8
ENDBRANCH   3   4
ENDBRANCH   2   3
ENDBRANCH   1   2
BRANCH   1  22
ATOM     22  C   UNL A   1      41.152  20.242  26.422  1.00  0.00     0.116 C 
BRANCH  22  23
ATOM     23  N   UNL A   1      39.754  20.302  26.027  1.00  0.00    -0.352 N 
ATOM     24  C   UNL A   1      38.885  21.364  26.092  1.00  0.00     0.251 C 
ATOM     25  H   UNL A   1      39.379  19.467  25.663  1.00  0.00     0.163 HD
ATOM     26  O   UNL A   1      37.695  21.194  25.843  1.00  0.00    -0.269 OA
BRANCH  24  27
ATOM     27  C   UNL A   1      39.384  22.695  26.503  1.00  0.00     0.039 A 
ATOM     28  C   UNL A   1      40.411  22.772  27.447  1.00  0.00     0.014 A 
ATOM     29  C   UNL A   1      38.857  23.861  25.939  1.00  0.00     0.014 A 
ATOM     30  C   UNL A   1      40.963  24.014  27.770  1.00  0.00     0.010 A 
ATOM     31  C   UNL A   1      39.451  25.090  26.214  1.00  0.00     0.010 A 
ATOM     32  C   UNL A   1      40.514  25.178  27.127  1.00  0.00    -0.014 A 
BRANCH  32  33
ATOM     33  C   UNL A   1      41.142  26.501  27.384  1.00  0.00     0.031 A 
ATOM     34  C   UNL A   1      42.516  26.796  26.850  1.00  0.00     0.074 A 
ATOM     35  C   UNL A   1      40.519  27.393  28.179  1.00  0.00     0.049 A 
ATOM     36  N   UNL A   1      43.289  27.827  27.073  1.00  0.00    -0.248 NA
ATOM     37  C   UNL A   1      43.110  25.773  25.977  1.00  0.00     0.031 C 
ATOM     38  C   UNL A   1      39.205  27.201  28.796  1.00  0.00     0.029 A 
ATOM     39  N   UNL A   1      40.918  28.627  28.628  1.00  0.00    -0.354 N 
ATOM     40  C   UNL A   1      44.472  27.569  26.387  1.00  0.00     0.074 A 
ATOM     41  C   UNL A   1      44.328  26.258  25.788  1.00  0.00     0.031 C 
ATOM     42  C   UNL A   1      38.907  28.279  29.540  1.00  0.00     0.029 A 
ATOM     43  C   UNL A   1      40.024  29.217  29.491  1.00  0.00     0.049 A 
ATOM     44  H   UNL A   1      41.765  29.051  28.358  1.00  0.00     0.167 HD
ATOM     45  C   UNL A   1      45.566  28.360  26.255  1.00  0.00     0.034 A 
ATOM     46  C   UNL A   1      40.103  30.371  30.184  1.00  0.00     0.034 A 
ATOM     47  C   UNL A   1      45.682  29.671  26.846  1.00  0.00     0.049 A 
ATOM     48  C   UNL A   1      41.330  31.232  30.032  1.00  0.00     0.074 A 
ATOM     49  C   UNL A   1      46.710  30.589  26.714  1.00  0.00     0.029 A 
ATOM     50  N   UNL A   1      44.743  30.249  27.692  1.00  0.00    -0.354 N 
ATOM     51  N   UNL A   1      42.415  31.003  29.329  1.00  0.00    -0.248 NA
ATOM     52  C   UNL A   1      41.338  32.510  30.755  1.00  0.00     0.031 C 
ATOM     53  C   UNL A   1      46.424  31.690  27.529  1.00  0.00     0.029 A 
ATOM     54  C   UNL A   1      45.184  31.494  28.116  1.00  0.00     0.049 A 
ATOM     55  H   UNL A   1      43.889  29.834  27.954  1.00  0.00     0.167 HD
ATOM     56  C   UNL A   1      43.225  32.122  29.507  1.00  0.00     0.074 A 
ATOM     57  C   UNL A   1      42.499  33.026  30.374  1.00  0.00     0.031 C 
ATOM     58  C   UNL A   1      44.454  32.380  28.992  1.00  0.00     0.034 A 
BRANCH  45  59
ATOM     59  C   UNL A   1      46.729  27.807  25.467  1.00  0.00     0.023 A 
ATOM     60  C   UNL A   1      46.986  28.213  24.146  1.00  0.00     0.031 A 
ATOM     61  C   UNL A   1      47.569  26.828  26.027  1.00  0.00     0.131 A 
ATOM     62  C   UNL A   1      47.994  27.581  23.401  1.00  0.00     0.055 A 
ATOM     63  C   UNL A   1      48.626  26.265  25.309  1.00  0.00     0.041 A 
ATOM     64  F   UNL A   1      47.365  26.386  27.278  1.00  0.00    -0.206 F 
ATOM     65  C   UNL A   1      48.832  26.626  23.981  1.00  0.00     0.022 A 
BRANCH  62  66
ATOM     66  S   UNL A   1      48.080  27.905  21.618  1.00  0.00     0.124 S 
ATOM     67  O   UNL A   1      46.762  28.478  21.357  1.00  0.00    -0.237 OA
ATOM     68  O   UNL A   1      49.208  28.824  21.520  1.00  0.00    -0.237 OA
ATOM     69  O   UNL A   1      48.301  26.581  21.039  1.00  0.00    -0.744 OA
ENDBRANCH  62  66
ENDBRANCH  45  59
BRANCH  46  70
ATOM     70  C   UNL A   1      39.001  30.766  31.106  1.00  0.00     0.023 A 
ATOM     71  C   UNL A   1      37.869  31.448  30.634  1.00  0.00     0.031 A 
ATOM     72  C   UNL A   1      39.077  30.482  32.482  1.00  0.00     0.131 A 
ATOM     73  C   UNL A   1      36.874  31.857  31.535  1.00  0.00     0.055 A 
ATOM     74  C   UNL A   1      38.063  30.851  33.367  1.00  0.00     0.041 A 
ATOM     75  F   UNL A   1      40.135  29.824  32.981  1.00  0.00    -0.206 F 
ATOM     76  C   UNL A   1      36.958  31.552  32.897  1.00  0.00     0.022 A 
BRANCH  73  77
ATOM     77  S   UNL A   1      35.491  32.850  30.912  1.00  0.00     0.124 S 
ATOM     78  O   UNL A   1      35.916  34.202  31.260  1.00  0.00    -0.237 OA
ATOM     79  O   UNL A   1      35.498  32.520  29.490  1.00  0.00    -0.237 OA
ATOM     80  O   UNL A   1      34.343  32.344  31.661  1.00  0.00    -0.744 OA
ENDBRANCH  73  77
ENDBRANCH  46  70
BRANCH  58  81
ATOM     81  C   UNL A   1      45.069  33.717  29.321  1.00  0.00     0.023 A 
ATOM     82  C   UNL A   1      44.831  34.856  28.533  1.00  0.00     0.031 A 
ATOM     83  C   UNL A   1      45.904  33.850  30.445  1.00  0.00     0.131 A 
ATOM     84  C   UNL A   1      45.455  36.071  28.858  1.00  0.00     0.055 A 
ATOM     85  C   UNL A   1      46.480  35.072  30.793  1.00  0.00     0.041 A 
ATOM     86  F   UNL A   1      46.166  32.791  31.230  1.00  0.00    -0.206 F 
ATOM     87  C   UNL A   1      46.263  36.189  29.992  1.00  0.00     0.022 A 
BRANCH  84  88
ATOM     88  S   UNL A   1      45.247  37.485  27.742  1.00  0.00     0.124 S 
ATOM     89  O   UNL A   1      43.939  37.216  27.152  1.00  0.00    -0.237 OA
ATOM     90  O   UNL A   1      45.311  38.620  28.657  1.00  0.00    -0.237 OA
ATOM     91  O   UNL A   1      46.378  37.367  26.823  1.00  0.00    -0.744 OA
ENDBRANCH  84  88
ENDBRANCH  58  81
ENDBRANCH  32  33
ENDBRANCH  24  27
ENDBRANCH  22  23
ENDBRANCH   1  22
TORSDOF 18
ENDMDL
MODEL 2
REMARK VINA RESULT:     -10.2      1.030      7.713
REMARK SMILES [NH3+][C@@H](C(=O)NCCCCNC(=O)c1ccc(-c2c3nc(c(-c4cc(S(=O)(=O)[O-])ccc4F)c4ccc([nH]4)c(-c4cc(S(=O)(=O)[O-])ccc4F)c4nc(c(-c5cc(S(=O)(=O)[O-])ccc5F)c5ccc2[nH]5)C=C4)C=C3)cc1)C(C(F)(F)F)C(F)(F)F
REMARK SMILES IDX 8 1 7 2 6 3 5 4 3 5 4 6 2 8 1 9 76 13 77 14 78 15 79 16
REMARK SMILES IDX 80 17 81 18 82 19 83 20 84 21 9 22 10 23 11 24 12 26 13 27
REMARK SMILES IDX 14 28 75 29 15 30 74 31 16 32 17 33 18 34 68 35 19 36 73 37
REMARK SMILES IDX 67 38 69 39 20 40 72 41 66 42 65 43 21 45 53 46 33 47 52 48
REMARK SMILES IDX 34 49 37 50 51 51 70 52 35 53 36 54 50 56 71 57 38 58 22 59
REMARK SMILES IDX 23 60 31 61 24 62 30 63 32 64 29 65 25 66 26 67 27 68 28 69
REMARK SMILES IDX 54 70 55 71 63 72 56 73 62 74 64 75 61 76 57 77 58 78 59 79
REMARK SMILES IDX 60 80 39 81 40 82 48 83 41 84 47 85 49 86 46 87 42 88 43 89
REMARK SMILES IDX 44 90 45 91
REMARK H PARENT 5 7 1 10 1 11 1 12 10 25 69 44 37 55
REMARK Flexibility Score: inf
ROOT
ATOM      1  C   UNL A   1      41.397  19.527  27.571  1.00  0.00     0.023 C 
ENDROOT
BRANCH   1   2
ATOM      2  C   UNL A   1      42.655  18.654  27.557  1.00  0.00     0.023 C 
BRANCH   2   3
ATOM      3  C   UNL A   1      43.112  18.211  26.166  1.00  0.00     0.116 C 
BRANCH   3   4
ATOM      4  N   UNL A   1      44.561  18.242  26.056  1.00  0.00    -0.351 N 
ATOM      5  C   UNL A   1      45.363  19.119  25.387  1.00  0.00     0.279 C 
ATOM      6  O   UNL A   1      46.542  18.820  25.198  1.00  0.00    -0.268 OA
ATOM      7  H   UNL A   1      45.033  17.525  26.537  1.00  0.00     0.163 HD
BRANCH   5   8
ATOM      8  C   UNL A   1      44.761  20.415  24.802  1.00  0.00     0.292 C 
BRANCH   8   9
ATOM      9  N   UNL A   1      44.910  20.331  23.332  1.00  0.00    -0.346 N 
ATOM     10  H   UNL A   1      45.642  20.975  23.029  1.00  0.00     0.345 HD
ATOM     11  H   UNL A   1      44.029  20.582  22.886  1.00  0.00     0.345 HD
ATOM     12  H   UNL A   1      45.165  19.379  23.070  1.00  0.00     0.345 HD
ENDBRANCH   8   9
BRANCH   8  13
ATOM     13  C   UNL A   1      45.464  21.660  25.370  1.00  0.00     0.267 C 
BRANCH  13  14
ATOM     14  C   UNL A   1      45.830  22.636  24.289  1.00  0.00     0.406 C 
ATOM     15  F   UNL A   1      44.927  22.652  23.284  1.00  0.00    -0.170 F 
ATOM     16  F   UNL A   1      45.926  23.899  24.762  1.00  0.00    -0.170 F 
ATOM     17  F   UNL A   1      47.035  22.368  23.739  1.00  0.00    -0.170 F 
ENDBRANCH  13  14
BRANCH  13  18
ATOM     18  C   UNL A   1      44.546  22.421  26.288  1.00  0.00     0.406 C 
ATOM     19  F   UNL A   1      43.847  21.617  27.113  1.00  0.00    -0.170 F 
ATOM     20  F   UNL A   1      45.224  23.275  27.088  1.00  0.00    -0.170 F 
ATOM     21  F   UNL A   1      43.634  23.145  25.601  1.00  0.00    -0.170 F 
ENDBRANCH  13  18
ENDBRANCH   8  13
ENDBRANCH   5   8
ENDBRANCH   3   4
ENDBRANCH   2   3
ENDBRANCH   1   2
BRANCH   1  22
ATOM     22  C   UNL A   1      41.240  20.462  26.377  1.00  0.00     0.116 C 
BRANCH  22  23
ATOM     23  N   UNL A   1      39.858  20.599  25.946  1.00  0.00    -0.352 N 
ATOM     24  C   UNL A   1      39.006  21.666  26.109  1.00  0.00     0.251 C 
ATOM     25  H   UNL A   1      39.481  19.822  25.472  1.00  0.00     0.163 HD
ATOM     26  O   UNL A   1      37.823  21.553  25.803  1.00  0.00    -0.269 OA
BRANCH  24  27
ATOM     27  C   UNL A   1      39.515  22.927  26.693  1.00  0.00     0.039 A 
ATOM     28  C   UNL A   1      40.434  22.865  27.743  1.00  0.00     0.014 A 
ATOM     29  C   UNL A   1      39.105  24.164  26.188  1.00  0.00     0.014 A 
ATOM     30  C   UNL A   1      41.001  24.043  28.237  1.00  0.00     0.010 A 
ATOM     31  C   UNL A   1      39.717  25.331  26.637  1.00  0.00     0.010 A 
ATOM     32  C   UNL A   1      40.676  25.281  27.662  1.00  0.00    -0.014 A 
BRANCH  32  33
ATOM     33  C   UNL A   1      41.330  26.541  28.106  1.00  0.00     0.031 A 
ATOM     34  C   UNL A   1      40.516  27.613  28.776  1.00  0.00     0.074 A 
ATOM     35  C   UNL A   1      42.628  26.757  27.816  1.00  0.00     0.049 A 
ATOM     36  N   UNL A   1      40.863  28.827  29.115  1.00  0.00    -0.248 NA
ATOM     37  C   UNL A   1      39.114  27.281  29.069  1.00  0.00     0.031 C 
ATOM     38  C   UNL A   1      43.509  25.812  27.127  1.00  0.00     0.029 A 
ATOM     39  N   UNL A   1      43.426  27.851  28.040  1.00  0.00    -0.354 N 
ATOM     40  C   UNL A   1      39.717  29.415  29.642  1.00  0.00     0.074 A 
ATOM     41  C   UNL A   1      38.655  28.437  29.524  1.00  0.00     0.031 C 
ATOM     42  C   UNL A   1      44.724  26.367  26.986  1.00  0.00     0.029 A 
ATOM     43  C   UNL A   1      44.698  27.720  27.533  1.00  0.00     0.049 A 
ATOM     44  H   UNL A   1      43.118  28.655  28.518  1.00  0.00     0.167 HD
ATOM     45  C   UNL A   1      39.571  30.648  30.188  1.00  0.00     0.034 A 
ATOM     46  C   UNL A   1      45.721  28.597  27.490  1.00  0.00     0.034 A 
ATOM     47  C   UNL A   1      40.646  31.602  30.312  1.00  0.00     0.049 A 
ATOM     48  C   UNL A   1      45.538  29.964  28.094  1.00  0.00     0.074 A 
ATOM     49  C   UNL A   1      40.630  32.846  30.918  1.00  0.00     0.029 A 
ATOM     50  N   UNL A   1      41.930  31.423  29.811  1.00  0.00    -0.354 N 
ATOM     51  N   UNL A   1      44.464  30.484  28.645  1.00  0.00    -0.248 NA
ATOM     52  C   UNL A   1      46.702  30.858  28.082  1.00  0.00     0.031 C 
ATOM     53  C   UNL A   1      41.880  33.445  30.726  1.00  0.00     0.029 A 
ATOM     54  C   UNL A   1      42.702  32.547  30.064  1.00  0.00     0.049 A 
ATOM     55  H   UNL A   1      42.246  30.616  29.345  1.00  0.00     0.167 HD
ATOM     56  C   UNL A   1      44.835  31.758  29.067  1.00  0.00     0.074 A 
ATOM     57  C   UNL A   1      46.231  31.923  28.716  1.00  0.00     0.031 C 
ATOM     58  C   UNL A   1      44.090  32.702  29.696  1.00  0.00     0.034 A 
BRANCH  45  59
ATOM     59  C   UNL A   1      38.189  31.037  30.660  1.00  0.00     0.023 A 
ATOM     60  C   UNL A   1      37.269  31.672  29.808  1.00  0.00     0.031 A 
ATOM     61  C   UNL A   1      37.801  30.809  31.993  1.00  0.00     0.131 A 
ATOM     62  C   UNL A   1      36.047  32.137  30.318  1.00  0.00     0.055 A 
ATOM     63  C   UNL A   1      36.548  31.197  32.471  1.00  0.00     0.041 A 
ATOM     64  F   UNL A   1      38.642  30.223  32.859  1.00  0.00    -0.206 F 
ATOM     65  C   UNL A   1      35.670  31.883  31.638  1.00  0.00     0.022 A 
BRANCH  62  66
ATOM     66  S   UNL A   1      35.036  33.224  29.276  1.00  0.00     0.124 S 
ATOM     67  O   UNL A   1      34.715  32.344  28.154  1.00  0.00    -0.237 OA
ATOM     68  O   UNL A   1      33.926  33.564  30.159  1.00  0.00    -0.237 OA
ATOM     69  O   UNL A   1      35.938  34.327  28.953  1.00  0.00    -0.744 OA
ENDBRANCH  62  66
ENDBRANCH  45  59
BRANCH  46  70
ATOM     70  C   UNL A   1      47.002  28.220  26.827  1.00  0.00     0.023 A 
ATOM     71  C   UNL A   1      47.103  28.152  25.429  1.00  0.00     0.031 A 
ATOM     72  C   UNL A   1      48.141  27.903  27.590  1.00  0.00     0.131 A 
ATOM     73  C   UNL A   1      48.307  27.740  24.836  1.00  0.00     0.055 A 
ATOM     74  C   UNL A   1      49.348  27.537  26.994  1.00  0.00     0.041 A 
ATOM     75  F   UNL A   1      48.097  27.962  28.930  1.00  0.00    -0.206 F 
ATOM     76  C   UNL A   1      49.433  27.444  25.609  1.00  0.00     0.022 A 
BRANCH  73  77
ATOM     77  S   UNL A   1      48.363  27.535  23.035  1.00  0.00     0.124 S 
ATOM     78  O   UNL A   1      48.299  26.084  22.899  1.00  0.00    -0.237 OA
ATOM     79  O   UNL A   1      47.179  28.273  22.610  1.00  0.00    -0.237 OA
ATOM     80  O   UNL A   1      49.640  28.141  22.663  1.00  0.00    -0.744 OA
ENDBRANCH  73  77
ENDBRANCH  46  70
BRANCH  58  81
ATOM     81  C   UNL A   1      44.787  33.982  30.084  1.00  0.00     0.023 A 
ATOM     82  C   UNL A   1      44.793  35.108  29.242  1.00  0.00     0.031 A 
ATOM     83  C   UNL A   1      45.453  34.075  31.319  1.00  0.00     0.131 A 
ATOM     84  C   UNL A   1      45.486  36.264  29.630  1.00  0.00     0.055 A 
ATOM     85  C   UNL A   1      46.095  35.245  31.723  1.00  0.00     0.041 A 
ATOM     86  F   UNL A   1      45.479  33.027  32.160  1.00  0.00    -0.206 F 
ATOM     87  C   UNL A   1      46.122  36.346  30.871  1.00  0.00     0.022 A 
BRANCH  84  88
ATOM     88  S   UNL A   1      45.601  37.647  28.461  1.00  0.00     0.124 S 
ATOM     89  O   UNL A   1      45.784  36.954  27.189  1.00  0.00    -0.237 OA
ATOM     90  O   UNL A   1      44.318  38.318  28.641  1.00  0.00    -0.237 OA
ATOM     91  O   UNL A   1      46.764  38.399  28.930  1.00  0.00    -0.744 OA
ENDBRANCH  84  88
ENDBRANCH  58  81
ENDBRANCH  32  33
ENDBRANCH  24  27
ENDBRANCH  22  23
ENDBRANCH   1  22
TORSDOF 18
ENDMDL
MODEL 3
REMARK VINA RESULT:     -10.1      2.655      3.280
REMARK SMILES [NH3+][C@@H](C(=O)NCCCCNC(=O)c1ccc(-c2c3nc(c(-c4cc(S(=O)(=O)[O-])ccc4F)c4ccc([nH]4)c(-c4cc(S(=O)(=O)[O-])ccc4F)c4nc(c(-c5cc(S(=O)(=O)[O-])ccc5F)c5ccc2[nH]5)C=C4)C=C3)cc1)C(C(F)(F)F)C(F)(F)F
REMARK SMILES IDX 8 1 7 2 6 3 5 4 3 5 4 6 2 8 1 9 76 13 77 14 78 15 79 16
REMARK SMILES IDX 80 17 81 18 82 19 83 20 84 21 9 22 10 23 11 24 12 26 13 27
REMARK SMILES IDX 14 28 75 29 15 30 74 31 16 32 17 33 18 34 68 35 19 36 73 37
REMARK SMILES IDX 67 38 69 39 20 40 72 41 66 42 65 43 21 45 53 46 33 47 52 48
REMARK SMILES IDX 34 49 37 50 51 51 70 52 35 53 36 54 50 56 71 57 38 58 22 59
REMARK SMILES IDX 23 60 31 61 24 62 30 63 32 64 29 65 25 66 26 67 27 68 28 69
REMARK SMILES IDX 54 70 55 71 63 72 56 73 62 74 64 75 61 76 57 77 58 78 59 79
REMARK SMILES IDX 60 80 39 81 40 82 48 83 41 84 47 85 49 86 46 87 42 88 43 89
REMARK SMILES IDX 44 90 45 91
REMARK H PARENT 5 7 1 10 1 11 1 12 10 25 69 44 37 55
REMARK Flexibility Score: inf
ROOT
ATOM      1  C   UNL A   1      40.914  20.000  27.154  1.00  0.00     0.023 C 
ENDROOT
BRANCH   1   2
ATOM      2  C   UNL A   1      42.346  19.462  27.088  1.00  0.00     0.023 C 
BRANCH   2   3
ATOM      3  C   UNL A   1      42.924  19.348  25.675  1.00  0.00     0.116 C 
BRANCH   3   4
ATOM      4  N   UNL A   1      44.371  19.473  25.690  1.00  0.00    -0.351 N 
ATOM      5  C   UNL A   1      45.157  20.525  25.322  1.00  0.00     0.279 C 
ATOM      6  O   UNL A   1      46.362  20.337  25.157  1.00  0.00    -0.268 OA
ATOM      7  H   UNL A   1      44.856  18.680  26.014  1.00  0.00     0.163 HD
BRANCH   5   8
ATOM      8  C   UNL A   1      44.513  21.897  25.031  1.00  0.00     0.292 C 
BRANCH   8   9
ATOM      9  N   UNL A   1      44.730  22.176  23.594  1.00  0.00    -0.346 N 
ATOM     10  H   UNL A   1      44.491  21.348  23.048  1.00  0.00     0.345 HD
ATOM     11  H   UNL A   1      45.708  22.417  23.439  1.00  0.00     0.345 HD
ATOM     12  H   UNL A   1      44.138  22.955  23.306  1.00  0.00     0.345 HD
ENDBRANCH   8   9
BRANCH   8  13
ATOM     13  C   UNL A   1      45.123  22.997  25.917  1.00  0.00     0.267 C 
BRANCH  13  14
ATOM     14  C   UNL A   1      45.358  24.266  25.149  1.00  0.00     0.406 C 
ATOM     15  F   UNL A   1      44.254  24.678  24.488  1.00  0.00    -0.170 F 
ATOM     16  F   UNL A   1      45.743  25.279  25.957  1.00  0.00    -0.170 F 
ATOM     17  F   UNL A   1      46.347  24.140  24.237  1.00  0.00    -0.170 F 
ENDBRANCH  13  14
BRANCH  13  18
ATOM     18  C   UNL A   1      44.176  23.380  27.023  1.00  0.00     0.406 C 
ATOM     19  F   UNL A   1      43.068  24.001  26.571  1.00  0.00    -0.170 F 
ATOM     20  F   UNL A   1      43.741  22.303  27.714  1.00  0.00    -0.170 F 
ATOM     21  F   UNL A   1      44.751  24.225  27.907  1.00  0.00    -0.170 F 
ENDBRANCH  13  18
ENDBRANCH   8  13
ENDBRANCH   5   8
ENDBRANCH   3   4
ENDBRANCH   2   3
ENDBRANCH   1   2
BRANCH   1  22
ATOM     22  C   UNL A   1      40.717  21.397  26.576  1.00  0.00     0.116 C 
BRANCH  22  23
ATOM     23  N   UNL A   1      39.355  21.633  26.123  1.00  0.00    -0.352 N 
ATOM     24  C   UNL A   1      38.605  22.782  26.209  1.00  0.00     0.251 C 
ATOM     25  H   UNL A   1      38.910  20.865  25.697  1.00  0.00     0.163 HD
ATOM     26  O   UNL A   1      37.417  22.758  25.899  1.00  0.00    -0.269 OA
BRANCH  24  27
ATOM     27  C   UNL A   1      39.225  24.026  26.715  1.00  0.00     0.039 A 
ATOM     28  C   UNL A   1      39.922  24.846  25.824  1.00  0.00     0.014 A 
ATOM     29  C   UNL A   1      39.097  24.394  28.058  1.00  0.00     0.014 A 
ATOM     30  C   UNL A   1      40.427  26.073  26.263  1.00  0.00     0.010 A 
ATOM     31  C   UNL A   1      39.544  25.644  28.477  1.00  0.00     0.010 A 
ATOM     32  C   UNL A   1      40.207  26.499  27.582  1.00  0.00    -0.014 A 
BRANCH  32  33
ATOM     33  C   UNL A   1      40.653  27.837  28.052  1.00  0.00     0.031 A 
ATOM     34  C   UNL A   1      42.121  28.150  28.144  1.00  0.00     0.074 A 
ATOM     35  C   UNL A   1      39.742  28.729  28.488  1.00  0.00     0.049 A 
ATOM     36  N   UNL A   1      42.715  29.198  28.650  1.00  0.00    -0.248 NA
ATOM     37  C   UNL A   1      43.040  27.125  27.627  1.00  0.00     0.031 C 
ATOM     38  C   UNL A   1      38.292  28.523  28.494  1.00  0.00     0.029 A 
ATOM     39  N   UNL A   1      39.900  29.977  29.037  1.00  0.00    -0.354 N 
ATOM     40  C   UNL A   1      44.080  28.952  28.536  1.00  0.00     0.074 A 
ATOM     41  C   UNL A   1      44.218  27.630  27.961  1.00  0.00     0.031 C 
ATOM     42  C   UNL A   1      37.696  29.606  29.018  1.00  0.00     0.029 A 
ATOM     43  C   UNL A   1      38.719  30.564  29.426  1.00  0.00     0.049 A 
ATOM     44  H   UNL A   1      40.777  30.413  29.142  1.00  0.00     0.167 HD
ATOM     45  C   UNL A   1      45.118  29.762  28.863  1.00  0.00     0.034 A 
ATOM     46  C   UNL A   1      38.484  31.729  30.063  1.00  0.00     0.034 A 
ATOM     47  C   UNL A   1      44.959  31.084  29.419  1.00  0.00     0.049 A 
ATOM     48  C   UNL A   1      39.650  32.611  30.425  1.00  0.00     0.074 A 
ATOM     49  C   UNL A   1      45.936  32.019  29.715  1.00  0.00     0.029 A 
ATOM     50  N   UNL A   1      43.744  31.656  29.775  1.00  0.00    -0.354 N 
ATOM     51  N   UNL A   1      40.934  32.391  30.254  1.00  0.00    -0.248 NA
ATOM     52  C   UNL A   1      39.338  33.899  31.056  1.00  0.00     0.031 C 
ATOM     53  C   UNL A   1      45.320  33.126  30.308  1.00  0.00     0.029 A 
ATOM     54  C   UNL A   1      43.950  32.916  30.318  1.00  0.00     0.049 A 
ATOM     55  H   UNL A   1      42.864  31.230  29.659  1.00  0.00     0.167 HD
ATOM     56  C   UNL A   1      41.579  33.528  30.734  1.00  0.00     0.074 A 
ATOM     57  C   UNL A   1      40.545  34.432  31.192  1.00  0.00     0.031 C 
ATOM     58  C   UNL A   1      42.908  33.801  30.783  1.00  0.00     0.034 A 
BRANCH  45  59
ATOM     59  C   UNL A   1      46.512  29.219  28.654  1.00  0.00     0.023 A 
ATOM     60  C   UNL A   1      47.042  29.018  27.368  1.00  0.00     0.031 A 
ATOM     61  C   UNL A   1      47.308  28.855  29.756  1.00  0.00     0.131 A 
ATOM     62  C   UNL A   1      48.286  28.389  27.212  1.00  0.00     0.055 A 
ATOM     63  C   UNL A   1      48.583  28.310  29.595  1.00  0.00     0.041 A 
ATOM     64  F   UNL A   1      46.851  29.006  31.009  1.00  0.00    -0.206 F 
ATOM     65  C   UNL A   1      49.072  28.055  28.317  1.00  0.00     0.022 A 
BRANCH  62  66
ATOM     66  S   UNL A   1      48.785  27.863  25.549  1.00  0.00     0.124 S 
ATOM     67  O   UNL A   1      48.888  26.415  25.716  1.00  0.00    -0.237 OA
ATOM     68  O   UNL A   1      47.677  28.333  24.725  1.00  0.00    -0.237 OA
ATOM     69  O   UNL A   1      50.057  28.549  25.338  1.00  0.00    -0.744 OA
ENDBRANCH  62  66
ENDBRANCH  45  59
BRANCH  46  70
ATOM     70  C   UNL A   1      37.091  32.118  30.422  1.00  0.00     0.023 A 
ATOM     71  C   UNL A   1      36.234  32.702  29.477  1.00  0.00     0.031 A 
ATOM     72  C   UNL A   1      36.604  31.926  31.728  1.00  0.00     0.131 A 
ATOM     73  C   UNL A   1      34.946  33.109  29.860  1.00  0.00     0.055 A 
ATOM     74  C   UNL A   1      35.307  32.290  32.092  1.00  0.00     0.041 A 
ATOM     75  F   UNL A   1      37.382  31.362  32.665  1.00  0.00    -0.206 F 
ATOM     76  C   UNL A   1      34.473  32.895  31.158  1.00  0.00     0.022 A 
BRANCH  73  77
ATOM     77  S   UNL A   1      33.914  33.980  28.650  1.00  0.00     0.124 S 
ATOM     78  O   UNL A   1      33.437  32.880  27.819  1.00  0.00    -0.237 OA
ATOM     79  O   UNL A   1      32.918  34.617  29.505  1.00  0.00    -0.237 OA
ATOM     80  O   UNL A   1      34.849  34.895  27.999  1.00  0.00    -0.744 OA
ENDBRANCH  73  77
ENDBRANCH  46  70
BRANCH  58  81
ATOM     81  C   UNL A   1      43.312  35.155  31.312  1.00  0.00     0.023 A 
ATOM     82  C   UNL A   1      43.378  35.422  32.691  1.00  0.00     0.031 A 
ATOM     83  C   UNL A   1      43.639  36.191  30.419  1.00  0.00     0.131 A 
ATOM     84  C   UNL A   1      43.724  36.707  33.135  1.00  0.00     0.055 A 
ATOM     85  C   UNL A   1      44.033  37.451  30.868  1.00  0.00     0.041 A 
ATOM     86  F   UNL A   1      43.589  35.989  29.092  1.00  0.00    -0.206 F 
ATOM     87  C   UNL A   1      44.068  37.717  32.234  1.00  0.00     0.022 A 
BRANCH  84  88
ATOM     88  S   UNL A   1      43.659  37.063  34.913  1.00  0.00     0.124 S 
ATOM     89  O   UNL A   1      42.278  36.719  35.240  1.00  0.00    -0.237 OA
ATOM     90  O   UNL A   1      44.681  36.170  35.450  1.00  0.00    -0.237 OA
ATOM     91  O   UNL A   1      43.978  38.487  34.991  1.00  0.00    -0.744 OA
ENDBRANCH  84  88
ENDBRANCH  58  81
ENDBRANCH  32  33
ENDBRANCH  24  27
ENDBRANCH  22  23
ENDBRANCH   1  22
TORSDOF 18
ENDMDL
