MODEL 1
REMARK VINA RESULT:     -12.4      0.000      0.000
REMARK SMILES N#CCSc1nnnn1-c1ccc(C(=O)NCCCCNC(=O)c2ccc(-c3c4nc(c(-c5cc(S(=O)(=O)[O-])ccc5F)c5ccc([nH]5)c(-c5cc(S(=O)(=O)[O-])ccc5F)c5nc(c(-c6cc(S(=O)(=O)[O-])ccc6F)c6ccc3[nH]6)C=C5)C=C4)cc2)cc1
REMARK SMILES IDX 18 1 17 2 16 3 14 4 15 5 13 7 10 8 11 9 88 10 12 11 87 12
REMARK SMILES IDX 9 13 5 14 6 15 7 16 8 17 4 18 3 19 2 20 1 21 19 22 20 23
REMARK SMILES IDX 21 24 22 25 23 27 24 28 25 29 86 30 26 31 85 32 27 33 28 34
REMARK SMILES IDX 29 35 79 36 30 37 84 38 78 39 80 40 31 41 83 42 77 43 76 44
REMARK SMILES IDX 32 46 64 47 44 48 63 49 45 50 48 51 62 52 81 53 46 54 47 55
REMARK SMILES IDX 61 57 82 58 49 59 33 60 34 61 42 62 35 63 41 64 43 65 40 66
REMARK SMILES IDX 36 67 37 68 38 69 39 70 65 71 66 72 74 73 67 74 73 75 75 76
REMARK SMILES IDX 72 77 68 78 69 79 70 80 71 81 50 82 51 83 59 84 52 85 58 86
REMARK SMILES IDX 60 87 57 88 53 89 54 90 55 91 56 92
REMARK H PARENT 16 6 21 26 80 45 48 56
REMARK Flexibility Score: inf
ROOT
ATOM      1  C   UNL A   1      33.053  30.457  27.059  1.00  0.00     0.023 C 
ENDROOT
BRANCH   1   2
ATOM      2  C   UNL A   1      32.216  30.064  25.834  1.00  0.00     0.116 C 
BRANCH   2   3
ATOM      3  N   UNL A   1      33.055  29.870  24.660  1.00  0.00    -0.352 N 
ATOM      4  C   UNL A   1      33.509  28.744  24.017  1.00  0.00     0.251 C 
ATOM      5  O   UNL A   1      34.202  28.881  23.010  1.00  0.00    -0.269 OA
ATOM      6  H   UNL A   1      33.355  30.710  24.245  1.00  0.00     0.163 HD
BRANCH   4   7
ATOM      7  C   UNL A   1      33.128  27.370  24.440  1.00  0.00     0.039 A 
ATOM      8  C   UNL A   1      32.092  24.962  25.354  1.00  0.00     0.069 A 
ATOM      9  C   UNL A   1      31.504  25.563  24.245  1.00  0.00     0.029 A 
ATOM     10  C   UNL A   1      33.266  25.460  25.922  1.00  0.00     0.029 A 
ATOM     11  C   UNL A   1      32.028  26.776  23.792  1.00  0.00     0.016 A 
ATOM     12  C   UNL A   1      33.789  26.659  25.446  1.00  0.00     0.016 A 
BRANCH   8  13
ATOM     13  N   UNL A   1      31.438  23.910  26.000  1.00  0.00    -0.187 N 
ATOM     14  C   UNL A   1      31.218  22.623  25.543  1.00  0.00     0.215 A 
ATOM     15  N   UNL A   1      30.324  22.059  26.326  1.00  0.00    -0.101 NA
ATOM     16  N   UNL A   1      29.975  23.008  27.257  1.00  0.00    -0.022 NA
ATOM     17  N   UNL A   1      30.647  24.136  27.069  1.00  0.00    -0.039 NA
BRANCH  14  18
ATOM     18  S   UNL A   1      32.203  21.755  24.407  1.00  0.00    -0.069 SA
BRANCH  18  19
ATOM     19  C   UNL A   1      33.244  20.614  25.362  1.00  0.00     0.198 C 
BRANCH  19  20
ATOM     20  C   UNL A   1      32.729  19.185  25.407  1.00  0.00     0.074 C 
ATOM     21  N   UNL A   1      32.302  17.999  25.443  1.00  0.00    -0.197 NA
ENDBRANCH  19  20
ENDBRANCH  18  19
ENDBRANCH  14  18
ENDBRANCH   8  13
ENDBRANCH   4   7
ENDBRANCH   2   3
ENDBRANCH   1   2
BRANCH   1  22
ATOM     22  C   UNL A   1      34.570  30.308  26.884  1.00  0.00     0.023 C 
BRANCH  22  23
ATOM     23  C   UNL A   1      35.228  29.358  27.877  1.00  0.00     0.116 C 
BRANCH  23  24
ATOM     24  N   UNL A   1      35.414  29.961  29.195  1.00  0.00    -0.352 N 
ATOM     25  C   UNL A   1      36.410  29.672  30.116  1.00  0.00     0.251 C 
ATOM     26  H   UNL A   1      34.762  30.649  29.458  1.00  0.00     0.163 HD
ATOM     27  O   UNL A   1      36.258  29.905  31.300  1.00  0.00    -0.269 OA
BRANCH  25  28
ATOM     28  C   UNL A   1      37.661  29.084  29.604  1.00  0.00     0.039 A 
ATOM     29  C   UNL A   1      38.320  29.618  28.494  1.00  0.00     0.014 A 
ATOM     30  C   UNL A   1      38.200  28.019  30.323  1.00  0.00     0.014 A 
ATOM     31  C   UNL A   1      39.583  29.126  28.165  1.00  0.00     0.010 A 
ATOM     32  C   UNL A   1      39.491  27.624  30.073  1.00  0.00     0.010 A 
ATOM     33  C   UNL A   1      40.174  28.143  28.974  1.00  0.00    -0.014 A 
BRANCH  33  34
ATOM     34  C   UNL A   1      41.562  27.730  28.770  1.00  0.00     0.031 A 
ATOM     35  C   UNL A   1      41.744  26.458  28.005  1.00  0.00     0.074 A 
ATOM     36  C   UNL A   1      42.597  28.571  28.996  1.00  0.00     0.049 A 
ATOM     37  N   UNL A   1      42.304  25.359  28.391  1.00  0.00    -0.248 NA
ATOM     38  C   UNL A   1      41.117  26.355  26.675  1.00  0.00     0.031 C 
ATOM     39  C   UNL A   1      42.542  29.976  29.422  1.00  0.00     0.029 A 
ATOM     40  N   UNL A   1      43.923  28.390  28.757  1.00  0.00    -0.354 N 
ATOM     41  C   UNL A   1      42.296  24.500  27.291  1.00  0.00     0.074 A 
ATOM     42  C   UNL A   1      41.395  25.093  26.341  1.00  0.00     0.031 C 
ATOM     43  C   UNL A   1      43.725  30.576  29.164  1.00  0.00     0.029 A 
ATOM     44  C   UNL A   1      44.673  29.564  28.735  1.00  0.00     0.049 A 
ATOM     45  H   UNL A   1      44.321  27.503  28.611  1.00  0.00     0.167 HD
ATOM     46  C   UNL A   1      43.195  23.479  27.173  1.00  0.00     0.034 A 
ATOM     47  C   UNL A   1      45.973  29.707  28.362  1.00  0.00     0.034 A 
ATOM     48  C   UNL A   1      43.837  23.220  28.442  1.00  0.00     0.049 A 
ATOM     49  C   UNL A   1      46.586  28.359  28.459  1.00  0.00     0.074 A 
ATOM     50  C   UNL A   1      43.393  22.828  29.690  1.00  0.00     0.029 A 
ATOM     51  N   UNL A   1      45.095  23.740  28.646  1.00  0.00    -0.354 N 
ATOM     52  N   UNL A   1      46.705  27.704  29.583  1.00  0.00    -0.248 NA
ATOM     53  C   UNL A   1      46.610  27.536  27.258  1.00  0.00     0.031 C 
ATOM     54  C   UNL A   1      44.158  23.608  30.606  1.00  0.00     0.029 A 
ATOM     55  C   UNL A   1      45.085  24.355  29.874  1.00  0.00     0.049 A 
ATOM     56  H   UNL A   1      45.858  23.684  28.028  1.00  0.00     0.167 HD
ATOM     57  C   UNL A   1      46.388  26.391  29.270  1.00  0.00     0.074 A 
ATOM     58  C   UNL A   1      46.431  26.332  27.809  1.00  0.00     0.031 C 
ATOM     59  C   UNL A   1      45.846  25.548  30.199  1.00  0.00     0.034 A 
BRANCH  46  60
ATOM     60  C   UNL A   1      43.763  22.933  25.876  1.00  0.00     0.023 A 
ATOM     61  C   UNL A   1      43.867  21.529  25.757  1.00  0.00     0.031 A 
ATOM     62  C   UNL A   1      44.454  23.675  24.893  1.00  0.00     0.131 A 
ATOM     63  C   UNL A   1      44.705  20.938  24.795  1.00  0.00     0.055 A 
ATOM     64  C   UNL A   1      45.235  23.080  23.895  1.00  0.00     0.041 A 
ATOM     65  F   UNL A   1      44.494  25.011  24.888  1.00  0.00    -0.206 F 
ATOM     66  C   UNL A   1      45.394  21.706  23.863  1.00  0.00     0.022 A 
BRANCH  63  67
ATOM     67  S   UNL A   1      45.029  19.158  24.909  1.00  0.00     0.124 S 
ATOM     68  O   UNL A   1      44.031  18.740  25.889  1.00  0.00    -0.237 OA
ATOM     69  O   UNL A   1      44.806  18.723  23.535  1.00  0.00    -0.237 OA
ATOM     70  O   UNL A   1      46.415  19.095  25.366  1.00  0.00    -0.744 OA
ENDBRANCH  63  67
ENDBRANCH  46  60
BRANCH  47  71
ATOM     71  C   UNL A   1      46.573  30.841  27.601  1.00  0.00     0.023 A 
ATOM     72  C   UNL A   1      45.803  31.831  26.955  1.00  0.00     0.031 A 
ATOM     73  C   UNL A   1      47.961  31.091  27.711  1.00  0.00     0.131 A 
ATOM     74  C   UNL A   1      46.423  33.003  26.454  1.00  0.00     0.055 A 
ATOM     75  C   UNL A   1      48.566  32.249  27.218  1.00  0.00     0.041 A 
ATOM     76  F   UNL A   1      48.766  30.248  28.378  1.00  0.00    -0.206 F 
ATOM     77  C   UNL A   1      47.796  33.216  26.594  1.00  0.00     0.022 A 
BRANCH  74  78
ATOM     78  S   UNL A   1      45.429  34.318  25.672  1.00  0.00     0.124 S 
ATOM     79  O   UNL A   1      46.450  35.280  25.275  1.00  0.00    -0.237 OA
ATOM     80  O   UNL A   1      44.756  33.602  24.595  1.00  0.00    -0.237 OA
ATOM     81  O   UNL A   1      44.549  34.769  26.751  1.00  0.00    -0.744 OA
ENDBRANCH  74  78
ENDBRANCH  47  71
BRANCH  59  82
ATOM     82  C   UNL A   1      45.853  25.962  31.657  1.00  0.00     0.023 A 
ATOM     83  C   UNL A   1      44.724  26.399  32.389  1.00  0.00     0.031 A 
ATOM     84  C   UNL A   1      47.046  25.739  32.368  1.00  0.00     0.131 A 
ATOM     85  C   UNL A   1      44.823  26.589  33.784  1.00  0.00     0.055 A 
ATOM     86  C   UNL A   1      47.132  25.906  33.748  1.00  0.00     0.041 A 
ATOM     87  F   UNL A   1      48.143  25.298  31.729  1.00  0.00    -0.206 F 
ATOM     88  C   UNL A   1      46.021  26.333  34.462  1.00  0.00     0.022 A 
BRANCH  85  89
ATOM     89  S   UNL A   1      43.393  27.173  34.754  1.00  0.00     0.124 S 
ATOM     90  O   UNL A   1      43.038  26.015  35.567  1.00  0.00    -0.237 OA
ATOM     91  O   UNL A   1      43.942  28.317  35.476  1.00  0.00    -0.237 OA
ATOM     92  O   UNL A   1      42.405  27.521  33.731  1.00  0.00    -0.744 OA
ENDBRANCH  85  89
ENDBRANCH  59  82
ENDBRANCH  33  34
ENDBRANCH  25  28
ENDBRANCH  23  24
ENDBRANCH  22  23
ENDBRANCH   1  22
TORSDOF 18
ENDMDL
MODEL 2
REMARK VINA RESULT:     -11.8      5.316     11.801
REMARK SMILES N#CCSc1nnnn1-c1ccc(C(=O)NCCCCNC(=O)c2ccc(-c3c4nc(c(-c5cc(S(=O)(=O)[O-])ccc5F)c5ccc([nH]5)c(-c5cc(S(=O)(=O)[O-])ccc5F)c5nc(c(-c6cc(S(=O)(=O)[O-])ccc6F)c6ccc3[nH]6)C=C5)C=C4)cc2)cc1
REMARK SMILES IDX 18 1 17 2 16 3 14 4 15 5 13 7 10 8 11 9 88 10 12 11 87 12
REMARK SMILES IDX 9 13 5 14 6 15 7 16 8 17 4 18 3 19 2 20 1 21 19 22 20 23
REMARK SMILES IDX 21 24 22 25 23 27 24 28 25 29 86 30 26 31 85 32 27 33 28 34
REMARK SMILES IDX 29 35 79 36 30 37 84 38 78 39 80 40 31 41 83 42 77 43 76 44
REMARK SMILES IDX 32 46 64 47 44 48 63 49 45 50 48 51 62 52 81 53 46 54 47 55
REMARK SMILES IDX 61 57 82 58 49 59 33 60 34 61 42 62 35 63 41 64 43 65 40 66
REMARK SMILES IDX 36 67 37 68 38 69 39 70 65 71 66 72 74 73 67 74 73 75 75 76
REMARK SMILES IDX 72 77 68 78 69 79 70 80 71 81 50 82 51 83 59 84 52 85 58 86
REMARK SMILES IDX 60 87 57 88 53 89 54 90 55 91 56 92
REMARK H PARENT 16 6 21 26 80 45 48 56
REMARK Flexibility Score: inf
ROOT
ATOM      1  C   UNL A   1      43.604  26.381  25.885  1.00  0.00     0.023 C 
ENDROOT
BRANCH   1   2
ATOM      2  C   UNL A   1      44.801  26.971  25.126  1.00  0.00     0.116 C 
BRANCH   2   3
ATOM      3  N   UNL A   1      46.043  26.772  25.859  1.00  0.00    -0.352 N 
ATOM      4  C   UNL A   1      46.735  25.644  26.230  1.00  0.00     0.251 C 
ATOM      5  O   UNL A   1      47.794  25.778  26.840  1.00  0.00    -0.269 OA
ATOM      6  H   UNL A   1      46.471  27.610  26.146  1.00  0.00     0.163 HD
BRANCH   4   7
ATOM      7  C   UNL A   1      46.297  24.275  25.850  1.00  0.00     0.039 A 
ATOM      8  C   UNL A   1      45.741  21.594  25.387  1.00  0.00     0.069 A 
ATOM      9  C   UNL A   1      45.402  22.142  26.622  1.00  0.00     0.029 A 
ATOM     10  C   UNL A   1      46.214  22.385  24.339  1.00  0.00     0.029 A 
ATOM     11  C   UNL A   1      45.688  23.491  26.849  1.00  0.00     0.016 A 
ATOM     12  C   UNL A   1      46.472  23.732  24.574  1.00  0.00     0.016 A 
BRANCH   8  13
ATOM     13  N   UNL A   1      45.730  20.207  25.220  1.00  0.00    -0.187 N 
ATOM     14  C   UNL A   1      44.685  19.324  25.422  1.00  0.00     0.215 A 
ATOM     15  N   UNL A   1      45.177  18.105  25.434  1.00  0.00    -0.101 NA
ATOM     16  N   UNL A   1      46.534  18.236  25.261  1.00  0.00    -0.022 NA
ATOM     17  N   UNL A   1      46.880  19.510  25.128  1.00  0.00    -0.039 NA
BRANCH  14  18
ATOM     18  S   UNL A   1      42.992  19.689  25.289  1.00  0.00    -0.069 SA
BRANCH  18  19
ATOM     19  C   UNL A   1      42.266  19.480  26.940  1.00  0.00     0.198 C 
BRANCH  19  20
ATOM     20  C   UNL A   1      41.585  20.724  27.487  1.00  0.00     0.074 C 
ATOM     21  N   UNL A   1      41.020  21.757  27.940  1.00  0.00    -0.197 NA
ENDBRANCH  19  20
ENDBRANCH  18  19
ENDBRANCH  14  18
ENDBRANCH   8  13
ENDBRANCH   4   7
ENDBRANCH   2   3
ENDBRANCH   1   2
BRANCH   1  22
ATOM     22  C   UNL A   1      42.867  25.250  25.157  1.00  0.00     0.023 C 
BRANCH  22  23
ATOM     23  C   UNL A   1      42.105  24.302  26.075  1.00  0.00     0.116 C 
BRANCH  23  24
ATOM     24  N   UNL A   1      40.667  24.305  25.821  1.00  0.00    -0.352 N 
ATOM     25  C   UNL A   1      39.684  24.938  26.566  1.00  0.00     0.251 C 
ATOM     26  H   UNL A   1      40.362  23.802  25.032  1.00  0.00     0.163 HD
ATOM     27  O   UNL A   1      38.527  24.563  26.529  1.00  0.00    -0.269 OA
BRANCH  25  28
ATOM     28  C   UNL A   1      40.092  26.088  27.394  1.00  0.00     0.039 A 
ATOM     29  C   UNL A   1      40.242  27.365  26.849  1.00  0.00     0.014 A 
ATOM     30  C   UNL A   1      40.247  25.861  28.760  1.00  0.00     0.014 A 
ATOM     31  C   UNL A   1      40.459  28.439  27.711  1.00  0.00     0.010 A 
ATOM     32  C   UNL A   1      40.338  26.932  29.613  1.00  0.00     0.010 A 
ATOM     33  C   UNL A   1      40.484  28.219  29.097  1.00  0.00    -0.014 A 
BRANCH  33  34
ATOM     34  C   UNL A   1      40.531  29.336  30.040  1.00  0.00     0.031 A 
ATOM     35  C   UNL A   1      39.241  30.066  30.230  1.00  0.00     0.074 A 
ATOM     36  C   UNL A   1      41.571  29.510  30.887  1.00  0.00     0.049 A 
ATOM     37  N   UNL A   1      38.976  31.309  29.994  1.00  0.00    -0.248 NA
ATOM     38  C   UNL A   1      38.055  29.284  30.624  1.00  0.00     0.031 C 
ATOM     39  C   UNL A   1      42.757  28.658  31.048  1.00  0.00     0.029 A 
ATOM     40  N   UNL A   1      41.724  30.417  31.889  1.00  0.00    -0.354 N 
ATOM     41  C   UNL A   1      37.660  31.522  30.409  1.00  0.00     0.074 A 
ATOM     42  C   UNL A   1      37.097  30.215  30.605  1.00  0.00     0.031 C 
ATOM     43  C   UNL A   1      43.357  28.932  32.228  1.00  0.00     0.029 A 
ATOM     44  C   UNL A   1      42.716  30.096  32.813  1.00  0.00     0.049 A 
ATOM     45  H   UNL A   1      41.179  31.232  31.957  1.00  0.00     0.167 HD
ATOM     46  C   UNL A   1      37.212  32.765  30.757  1.00  0.00     0.034 A 
ATOM     47  C   UNL A   1      42.979  30.719  33.993  1.00  0.00     0.034 A 
ATOM     48  C   UNL A   1      38.126  33.783  30.290  1.00  0.00     0.049 A 
ATOM     49  C   UNL A   1      42.372  32.070  33.896  1.00  0.00     0.074 A 
ATOM     50  C   UNL A   1      38.583  34.178  29.048  1.00  0.00     0.029 A 
ATOM     51  N   UNL A   1      39.016  34.314  31.196  1.00  0.00    -0.354 N 
ATOM     52  N   UNL A   1      42.758  32.969  33.032  1.00  0.00    -0.248 NA
ATOM     53  C   UNL A   1      41.022  32.245  34.410  1.00  0.00     0.031 C 
ATOM     54  C   UNL A   1      39.969  34.449  29.244  1.00  0.00     0.029 A 
ATOM     55  C   UNL A   1      40.255  34.298  30.604  1.00  0.00     0.049 A 
ATOM     56  H   UNL A   1      38.805  34.643  32.099  1.00  0.00     0.167 HD
ATOM     57  C   UNL A   1      41.588  33.554  32.574  1.00  0.00     0.074 A 
ATOM     58  C   UNL A   1      40.560  33.135  33.526  1.00  0.00     0.031 C 
ATOM     59  C   UNL A   1      41.501  34.088  31.318  1.00  0.00     0.034 A 
BRANCH  46  60
ATOM     60  C   UNL A   1      36.153  33.073  31.800  1.00  0.00     0.023 A 
ATOM     61  C   UNL A   1      35.015  33.792  31.371  1.00  0.00     0.031 A 
ATOM     62  C   UNL A   1      36.308  32.966  33.199  1.00  0.00     0.131 A 
ATOM     63  C   UNL A   1      34.178  34.451  32.289  1.00  0.00     0.055 A 
ATOM     64  C   UNL A   1      35.434  33.568  34.112  1.00  0.00     0.041 A 
ATOM     65  F   UNL A   1      37.352  32.357  33.769  1.00  0.00    -0.206 F 
ATOM     66  C   UNL A   1      34.382  34.346  33.661  1.00  0.00     0.022 A 
BRANCH  63  67
ATOM     67  S   UNL A   1      32.935  35.605  31.651  1.00  0.00     0.124 S 
ATOM     68  O   UNL A   1      32.769  35.129  30.280  1.00  0.00    -0.237 OA
ATOM     69  O   UNL A   1      31.815  35.370  32.555  1.00  0.00    -0.237 OA
ATOM     70  O   UNL A   1      33.582  36.908  31.784  1.00  0.00    -0.744 OA
ENDBRANCH  63  67
ENDBRANCH  46  60
BRANCH  47  71
ATOM     71  C   UNL A   1      43.389  30.081  35.278  1.00  0.00     0.023 A 
ATOM     72  C   UNL A   1      42.898  28.831  35.711  1.00  0.00     0.031 A 
ATOM     73  C   UNL A   1      44.484  30.615  35.997  1.00  0.00     0.131 A 
ATOM     74  C   UNL A   1      43.498  28.173  36.814  1.00  0.00     0.055 A 
ATOM     75  C   UNL A   1      45.072  29.960  37.082  1.00  0.00     0.041 A 
ATOM     76  F   UNL A   1      45.072  31.760  35.615  1.00  0.00    -0.206 F 
ATOM     77  C   UNL A   1      44.586  28.729  37.489  1.00  0.00     0.022 A 
BRANCH  74  78
ATOM     78  S   UNL A   1      42.914  26.528  37.343  1.00  0.00     0.124 S 
ATOM     79  O   UNL A   1      43.619  26.343  38.606  1.00  0.00    -0.237 OA
ATOM     80  O   UNL A   1      41.470  26.720  37.427  1.00  0.00    -0.237 OA
ATOM     81  O   UNL A   1      43.352  25.644  36.262  1.00  0.00    -0.744 OA
ENDBRANCH  74  78
ENDBRANCH  47  71
BRANCH  59  82
ATOM     82  C   UNL A   1      42.773  34.297  30.521  1.00  0.00     0.023 A 
ATOM     83  C   UNL A   1      43.267  33.424  29.524  1.00  0.00     0.031 A 
ATOM     84  C   UNL A   1      43.419  35.536  30.683  1.00  0.00     0.131 A 
ATOM     85  C   UNL A   1      44.368  33.814  28.732  1.00  0.00     0.055 A 
ATOM     86  C   UNL A   1      44.490  35.926  29.883  1.00  0.00     0.041 A 
ATOM     87  F   UNL A   1      42.977  36.417  31.596  1.00  0.00    -0.206 F 
ATOM     88  C   UNL A   1      44.970  35.066  28.904  1.00  0.00     0.022 A 
BRANCH  85  89
ATOM     89  S   UNL A   1      45.044  32.703  27.452  1.00  0.00     0.124 S 
ATOM     90  O   UNL A   1      44.034  32.743  26.400  1.00  0.00    -0.237 OA
ATOM     91  O   UNL A   1      46.325  33.325  27.133  1.00  0.00    -0.237 OA
ATOM     92  O   UNL A   1      45.151  31.415  28.141  1.00  0.00    -0.744 OA
ENDBRANCH  85  89
ENDBRANCH  59  82
ENDBRANCH  33  34
ENDBRANCH  25  28
ENDBRANCH  23  24
ENDBRANCH  22  23
ENDBRANCH   1  22
TORSDOF 18
ENDMDL
MODEL 3
REMARK VINA RESULT:     -11.7      4.044      6.581
REMARK SMILES N#CCSc1nnnn1-c1ccc(C(=O)NCCCCNC(=O)c2ccc(-c3c4nc(c(-c5cc(S(=O)(=O)[O-])ccc5F)c5ccc([nH]5)c(-c5cc(S(=O)(=O)[O-])ccc5F)c5nc(c(-c6cc(S(=O)(=O)[O-])ccc6F)c6ccc3[nH]6)C=C5)C=C4)cc2)cc1
REMARK SMILES IDX 18 1 17 2 16 3 14 4 15 5 13 7 10 8 11 9 88 10 12 11 87 12
REMARK SMILES IDX 9 13 5 14 6 15 7 16 8 17 4 18 3 19 2 20 1 21 19 22 20 23
REMARK SMILES IDX 21 24 22 25 23 27 24 28 25 29 86 30 26 31 85 32 27 33 28 34
REMARK SMILES IDX 29 35 79 36 30 37 84 38 78 39 80 40 31 41 83 42 77 43 76 44
REMARK SMILES IDX 32 46 64 47 44 48 63 49 45 50 48 51 62 52 81 53 46 54 47 55
REMARK SMILES IDX 61 57 82 58 49 59 33 60 34 61 42 62 35 63 41 64 43 65 40 66
REMARK SMILES IDX 36 67 37 68 38 69 39 70 65 71 66 72 74 73 67 74 73 75 75 76
REMARK SMILES IDX 72 77 68 78 69 79 70 80 71 81 50 82 51 83 59 84 52 85 58 86
REMARK SMILES IDX 60 87 57 88 53 89 54 90 55 91 56 92
REMARK H PARENT 16 6 21 26 80 45 48 56
REMARK Flexibility Score: inf
ROOT
ATOM      1  C   UNL A   1      38.145  29.555  32.837  1.00  0.00     0.023 C 
ENDROOT
BRANCH   1   2
ATOM      2  C   UNL A   1      39.361  30.433  32.513  1.00  0.00     0.116 C 
BRANCH   2   3
ATOM      3  N   UNL A   1      39.987  30.939  33.726  1.00  0.00    -0.352 N 
ATOM      4  C   UNL A   1      39.755  32.051  34.499  1.00  0.00     0.251 C 
ATOM      5  O   UNL A   1      40.441  32.221  35.506  1.00  0.00    -0.269 OA
ATOM      6  H   UNL A   1      40.721  30.373  34.058  1.00  0.00     0.163 HD
BRANCH   4   7
ATOM      7  C   UNL A   1      38.656  33.011  34.213  1.00  0.00     0.039 A 
ATOM      8  C   UNL A   1      36.392  34.497  33.601  1.00  0.00     0.069 A 
ATOM      9  C   UNL A   1      36.390  33.723  34.759  1.00  0.00     0.029 A 
ATOM     10  C   UNL A   1      37.542  34.655  32.828  1.00  0.00     0.029 A 
ATOM     11  C   UNL A   1      37.531  32.976  35.059  1.00  0.00     0.016 A 
ATOM     12  C   UNL A   1      38.680  33.921  33.152  1.00  0.00     0.016 A 
BRANCH   8  13
ATOM     13  N   UNL A   1      35.192  35.031  33.124  1.00  0.00    -0.187 N 
ATOM     14  C   UNL A   1      34.571  34.802  31.910  1.00  0.00     0.215 A 
ATOM     15  N   UNL A   1      33.636  35.714  31.752  1.00  0.00    -0.101 NA
ATOM     16  N   UNL A   1      33.694  36.521  32.862  1.00  0.00    -0.022 NA
ATOM     17  N   UNL A   1      34.635  36.114  33.704  1.00  0.00    -0.039 NA
BRANCH  14  18
ATOM     18  S   UNL A   1      34.703  33.365  30.943  1.00  0.00    -0.069 SA
BRANCH  18  19
ATOM     19  C   UNL A   1      35.374  33.863  29.331  1.00  0.00     0.198 C 
BRANCH  19  20
ATOM     20  C   UNL A   1      36.886  34.016  29.303  1.00  0.00     0.074 C 
ATOM     21  N   UNL A   1      38.140  34.144  29.279  1.00  0.00    -0.197 NA
ENDBRANCH  19  20
ENDBRANCH  18  19
ENDBRANCH  14  18
ENDBRANCH   8  13
ENDBRANCH   4   7
ENDBRANCH   2   3
ENDBRANCH   1   2
BRANCH   1  22
ATOM     22  C   UNL A   1      36.818  30.033  32.233  1.00  0.00     0.023 C 
BRANCH  22  23
ATOM     23  C   UNL A   1      36.949  30.683  30.862  1.00  0.00     0.116 C 
BRANCH  23  24
ATOM     24  N   UNL A   1      35.965  30.185  29.904  1.00  0.00    -0.352 N 
ATOM     25  C   UNL A   1      36.211  29.645  28.652  1.00  0.00     0.251 C 
ATOM     26  H   UNL A   1      35.021  30.238  30.180  1.00  0.00     0.163 HD
ATOM     27  O   UNL A   1      35.354  29.640  27.789  1.00  0.00    -0.269 OA
BRANCH  25  28
ATOM     28  C   UNL A   1      37.546  29.067  28.410  1.00  0.00     0.039 A 
ATOM     29  C   UNL A   1      38.399  29.580  27.430  1.00  0.00     0.014 A 
ATOM     30  C   UNL A   1      37.951  28.035  29.255  1.00  0.00     0.014 A 
ATOM     31  C   UNL A   1      39.708  29.104  27.368  1.00  0.00     0.010 A 
ATOM     32  C   UNL A   1      39.271  27.659  29.272  1.00  0.00     0.010 A 
ATOM     33  C   UNL A   1      40.146  28.158  28.308  1.00  0.00    -0.014 A 
BRANCH  33  34
ATOM     34  C   UNL A   1      41.553  27.767  28.389  1.00  0.00     0.031 A 
ATOM     35  C   UNL A   1      41.910  26.511  27.660  1.00  0.00     0.074 A 
ATOM     36  C   UNL A   1      42.505  28.617  28.836  1.00  0.00     0.049 A 
ATOM     37  N   UNL A   1      42.396  25.413  28.136  1.00  0.00    -0.248 NA
ATOM     38  C   UNL A   1      41.572  26.424  26.228  1.00  0.00     0.031 C 
ATOM     39  C   UNL A   1      42.340  30.014  29.262  1.00  0.00     0.029 A 
ATOM     40  N   UNL A   1      43.855  28.458  28.874  1.00  0.00    -0.354 N 
ATOM     41  C   UNL A   1      42.629  24.573  27.045  1.00  0.00     0.074 A 
ATOM     42  C   UNL A   1      41.934  25.172  25.939  1.00  0.00     0.031 C 
ATOM     43  C   UNL A   1      43.541  30.634  29.263  1.00  0.00     0.029 A 
ATOM     44  C   UNL A   1      44.573  29.642  29.024  1.00  0.00     0.049 A 
ATOM     45  H   UNL A   1      44.289  27.579  28.800  1.00  0.00     0.167 HD
ATOM     46  C   UNL A   1      43.550  23.567  27.101  1.00  0.00     0.034 A 
ATOM     47  C   UNL A   1      45.920  29.809  28.929  1.00  0.00     0.034 A 
ATOM     48  C   UNL A   1      43.920  23.293  28.472  1.00  0.00     0.049 A 
ATOM     49  C   UNL A   1      46.522  28.468  29.131  1.00  0.00     0.074 A 
ATOM     50  C   UNL A   1      43.235  22.874  29.595  1.00  0.00     0.029 A 
ATOM     51  N   UNL A   1      45.101  23.827  28.938  1.00  0.00    -0.354 N 
ATOM     52  N   UNL A   1      46.418  27.795  30.245  1.00  0.00    -0.248 NA
ATOM     53  C   UNL A   1      46.806  27.666  27.949  1.00  0.00     0.031 C 
ATOM     54  C   UNL A   1      43.782  23.648  30.660  1.00  0.00     0.029 A 
ATOM     55  C   UNL A   1      44.828  24.419  30.147  1.00  0.00     0.049 A 
ATOM     56  H   UNL A   1      45.976  23.791  28.490  1.00  0.00     0.167 HD
ATOM     57  C   UNL A   1      46.193  26.483  29.855  1.00  0.00     0.074 A 
ATOM     58  C   UNL A   1      46.537  26.450  28.433  1.00  0.00     0.031 C 
ATOM     59  C   UNL A   1      45.485  25.616  30.639  1.00  0.00     0.034 A 
BRANCH  46  60
ATOM     60  C   UNL A   1      44.383  23.051  25.941  1.00  0.00     0.023 A 
ATOM     61  C   UNL A   1      44.331  21.665  25.676  1.00  0.00     0.031 A 
ATOM     62  C   UNL A   1      45.412  23.756  25.279  1.00  0.00     0.131 A 
ATOM     63  C   UNL A   1      45.321  21.033  24.902  1.00  0.00     0.055 A 
ATOM     64  C   UNL A   1      46.356  23.132  24.455  1.00  0.00     0.041 A 
ATOM     65  F   UNL A   1      45.625  25.063  25.455  1.00  0.00    -0.206 F 
ATOM     66  C   UNL A   1      46.337  21.758  24.291  1.00  0.00     0.022 A 
BRANCH  63  67
ATOM     67  S   UNL A   1      45.364  19.221  24.869  1.00  0.00     0.124 S 
ATOM     68  O   UNL A   1      45.197  18.948  23.445  1.00  0.00    -0.237 OA
ATOM     69  O   UNL A   1      46.680  18.941  25.431  1.00  0.00    -0.237 OA
ATOM     70  O   UNL A   1      44.232  18.840  25.713  1.00  0.00    -0.744 OA
ENDBRANCH  63  67
ENDBRANCH  46  60
BRANCH  47  71
ATOM     71  C   UNL A   1      46.645  30.964  28.326  1.00  0.00     0.023 A 
ATOM     72  C   UNL A   1      46.060  31.836  27.383  1.00  0.00     0.031 A 
ATOM     73  C   UNL A   1      47.887  31.364  28.872  1.00  0.00     0.131 A 
ATOM     74  C   UNL A   1      46.712  33.043  27.027  1.00  0.00     0.055 A 
ATOM     75  C   UNL A   1      48.524  32.556  28.520  1.00  0.00     0.041 A 
ATOM     76  F   UNL A   1      48.485  30.642  29.834  1.00  0.00    -0.206 F 
ATOM     77  C   UNL A   1      47.933  33.407  27.601  1.00  0.00     0.022 A 
BRANCH  74  78
ATOM     78  S   UNL A   1      45.937  34.208  25.857  1.00  0.00     0.124 S 
ATOM     79  O   UNL A   1      45.061  33.333  25.086  1.00  0.00    -0.237 OA
ATOM     80  O   UNL A   1      45.284  35.159  26.750  1.00  0.00    -0.237 OA
ATOM     81  O   UNL A   1      47.073  34.750  25.110  1.00  0.00    -0.744 OA
ENDBRANCH  74  78
ENDBRANCH  47  71
BRANCH  59  82
ATOM     82  C   UNL A   1      45.185  26.004  32.073  1.00  0.00     0.023 A 
ATOM     83  C   UNL A   1      44.036  26.705  32.507  1.00  0.00     0.031 A 
ATOM     84  C   UNL A   1      46.043  25.483  33.058  1.00  0.00     0.131 A 
ATOM     85  C   UNL A   1      43.785  26.854  33.888  1.00  0.00     0.055 A 
ATOM     86  C   UNL A   1      45.779  25.612  34.419  1.00  0.00     0.041 A 
ATOM     87  F   UNL A   1      47.136  24.785  32.705  1.00  0.00    -0.206 F 
ATOM     88  C   UNL A   1      44.648  26.300  34.840  1.00  0.00     0.022 A 
BRANCH  85  89
ATOM     89  S   UNL A   1      42.324  27.772  34.482  1.00  0.00     0.124 S 
ATOM     90  O   UNL A   1      41.288  26.747  34.561  1.00  0.00    -0.237 OA
ATOM     91  O   UNL A   1      42.784  28.316  35.756  1.00  0.00    -0.237 OA
ATOM     92  O   UNL A   1      42.104  28.776  33.439  1.00  0.00    -0.744 OA
ENDBRANCH  85  89
ENDBRANCH  59  82
ENDBRANCH  33  34
ENDBRANCH  25  28
ENDBRANCH  23  24
ENDBRANCH  22  23
ENDBRANCH   1  22
TORSDOF 18
ENDMDL
