MODEL 1
REMARK VINA RESULT:     -10.6      0.000      0.000
REMARK SMILES CC[C@H](C(=O)NCCCCNC(=O)c1ccc(-c2c3nc(c(-c4cc(S(=O)(=O)[O-])ccc4F)c4ccc([nH]4)c(-c4cc(S(=O)(=O)[O-])ccc4F)c4nc(c(-c5cc(S(=O)(=O)[O-])ccc5F)c5ccc2[nH]5)C=C4)C=C3)cc1)[N@@H+](C)Cc1cncn1C(C)C
REMARK SMILES IDX 8 1 7 2 6 3 4 4 5 5 3 7 2 8 1 9 77 10 78 11 79 13 80 14
REMARK SMILES IDX 81 15 84 16 82 17 83 18 85 19 86 20 87 21 9 22 10 23 11 24
REMARK SMILES IDX 12 25 13 27 14 28 15 29 76 30 16 31 75 32 17 33 18 34 19 35
REMARK SMILES IDX 69 36 20 37 74 38 68 39 70 40 21 41 73 42 67 43 66 44 22 46
REMARK SMILES IDX 54 47 34 48 53 49 35 50 38 51 52 52 71 53 36 54 37 55 51 57
REMARK SMILES IDX 72 58 39 59 23 60 24 61 32 62 25 63 31 64 33 65 30 66 26 67
REMARK SMILES IDX 27 68 28 69 29 70 55 71 56 72 64 73 57 74 63 75 65 76 62 77
REMARK SMILES IDX 58 78 59 79 60 80 61 81 40 82 41 83 49 84 42 85 48 86 50 87
REMARK SMILES IDX 47 88 43 89 44 90 45 91 46 92
REMARK H PARENT 6 6 77 12 11 26 70 45 38 56
REMARK Flexibility Score: inf
ROOT
ATOM      1  C   UNL A   1      32.800  29.995  25.705  1.00  0.00     0.023 C 
ENDROOT
BRANCH   1   2
ATOM      2  C   UNL A   1      31.569  29.296  25.135  1.00  0.00     0.116 C 
BRANCH   2   3
ATOM      3  N   UNL A   1      31.242  28.091  25.868  1.00  0.00    -0.351 N 
ATOM      4  C   UNL A   1      31.395  26.769  25.616  1.00  0.00     0.278 C 
ATOM      5  O   UNL A   1      30.948  26.019  26.501  1.00  0.00    -0.268 OA
ATOM      6  H   UNL A   1      30.816  28.272  26.737  1.00  0.00     0.163 HD
BRANCH   4   7
ATOM      7  C   UNL A   1      32.104  26.134  24.381  1.00  0.00     0.273 C 
BRANCH   7   8
ATOM      8  C   UNL A   1      33.526  26.529  23.958  1.00  0.00     0.072 C 
ATOM      9  C   UNL A   1      33.649  26.928  22.492  1.00  0.00     0.011 C 
ENDBRANCH   7   8
BRANCH   7  10
ATOM     10  N   UNL A   1      31.869  24.673  24.362  1.00  0.00    -0.322 N 
ATOM     11  C   UNL A   1      30.650  24.234  23.722  1.00  0.00     0.333 C 
ATOM     12  H   UNL A   1      31.679  24.585  25.360  1.00  0.00     0.348 HD
BRANCH  10  13
ATOM     13  C   UNL A   1      32.969  23.725  24.444  1.00  0.00     0.319 C 
BRANCH  13  14
ATOM     14  C   UNL A   1      33.111  22.968  25.717  1.00  0.00     0.093 A 
ATOM     15  C   UNL A   1      32.514  23.228  26.937  1.00  0.00     0.140 A 
ATOM     16  N   UNL A   1      33.774  21.776  25.923  1.00  0.00    -0.327 N 
ATOM     17  N   UNL A   1      32.902  22.331  27.891  1.00  0.00    -0.245 NA
ATOM     18  C   UNL A   1      33.663  21.475  27.257  1.00  0.00     0.200 A 
BRANCH  16  19
ATOM     19  C   UNL A   1      34.423  20.919  24.939  1.00  0.00     0.082 C 
ATOM     20  C   UNL A   1      35.944  20.924  25.100  1.00  0.00     0.031 C 
ATOM     21  C   UNL A   1      33.876  19.490  24.981  1.00  0.00     0.031 C 
ENDBRANCH  16  19
ENDBRANCH  13  14
ENDBRANCH  10  13
ENDBRANCH   7  10
ENDBRANCH   4   7
ENDBRANCH   2   3
ENDBRANCH   1   2
BRANCH   1  22
ATOM     22  C   UNL A   1      32.595  30.643  27.074  1.00  0.00     0.023 C 
BRANCH  22  23
ATOM     23  C   UNL A   1      33.581  31.750  27.430  1.00  0.00     0.116 C 
BRANCH  23  24
ATOM     24  N   UNL A   1      32.960  33.054  27.618  1.00  0.00    -0.352 N 
ATOM     25  C   UNL A   1      33.296  34.031  28.527  1.00  0.00     0.251 C 
ATOM     26  H   UNL A   1      32.204  33.261  27.022  1.00  0.00     0.163 HD
ATOM     27  O   UNL A   1      32.623  35.053  28.628  1.00  0.00    -0.269 OA
BRANCH  25  28
ATOM     28  C   UNL A   1      34.454  33.799  29.411  1.00  0.00     0.039 A 
ATOM     29  C   UNL A   1      34.273  33.051  30.577  1.00  0.00     0.014 A 
ATOM     30  C   UNL A   1      35.728  34.215  29.017  1.00  0.00     0.014 A 
ATOM     31  C   UNL A   1      35.390  32.627  31.296  1.00  0.00     0.010 A 
ATOM     32  C   UNL A   1      36.841  33.737  29.699  1.00  0.00     0.010 A 
ATOM     33  C   UNL A   1      36.683  32.916  30.827  1.00  0.00    -0.014 A 
BRANCH  33  34
ATOM     34  C   UNL A   1      37.887  32.325  31.462  1.00  0.00     0.031 A 
ATOM     35  C   UNL A   1      38.603  31.186  30.797  1.00  0.00     0.074 A 
ATOM     36  C   UNL A   1      38.260  32.745  32.687  1.00  0.00     0.049 A 
ATOM     37  N   UNL A   1      39.583  30.449  31.248  1.00  0.00    -0.248 NA
ATOM     38  C   UNL A   1      38.127  30.807  29.458  1.00  0.00     0.031 C 
ATOM     39  C   UNL A   1      37.605  33.808  33.455  1.00  0.00     0.029 A 
ATOM     40  N   UNL A   1      39.267  32.313  33.515  1.00  0.00    -0.354 N 
ATOM     41  C   UNL A   1      39.831  29.503  30.260  1.00  0.00     0.074 A 
ATOM     42  C   UNL A   1      38.863  29.734  29.207  1.00  0.00     0.031 C 
ATOM     43  C   UNL A   1      38.231  33.950  34.634  1.00  0.00     0.029 A 
ATOM     44  C   UNL A   1      39.302  32.964  34.727  1.00  0.00     0.049 A 
ATOM     45  H   UNL A   1      39.903  31.606  33.265  1.00  0.00     0.167 HD
ATOM     46  C   UNL A   1      40.789  28.545  30.226  1.00  0.00     0.034 A 
ATOM     47  C   UNL A   1      40.093  32.772  35.800  1.00  0.00     0.034 A 
ATOM     48  C   UNL A   1      41.757  28.343  31.277  1.00  0.00     0.049 A 
ATOM     49  C   UNL A   1      41.139  31.690  35.748  1.00  0.00     0.074 A 
ATOM     50  C   UNL A   1      42.825  27.464  31.309  1.00  0.00     0.029 A 
ATOM     51  N   UNL A   1      41.766  29.023  32.488  1.00  0.00    -0.354 N 
ATOM     52  N   UNL A   1      41.401  30.843  34.779  1.00  0.00    -0.248 NA
ATOM     53  C   UNL A   1      41.996  31.539  36.931  1.00  0.00     0.031 C 
ATOM     54  C   UNL A   1      43.445  27.573  32.560  1.00  0.00     0.029 A 
ATOM     55  C   UNL A   1      42.799  28.560  33.288  1.00  0.00     0.049 A 
ATOM     56  H   UNL A   1      41.132  29.732  32.742  1.00  0.00     0.167 HD
ATOM     57  C   UNL A   1      42.463  30.067  35.233  1.00  0.00     0.074 A 
ATOM     58  C   UNL A   1      42.802  30.558  36.553  1.00  0.00     0.031 C 
ATOM     59  C   UNL A   1      43.103  29.044  34.613  1.00  0.00     0.034 A 
BRANCH  46  60
ATOM     60  C   UNL A   1      40.812  27.634  29.025  1.00  0.00     0.023 A 
ATOM     61  C   UNL A   1      41.751  27.801  27.992  1.00  0.00     0.031 A 
ATOM     62  C   UNL A   1      39.856  26.612  28.889  1.00  0.00     0.131 A 
ATOM     63  C   UNL A   1      41.666  27.012  26.836  1.00  0.00     0.055 A 
ATOM     64  C   UNL A   1      39.825  25.780  27.768  1.00  0.00     0.041 A 
ATOM     65  F   UNL A   1      38.923  26.419  29.835  1.00  0.00    -0.206 F 
ATOM     66  C   UNL A   1      40.724  25.988  26.726  1.00  0.00     0.022 A 
BRANCH  63  67
ATOM     67  S   UNL A   1      42.719  27.437  25.421  1.00  0.00     0.124 S 
ATOM     68  O   UNL A   1      43.987  27.742  26.079  1.00  0.00    -0.237 OA
ATOM     69  O   UNL A   1      42.689  26.215  24.626  1.00  0.00    -0.237 OA
ATOM     70  O   UNL A   1      42.043  28.587  24.824  1.00  0.00    -0.744 OA
ENDBRANCH  63  67
ENDBRANCH  46  60
BRANCH  47  71
ATOM     71  C   UNL A   1      39.913  33.595  37.027  1.00  0.00     0.023 A 
ATOM     72  C   UNL A   1      39.282  33.067  38.165  1.00  0.00     0.031 A 
ATOM     73  C   UNL A   1      40.341  34.934  37.069  1.00  0.00     0.131 A 
ATOM     74  C   UNL A   1      39.063  33.884  39.284  1.00  0.00     0.055 A 
ATOM     75  C   UNL A   1      40.157  35.731  38.200  1.00  0.00     0.041 A 
ATOM     76  F   UNL A   1      40.956  35.482  36.010  1.00  0.00    -0.206 F 
ATOM     77  C   UNL A   1      39.505  35.210  39.313  1.00  0.00     0.022 A 
BRANCH  74  78
ATOM     78  S   UNL A   1      38.133  33.206  40.686  1.00  0.00     0.124 S 
ATOM     79  O   UNL A   1      38.283  34.260  41.682  1.00  0.00    -0.237 OA
ATOM     80  O   UNL A   1      36.799  33.048  40.115  1.00  0.00    -0.237 OA
ATOM     81  O   UNL A   1      38.830  31.958  40.987  1.00  0.00    -0.744 OA
ENDBRANCH  74  78
ENDBRANCH  47  71
BRANCH  59  82
ATOM     82  C   UNL A   1      44.245  28.410  35.361  1.00  0.00     0.023 A 
ATOM     83  C   UNL A   1      44.067  27.236  36.113  1.00  0.00     0.031 A 
ATOM     84  C   UNL A   1      45.523  28.996  35.334  1.00  0.00     0.131 A 
ATOM     85  C   UNL A   1      45.140  26.708  36.846  1.00  0.00     0.055 A 
ATOM     86  C   UNL A   1      46.599  28.439  36.026  1.00  0.00     0.041 A 
ATOM     87  F   UNL A   1      45.743  30.119  34.633  1.00  0.00    -0.206 F 
ATOM     88  C   UNL A   1      46.409  27.294  36.795  1.00  0.00     0.022 A 
BRANCH  85  89
ATOM     89  S   UNL A   1      44.843  25.278  37.920  1.00  0.00     0.124 S 
ATOM     90  O   UNL A   1      43.526  24.833  37.474  1.00  0.00    -0.237 OA
ATOM     91  O   UNL A   1      45.958  24.397  37.588  1.00  0.00    -0.237 OA
ATOM     92  O   UNL A   1      44.882  25.846  39.267  1.00  0.00    -0.744 OA
ENDBRANCH  85  89
ENDBRANCH  59  82
ENDBRANCH  33  34
ENDBRANCH  25  28
ENDBRANCH  23  24
ENDBRANCH  22  23
ENDBRANCH   1  22
TORSDOF 19
ENDMDL
MODEL 2
REMARK VINA RESULT:     -10.5      1.841      2.402
REMARK SMILES CC[C@H](C(=O)NCCCCNC(=O)c1ccc(-c2c3nc(c(-c4cc(S(=O)(=O)[O-])ccc4F)c4ccc([nH]4)c(-c4cc(S(=O)(=O)[O-])ccc4F)c4nc(c(-c5cc(S(=O)(=O)[O-])ccc5F)c5ccc2[nH]5)C=C4)C=C3)cc1)[N@@H+](C)Cc1cncn1C(C)C
REMARK SMILES IDX 8 1 7 2 6 3 4 4 5 5 3 7 2 8 1 9 77 10 78 11 79 13 80 14
REMARK SMILES IDX 81 15 84 16 82 17 83 18 85 19 86 20 87 21 9 22 10 23 11 24
REMARK SMILES IDX 12 25 13 27 14 28 15 29 76 30 16 31 75 32 17 33 18 34 19 35
REMARK SMILES IDX 69 36 20 37 74 38 68 39 70 40 21 41 73 42 67 43 66 44 22 46
REMARK SMILES IDX 54 47 34 48 53 49 35 50 38 51 52 52 71 53 36 54 37 55 51 57
REMARK SMILES IDX 72 58 39 59 23 60 24 61 32 62 25 63 31 64 33 65 30 66 26 67
REMARK SMILES IDX 27 68 28 69 29 70 55 71 56 72 64 73 57 74 63 75 65 76 62 77
REMARK SMILES IDX 58 78 59 79 60 80 61 81 40 82 41 83 49 84 42 85 48 86 50 87
REMARK SMILES IDX 47 88 43 89 44 90 45 91 46 92
REMARK H PARENT 6 6 77 12 11 26 70 45 38 56
REMARK Flexibility Score: inf
ROOT
ATOM      1  C   UNL A   1      30.587  31.378  24.992  1.00  0.00     0.023 C 
ENDROOT
BRANCH   1   2
ATOM      2  C   UNL A   1      30.711  29.948  24.475  1.00  0.00     0.116 C 
BRANCH   2   3
ATOM      3  N   UNL A   1      32.093  29.547  24.315  1.00  0.00    -0.351 N 
ATOM      4  C   UNL A   1      32.798  28.447  24.672  1.00  0.00     0.278 C 
ATOM      5  O   UNL A   1      34.005  28.488  24.378  1.00  0.00    -0.268 OA
ATOM      6  H   UNL A   1      32.638  30.219  23.846  1.00  0.00     0.163 HD
BRANCH   4   7
ATOM      7  C   UNL A   1      32.233  27.160  25.349  1.00  0.00     0.273 C 
BRANCH   7   8
ATOM      8  C   UNL A   1      31.263  27.216  26.539  1.00  0.00     0.072 C 
ATOM      9  C   UNL A   1      31.715  28.139  27.664  1.00  0.00     0.011 C 
ENDBRANCH   7   8
BRANCH   7  10
ATOM     10  N   UNL A   1      31.838  26.179  24.314  1.00  0.00    -0.322 N 
ATOM     11  C   UNL A   1      30.510  26.334  23.766  1.00  0.00     0.333 C 
ATOM     12  H   UNL A   1      31.760  25.384  24.949  1.00  0.00     0.348 HD
BRANCH  10  13
ATOM     13  C   UNL A   1      32.829  25.491  23.502  1.00  0.00     0.319 C 
BRANCH  13  14
ATOM     14  C   UNL A   1      33.697  24.501  24.196  1.00  0.00     0.093 A 
ATOM     15  C   UNL A   1      34.923  24.715  24.801  1.00  0.00     0.140 A 
ATOM     16  N   UNL A   1      33.411  23.184  24.491  1.00  0.00    -0.327 N 
ATOM     17  N   UNL A   1      35.441  23.561  25.315  1.00  0.00    -0.245 NA
ATOM     18  C   UNL A   1      34.516  22.656  25.109  1.00  0.00     0.200 A 
BRANCH  16  19
ATOM     19  C   UNL A   1      32.165  22.458  24.277  1.00  0.00     0.082 C 
ATOM     20  C   UNL A   1      32.415  21.058  23.716  1.00  0.00     0.031 C 
ATOM     21  C   UNL A   1      31.320  22.391  25.552  1.00  0.00     0.031 C 
ENDBRANCH  16  19
ENDBRANCH  13  14
ENDBRANCH  10  13
ENDBRANCH   7  10
ENDBRANCH   4   7
ENDBRANCH   2   3
ENDBRANCH   1   2
BRANCH   1  22
ATOM     22  C   UNL A   1      31.019  31.576  26.445  1.00  0.00     0.023 C 
BRANCH  22  23
ATOM     23  C   UNL A   1      32.366  32.262  26.641  1.00  0.00     0.116 C 
BRANCH  23  24
ATOM     24  N   UNL A   1      32.277  33.550  27.316  1.00  0.00    -0.352 N 
ATOM     25  C   UNL A   1      33.160  34.099  28.218  1.00  0.00     0.251 C 
ATOM     26  H   UNL A   1      31.486  34.096  27.099  1.00  0.00     0.163 HD
ATOM     27  O   UNL A   1      32.910  35.164  28.774  1.00  0.00    -0.269 OA
BRANCH  25  28
ATOM     28  C   UNL A   1      34.390  33.350  28.540  1.00  0.00     0.039 A 
ATOM     29  C   UNL A   1      35.627  33.926  28.243  1.00  0.00     0.014 A 
ATOM     30  C   UNL A   1      34.311  32.145  29.243  1.00  0.00     0.014 A 
ATOM     31  C   UNL A   1      36.790  33.344  28.748  1.00  0.00     0.010 A 
ATOM     32  C   UNL A   1      35.464  31.604  29.799  1.00  0.00     0.010 A 
ATOM     33  C   UNL A   1      36.709  32.214  29.579  1.00  0.00    -0.014 A 
BRANCH  33  34
ATOM     34  C   UNL A   1      37.905  31.683  30.281  1.00  0.00     0.031 A 
ATOM     35  C   UNL A   1      38.735  30.608  29.641  1.00  0.00     0.074 A 
ATOM     36  C   UNL A   1      38.168  32.093  31.537  1.00  0.00     0.049 A 
ATOM     37  N   UNL A   1      39.728  29.923  30.141  1.00  0.00    -0.248 NA
ATOM     38  C   UNL A   1      38.373  30.236  28.265  1.00  0.00     0.031 C 
ATOM     39  C   UNL A   1      37.398  33.093  32.282  1.00  0.00     0.029 A 
ATOM     40  N   UNL A   1      39.144  31.704  32.421  1.00  0.00    -0.354 N 
ATOM     41  C   UNL A   1      40.100  29.020  29.151  1.00  0.00     0.074 A 
ATOM     42  C   UNL A   1      39.191  29.218  28.041  1.00  0.00     0.031 C 
ATOM     43  C   UNL A   1      37.934  33.244  33.503  1.00  0.00     0.029 A 
ATOM     44  C   UNL A   1      39.057  32.324  33.647  1.00  0.00     0.049 A 
ATOM     45  H   UNL A   1      39.840  31.044  32.199  1.00  0.00     0.167 HD
ATOM     46  C   UNL A   1      41.119  28.125  29.162  1.00  0.00     0.034 A 
ATOM     47  C   UNL A   1      39.787  32.154  34.767  1.00  0.00     0.034 A 
ATOM     48  C   UNL A   1      42.026  27.956  30.270  1.00  0.00     0.049 A 
ATOM     49  C   UNL A   1      40.902  31.141  34.761  1.00  0.00     0.074 A 
ATOM     50  C   UNL A   1      43.143  27.145  30.355  1.00  0.00     0.029 A 
ATOM     51  N   UNL A   1      41.911  28.604  31.494  1.00  0.00    -0.354 N 
ATOM     52  N   UNL A   1      41.280  30.338  33.794  1.00  0.00    -0.248 NA
ATOM     53  C   UNL A   1      41.686  31.013  35.996  1.00  0.00     0.031 C 
ATOM     54  C   UNL A   1      43.672  27.260  31.648  1.00  0.00     0.029 A 
ATOM     55  C   UNL A   1      42.917  28.186  32.351  1.00  0.00     0.049 A 
ATOM     56  H   UNL A   1      41.218  29.265  31.719  1.00  0.00     0.167 HD
ATOM     57  C   UNL A   1      42.357  29.618  34.301  1.00  0.00     0.074 A 
ATOM     58  C   UNL A   1      42.577  30.095  35.652  1.00  0.00     0.031 C 
ATOM     59  C   UNL A   1      43.101  28.653  33.704  1.00  0.00     0.034 A 
BRANCH  46  60
ATOM     60  C   UNL A   1      41.278  27.249  27.945  1.00  0.00     0.023 A 
ATOM     61  C   UNL A   1      40.870  25.904  27.947  1.00  0.00     0.031 A 
ATOM     62  C   UNL A   1      41.883  27.754  26.780  1.00  0.00     0.131 A 
ATOM     63  C   UNL A   1      41.143  25.088  26.839  1.00  0.00     0.055 A 
ATOM     64  C   UNL A   1      42.082  26.955  25.652  1.00  0.00     0.041 A 
ATOM     65  F   UNL A   1      42.309  29.025  26.727  1.00  0.00    -0.206 F 
ATOM     66  C   UNL A   1      41.726  25.610  25.683  1.00  0.00     0.022 A 
BRANCH  63  67
ATOM     67  S   UNL A   1      40.849  23.305  26.986  1.00  0.00     0.124 S 
ATOM     68  O   UNL A   1      41.627  22.785  25.864  1.00  0.00    -0.237 OA
ATOM     69  O   UNL A   1      41.368  23.007  28.316  1.00  0.00    -0.237 OA
ATOM     70  O   UNL A   1      39.400  23.183  26.841  1.00  0.00    -0.744 OA
ENDBRANCH  63  67
ENDBRANCH  46  60
BRANCH  47  71
ATOM     71  C   UNL A   1      39.474  32.932  35.997  1.00  0.00     0.023 A 
ATOM     72  C   UNL A   1      38.619  32.413  36.981  1.00  0.00     0.031 A 
ATOM     73  C   UNL A   1      40.001  34.221  36.190  1.00  0.00     0.131 A 
ATOM     74  C   UNL A   1      38.285  33.194  38.098  1.00  0.00     0.055 A 
ATOM     75  C   UNL A   1      39.699  34.978  37.323  1.00  0.00     0.041 A 
ATOM     76  F   UNL A   1      40.830  34.758  35.281  1.00  0.00    -0.206 F 
ATOM     77  C   UNL A   1      38.827  34.469  38.280  1.00  0.00     0.022 A 
BRANCH  74  78
ATOM     78  S   UNL A   1      37.079  32.541  39.285  1.00  0.00     0.124 S 
ATOM     79  O   UNL A   1      35.825  32.715  38.562  1.00  0.00    -0.237 OA
ATOM     80  O   UNL A   1      37.536  31.166  39.455  1.00  0.00    -0.237 OA
ATOM     81  O   UNL A   1      37.251  33.401  40.454  1.00  0.00    -0.744 OA
ENDBRANCH  74  78
ENDBRANCH  47  71
BRANCH  59  82
ATOM     82  C   UNL A   1      44.230  28.072  34.514  1.00  0.00     0.023 A 
ATOM     83  C   UNL A   1      44.041  26.944  35.331  1.00  0.00     0.031 A 
ATOM     84  C   UNL A   1      45.505  28.664  34.479  1.00  0.00     0.131 A 
ATOM     85  C   UNL A   1      45.101  26.469  36.117  1.00  0.00     0.055 A 
ATOM     86  C   UNL A   1      46.569  28.156  35.226  1.00  0.00     0.041 A 
ATOM     87  F   UNL A   1      45.735  29.745  33.716  1.00  0.00    -0.206 F 
ATOM     88  C   UNL A   1      46.367  27.058  36.058  1.00  0.00     0.022 A 
BRANCH  85  89
ATOM     89  S   UNL A   1      44.787  25.103  37.269  1.00  0.00     0.124 S 
ATOM     90  O   UNL A   1      45.057  25.728  38.559  1.00  0.00    -0.237 OA
ATOM     91  O   UNL A   1      43.391  24.778  36.999  1.00  0.00    -0.237 OA
ATOM     92  O   UNL A   1      45.751  24.082  36.861  1.00  0.00    -0.744 OA
ENDBRANCH  85  89
ENDBRANCH  59  82
ENDBRANCH  33  34
ENDBRANCH  25  28
ENDBRANCH  23  24
ENDBRANCH  22  23
ENDBRANCH   1  22
TORSDOF 19
ENDMDL
MODEL 3
REMARK VINA RESULT:     -10.3      5.751     11.559
REMARK SMILES CC[C@H](C(=O)NCCCCNC(=O)c1ccc(-c2c3nc(c(-c4cc(S(=O)(=O)[O-])ccc4F)c4ccc([nH]4)c(-c4cc(S(=O)(=O)[O-])ccc4F)c4nc(c(-c5cc(S(=O)(=O)[O-])ccc5F)c5ccc2[nH]5)C=C4)C=C3)cc1)[N@@H+](C)Cc1cncn1C(C)C
REMARK SMILES IDX 8 1 7 2 6 3 4 4 5 5 3 7 2 8 1 9 77 10 78 11 79 13 80 14
REMARK SMILES IDX 81 15 84 16 82 17 83 18 85 19 86 20 87 21 9 22 10 23 11 24
REMARK SMILES IDX 12 25 13 27 14 28 15 29 76 30 16 31 75 32 17 33 18 34 19 35
REMARK SMILES IDX 69 36 20 37 74 38 68 39 70 40 21 41 73 42 67 43 66 44 22 46
REMARK SMILES IDX 54 47 34 48 53 49 35 50 38 51 52 52 71 53 36 54 37 55 51 57
REMARK SMILES IDX 72 58 39 59 23 60 24 61 32 62 25 63 31 64 33 65 30 66 26 67
REMARK SMILES IDX 27 68 28 69 29 70 55 71 56 72 64 73 57 74 63 75 65 76 62 77
REMARK SMILES IDX 58 78 59 79 60 80 61 81 40 82 41 83 49 84 42 85 48 86 50 87
REMARK SMILES IDX 47 88 43 89 44 90 45 91 46 92
REMARK H PARENT 6 6 77 12 11 26 70 45 38 56
REMARK Flexibility Score: inf
ROOT
ATOM      1  C   UNL A   1      37.371  23.005  24.855  1.00  0.00     0.023 C 
ENDROOT
BRANCH   1   2
ATOM      2  C   UNL A   1      36.132  23.607  25.513  1.00  0.00     0.116 C 
BRANCH   2   3
ATOM      3  N   UNL A   1      35.543  22.708  26.483  1.00  0.00    -0.351 N 
ATOM      4  C   UNL A   1      34.315  22.154  26.623  1.00  0.00     0.278 C 
ATOM      5  O   UNL A   1      34.182  21.438  27.631  1.00  0.00    -0.268 OA
ATOM      6  H   UNL A   1      36.170  22.441  27.193  1.00  0.00     0.163 HD
BRANCH   4   7
ATOM      7  C   UNL A   1      33.115  22.292  25.637  1.00  0.00     0.273 C 
BRANCH   7   8
ATOM      8  C   UNL A   1      32.318  21.079  25.137  1.00  0.00     0.072 C 
ATOM      9  C   UNL A   1      32.554  20.744  23.669  1.00  0.00     0.011 C 
ENDBRANCH   7   8
BRANCH   7  10
ATOM     10  N   UNL A   1      32.260  23.431  26.041  1.00  0.00    -0.322 N 
ATOM     11  C   UNL A   1      31.110  23.104  26.855  1.00  0.00     0.333 C 
ATOM     12  H   UNL A   1      31.873  23.605  25.113  1.00  0.00     0.348 HD
BRANCH  10  13
ATOM     13  C   UNL A   1      32.785  24.783  26.125  1.00  0.00     0.319 C 
BRANCH  13  14
ATOM     14  C   UNL A   1      32.034  25.844  25.400  1.00  0.00     0.093 A 
ATOM     15  C   UNL A   1      31.162  26.783  25.922  1.00  0.00     0.140 A 
ATOM     16  N   UNL A   1      32.137  26.194  24.070  1.00  0.00    -0.327 N 
ATOM     17  N   UNL A   1      30.636  27.581  24.947  1.00  0.00    -0.245 NA
ATOM     18  C   UNL A   1      31.233  27.202  23.844  1.00  0.00     0.200 A 
BRANCH  16  19
ATOM     19  C   UNL A   1      33.059  25.680  23.066  1.00  0.00     0.082 C 
ATOM     20  C   UNL A   1      32.378  24.682  22.129  1.00  0.00     0.031 C 
ATOM     21  C   UNL A   1      33.722  26.808  22.271  1.00  0.00     0.031 C 
ENDBRANCH  16  19
ENDBRANCH  13  14
ENDBRANCH  10  13
ENDBRANCH   7  10
ENDBRANCH   4   7
ENDBRANCH   2   3
ENDBRANCH   1   2
BRANCH   1  22
ATOM     22  C   UNL A   1      37.773  21.628  25.381  1.00  0.00     0.023 C 
BRANCH  22  23
ATOM     23  C   UNL A   1      39.111  21.569  26.110  1.00  0.00     0.116 C 
BRANCH  23  24
ATOM     24  N   UNL A   1      39.777  20.277  26.013  1.00  0.00    -0.352 N 
ATOM     25  C   UNL A   1      41.122  20.005  26.121  1.00  0.00     0.251 C 
ATOM     26  H   UNL A   1      39.192  19.502  25.850  1.00  0.00     0.163 HD
ATOM     27  O   UNL A   1      41.551  18.871  25.931  1.00  0.00    -0.269 OA
BRANCH  25  28
ATOM     28  C   UNL A   1      42.042  21.120  26.418  1.00  0.00     0.039 A 
ATOM     29  C   UNL A   1      42.445  21.958  25.375  1.00  0.00     0.014 A 
ATOM     30  C   UNL A   1      42.396  21.400  27.740  1.00  0.00     0.014 A 
ATOM     31  C   UNL A   1      43.118  23.142  25.673  1.00  0.00     0.010 A 
ATOM     32  C   UNL A   1      43.009  22.611  28.038  1.00  0.00     0.010 A 
ATOM     33  C   UNL A   1      43.350  23.505  27.010  1.00  0.00    -0.014 A 
BRANCH  33  34
ATOM     34  C   UNL A   1      43.894  24.839  27.367  1.00  0.00     0.031 A 
ATOM     35  C   UNL A   1      42.983  25.897  27.919  1.00  0.00     0.074 A 
ATOM     36  C   UNL A   1      45.181  25.123  27.088  1.00  0.00     0.049 A 
ATOM     37  N   UNL A   1      43.232  27.156  28.164  1.00  0.00    -0.248 NA
ATOM     38  C   UNL A   1      41.599  25.487  28.199  1.00  0.00     0.031 C 
ATOM     39  C   UNL A   1      46.146  24.190  26.500  1.00  0.00     0.029 A 
ATOM     40  N   UNL A   1      45.896  26.285  27.238  1.00  0.00    -0.354 N 
ATOM     41  C   UNL A   1      42.031  27.699  28.608  1.00  0.00     0.074 A 
ATOM     42  C   UNL A   1      41.046  26.639  28.550  1.00  0.00     0.031 C 
ATOM     43  C   UNL A   1      47.326  24.813  26.348  1.00  0.00     0.029 A 
ATOM     44  C   UNL A   1      47.192  26.198  26.785  1.00  0.00     0.049 A 
ATOM     45  H   UNL A   1      45.517  27.103  27.632  1.00  0.00     0.167 HD
ATOM     46  C   UNL A   1      41.781  28.959  29.041  1.00  0.00     0.034 A 
ATOM     47  C   UNL A   1      48.157  27.135  26.709  1.00  0.00     0.034 A 
ATOM     48  C   UNL A   1      42.781  29.996  29.109  1.00  0.00     0.049 A 
ATOM     49  C   UNL A   1      47.852  28.533  27.180  1.00  0.00     0.074 A 
ATOM     50  C   UNL A   1      42.661  31.279  29.613  1.00  0.00     0.029 A 
ATOM     51  N   UNL A   1      44.085  29.872  28.647  1.00  0.00    -0.354 N 
ATOM     52  N   UNL A   1      46.726  29.015  27.656  1.00  0.00    -0.248 NA
ATOM     53  C   UNL A   1      48.945  29.511  27.105  1.00  0.00     0.031 C 
ATOM     54  C   UNL A   1      43.875  31.948  29.405  1.00  0.00     0.029 A 
ATOM     55  C   UNL A   1      44.770  31.065  28.822  1.00  0.00     0.049 A 
ATOM     56  H   UNL A   1      44.468  29.055  28.253  1.00  0.00     0.167 HD
ATOM     57  C   UNL A   1      46.982  30.351  27.949  1.00  0.00     0.074 A 
ATOM     58  C   UNL A   1      48.371  30.592  27.612  1.00  0.00     0.031 C 
ATOM     59  C   UNL A   1      46.146  31.292  28.454  1.00  0.00     0.034 A 
BRANCH  46  60
ATOM     60  C   UNL A   1      40.365  29.279  29.448  1.00  0.00     0.023 A 
ATOM     61  C   UNL A   1      39.981  29.337  30.799  1.00  0.00     0.031 A 
ATOM     62  C   UNL A   1      39.375  29.490  28.471  1.00  0.00     0.131 A 
ATOM     63  C   UNL A   1      38.633  29.519  31.136  1.00  0.00     0.055 A 
ATOM     64  C   UNL A   1      38.046  29.747  28.816  1.00  0.00     0.041 A 
ATOM     65  F   UNL A   1      39.679  29.428  27.165  1.00  0.00    -0.206 F 
ATOM     66  C   UNL A   1      37.666  29.747  30.155  1.00  0.00     0.022 A 
BRANCH  63  67
ATOM     67  S   UNL A   1      38.141  29.316  32.870  1.00  0.00     0.124 S 
ATOM     68  O   UNL A   1      37.169  30.395  33.028  1.00  0.00    -0.237 OA
ATOM     69  O   UNL A   1      37.600  27.962  32.889  1.00  0.00    -0.237 OA
ATOM     70  O   UNL A   1      39.390  29.500  33.605  1.00  0.00    -0.744 OA
ENDBRANCH  63  67
ENDBRANCH  46  60
BRANCH  47  71
ATOM     71  C   UNL A   1      49.492  26.801  26.141  1.00  0.00     0.023 A 
ATOM     72  C   UNL A   1      49.852  27.217  24.850  1.00  0.00     0.031 A 
ATOM     73  C   UNL A   1      50.415  26.031  26.870  1.00  0.00     0.131 A 
ATOM     74  C   UNL A   1      51.088  26.830  24.311  1.00  0.00     0.055 A 
ATOM     75  C   UNL A   1      51.661  25.682  26.345  1.00  0.00     0.041 A 
ATOM     76  F   UNL A   1      50.121  25.615  28.112  1.00  0.00    -0.206 F 
ATOM     77  C   UNL A   1      51.999  26.074  25.053  1.00  0.00     0.022 A 
BRANCH  74  78
ATOM     78  S   UNL A   1      51.466  27.279  22.595  1.00  0.00     0.124 S 
ATOM     79  O   UNL A   1      51.718  28.711  22.709  1.00  0.00    -0.237 OA
ATOM     80  O   UNL A   1      52.629  26.443  22.314  1.00  0.00    -0.237 OA
ATOM     81  O   UNL A   1      50.251  26.914  21.870  1.00  0.00    -0.744 OA
ENDBRANCH  74  78
ENDBRANCH  47  71
BRANCH  59  82
ATOM     82  C   UNL A   1      46.731  32.660  28.686  1.00  0.00     0.023 A 
ATOM     83  C   UNL A   1      46.652  33.667  27.708  1.00  0.00     0.031 A 
ATOM     84  C   UNL A   1      47.389  32.955  29.893  1.00  0.00     0.131 A 
ATOM     85  C   UNL A   1      47.262  34.909  27.936  1.00  0.00     0.055 A 
ATOM     86  C   UNL A   1      47.951  34.209  30.134  1.00  0.00     0.041 A 
ATOM     87  F   UNL A   1      47.493  32.026  30.857  1.00  0.00    -0.206 F 
ATOM     88  C   UNL A   1      47.898  35.191  29.149  1.00  0.00     0.022 A 
BRANCH  85  89
ATOM     89  S   UNL A   1      47.268  36.135  26.600  1.00  0.00     0.124 S 
ATOM     90  O   UNL A   1      47.819  37.309  27.270  1.00  0.00    -0.237 OA
ATOM     91  O   UNL A   1      48.129  35.510  25.602  1.00  0.00    -0.237 OA
ATOM     92  O   UNL A   1      45.859  36.241  26.224  1.00  0.00    -0.744 OA
ENDBRANCH  85  89
ENDBRANCH  59  82
ENDBRANCH  33  34
ENDBRANCH  25  28
ENDBRANCH  23  24
ENDBRANCH  22  23
ENDBRANCH   1  22
TORSDOF 19
ENDMDL
