MODEL 1
REMARK VINA RESULT:     -12.2      0.000      0.000
REMARK SMILES COCCNC(=O)NC(=O)C[N@H+]1CC[C@H](C(=O)NCCCCNC(=O)c2ccc(-c3c4nc(c(-c5cc(S(=O)(=O)[O-])ccc5F)c5ccc([nH]5)c(-c5cc(S(=O)(=O)[O-])ccc5F)c5nc(c(-c6cc(S(=O)(=O)[O-])ccc6F)c6ccc3[nH]6)C=C5)C=C4)cc2)[C@@H]1C
REMARK SMILES IDX 19 1 18 2 16 3 17 4 15 6 12 7 13 8 89 9 14 11 90 12 11 13
REMARK SMILES IDX 9 14 5 15 6 16 7 18 8 19 10 21 4 22 3 23 2 24 1 25 20 26
REMARK SMILES IDX 21 27 22 28 23 29 24 30 25 32 26 33 27 34 88 35 28 36 87 37
REMARK SMILES IDX 29 38 30 39 31 40 81 41 32 42 86 43 80 44 82 45 33 46 85 47
REMARK SMILES IDX 79 48 78 49 34 51 66 52 46 53 65 54 47 55 50 56 64 57 83 58
REMARK SMILES IDX 48 59 49 60 63 62 84 63 51 64 35 65 36 66 44 67 37 68 43 69
REMARK SMILES IDX 45 70 42 71 38 72 39 73 40 74 41 75 67 76 68 77 76 78 69 79
REMARK SMILES IDX 75 80 77 81 74 82 70 83 71 84 72 85 73 86 52 87 53 88 61 89
REMARK SMILES IDX 54 90 60 91 62 92 59 93 55 94 56 95 57 96 58 97
REMARK H PARENT 18 5 12 10 5 17 8 20 23 31 82 50 50 61
REMARK Flexibility Score: inf
ROOT
ATOM      1  C   UNL A   1      31.594  27.228  25.687  1.00  0.00     0.116 C 
ENDROOT
BRANCH   1   2
ATOM      2  N   UNL A   1      30.528  26.361  26.141  1.00  0.00    -0.356 N 
ATOM      3  C   UNL A   1      30.296  25.035  26.139  1.00  0.00     0.229 C 
ATOM      4  O   UNL A   1      29.342  24.699  26.867  1.00  0.00    -0.275 OA
ATOM      5  H   UNL A   1      29.790  26.865  26.553  1.00  0.00     0.163 HD
BRANCH   3   6
ATOM      6  C   UNL A   1      30.998  23.887  25.392  1.00  0.00     0.142 C 
ATOM      7  N   UNL A   1      33.698  23.383  23.710  1.00  0.00    -0.324 N 
ATOM      8  C   UNL A   1      32.417  24.099  22.480  1.00  0.00     0.263 C 
ATOM      9  C   UNL A   1      32.932  23.298  25.463  1.00  0.00     0.194 C 
ATOM     10  H   UNL A   1      34.414  24.082  23.512  1.00  0.00     0.348 HD
ATOM     11  C   UNL A   1      30.629  24.367  23.430  1.00  0.00     0.081 C 
ATOM     12  C   UNL A   1      33.979  23.954  26.335  1.00  0.00     0.076 C 
BRANCH   7  13
ATOM     13  C   UNL A   1      34.573  22.249  23.499  1.00  0.00     0.364 C 
BRANCH  13  14
ATOM     14  C   UNL A   1      36.033  22.551  23.639  1.00  0.00     0.283 C 
ATOM     15  N   UNL A   1      35.898  19.617  24.991  1.00  0.00    -0.335 N 
ATOM     16  C   UNL A   1      36.948  20.420  24.778  1.00  0.00     0.321 C 
ATOM     17  H   UNL A   1      36.178  18.718  25.279  1.00  0.00     0.165 HD
ATOM     18  O   UNL A   1      38.063  19.963  25.052  1.00  0.00    -0.248 OA
ATOM     19  N   UNL A   1      36.894  21.665  24.246  1.00  0.00    -0.273 N 
ATOM     20  H   UNL A   1      37.782  22.082  24.319  1.00  0.00     0.175 HD
ATOM     21  O   UNL A   1      36.493  23.648  23.299  1.00  0.00    -0.268 OA
BRANCH  15  22
ATOM     22  C   UNL A   1      34.456  19.731  24.905  1.00  0.00     0.146 C 
BRANCH  22  23
ATOM     23  C   UNL A   1      33.217  18.710  25.434  1.00  0.00     0.181 C 
BRANCH  23  24
ATOM     24  O   UNL A   1      32.626  16.815  25.131  1.00  0.00    -0.383 OA
ATOM     25  C   UNL A   1      32.215  15.476  25.706  1.00  0.00     0.194 C 
ENDBRANCH  23  24
ENDBRANCH  22  23
ENDBRANCH  15  22
ENDBRANCH  13  14
ENDBRANCH   7  13
ENDBRANCH   3   6
ENDBRANCH   1   2
BRANCH   1  26
ATOM     26  C   UNL A   1      32.407  27.865  26.814  1.00  0.00     0.023 C 
BRANCH  26  27
ATOM     27  C   UNL A   1      32.088  29.293  27.230  1.00  0.00     0.023 C 
BRANCH  27  28
ATOM     28  C   UNL A   1      33.048  30.325  26.671  1.00  0.00     0.116 C 
BRANCH  28  29
ATOM     29  N   UNL A   1      32.944  31.659  27.259  1.00  0.00    -0.352 N 
ATOM     30  C   UNL A   1      33.929  32.328  27.956  1.00  0.00     0.251 C 
ATOM     31  H   UNL A   1      32.085  32.128  27.146  1.00  0.00     0.163 HD
ATOM     32  O   UNL A   1      33.726  33.430  28.450  1.00  0.00    -0.269 OA
BRANCH  30  33
ATOM     33  C   UNL A   1      35.209  31.622  28.145  1.00  0.00     0.039 A 
ATOM     34  C   UNL A   1      36.393  32.360  28.141  1.00  0.00     0.014 A 
ATOM     35  C   UNL A   1      35.194  30.286  28.550  1.00  0.00     0.014 A 
ATOM     36  C   UNL A   1      37.556  31.776  28.642  1.00  0.00     0.010 A 
ATOM     37  C   UNL A   1      36.320  29.753  29.157  1.00  0.00     0.010 A 
ATOM     38  C   UNL A   1      37.514  30.491  29.208  1.00  0.00    -0.014 A 
BRANCH  38  39
ATOM     39  C   UNL A   1      38.709  29.883  29.848  1.00  0.00     0.031 A 
ATOM     40  C   UNL A   1      39.116  30.334  31.223  1.00  0.00     0.074 A 
ATOM     41  C   UNL A   1      39.464  28.998  29.166  1.00  0.00     0.049 A 
ATOM     42  N   UNL A   1      40.165  30.001  31.929  1.00  0.00    -0.248 NA
ATOM     43  C   UNL A   1      38.251  31.332  31.870  1.00  0.00     0.031 C 
ATOM     44  C   UNL A   1      39.202  28.529  27.802  1.00  0.00     0.029 A 
ATOM     45  N   UNL A   1      40.609  28.332  29.527  1.00  0.00    -0.354 N 
ATOM     46  C   UNL A   1      40.098  30.770  33.087  1.00  0.00     0.074 A 
ATOM     47  C   UNL A   1      38.954  31.643  32.946  1.00  0.00     0.031 C 
ATOM     48  C   UNL A   1      40.130  27.619  27.464  1.00  0.00     0.029 A 
ATOM     49  C   UNL A   1      41.080  27.472  28.561  1.00  0.00     0.049 A 
ATOM     50  H   UNL A   1      41.053  28.460  30.397  1.00  0.00     0.167 HD
ATOM     51  C   UNL A   1      40.896  30.727  34.182  1.00  0.00     0.034 A 
ATOM     52  C   UNL A   1      42.153  26.658  28.566  1.00  0.00     0.034 A 
ATOM     53  C   UNL A   1      42.011  29.824  34.313  1.00  0.00     0.049 A 
ATOM     54  C   UNL A   1      43.032  26.629  29.792  1.00  0.00     0.074 A 
ATOM     55  C   UNL A   1      42.841  29.631  35.403  1.00  0.00     0.029 A 
ATOM     56  N   UNL A   1      42.457  28.963  33.316  1.00  0.00    -0.354 N 
ATOM     57  N   UNL A   1      42.916  27.309  30.910  1.00  0.00    -0.248 NA
ATOM     58  C   UNL A   1      44.181  25.716  29.760  1.00  0.00     0.031 C 
ATOM     59  C   UNL A   1      43.829  28.708  35.041  1.00  0.00     0.029 A 
ATOM     60  C   UNL A   1      43.569  28.264  33.754  1.00  0.00     0.049 A 
ATOM     61  H   UNL A   1      42.041  28.864  32.429  1.00  0.00     0.167 HD
ATOM     62  C   UNL A   1      43.956  26.877  31.728  1.00  0.00     0.074 A 
ATOM     63  C   UNL A   1      44.680  25.871  30.978  1.00  0.00     0.031 C 
ATOM     64  C   UNL A   1      44.282  27.268  32.987  1.00  0.00     0.034 A 
BRANCH  51  65
ATOM     65  C   UNL A   1      40.594  31.700  35.296  1.00  0.00     0.023 A 
ATOM     66  C   UNL A   1      39.523  31.498  36.186  1.00  0.00     0.031 A 
ATOM     67  C   UNL A   1      41.346  32.880  35.436  1.00  0.00     0.131 A 
ATOM     68  C   UNL A   1      39.172  32.500  37.102  1.00  0.00     0.055 A 
ATOM     69  C   UNL A   1      41.052  33.830  36.416  1.00  0.00     0.041 A 
ATOM     70  F   UNL A   1      42.367  33.142  34.604  1.00  0.00    -0.206 F 
ATOM     71  C   UNL A   1      39.946  33.654  37.242  1.00  0.00     0.022 A 
BRANCH  68  72
ATOM     72  S   UNL A   1      37.590  32.353  37.977  1.00  0.00     0.124 S 
ATOM     73  O   UNL A   1      36.716  33.178  37.144  1.00  0.00    -0.237 OA
ATOM     74  O   UNL A   1      37.340  30.918  37.940  1.00  0.00    -0.237 OA
ATOM     75  O   UNL A   1      37.877  32.905  39.300  1.00  0.00    -0.744 OA
ENDBRANCH  68  72
ENDBRANCH  51  65
BRANCH  52  76
ATOM     76  C   UNL A   1      42.458  25.788  27.392  1.00  0.00     0.023 A 
ATOM     77  C   UNL A   1      42.013  24.456  27.352  1.00  0.00     0.031 A 
ATOM     78  C   UNL A   1      43.232  26.255  26.316  1.00  0.00     0.131 A 
ATOM     79  C   UNL A   1      42.384  23.624  26.284  1.00  0.00     0.055 A 
ATOM     80  C   UNL A   1      43.556  25.439  25.230  1.00  0.00     0.041 A 
ATOM     81  F   UNL A   1      43.679  27.521  26.300  1.00  0.00    -0.206 F 
ATOM     82  C   UNL A   1      43.142  24.110  25.217  1.00  0.00     0.022 A 
BRANCH  79  83
ATOM     83  S   UNL A   1      41.929  21.869  26.352  1.00  0.00     0.124 S 
ATOM     84  O   UNL A   1      40.508  21.918  26.030  1.00  0.00    -0.237 OA
ATOM     85  O   UNL A   1      42.800  21.291  25.334  1.00  0.00    -0.237 OA
ATOM     86  O   UNL A   1      42.246  21.490  27.728  1.00  0.00    -0.744 OA
ENDBRANCH  79  83
ENDBRANCH  52  76
BRANCH  64  87
ATOM     87  C   UNL A   1      45.445  26.566  33.643  1.00  0.00     0.023 A 
ATOM     88  C   UNL A   1      45.271  25.394  34.401  1.00  0.00     0.031 A 
ATOM     89  C   UNL A   1      46.746  27.084  33.511  1.00  0.00     0.131 A 
ATOM     90  C   UNL A   1      46.373  24.810  35.043  1.00  0.00     0.055 A 
ATOM     91  C   UNL A   1      47.847  26.462  34.100  1.00  0.00     0.041 A 
ATOM     92  F   UNL A   1      46.968  28.200  32.800  1.00  0.00    -0.206 F 
ATOM     93  C   UNL A   1      47.663  25.326  34.882  1.00  0.00     0.022 A 
BRANCH  90  94
ATOM     94  S   UNL A   1      46.086  23.418  36.168  1.00  0.00     0.124 S 
ATOM     95  O   UNL A   1      45.531  24.086  37.341  1.00  0.00    -0.237 OA
ATOM     96  O   UNL A   1      45.157  22.588  35.409  1.00  0.00    -0.237 OA
ATOM     97  O   UNL A   1      47.419  22.846  36.354  1.00  0.00    -0.744 OA
ENDBRANCH  90  94
ENDBRANCH  64  87
ENDBRANCH  38  39
ENDBRANCH  30  33
ENDBRANCH  28  29
ENDBRANCH  27  28
ENDBRANCH  26  27
ENDBRANCH   1  26
TORSDOF 19
ENDMDL
MODEL 2
REMARK VINA RESULT:     -12.0      2.445      8.184
REMARK SMILES COCCNC(=O)NC(=O)C[N@H+]1CC[C@H](C(=O)NCCCCNC(=O)c2ccc(-c3c4nc(c(-c5cc(S(=O)(=O)[O-])ccc5F)c5ccc([nH]5)c(-c5cc(S(=O)(=O)[O-])ccc5F)c5nc(c(-c6cc(S(=O)(=O)[O-])ccc6F)c6ccc3[nH]6)C=C5)C=C4)cc2)[C@@H]1C
REMARK SMILES IDX 19 1 18 2 16 3 17 4 15 6 12 7 13 8 89 9 14 11 90 12 11 13
REMARK SMILES IDX 9 14 5 15 6 16 7 18 8 19 10 21 4 22 3 23 2 24 1 25 20 26
REMARK SMILES IDX 21 27 22 28 23 29 24 30 25 32 26 33 27 34 88 35 28 36 87 37
REMARK SMILES IDX 29 38 30 39 31 40 81 41 32 42 86 43 80 44 82 45 33 46 85 47
REMARK SMILES IDX 79 48 78 49 34 51 66 52 46 53 65 54 47 55 50 56 64 57 83 58
REMARK SMILES IDX 48 59 49 60 63 62 84 63 51 64 35 65 36 66 44 67 37 68 43 69
REMARK SMILES IDX 45 70 42 71 38 72 39 73 40 74 41 75 67 76 68 77 76 78 69 79
REMARK SMILES IDX 75 80 77 81 74 82 70 83 71 84 72 85 73 86 52 87 53 88 61 89
REMARK SMILES IDX 54 90 60 91 62 92 59 93 55 94 56 95 57 96 58 97
REMARK H PARENT 18 5 12 10 5 17 8 20 23 31 82 50 50 61
REMARK Flexibility Score: inf
ROOT
ATOM      1  C   UNL A   1      32.379  29.938  25.459  1.00  0.00     0.116 C 
ENDROOT
BRANCH   1   2
ATOM      2  N   UNL A   1      31.869  29.289  24.271  1.00  0.00    -0.356 N 
ATOM      3  C   UNL A   1      31.768  28.021  23.832  1.00  0.00     0.229 C 
ATOM      4  O   UNL A   1      31.026  27.899  22.839  1.00  0.00    -0.275 OA
ATOM      5  H   UNL A   1      31.506  29.935  23.622  1.00  0.00     0.163 HD
BRANCH   3   6
ATOM      6  C   UNL A   1      32.414  26.720  24.342  1.00  0.00     0.142 C 
ATOM      7  N   UNL A   1      31.996  23.538  24.070  1.00  0.00    -0.324 N 
ATOM      8  C   UNL A   1      30.826  24.122  25.468  1.00  0.00     0.263 C 
ATOM      9  C   UNL A   1      32.912  25.046  23.323  1.00  0.00     0.194 C 
ATOM     10  H   UNL A   1      31.266  23.079  23.526  1.00  0.00     0.348 HD
ATOM     11  C   UNL A   1      31.083  26.123  25.789  1.00  0.00     0.081 C 
ATOM     12  C   UNL A   1      32.709  24.876  21.834  1.00  0.00     0.076 C 
BRANCH   7  13
ATOM     13  C   UNL A   1      32.876  22.388  24.089  1.00  0.00     0.364 C 
BRANCH  13  14
ATOM     14  C   UNL A   1      32.341  21.181  23.383  1.00  0.00     0.283 C 
ATOM     15  N   UNL A   1      33.196  19.886  26.219  1.00  0.00    -0.335 N 
ATOM     16  C   UNL A   1      32.615  19.319  25.154  1.00  0.00     0.321 C 
ATOM     17  H   UNL A   1      33.195  19.284  26.999  1.00  0.00     0.165 HD
ATOM     18  O   UNL A   1      32.261  18.142  25.273  1.00  0.00    -0.248 OA
ATOM     19  N   UNL A   1      32.341  19.941  23.982  1.00  0.00    -0.273 N 
ATOM     20  H   UNL A   1      32.036  19.271  23.329  1.00  0.00     0.175 HD
ATOM     21  O   UNL A   1      31.968  21.242  22.205  1.00  0.00    -0.268 OA
BRANCH  15  22
ATOM     22  C   UNL A   1      33.824  21.156  26.520  1.00  0.00     0.146 C 
BRANCH  22  23
ATOM     23  C   UNL A   1      35.402  21.712  26.279  1.00  0.00     0.181 C 
BRANCH  23  24
ATOM     24  O   UNL A   1      36.412  22.753  24.890  1.00  0.00    -0.383 OA
ATOM     25  C   UNL A   1      36.679  23.050  23.430  1.00  0.00     0.194 C 
ENDBRANCH  23  24
ENDBRANCH  22  23
ENDBRANCH  15  22
ENDBRANCH  13  14
ENDBRANCH   7  13
ENDBRANCH   3   6
ENDBRANCH   1   2
BRANCH   1  26
ATOM     26  C   UNL A   1      31.309  30.631  26.303  1.00  0.00     0.023 C 
BRANCH  26  27
ATOM     27  C   UNL A   1      31.386  32.139  26.490  1.00  0.00     0.023 C 
BRANCH  27  28
ATOM     28  C   UNL A   1      32.667  32.612  27.151  1.00  0.00     0.116 C 
BRANCH  28  29
ATOM     29  N   UNL A   1      32.608  33.945  27.746  1.00  0.00    -0.352 N 
ATOM     30  C   UNL A   1      33.531  34.502  28.606  1.00  0.00     0.251 C 
ATOM     31  H   UNL A   1      31.831  34.503  27.508  1.00  0.00     0.163 HD
ATOM     32  O   UNL A   1      33.367  35.616  29.086  1.00  0.00    -0.269 OA
BRANCH  30  33
ATOM     33  C   UNL A   1      34.685  33.663  28.981  1.00  0.00     0.039 A 
ATOM     34  C   UNL A   1      35.972  34.127  28.709  1.00  0.00     0.014 A 
ATOM     35  C   UNL A   1      34.477  32.549  29.794  1.00  0.00     0.014 A 
ATOM     36  C   UNL A   1      37.057  33.522  29.341  1.00  0.00     0.010 A 
ATOM     37  C   UNL A   1      35.544  32.030  30.511  1.00  0.00     0.010 A 
ATOM     38  C   UNL A   1      36.846  32.510  30.293  1.00  0.00    -0.014 A 
BRANCH  38  39
ATOM     39  C   UNL A   1      37.970  31.919  31.063  1.00  0.00     0.031 A 
ATOM     40  C   UNL A   1      38.777  30.808  30.450  1.00  0.00     0.074 A 
ATOM     41  C   UNL A   1      38.207  32.320  32.328  1.00  0.00     0.049 A 
ATOM     42  N   UNL A   1      39.741  30.096  30.973  1.00  0.00    -0.248 NA
ATOM     43  C   UNL A   1      38.417  30.414  29.079  1.00  0.00     0.031 C 
ATOM     44  C   UNL A   1      37.451  33.348  33.050  1.00  0.00     0.029 A 
ATOM     45  N   UNL A   1      39.153  31.911  33.235  1.00  0.00    -0.354 N 
ATOM     46  C   UNL A   1      40.080  29.155  30.007  1.00  0.00     0.074 A 
ATOM     47  C   UNL A   1      39.162  29.335  28.904  1.00  0.00     0.031 C 
ATOM     48  C   UNL A   1      37.994  33.520  34.267  1.00  0.00     0.029 A 
ATOM     49  C   UNL A   1      39.103  32.586  34.433  1.00  0.00     0.049 A 
ATOM     50  H   UNL A   1      39.807  31.199  33.045  1.00  0.00     0.167 HD
ATOM     51  C   UNL A   1      41.086  28.247  30.022  1.00  0.00     0.034 A 
ATOM     52  C   UNL A   1      39.869  32.465  35.536  1.00  0.00     0.034 A 
ATOM     53  C   UNL A   1      42.011  28.109  31.119  1.00  0.00     0.049 A 
ATOM     54  C   UNL A   1      40.980  31.444  35.534  1.00  0.00     0.074 A 
ATOM     55  C   UNL A   1      43.117  27.284  31.216  1.00  0.00     0.029 A 
ATOM     56  N   UNL A   1      41.933  28.813  32.315  1.00  0.00    -0.354 N 
ATOM     57  N   UNL A   1      41.336  30.609  34.585  1.00  0.00    -0.248 NA
ATOM     58  C   UNL A   1      41.798  31.358  36.750  1.00  0.00     0.031 C 
ATOM     59  C   UNL A   1      43.665  27.438  32.494  1.00  0.00     0.029 A 
ATOM     60  C   UNL A   1      42.950  28.416  33.168  1.00  0.00     0.049 A 
ATOM     61  H   UNL A   1      41.255  29.494  32.525  1.00  0.00     0.167 HD
ATOM     62  C   UNL A   1      42.443  29.924  35.077  1.00  0.00     0.074 A 
ATOM     63  C   UNL A   1      42.702  30.453  36.401  1.00  0.00     0.031 C 
ATOM     64  C   UNL A   1      43.186  28.951  34.488  1.00  0.00     0.034 A 
BRANCH  51  65
ATOM     65  C   UNL A   1      41.210  27.331  28.827  1.00  0.00     0.023 A 
ATOM     66  C   UNL A   1      42.261  27.460  27.901  1.00  0.00     0.031 A 
ATOM     67  C   UNL A   1      40.231  26.354  28.574  1.00  0.00     0.131 A 
ATOM     68  C   UNL A   1      42.253  26.704  26.720  1.00  0.00     0.055 A 
ATOM     69  C   UNL A   1      40.282  25.535  27.444  1.00  0.00     0.041 A 
ATOM     70  F   UNL A   1      39.191  26.197  29.408  1.00  0.00    -0.206 F 
ATOM     71  C   UNL A   1      41.285  25.722  26.498  1.00  0.00     0.022 A 
BRANCH  68  72
ATOM     72  S   UNL A   1      43.419  27.147  25.403  1.00  0.00     0.124 S 
ATOM     73  O   UNL A   1      43.839  25.831  24.928  1.00  0.00    -0.237 OA
ATOM     74  O   UNL A   1      42.585  27.919  24.491  1.00  0.00    -0.237 OA
ATOM     75  O   UNL A   1      44.452  27.908  26.102  1.00  0.00    -0.744 OA
ENDBRANCH  68  72
ENDBRANCH  51  65
BRANCH  52  76
ATOM     76  C   UNL A   1      39.635  33.334  36.726  1.00  0.00     0.023 A 
ATOM     77  C   UNL A   1      38.930  32.849  37.840  1.00  0.00     0.031 A 
ATOM     78  C   UNL A   1      40.071  34.670  36.754  1.00  0.00     0.131 A 
ATOM     79  C   UNL A   1      38.639  33.705  38.914  1.00  0.00     0.055 A 
ATOM     80  C   UNL A   1      39.824  35.504  37.847  1.00  0.00     0.041 A 
ATOM     81  F   UNL A   1      40.754  35.183  35.719  1.00  0.00    -0.206 F 
ATOM     82  C   UNL A   1      39.091  35.026  38.930  1.00  0.00     0.022 A 
BRANCH  79  83
ATOM     83  S   UNL A   1      37.585  33.089  40.256  1.00  0.00     0.124 S 
ATOM     84  O   UNL A   1      37.646  34.189  41.211  1.00  0.00    -0.237 OA
ATOM     85  O   UNL A   1      36.308  32.898  39.574  1.00  0.00    -0.237 OA
ATOM     86  O   UNL A   1      38.254  31.859  40.675  1.00  0.00    -0.744 OA
ENDBRANCH  79  83
ENDBRANCH  52  76
BRANCH  64  87
ATOM     87  C   UNL A   1      44.376  28.437  35.259  1.00  0.00     0.023 A 
ATOM     88  C   UNL A   1      44.239  27.489  36.289  1.00  0.00     0.031 A 
ATOM     89  C   UNL A   1      45.667  28.909  34.961  1.00  0.00     0.131 A 
ATOM     90  C   UNL A   1      45.366  27.086  37.019  1.00  0.00     0.055 A 
ATOM     91  C   UNL A   1      46.793  28.455  35.648  1.00  0.00     0.041 A 
ATOM     92  F   UNL A   1      45.855  29.815  33.988  1.00  0.00    -0.206 F 
ATOM     93  C   UNL A   1      46.645  27.548  36.693  1.00  0.00     0.022 A 
BRANCH  90  94
ATOM     94  S   UNL A   1      45.130  26.015  38.464  1.00  0.00     0.124 S 
ATOM     95  O   UNL A   1      43.911  26.562  39.051  1.00  0.00    -0.237 OA
ATOM     96  O   UNL A   1      45.006  24.694  37.857  1.00  0.00    -0.237 OA
ATOM     97  O   UNL A   1      46.345  26.225  39.249  1.00  0.00    -0.744 OA
ENDBRANCH  90  94
ENDBRANCH  64  87
ENDBRANCH  38  39
ENDBRANCH  30  33
ENDBRANCH  28  29
ENDBRANCH  27  28
ENDBRANCH  26  27
ENDBRANCH   1  26
TORSDOF 19
ENDMDL
MODEL 3
REMARK VINA RESULT:     -12.0      2.157      7.948
REMARK SMILES COCCNC(=O)NC(=O)C[N@H+]1CC[C@H](C(=O)NCCCCNC(=O)c2ccc(-c3c4nc(c(-c5cc(S(=O)(=O)[O-])ccc5F)c5ccc([nH]5)c(-c5cc(S(=O)(=O)[O-])ccc5F)c5nc(c(-c6cc(S(=O)(=O)[O-])ccc6F)c6ccc3[nH]6)C=C5)C=C4)cc2)[C@@H]1C
REMARK SMILES IDX 19 1 18 2 16 3 17 4 15 6 12 7 13 8 89 9 14 11 90 12 11 13
REMARK SMILES IDX 9 14 5 15 6 16 7 18 8 19 10 21 4 22 3 23 2 24 1 25 20 26
REMARK SMILES IDX 21 27 22 28 23 29 24 30 25 32 26 33 27 34 88 35 28 36 87 37
REMARK SMILES IDX 29 38 30 39 31 40 81 41 32 42 86 43 80 44 82 45 33 46 85 47
REMARK SMILES IDX 79 48 78 49 34 51 66 52 46 53 65 54 47 55 50 56 64 57 83 58
REMARK SMILES IDX 48 59 49 60 63 62 84 63 51 64 35 65 36 66 44 67 37 68 43 69
REMARK SMILES IDX 45 70 42 71 38 72 39 73 40 74 41 75 67 76 68 77 76 78 69 79
REMARK SMILES IDX 75 80 77 81 74 82 70 83 71 84 72 85 73 86 52 87 53 88 61 89
REMARK SMILES IDX 54 90 60 91 62 92 59 93 55 94 56 95 57 96 58 97
REMARK H PARENT 18 5 12 10 5 17 8 20 23 31 82 50 50 61
REMARK Flexibility Score: inf
ROOT
ATOM      1  C   UNL A   1      32.842  29.842  25.515  1.00  0.00     0.116 C 
ENDROOT
BRANCH   1   2
ATOM      2  N   UNL A   1      32.314  29.194  24.333  1.00  0.00    -0.356 N 
ATOM      3  C   UNL A   1      32.445  27.985  23.756  1.00  0.00     0.229 C 
ATOM      4  O   UNL A   1      31.602  27.768  22.865  1.00  0.00    -0.275 OA
ATOM      5  H   UNL A   1      31.708  29.782  23.826  1.00  0.00     0.163 HD
BRANCH   3   6
ATOM      6  C   UNL A   1      33.454  26.849  24.006  1.00  0.00     0.142 C 
ATOM      7  N   UNL A   1      33.451  23.660  24.456  1.00  0.00    -0.324 N 
ATOM      8  C   UNL A   1      33.121  24.450  26.167  1.00  0.00     0.263 C 
ATOM      9  C   UNL A   1      33.589  25.033  23.127  1.00  0.00     0.194 C 
ATOM     10  H   UNL A   1      32.624  23.063  24.471  1.00  0.00     0.348 HD
ATOM     11  C   UNL A   1      33.198  26.485  26.011  1.00  0.00     0.081 C 
ATOM     12  C   UNL A   1      32.661  24.556  22.033  1.00  0.00     0.076 C 
BRANCH   7  13
ATOM     13  C   UNL A   1      34.372  22.585  24.151  1.00  0.00     0.364 C 
BRANCH  13  14
ATOM     14  C   UNL A   1      35.795  22.856  24.529  1.00  0.00     0.283 C 
ATOM     15  N   UNL A   1      35.685  19.644  24.880  1.00  0.00    -0.335 N 
ATOM     16  C   UNL A   1      36.708  20.493  25.037  1.00  0.00     0.321 C 
ATOM     17  H   UNL A   1      35.982  18.705  24.902  1.00  0.00     0.165 HD
ATOM     18  O   UNL A   1      37.814  19.995  25.270  1.00  0.00    -0.248 OA
ATOM     19  N   UNL A   1      36.640  21.841  24.916  1.00  0.00    -0.273 N 
ATOM     20  H   UNL A   1      37.495  22.231  25.207  1.00  0.00     0.175 HD
ATOM     21  O   UNL A   1      36.229  24.013  24.596  1.00  0.00    -0.268 OA
BRANCH  15  22
ATOM     22  C   UNL A   1      34.253  19.751  24.684  1.00  0.00     0.146 C 
BRANCH  22  23
ATOM     23  C   UNL A   1      32.972  18.794  25.232  1.00  0.00     0.181 C 
BRANCH  23  24
ATOM     24  O   UNL A   1      32.676  16.887  25.786  1.00  0.00    -0.383 OA
ATOM     25  C   UNL A   1      32.786  15.411  25.468  1.00  0.00     0.194 C 
ENDBRANCH  23  24
ENDBRANCH  22  23
ENDBRANCH  15  22
ENDBRANCH  13  14
ENDBRANCH   7  13
ENDBRANCH   3   6
ENDBRANCH   1   2
BRANCH   1  26
ATOM     26  C   UNL A   1      31.790  30.162  26.577  1.00  0.00     0.023 C 
BRANCH  26  27
ATOM     27  C   UNL A   1      31.261  31.584  26.678  1.00  0.00     0.023 C 
BRANCH  27  28
ATOM     28  C   UNL A   1      32.328  32.650  26.523  1.00  0.00     0.116 C 
BRANCH  28  29
ATOM     29  N   UNL A   1      32.113  33.869  27.301  1.00  0.00    -0.352 N 
ATOM     30  C   UNL A   1      32.950  34.384  28.268  1.00  0.00     0.251 C 
ATOM     31  H   UNL A   1      31.286  34.373  27.115  1.00  0.00     0.163 HD
ATOM     32  O   UNL A   1      32.656  35.392  28.897  1.00  0.00    -0.269 OA
BRANCH  30  33
ATOM     33  C   UNL A   1      34.177  33.621  28.564  1.00  0.00     0.039 A 
ATOM     34  C   UNL A   1      35.405  34.283  28.533  1.00  0.00     0.014 A 
ATOM     35  C   UNL A   1      34.065  32.332  29.086  1.00  0.00     0.014 A 
ATOM     36  C   UNL A   1      36.514  33.678  29.124  1.00  0.00     0.010 A 
ATOM     37  C   UNL A   1      35.138  31.789  29.776  1.00  0.00     0.010 A 
ATOM     38  C   UNL A   1      36.374  32.455  29.802  1.00  0.00    -0.014 A 
BRANCH  38  39
ATOM     39  C   UNL A   1      37.510  31.836  30.533  1.00  0.00     0.031 A 
ATOM     40  C   UNL A   1      38.345  30.791  29.845  1.00  0.00     0.074 A 
ATOM     41  C   UNL A   1      37.734  32.152  31.824  1.00  0.00     0.049 A 
ATOM     42  N   UNL A   1      39.323  30.066  30.321  1.00  0.00    -0.248 NA
ATOM     43  C   UNL A   1      37.997  30.487  28.449  1.00  0.00     0.031 C 
ATOM     44  C   UNL A   1      36.953  33.108  32.615  1.00  0.00     0.029 A 
ATOM     45  N   UNL A   1      38.688  31.701  32.703  1.00  0.00    -0.354 N 
ATOM     46  C   UNL A   1      39.686  29.204  29.291  1.00  0.00     0.074 A 
ATOM     47  C   UNL A   1      38.767  29.441  28.201  1.00  0.00     0.031 C 
ATOM     48  C   UNL A   1      37.489  33.205  33.842  1.00  0.00     0.029 A 
ATOM     49  C   UNL A   1      38.619  32.288  33.946  1.00  0.00     0.049 A 
ATOM     50  H   UNL A   1      39.358  31.019  32.466  1.00  0.00     0.167 HD
ATOM     51  C   UNL A   1      40.713  28.320  29.246  1.00  0.00     0.034 A 
ATOM     52  C   UNL A   1      39.384  32.106  35.041  1.00  0.00     0.034 A 
ATOM     53  C   UNL A   1      41.638  28.126  30.335  1.00  0.00     0.049 A 
ATOM     54  C   UNL A   1      40.519  31.113  34.972  1.00  0.00     0.074 A 
ATOM     55  C   UNL A   1      42.762  27.322  30.377  1.00  0.00     0.029 A 
ATOM     56  N   UNL A   1      41.540  28.740  31.577  1.00  0.00    -0.354 N 
ATOM     57  N   UNL A   1      40.896  30.356  33.967  1.00  0.00    -0.248 NA
ATOM     58  C   UNL A   1      41.335  30.960  36.182  1.00  0.00     0.031 C 
ATOM     59  C   UNL A   1      43.303  27.396  31.665  1.00  0.00     0.029 A 
ATOM     60  C   UNL A   1      42.564  28.307  32.404  1.00  0.00     0.049 A 
ATOM     61  H   UNL A   1      40.846  29.390  31.833  1.00  0.00     0.167 HD
ATOM     62  C   UNL A   1      42.018  29.664  34.414  1.00  0.00     0.074 A 
ATOM     63  C   UNL A   1      42.260  30.103  35.773  1.00  0.00     0.031 C 
ATOM     64  C   UNL A   1      42.784  28.753  33.760  1.00  0.00     0.034 A 
BRANCH  51  65
ATOM     65  C   UNL A   1      40.861  27.495  27.990  1.00  0.00     0.023 A 
ATOM     66  C   UNL A   1      40.398  26.169  27.916  1.00  0.00     0.031 A 
ATOM     67  C   UNL A   1      41.529  28.018  26.868  1.00  0.00     0.131 A 
ATOM     68  C   UNL A   1      40.698  25.381  26.795  1.00  0.00     0.055 A 
ATOM     69  C   UNL A   1      41.739  27.259  25.715  1.00  0.00     0.041 A 
ATOM     70  F   UNL A   1      42.014  29.270  26.884  1.00  0.00    -0.206 F 
ATOM     71  C   UNL A   1      41.342  25.926  25.682  1.00  0.00     0.022 A 
BRANCH  68  72
ATOM     72  S   UNL A   1      40.396  23.595  26.889  1.00  0.00     0.124 S 
ATOM     73  O   UNL A   1      41.499  23.069  26.087  1.00  0.00    -0.237 OA
ATOM     74  O   UNL A   1      40.468  23.338  28.322  1.00  0.00    -0.237 OA
ATOM     75  O   UNL A   1      39.072  23.440  26.291  1.00  0.00    -0.744 OA
ENDBRANCH  68  72
ENDBRANCH  51  65
BRANCH  52  76
ATOM     76  C   UNL A   1      39.127  32.882  36.289  1.00  0.00     0.023 A 
ATOM     77  C   UNL A   1      39.672  34.166  36.460  1.00  0.00     0.031 A 
ATOM     78  C   UNL A   1      38.376  32.341  37.347  1.00  0.00     0.131 A 
ATOM     79  C   UNL A   1      39.498  34.845  37.676  1.00  0.00     0.055 A 
ATOM     80  C   UNL A   1      38.162  33.042  38.535  1.00  0.00     0.041 A 
ATOM     81  F   UNL A   1      37.828  31.120  37.235  1.00  0.00    -0.206 F 
ATOM     82  C   UNL A   1      38.737  34.298  38.710  1.00  0.00     0.022 A 
BRANCH  79  83
ATOM     83  S   UNL A   1      40.355  36.426  37.917  1.00  0.00     0.124 S 
ATOM     84  O   UNL A   1      40.613  36.837  36.541  1.00  0.00    -0.237 OA
ATOM     85  O   UNL A   1      39.358  37.204  38.644  1.00  0.00    -0.237 OA
ATOM     86  O   UNL A   1      41.539  36.056  38.690  1.00  0.00    -0.744 OA
ENDBRANCH  79  83
ENDBRANCH  52  76
BRANCH  64  87
ATOM     87  C   UNL A   1      43.984  28.212  34.498  1.00  0.00     0.023 A 
ATOM     88  C   UNL A   1      43.898  27.074  35.319  1.00  0.00     0.031 A 
ATOM     89  C   UNL A   1      45.231  28.851  34.380  1.00  0.00     0.131 A 
ATOM     90  C   UNL A   1      45.026  26.643  36.033  1.00  0.00     0.055 A 
ATOM     91  C   UNL A   1      46.365  28.380  35.043  1.00  0.00     0.041 A 
ATOM     92  F   UNL A   1      45.369  29.942  33.610  1.00  0.00    -0.206 F 
ATOM     93  C   UNL A   1      46.263  27.278  35.886  1.00  0.00     0.022 A 
BRANCH  90  94
ATOM     94  S   UNL A   1      44.835  25.295  37.231  1.00  0.00     0.124 S 
ATOM     95  O   UNL A   1      43.639  25.706  37.962  1.00  0.00    -0.237 OA
ATOM     96  O   UNL A   1      44.684  24.129  36.369  1.00  0.00    -0.237 OA
ATOM     97  O   UNL A   1      46.077  25.341  38.001  1.00  0.00    -0.744 OA
ENDBRANCH  90  94
ENDBRANCH  64  87
ENDBRANCH  38  39
ENDBRANCH  30  33
ENDBRANCH  28  29
ENDBRANCH  27  28
ENDBRANCH  26  27
ENDBRANCH   1  26
TORSDOF 19
ENDMDL
