MODEL 1
REMARK VINA RESULT:     -11.4      0.000      0.000
REMARK SMILES O=C(CSCc1nnnn1-c1ccc([N+](=O)[O-])cc1)NCCCCNC(=O)c1ccc(-c2c3nc(c(-c4cc(S(=O)(=O)[O-])ccc4F)c4ccc([nH]4)c(-c4cc(S(=O)(=O)[O-])ccc4F)c4nc(c(-c5cc(S(=O)(=O)[O-])ccc5F)c5ccc2[nH]5)C=C4)C=C3)cc1
REMARK SMILES IDX 21 1 20 2 1 3 2 4 3 6 4 7 5 8 6 9 7 10 10 11 8 12 9 13 11 14
REMARK SMILES IDX 12 15 19 16 13 17 18 18 14 19 15 20 16 21 17 22 22 23 23 24
REMARK SMILES IDX 24 25 25 26 26 27 27 29 28 30 29 31 90 32 30 33 89 34 31 35
REMARK SMILES IDX 32 36 33 37 83 38 34 39 88 40 82 41 84 42 35 43 87 44 81 45
REMARK SMILES IDX 80 46 36 48 68 49 48 50 67 51 49 52 52 53 66 54 85 55 50 56
REMARK SMILES IDX 51 57 65 59 86 60 53 61 37 62 38 63 46 64 39 65 45 66 47 67
REMARK SMILES IDX 44 68 40 69 41 70 42 71 43 72 69 73 70 74 78 75 71 76 77 77
REMARK SMILES IDX 79 78 76 79 72 80 73 81 74 82 75 83 54 84 55 85 63 86 56 87
REMARK SMILES IDX 62 88 64 89 61 90 57 91 58 92 59 93 60 94
REMARK H PARENT 20 5 25 28 84 47 52 58
REMARK Flexibility Score: inf
ROOT
ATOM      1  C   UNL A   1      32.005  30.313  25.902  1.00  0.00     0.116 C 
ENDROOT
BRANCH   1   2
ATOM      2  N   UNL A   1      32.097  29.625  24.631  1.00  0.00    -0.355 N 
ATOM      3  O   UNL A   1      29.930  30.073  24.043  1.00  0.00    -0.274 OA
ATOM      4  C   UNL A   1      31.003  29.513  23.814  1.00  0.00     0.230 C 
ATOM      5  H   UNL A   1      32.955  29.233  24.351  1.00  0.00     0.163 HD
BRANCH   4   6
ATOM      6  C   UNL A   1      31.099  28.496  22.717  1.00  0.00     0.169 C 
BRANCH   6   7
ATOM      7  S   UNL A   1      32.347  27.216  22.777  1.00  0.00    -0.144 SA
BRANCH   7   8
ATOM      8  C   UNL A   1      31.375  25.776  23.261  1.00  0.00     0.149 C 
BRANCH   8   9
ATOM      9  C   UNL A   1      31.078  25.386  24.679  1.00  0.00     0.166 A 
ATOM     10  N   UNL A   1      29.961  25.805  25.264  1.00  0.00    -0.113 NA
ATOM     11  N   UNL A   1      31.730  24.584  25.612  1.00  0.00    -0.196 N 
ATOM     12  N   UNL A   1      29.926  25.275  26.516  1.00  0.00    -0.023 NA
ATOM     13  N   UNL A   1      30.996  24.539  26.746  1.00  0.00    -0.040 NA
BRANCH  11  14
ATOM     14  C   UNL A   1      33.033  24.061  25.665  1.00  0.00     0.069 A 
ATOM     15  C   UNL A   1      33.220  22.677  25.699  1.00  0.00     0.035 A 
ATOM     16  C   UNL A   1      34.125  24.943  25.704  1.00  0.00     0.035 A 
ATOM     17  C   UNL A   1      34.516  22.167  25.588  1.00  0.00     0.088 A 
ATOM     18  C   UNL A   1      35.414  24.436  25.521  1.00  0.00     0.088 A 
ATOM     19  C   UNL A   1      35.593  23.051  25.428  1.00  0.00     0.269 A 
BRANCH  19  20
ATOM     20  N   UNL A   1      36.909  22.522  25.072  1.00  0.00     0.062 N 
ATOM     21  O   UNL A   1      36.992  21.822  24.055  1.00  0.00    -0.258 OA
ATOM     22  O   UNL A   1      37.860  22.831  25.805  1.00  0.00    -0.258 OA
ENDBRANCH  19  20
ENDBRANCH  11  14
ENDBRANCH   8   9
ENDBRANCH   7   8
ENDBRANCH   6   7
ENDBRANCH   4   6
ENDBRANCH   1   2
BRANCH   1  23
ATOM     23  C   UNL A   1      32.272  29.382  27.091  1.00  0.00     0.023 C 
BRANCH  23  24
ATOM     24  C   UNL A   1      33.742  29.206  27.500  1.00  0.00     0.023 C 
BRANCH  24  25
ATOM     25  C   UNL A   1      34.632  30.412  27.235  1.00  0.00     0.116 C 
BRANCH  25  26
ATOM     26  N   UNL A   1      34.616  31.389  28.320  1.00  0.00    -0.352 N 
ATOM     27  C   UNL A   1      35.425  31.411  29.440  1.00  0.00     0.251 C 
ATOM     28  H   UNL A   1      33.954  32.114  28.247  1.00  0.00     0.163 HD
ATOM     29  O   UNL A   1      35.058  32.002  30.462  1.00  0.00    -0.269 OA
BRANCH  27  30
ATOM     30  C   UNL A   1      36.731  30.732  29.391  1.00  0.00     0.039 A 
ATOM     31  C   UNL A   1      37.925  31.418  29.149  1.00  0.00     0.014 A 
ATOM     32  C   UNL A   1      36.741  29.360  29.621  1.00  0.00     0.014 A 
ATOM     33  C   UNL A   1      39.128  30.713  29.214  1.00  0.00     0.010 A 
ATOM     34  C   UNL A   1      37.921  28.709  29.858  1.00  0.00     0.010 A 
ATOM     35  C   UNL A   1      39.117  29.357  29.583  1.00  0.00    -0.014 A 
BRANCH  35  36
ATOM     36  C   UNL A   1      40.346  28.611  29.831  1.00  0.00     0.031 A 
ATOM     37  C   UNL A   1      40.644  28.442  31.279  1.00  0.00     0.074 A 
ATOM     38  C   UNL A   1      40.978  27.908  28.861  1.00  0.00     0.049 A 
ATOM     39  N   UNL A   1      41.578  29.006  31.969  1.00  0.00    -0.248 NA
ATOM     40  C   UNL A   1      39.660  27.718  32.108  1.00  0.00     0.031 C 
ATOM     41  C   UNL A   1      40.562  27.725  27.463  1.00  0.00     0.029 A 
ATOM     42  N   UNL A   1      42.074  27.104  28.938  1.00  0.00    -0.354 N 
ATOM     43  C   UNL A   1      41.469  28.476  33.253  1.00  0.00     0.074 A 
ATOM     44  C   UNL A   1      40.144  27.929  33.333  1.00  0.00     0.031 C 
ATOM     45  C   UNL A   1      41.243  26.696  26.910  1.00  0.00     0.029 A 
ATOM     46  C   UNL A   1      42.264  26.255  27.844  1.00  0.00     0.049 A 
ATOM     47  H   UNL A   1      42.686  27.118  29.708  1.00  0.00     0.167 HD
ATOM     48  C   UNL A   1      42.578  28.262  34.016  1.00  0.00     0.034 A 
ATOM     49  C   UNL A   1      43.176  25.249  27.720  1.00  0.00     0.034 A 
ATOM     50  C   UNL A   1      43.712  28.976  33.464  1.00  0.00     0.049 A 
ATOM     51  C   UNL A   1      44.228  25.515  28.734  1.00  0.00     0.074 A 
ATOM     52  C   UNL A   1      43.979  30.302  33.181  1.00  0.00     0.029 A 
ATOM     53  N   UNL A   1      44.625  28.249  32.731  1.00  0.00    -0.354 N 
ATOM     54  N   UNL A   1      45.002  26.567  28.702  1.00  0.00    -0.248 NA
ATOM     55  C   UNL A   1      44.068  24.904  30.045  1.00  0.00     0.031 C 
ATOM     56  C   UNL A   1      44.675  30.275  31.936  1.00  0.00     0.029 A 
ATOM     57  C   UNL A   1      44.895  28.943  31.579  1.00  0.00     0.049 A 
ATOM     58  H   UNL A   1      45.016  27.382  32.990  1.00  0.00     0.167 HD
ATOM     59  C   UNL A   1      45.071  27.003  30.018  1.00  0.00     0.074 A 
ATOM     60  C   UNL A   1      44.545  25.891  30.811  1.00  0.00     0.031 C 
ATOM     61  C   UNL A   1      45.266  28.323  30.317  1.00  0.00     0.034 A 
BRANCH  48  62
ATOM     62  C   UNL A   1      42.764  27.106  34.984  1.00  0.00     0.023 A 
ATOM     63  C   UNL A   1      43.583  26.044  34.551  1.00  0.00     0.031 A 
ATOM     64  C   UNL A   1      41.990  26.840  36.138  1.00  0.00     0.131 A 
ATOM     65  C   UNL A   1      43.508  24.776  35.149  1.00  0.00     0.055 A 
ATOM     66  C   UNL A   1      41.968  25.593  36.770  1.00  0.00     0.041 A 
ATOM     67  F   UNL A   1      41.148  27.727  36.677  1.00  0.00    -0.206 F 
ATOM     68  C   UNL A   1      42.700  24.540  36.256  1.00  0.00     0.022 A 
BRANCH  65  69
ATOM     69  S   UNL A   1      44.342  23.393  34.332  1.00  0.00     0.124 S 
ATOM     70  O   UNL A   1      43.406  23.086  33.256  1.00  0.00    -0.237 OA
ATOM     71  O   UNL A   1      45.607  24.001  33.934  1.00  0.00    -0.237 OA
ATOM     72  O   UNL A   1      44.437  22.386  35.386  1.00  0.00    -0.744 OA
ENDBRANCH  65  69
ENDBRANCH  48  62
BRANCH  49  73
ATOM     73  C   UNL A   1      42.983  23.918  27.060  1.00  0.00     0.023 A 
ATOM     74  C   UNL A   1      43.848  23.393  26.069  1.00  0.00     0.031 A 
ATOM     75  C   UNL A   1      42.034  23.018  27.602  1.00  0.00     0.131 A 
ATOM     76  C   UNL A   1      43.737  22.036  25.665  1.00  0.00     0.055 A 
ATOM     77  C   UNL A   1      41.933  21.683  27.201  1.00  0.00     0.041 A 
ATOM     78  F   UNL A   1      41.223  23.388  28.605  1.00  0.00    -0.206 F 
ATOM     79  C   UNL A   1      42.790  21.183  26.235  1.00  0.00     0.022 A 
BRANCH  76  80
ATOM     80  S   UNL A   1      44.872  21.324  24.421  1.00  0.00     0.124 S 
ATOM     81  O   UNL A   1      44.601  22.141  23.244  1.00  0.00    -0.237 OA
ATOM     82  O   UNL A   1      46.175  21.501  25.049  1.00  0.00    -0.237 OA
ATOM     83  O   UNL A   1      44.432  19.932  24.311  1.00  0.00    -0.744 OA
ENDBRANCH  76  80
ENDBRANCH  49  73
BRANCH  61  84
ATOM     84  C   UNL A   1      45.748  29.258  29.225  1.00  0.00     0.023 A 
ATOM     85  C   UNL A   1      44.930  30.079  28.415  1.00  0.00     0.031 A 
ATOM     86  C   UNL A   1      47.142  29.415  29.119  1.00  0.00     0.131 A 
ATOM     87  C   UNL A   1      45.526  31.019  27.544  1.00  0.00     0.055 A 
ATOM     88  C   UNL A   1      47.723  30.360  28.278  1.00  0.00     0.041 A 
ATOM     89  F   UNL A   1      47.968  28.676  29.878  1.00  0.00    -0.206 F 
ATOM     90  C   UNL A   1      46.917  31.164  27.485  1.00  0.00     0.022 A 
BRANCH  87  91
ATOM     91  S   UNL A   1      44.508  32.073  26.456  1.00  0.00     0.124 S 
ATOM     92  O   UNL A   1      44.142  33.192  27.315  1.00  0.00    -0.237 OA
ATOM     93  O   UNL A   1      45.425  32.378  25.362  1.00  0.00    -0.237 OA
ATOM     94  O   UNL A   1      43.391  31.201  26.085  1.00  0.00    -0.744 OA
ENDBRANCH  87  91
ENDBRANCH  61  84
ENDBRANCH  35  36
ENDBRANCH  27  30
ENDBRANCH  25  26
ENDBRANCH  24  25
ENDBRANCH  23  24
ENDBRANCH   1  23
TORSDOF 19
ENDMDL
MODEL 2
REMARK VINA RESULT:     -11.3      1.689      2.118
REMARK SMILES O=C(CSCc1nnnn1-c1ccc([N+](=O)[O-])cc1)NCCCCNC(=O)c1ccc(-c2c3nc(c(-c4cc(S(=O)(=O)[O-])ccc4F)c4ccc([nH]4)c(-c4cc(S(=O)(=O)[O-])ccc4F)c4nc(c(-c5cc(S(=O)(=O)[O-])ccc5F)c5ccc2[nH]5)C=C4)C=C3)cc1
REMARK SMILES IDX 21 1 20 2 1 3 2 4 3 6 4 7 5 8 6 9 7 10 10 11 8 12 9 13 11 14
REMARK SMILES IDX 12 15 19 16 13 17 18 18 14 19 15 20 16 21 17 22 22 23 23 24
REMARK SMILES IDX 24 25 25 26 26 27 27 29 28 30 29 31 90 32 30 33 89 34 31 35
REMARK SMILES IDX 32 36 33 37 83 38 34 39 88 40 82 41 84 42 35 43 87 44 81 45
REMARK SMILES IDX 80 46 36 48 68 49 48 50 67 51 49 52 52 53 66 54 85 55 50 56
REMARK SMILES IDX 51 57 65 59 86 60 53 61 37 62 38 63 46 64 39 65 45 66 47 67
REMARK SMILES IDX 44 68 40 69 41 70 42 71 43 72 69 73 70 74 78 75 71 76 77 77
REMARK SMILES IDX 79 78 76 79 72 80 73 81 74 82 75 83 54 84 55 85 63 86 56 87
REMARK SMILES IDX 62 88 64 89 61 90 57 91 58 92 59 93 60 94
REMARK H PARENT 20 5 25 28 84 47 52 58
REMARK Flexibility Score: inf
ROOT
ATOM      1  C   UNL A   1      31.863  30.178  25.370  1.00  0.00     0.116 C 
ENDROOT
BRANCH   1   2
ATOM      2  N   UNL A   1      31.114  28.973  25.079  1.00  0.00    -0.355 N 
ATOM      3  O   UNL A   1      31.537  29.053  22.831  1.00  0.00    -0.274 OA
ATOM      4  C   UNL A   1      30.965  28.535  23.790  1.00  0.00     0.230 C 
ATOM      5  H   UNL A   1      30.707  28.463  25.816  1.00  0.00     0.163 HD
BRANCH   4   6
ATOM      6  C   UNL A   1      29.896  27.508  23.561  1.00  0.00     0.169 C 
BRANCH   6   7
ATOM      7  S   UNL A   1      29.891  25.984  24.496  1.00  0.00    -0.144 SA
BRANCH   7   8
ATOM      8  C   UNL A   1      30.400  24.784  23.248  1.00  0.00     0.149 C 
BRANCH   8   9
ATOM      9  C   UNL A   1      31.816  24.565  22.804  1.00  0.00     0.166 A 
ATOM     10  N   UNL A   1      32.461  25.522  22.146  1.00  0.00    -0.113 NA
ATOM     11  N   UNL A   1      32.720  23.518  22.957  1.00  0.00    -0.196 N 
ATOM     12  N   UNL A   1      33.725  25.078  21.906  1.00  0.00    -0.023 NA
ATOM     13  N   UNL A   1      33.895  23.861  22.384  1.00  0.00    -0.040 NA
BRANCH  11  14
ATOM     14  C   UNL A   1      32.560  22.178  23.351  1.00  0.00     0.069 A 
ATOM     15  C   UNL A   1      32.151  21.228  22.412  1.00  0.00     0.035 A 
ATOM     16  C   UNL A   1      32.793  21.824  24.690  1.00  0.00     0.035 A 
ATOM     17  C   UNL A   1      32.151  19.878  22.772  1.00  0.00     0.088 A 
ATOM     18  C   UNL A   1      32.862  20.472  25.031  1.00  0.00     0.088 A 
ATOM     19  C   UNL A   1      32.575  19.508  24.057  1.00  0.00     0.269 A 
BRANCH  19  20
ATOM     20  N   UNL A   1      32.806  18.096  24.358  1.00  0.00     0.062 N 
ATOM     21  O   UNL A   1      33.795  17.553  23.848  1.00  0.00    -0.258 OA
ATOM     22  O   UNL A   1      32.004  17.542  25.124  1.00  0.00    -0.258 OA
ENDBRANCH  19  20
ENDBRANCH  11  14
ENDBRANCH   8   9
ENDBRANCH   7   8
ENDBRANCH   6   7
ENDBRANCH   4   6
ENDBRANCH   1   2
BRANCH   1  23
ATOM     23  C   UNL A   1      32.198  30.312  26.861  1.00  0.00     0.023 C 
BRANCH  23  24
ATOM     24  C   UNL A   1      33.559  29.753  27.303  1.00  0.00     0.023 C 
BRANCH  24  25
ATOM     25  C   UNL A   1      34.698  30.762  27.303  1.00  0.00     0.116 C 
BRANCH  25  26
ATOM     26  N   UNL A   1      34.655  31.681  28.438  1.00  0.00    -0.352 N 
ATOM     27  C   UNL A   1      35.446  31.651  29.571  1.00  0.00     0.251 C 
ATOM     28  H   UNL A   1      33.987  32.403  28.392  1.00  0.00     0.163 HD
ATOM     29  O   UNL A   1      35.056  32.184  30.616  1.00  0.00    -0.269 OA
BRANCH  27  30
ATOM     30  C   UNL A   1      36.760  30.989  29.508  1.00  0.00     0.039 A 
ATOM     31  C   UNL A   1      37.959  31.704  29.444  1.00  0.00     0.014 A 
ATOM     32  C   UNL A   1      36.769  29.598  29.537  1.00  0.00     0.014 A 
ATOM     33  C   UNL A   1      39.163  30.999  29.484  1.00  0.00     0.010 A 
ATOM     34  C   UNL A   1      37.939  28.921  29.752  1.00  0.00     0.010 A 
ATOM     35  C   UNL A   1      39.143  29.604  29.651  1.00  0.00    -0.014 A 
BRANCH  35  36
ATOM     36  C   UNL A   1      40.362  28.831  29.867  1.00  0.00     0.031 A 
ATOM     37  C   UNL A   1      40.676  28.625  31.306  1.00  0.00     0.074 A 
ATOM     38  C   UNL A   1      40.968  28.138  28.873  1.00  0.00     0.049 A 
ATOM     39  N   UNL A   1      41.628  29.158  31.996  1.00  0.00    -0.248 NA
ATOM     40  C   UNL A   1      39.690  27.901  32.133  1.00  0.00     0.031 C 
ATOM     41  C   UNL A   1      40.531  27.993  27.478  1.00  0.00     0.029 A 
ATOM     42  N   UNL A   1      42.051  27.314  28.919  1.00  0.00    -0.354 N 
ATOM     43  C   UNL A   1      41.527  28.603  33.269  1.00  0.00     0.074 A 
ATOM     44  C   UNL A   1      40.193  28.078  33.356  1.00  0.00     0.031 C 
ATOM     45  C   UNL A   1      41.187  26.964  26.894  1.00  0.00     0.029 A 
ATOM     46  C   UNL A   1      42.212  26.486  27.805  1.00  0.00     0.049 A 
ATOM     47  H   UNL A   1      42.673  27.301  29.681  1.00  0.00     0.167 HD
ATOM     48  C   UNL A   1      42.642  28.353  34.013  1.00  0.00     0.034 A 
ATOM     49  C   UNL A   1      43.104  25.467  27.647  1.00  0.00     0.034 A 
ATOM     50  C   UNL A   1      43.781  29.059  33.462  1.00  0.00     0.049 A 
ATOM     51  C   UNL A   1      44.173  25.692  28.652  1.00  0.00     0.074 A 
ATOM     52  C   UNL A   1      44.068  30.386  33.203  1.00  0.00     0.029 A 
ATOM     53  N   UNL A   1      44.671  28.332  32.701  1.00  0.00    -0.354 N 
ATOM     54  N   UNL A   1      44.966  26.731  28.632  1.00  0.00    -0.248 NA
ATOM     55  C   UNL A   1      44.019  25.056  29.952  1.00  0.00     0.031 C 
ATOM     56  C   UNL A   1      44.746  30.374  31.949  1.00  0.00     0.029 A 
ATOM     57  C   UNL A   1      44.938  29.046  31.561  1.00  0.00     0.049 A 
ATOM     58  H   UNL A   1      45.050  27.453  32.936  1.00  0.00     0.167 HD
ATOM     59  C   UNL A   1      45.059  27.137  29.956  1.00  0.00     0.074 A 
ATOM     60  C   UNL A   1      44.524  26.018  30.732  1.00  0.00     0.031 C 
ATOM     61  C   UNL A   1      45.281  28.447  30.281  1.00  0.00     0.034 A 
BRANCH  48  62
ATOM     62  C   UNL A   1      42.820  27.173  34.954  1.00  0.00     0.023 A 
ATOM     63  C   UNL A   1      43.613  26.107  34.487  1.00  0.00     0.031 A 
ATOM     64  C   UNL A   1      42.057  26.896  36.112  1.00  0.00     0.131 A 
ATOM     65  C   UNL A   1      43.523  24.827  35.059  1.00  0.00     0.055 A 
ATOM     66  C   UNL A   1      42.020  25.637  36.719  1.00  0.00     0.041 A 
ATOM     67  F   UNL A   1      41.238  27.787  36.682  1.00  0.00    -0.206 F 
ATOM     68  C   UNL A   1      42.726  24.582  36.171  1.00  0.00     0.022 A 
BRANCH  65  69
ATOM     69  S   UNL A   1      44.320  23.447  34.201  1.00  0.00     0.124 S 
ATOM     70  O   UNL A   1      45.489  24.102  33.625  1.00  0.00    -0.237 OA
ATOM     71  O   UNL A   1      44.573  22.519  35.298  1.00  0.00    -0.237 OA
ATOM     72  O   UNL A   1      43.307  23.017  33.241  1.00  0.00    -0.744 OA
ENDBRANCH  65  69
ENDBRANCH  48  62
BRANCH  49  73
ATOM     73  C   UNL A   1      42.879  24.154  26.961  1.00  0.00     0.023 A 
ATOM     74  C   UNL A   1      43.825  23.533  26.111  1.00  0.00     0.031 A 
ATOM     75  C   UNL A   1      41.774  23.361  27.351  1.00  0.00     0.131 A 
ATOM     76  C   UNL A   1      43.640  22.189  25.690  1.00  0.00     0.055 A 
ATOM     77  C   UNL A   1      41.600  22.037  26.935  1.00  0.00     0.041 A 
ATOM     78  F   UNL A   1      40.862  23.822  28.221  1.00  0.00    -0.206 F 
ATOM     79  C   UNL A   1      42.537  21.442  26.108  1.00  0.00     0.022 A 
BRANCH  76  80
ATOM     80  S   UNL A   1      44.871  21.351  24.629  1.00  0.00     0.124 S 
ATOM     81  O   UNL A   1      46.021  21.229  25.517  1.00  0.00    -0.237 OA
ATOM     82  O   UNL A   1      44.188  20.113  24.275  1.00  0.00    -0.237 OA
ATOM     83  O   UNL A   1      45.057  22.284  23.516  1.00  0.00    -0.744 OA
ENDBRANCH  76  80
ENDBRANCH  49  73
BRANCH  61  84
ATOM     84  C   UNL A   1      45.765  29.397  29.203  1.00  0.00     0.023 A 
ATOM     85  C   UNL A   1      44.963  30.308  28.478  1.00  0.00     0.031 A 
ATOM     86  C   UNL A   1      47.159  29.464  29.021  1.00  0.00     0.131 A 
ATOM     87  C   UNL A   1      45.574  31.244  27.614  1.00  0.00     0.055 A 
ATOM     88  C   UNL A   1      47.757  30.405  28.187  1.00  0.00     0.041 A 
ATOM     89  F   UNL A   1      47.973  28.636  29.698  1.00  0.00    -0.206 F 
ATOM     90  C   UNL A   1      46.966  31.298  27.479  1.00  0.00     0.022 A 
BRANCH  87  91
ATOM     91  S   UNL A   1      44.573  32.414  26.634  1.00  0.00     0.124 S 
ATOM     92  O   UNL A   1      45.567  33.135  25.849  1.00  0.00    -0.237 OA
ATOM     93  O   UNL A   1      43.687  31.526  25.886  1.00  0.00    -0.237 OA
ATOM     94  O   UNL A   1      43.900  33.223  27.652  1.00  0.00    -0.744 OA
ENDBRANCH  87  91
ENDBRANCH  61  84
ENDBRANCH  35  36
ENDBRANCH  27  30
ENDBRANCH  25  26
ENDBRANCH  24  25
ENDBRANCH  23  24
ENDBRANCH   1  23
TORSDOF 19
ENDMDL
MODEL 3
REMARK VINA RESULT:     -11.1      3.521      9.237
REMARK SMILES O=C(CSCc1nnnn1-c1ccc([N+](=O)[O-])cc1)NCCCCNC(=O)c1ccc(-c2c3nc(c(-c4cc(S(=O)(=O)[O-])ccc4F)c4ccc([nH]4)c(-c4cc(S(=O)(=O)[O-])ccc4F)c4nc(c(-c5cc(S(=O)(=O)[O-])ccc5F)c5ccc2[nH]5)C=C4)C=C3)cc1
REMARK SMILES IDX 21 1 20 2 1 3 2 4 3 6 4 7 5 8 6 9 7 10 10 11 8 12 9 13 11 14
REMARK SMILES IDX 12 15 19 16 13 17 18 18 14 19 15 20 16 21 17 22 22 23 23 24
REMARK SMILES IDX 24 25 25 26 26 27 27 29 28 30 29 31 90 32 30 33 89 34 31 35
REMARK SMILES IDX 32 36 33 37 83 38 34 39 88 40 82 41 84 42 35 43 87 44 81 45
REMARK SMILES IDX 80 46 36 48 68 49 48 50 67 51 49 52 52 53 66 54 85 55 50 56
REMARK SMILES IDX 51 57 65 59 86 60 53 61 37 62 38 63 46 64 39 65 45 66 47 67
REMARK SMILES IDX 44 68 40 69 41 70 42 71 43 72 69 73 70 74 78 75 71 76 77 77
REMARK SMILES IDX 79 78 76 79 72 80 73 81 74 82 75 83 54 84 55 85 63 86 56 87
REMARK SMILES IDX 62 88 64 89 61 90 57 91 58 92 59 93 60 94
REMARK H PARENT 20 5 25 28 84 47 52 58
REMARK Flexibility Score: inf
ROOT
ATOM      1  C   UNL A   1      40.409  21.788  26.303  1.00  0.00     0.116 C 
ENDROOT
BRANCH   1   2
ATOM      2  N   UNL A   1      39.026  22.151  26.532  1.00  0.00    -0.355 N 
ATOM      3  O   UNL A   1      38.223  20.814  24.858  1.00  0.00    -0.274 OA
ATOM      4  C   UNL A   1      38.031  21.662  25.730  1.00  0.00     0.230 C 
ATOM      5  H   UNL A   1      38.799  22.757  27.274  1.00  0.00     0.163 HD
BRANCH   4   6
ATOM      6  C   UNL A   1      36.708  22.363  25.815  1.00  0.00     0.169 C 
BRANCH   6   7
ATOM      7  S   UNL A   1      36.322  23.703  24.696  1.00  0.00    -0.144 SA
BRANCH   7   8
ATOM      8  C   UNL A   1      35.110  22.934  23.603  1.00  0.00     0.149 C 
BRANCH   8   9
ATOM      9  C   UNL A   1      33.624  22.996  23.800  1.00  0.00     0.166 A 
ATOM     10  N   UNL A   1      33.028  24.167  23.994  1.00  0.00    -0.113 NA
ATOM     11  N   UNL A   1      32.613  22.039  23.793  1.00  0.00    -0.196 N 
ATOM     12  N   UNL A   1      31.691  23.937  24.099  1.00  0.00    -0.023 NA
ATOM     13  N   UNL A   1      31.424  22.651  23.988  1.00  0.00    -0.040 NA
BRANCH  11  14
ATOM     14  C   UNL A   1      32.637  20.635  23.863  1.00  0.00     0.069 A 
ATOM     15  C   UNL A   1      32.198  19.883  22.771  1.00  0.00     0.035 A 
ATOM     16  C   UNL A   1      33.083  20.015  25.041  1.00  0.00     0.035 A 
ATOM     17  C   UNL A   1      32.377  18.497  22.789  1.00  0.00     0.088 A 
ATOM     18  C   UNL A   1      33.328  18.640  25.034  1.00  0.00     0.088 A 
ATOM     19  C   UNL A   1      33.006  17.898  23.891  1.00  0.00     0.269 A 
BRANCH  19  20
ATOM     20  N   UNL A   1      33.410  16.496  23.812  1.00  0.00     0.062 N 
ATOM     21  O   UNL A   1      32.970  15.721  24.671  1.00  0.00    -0.258 OA
ATOM     22  O   UNL A   1      34.152  16.172  22.873  1.00  0.00    -0.258 OA
ENDBRANCH  19  20
ENDBRANCH  11  14
ENDBRANCH   8   9
ENDBRANCH   7   8
ENDBRANCH   6   7
ENDBRANCH   4   6
ENDBRANCH   1   2
BRANCH   1  23
ATOM     23  C   UNL A   1      40.762  20.422  26.904  1.00  0.00     0.023 C 
BRANCH  23  24
ATOM     24  C   UNL A   1      41.465  19.428  25.966  1.00  0.00     0.023 C 
BRANCH  24  25
ATOM     25  C   UNL A   1      42.898  19.089  26.347  1.00  0.00     0.116 C 
BRANCH  25  26
ATOM     26  N   UNL A   1      43.792  18.990  25.195  1.00  0.00    -0.352 N 
ATOM     27  C   UNL A   1      44.263  20.025  24.409  1.00  0.00     0.251 C 
ATOM     28  H   UNL A   1      44.093  18.086  24.951  1.00  0.00     0.163 HD
ATOM     29  O   UNL A   1      44.645  19.804  23.254  1.00  0.00    -0.269 OA
BRANCH  27  30
ATOM     30  C   UNL A   1      44.313  21.385  24.971  1.00  0.00     0.039 A 
ATOM     31  C   UNL A   1      43.459  22.406  24.546  1.00  0.00     0.014 A 
ATOM     32  C   UNL A   1      45.245  21.619  25.979  1.00  0.00     0.014 A 
ATOM     33  C   UNL A   1      43.510  23.638  25.199  1.00  0.00     0.010 A 
ATOM     34  C   UNL A   1      45.175  22.759  26.730  1.00  0.00     0.010 A 
ATOM     35  C   UNL A   1      44.365  23.802  26.303  1.00  0.00    -0.014 A 
BRANCH  35  36
ATOM     36  C   UNL A   1      44.344  25.005  27.129  1.00  0.00     0.031 A 
ATOM     37  C   UNL A   1      45.473  25.930  26.841  1.00  0.00     0.074 A 
ATOM     38  C   UNL A   1      43.262  25.365  27.860  1.00  0.00     0.049 A 
ATOM     39  N   UNL A   1      46.499  26.186  27.581  1.00  0.00    -0.248 NA
ATOM     40  C   UNL A   1      45.583  26.483  25.477  1.00  0.00     0.031 C 
ATOM     41  C   UNL A   1      41.958  24.692  27.934  1.00  0.00     0.029 A 
ATOM     42  N   UNL A   1      43.049  26.480  28.612  1.00  0.00    -0.354 N 
ATOM     43  C   UNL A   1      47.227  27.154  26.893  1.00  0.00     0.074 A 
ATOM     44  C   UNL A   1      46.774  27.082  25.533  1.00  0.00     0.031 C 
ATOM     45  C   UNL A   1      41.040  25.523  28.478  1.00  0.00     0.029 A 
ATOM     46  C   UNL A   1      41.715  26.719  28.952  1.00  0.00     0.049 A 
ATOM     47  H   UNL A   1      43.781  27.075  28.894  1.00  0.00     0.167 HD
ATOM     48  C   UNL A   1      47.904  28.127  27.566  1.00  0.00     0.034 A 
ATOM     49  C   UNL A   1      41.195  27.824  29.558  1.00  0.00     0.034 A 
ATOM     50  C   UNL A   1      48.037  27.771  28.964  1.00  0.00     0.049 A 
ATOM     51  C   UNL A   1      42.336  28.513  30.214  1.00  0.00     0.074 A 
ATOM     52  C   UNL A   1      48.593  26.705  29.645  1.00  0.00     0.029 A 
ATOM     53  N   UNL A   1      47.180  28.376  29.858  1.00  0.00    -0.354 N 
ATOM     54  N   UNL A   1      43.023  27.986  31.191  1.00  0.00    -0.248 NA
ATOM     55  C   UNL A   1      43.033  29.536  29.449  1.00  0.00     0.031 C 
ATOM     56  C   UNL A   1      47.678  26.433  30.704  1.00  0.00     0.029 A 
ATOM     57  C   UNL A   1      46.676  27.405  30.686  1.00  0.00     0.049 A 
ATOM     58  H   UNL A   1      46.966  29.337  29.896  1.00  0.00     0.167 HD
ATOM     59  C   UNL A   1      44.348  28.280  30.899  1.00  0.00     0.074 A 
ATOM     60  C   UNL A   1      44.284  29.309  29.860  1.00  0.00     0.031 C 
ATOM     61  C   UNL A   1      45.363  27.460  31.307  1.00  0.00     0.034 A 
BRANCH  48  62
ATOM     62  C   UNL A   1      48.072  29.562  27.093  1.00  0.00     0.023 A 
ATOM     63  C   UNL A   1      49.374  30.098  27.151  1.00  0.00     0.031 A 
ATOM     64  C   UNL A   1      47.039  30.504  26.878  1.00  0.00     0.131 A 
ATOM     65  C   UNL A   1      49.590  31.486  27.140  1.00  0.00     0.055 A 
ATOM     66  C   UNL A   1      47.267  31.882  26.802  1.00  0.00     0.041 A 
ATOM     67  F   UNL A   1      45.746  30.173  26.811  1.00  0.00    -0.206 F 
ATOM     68  C   UNL A   1      48.543  32.385  26.971  1.00  0.00     0.022 A 
BRANCH  65  69
ATOM     69  S   UNL A   1      51.246  32.097  27.545  1.00  0.00     0.124 S 
ATOM     70  O   UNL A   1      51.181  32.164  29.000  1.00  0.00    -0.237 OA
ATOM     71  O   UNL A   1      52.095  31.051  26.983  1.00  0.00    -0.237 OA
ATOM     72  O   UNL A   1      51.306  33.385  26.860  1.00  0.00    -0.744 OA
ENDBRANCH  65  69
ENDBRANCH  48  62
BRANCH  49  73
ATOM     73  C   UNL A   1      39.882  28.488  29.276  1.00  0.00     0.023 A 
ATOM     74  C   UNL A   1      39.042  29.036  30.276  1.00  0.00     0.031 A 
ATOM     75  C   UNL A   1      39.551  28.806  27.938  1.00  0.00     0.131 A 
ATOM     76  C   UNL A   1      37.937  29.853  29.916  1.00  0.00     0.055 A 
ATOM     77  C   UNL A   1      38.462  29.613  27.592  1.00  0.00     0.041 A 
ATOM     78  F   UNL A   1      40.327  28.408  26.918  1.00  0.00    -0.206 F 
ATOM     79  C   UNL A   1      37.654  30.147  28.581  1.00  0.00     0.022 A 
BRANCH  76  80
ATOM     80  S   UNL A   1      36.865  30.609  31.190  1.00  0.00     0.124 S 
ATOM     81  O   UNL A   1      36.383  29.447  31.927  1.00  0.00    -0.237 OA
ATOM     82  O   UNL A   1      37.791  31.487  31.896  1.00  0.00    -0.237 OA
ATOM     83  O   UNL A   1      35.841  31.305  30.409  1.00  0.00    -0.744 OA
ENDBRANCH  76  80
ENDBRANCH  49  73
BRANCH  61  84
ATOM     84  C   UNL A   1      45.077  26.414  32.367  1.00  0.00     0.023 A 
ATOM     85  C   UNL A   1      44.950  26.652  33.755  1.00  0.00     0.031 A 
ATOM     86  C   UNL A   1      44.775  25.123  31.895  1.00  0.00     0.131 A 
ATOM     87  C   UNL A   1      44.527  25.608  34.609  1.00  0.00     0.055 A 
ATOM     88  C   UNL A   1      44.334  24.106  32.737  1.00  0.00     0.041 A 
ATOM     89  F   UNL A   1      44.859  24.843  30.583  1.00  0.00    -0.206 F 
ATOM     90  C   UNL A   1      44.210  24.344  34.098  1.00  0.00     0.022 A 
BRANCH  87  91
ATOM     91  S   UNL A   1      44.384  25.864  36.410  1.00  0.00     0.124 S 
ATOM     92  O   UNL A   1      45.304  26.965  36.670  1.00  0.00    -0.237 OA
ATOM     93  O   UNL A   1      42.965  26.162  36.577  1.00  0.00    -0.237 OA
ATOM     94  O   UNL A   1      44.804  24.578  36.971  1.00  0.00    -0.744 OA
ENDBRANCH  87  91
ENDBRANCH  61  84
ENDBRANCH  35  36
ENDBRANCH  27  30
ENDBRANCH  25  26
ENDBRANCH  24  25
ENDBRANCH  23  24
ENDBRANCH   1  23
TORSDOF 19
ENDMDL
