MODEL 1
REMARK VINA RESULT:     -11.2      0.000      0.000
REMARK SMILES CC(=O)N[C@@H](C(=O)N(CC(=O)NCCCCNC(=O)c1ccc(-c2c3nc(c(-c4cc(S(=O)(=O)[O-])ccc4F)c4ccc([nH]4)c(-c4cc(S(=O)(=O)[O-])ccc4F)c4nc(c(-c5cc(S(=O)(=O)[O-])ccc5F)c5ccc2[nH]5)C=C4)C=C3)cc1)C(C)(C)C)C(C)C
REMARK SMILES IDX 14 1 13 2 12 3 10 4 11 5 9 7 8 8 6 9 7 10 5 11 4 12 1 13
REMARK SMILES IDX 2 14 3 15 87 17 88 18 89 19 83 20 84 21 85 22 86 23 15 24
REMARK SMILES IDX 16 25 17 26 18 27 19 29 20 30 21 31 82 32 22 33 81 34 23 35
REMARK SMILES IDX 24 36 25 37 75 38 26 39 80 40 74 41 76 42 27 43 79 44 73 45
REMARK SMILES IDX 72 46 28 48 60 49 40 50 59 51 41 52 44 53 58 54 77 55 42 56
REMARK SMILES IDX 43 57 57 59 78 60 45 61 29 62 30 63 38 64 31 65 37 66 39 67
REMARK SMILES IDX 36 68 32 69 33 70 34 71 35 72 61 73 62 74 70 75 63 76 69 77
REMARK SMILES IDX 71 78 68 79 64 80 65 81 66 82 67 83 46 84 47 85 55 86 48 87
REMARK SMILES IDX 54 88 56 89 53 90 49 91 50 92 51 93 52 94
REMARK H PARENT 12 6 4 16 17 28 76 47 44 58
REMARK Flexibility Score: inf
ROOT
ATOM      1  C   UNL A   1      35.063  22.112  26.667  1.00  0.00     0.023 C 
ENDROOT
BRANCH   1   2
ATOM      2  C   UNL A   1      33.662  21.642  27.021  1.00  0.00     0.116 C 
BRANCH   2   3
ATOM      3  N   UNL A   1      32.757  22.678  27.457  1.00  0.00    -0.355 N 
ATOM      4  C   UNL A   1      31.811  23.335  26.723  1.00  0.00     0.239 C 
ATOM      5  O   UNL A   1      30.915  23.924  27.337  1.00  0.00    -0.273 OA
ATOM      6  H   UNL A   1      32.831  22.945  28.401  1.00  0.00     0.163 HD
BRANCH   4   7
ATOM      7  C   UNL A   1      31.758  23.249  25.181  1.00  0.00     0.220 C 
BRANCH   7   8
ATOM      8  N   UNL A   1      32.723  24.051  24.408  1.00  0.00    -0.327 N 
BRANCH   8   9
ATOM      9  C   UNL A   1      33.165  25.323  24.829  1.00  0.00     0.246 C 
ATOM     10  O   UNL A   1      34.329  25.475  25.217  1.00  0.00    -0.272 OA
BRANCH   9  11
ATOM     11  C   UNL A   1      32.175  26.568  24.894  1.00  0.00     0.174 C 
BRANCH  11  12
ATOM     12  N   UNL A   1      31.646  26.815  26.241  1.00  0.00    -0.344 N 
ATOM     13  C   UNL A   1      32.143  29.234  26.377  1.00  0.00     0.114 C 
ATOM     14  C   UNL A   1      31.575  27.970  26.960  1.00  0.00     0.217 C 
ATOM     15  O   UNL A   1      31.044  27.947  28.067  1.00  0.00    -0.275 OA
ATOM     16  H   UNL A   1      31.287  26.020  26.698  1.00  0.00     0.164 HD
ENDBRANCH  11  12
BRANCH  11  17
ATOM     17  C   UNL A   1      30.955  26.336  23.938  1.00  0.00     0.015 C 
ATOM     18  C   UNL A   1      29.628  26.096  24.674  1.00  0.00     0.010 C 
ATOM     19  C   UNL A   1      30.758  27.506  22.966  1.00  0.00     0.010 C 
ENDBRANCH  11  17
ENDBRANCH   9  11
ENDBRANCH   8   9
BRANCH   8  20
ATOM     20  C   UNL A   1      33.173  23.513  23.056  1.00  0.00     0.035 C 
ATOM     21  C   UNL A   1      32.500  22.172  22.707  1.00  0.00     0.034 C 
ATOM     22  C   UNL A   1      32.865  24.546  21.947  1.00  0.00     0.034 C 
ATOM     23  C   UNL A   1      34.702  23.253  22.954  1.00  0.00     0.034 C 
ENDBRANCH   8  20
ENDBRANCH   7   8
ENDBRANCH   4   7
ENDBRANCH   2   3
ENDBRANCH   1   2
BRANCH   1  24
ATOM     24  C   UNL A   1      35.789  21.248  25.651  1.00  0.00     0.023 C 
BRANCH  24  25
ATOM     25  C   UNL A   1      37.189  21.729  25.306  1.00  0.00     0.116 C 
BRANCH  25  26
ATOM     26  N   UNL A   1      38.223  20.737  25.575  1.00  0.00    -0.352 N 
ATOM     27  C   UNL A   1      39.447  20.924  26.173  1.00  0.00     0.251 C 
ATOM     28  H   UNL A   1      38.020  19.816  25.291  1.00  0.00     0.163 HD
ATOM     29  O   UNL A   1      40.268  20.013  26.225  1.00  0.00    -0.269 OA
BRANCH  27  30
ATOM     30  C   UNL A   1      39.763  22.264  26.705  1.00  0.00     0.039 A 
ATOM     31  C   UNL A   1      40.775  22.398  27.657  1.00  0.00     0.014 A 
ATOM     32  C   UNL A   1      39.141  23.388  26.156  1.00  0.00     0.014 A 
ATOM     33  C   UNL A   1      41.231  23.673  27.991  1.00  0.00     0.010 A 
ATOM     34  C   UNL A   1      39.658  24.647  26.422  1.00  0.00     0.010 A 
ATOM     35  C   UNL A   1      40.712  24.803  27.337  1.00  0.00    -0.014 A 
BRANCH  35  36
ATOM     36  C   UNL A   1      41.240  26.167  27.592  1.00  0.00     0.031 A 
ATOM     37  C   UNL A   1      42.625  26.519  27.126  1.00  0.00     0.074 A 
ATOM     38  C   UNL A   1      40.525  27.040  28.329  1.00  0.00     0.049 A 
ATOM     39  N   UNL A   1      43.337  27.587  27.373  1.00  0.00    -0.248 NA
ATOM     40  C   UNL A   1      43.315  25.509  26.310  1.00  0.00     0.031 C 
ATOM     41  C   UNL A   1      39.193  26.790  28.887  1.00  0.00     0.029 A 
ATOM     42  N   UNL A   1      40.825  28.311  28.752  1.00  0.00    -0.354 N 
ATOM     43  C   UNL A   1      44.573  27.360  26.775  1.00  0.00     0.074 A 
ATOM     44  C   UNL A   1      44.527  26.030  26.207  1.00  0.00     0.031 C 
ATOM     45  C   UNL A   1      38.787  27.878  29.563  1.00  0.00     0.029 A 
ATOM     46  C   UNL A   1      39.842  28.885  29.524  1.00  0.00     0.049 A 
ATOM     47  H   UNL A   1      41.667  28.768  28.524  1.00  0.00     0.167 HD
ATOM     48  C   UNL A   1      45.638  28.195  26.686  1.00  0.00     0.034 A 
ATOM     49  C   UNL A   1      39.804  30.082  30.143  1.00  0.00     0.034 A 
ATOM     50  C   UNL A   1      45.649  29.531  27.227  1.00  0.00     0.049 A 
ATOM     51  C   UNL A   1      40.986  31.007  30.007  1.00  0.00     0.074 A 
ATOM     52  C   UNL A   1      46.643  30.490  27.138  1.00  0.00     0.029 A 
ATOM     53  N   UNL A   1      44.614  30.097  27.961  1.00  0.00    -0.354 N 
ATOM     54  N   UNL A   1      42.131  30.799  29.397  1.00  0.00    -0.248 NA
ATOM     55  C   UNL A   1      40.867  32.330  30.633  1.00  0.00     0.031 C 
ATOM     56  C   UNL A   1      46.229  31.617  27.858  1.00  0.00     0.029 A 
ATOM     57  C   UNL A   1      44.952  31.386  28.345  1.00  0.00     0.049 A 
ATOM     58  H   UNL A   1      43.765  29.649  28.177  1.00  0.00     0.167 HD
ATOM     59  C   UNL A   1      42.856  31.977  29.542  1.00  0.00     0.074 A 
ATOM     60  C   UNL A   1      42.016  32.893  30.288  1.00  0.00     0.031 C 
ATOM     61  C   UNL A   1      44.101  32.280  29.094  1.00  0.00     0.034 A 
BRANCH  48  62
ATOM     62  C   UNL A   1      46.873  27.666  25.997  1.00  0.00     0.023 A 
ATOM     63  C   UNL A   1      47.165  27.986  24.659  1.00  0.00     0.031 A 
ATOM     64  C   UNL A   1      47.740  26.785  26.667  1.00  0.00     0.131 A 
ATOM     65  C   UNL A   1      48.237  27.360  24.007  1.00  0.00     0.055 A 
ATOM     66  C   UNL A   1      48.858  26.232  26.037  1.00  0.00     0.041 A 
ATOM     67  F   UNL A   1      47.503  26.427  27.938  1.00  0.00    -0.206 F 
ATOM     68  C   UNL A   1      49.101  26.504  24.694  1.00  0.00     0.022 A 
BRANCH  65  69
ATOM     69  S   UNL A   1      48.388  27.557  22.210  1.00  0.00     0.124 S 
ATOM     70  O   UNL A   1      49.552  28.434  22.108  1.00  0.00    -0.237 OA
ATOM     71  O   UNL A   1      48.582  26.183  21.758  1.00  0.00    -0.237 OA
ATOM     72  O   UNL A   1      47.119  28.168  21.823  1.00  0.00    -0.744 OA
ENDBRANCH  65  69
ENDBRANCH  48  62
BRANCH  49  73
ATOM     73  C   UNL A   1      38.615  30.478  30.947  1.00  0.00     0.023 A 
ATOM     74  C   UNL A   1      37.552  31.186  30.365  1.00  0.00     0.031 A 
ATOM     75  C   UNL A   1      38.536  30.177  32.319  1.00  0.00     0.131 A 
ATOM     76  C   UNL A   1      36.475  31.609  31.159  1.00  0.00     0.055 A 
ATOM     77  C   UNL A   1      37.441  30.562  33.095  1.00  0.00     0.041 A 
ATOM     78  F   UNL A   1      39.520  29.492  32.921  1.00  0.00    -0.206 F 
ATOM     79  C   UNL A   1      36.407  31.293  32.518  1.00  0.00     0.022 A 
BRANCH  76  80
ATOM     80  S   UNL A   1      35.188  32.638  30.400  1.00  0.00     0.124 S 
ATOM     81  O   UNL A   1      34.276  32.847  31.519  1.00  0.00    -0.237 OA
ATOM     82  O   UNL A   1      35.950  33.805  29.967  1.00  0.00    -0.237 OA
ATOM     83  O   UNL A   1      34.673  31.799  29.321  1.00  0.00    -0.744 OA
ENDBRANCH  76  80
ENDBRANCH  49  73
BRANCH  61  84
ATOM     84  C   UNL A   1      44.601  33.676  29.359  1.00  0.00     0.023 A 
ATOM     85  C   UNL A   1      44.298  34.745  28.498  1.00  0.00     0.031 A 
ATOM     86  C   UNL A   1      45.395  33.936  30.489  1.00  0.00     0.131 A 
ATOM     87  C   UNL A   1      44.828  36.018  28.757  1.00  0.00     0.055 A 
ATOM     88  C   UNL A   1      45.877  35.214  30.768  1.00  0.00     0.041 A 
ATOM     89  F   UNL A   1      45.713  32.948  31.342  1.00  0.00    -0.206 F 
ATOM     90  C   UNL A   1      45.603  36.262  29.894  1.00  0.00     0.022 A 
BRANCH  87  91
ATOM     91  S   UNL A   1      44.553  37.339  27.545  1.00  0.00     0.124 S 
ATOM     92  O   UNL A   1      43.442  36.807  26.762  1.00  0.00    -0.237 OA
ATOM     93  O   UNL A   1      44.241  38.483  28.396  1.00  0.00    -0.237 OA
ATOM     94  O   UNL A   1      45.827  37.426  26.835  1.00  0.00    -0.744 OA
ENDBRANCH  87  91
ENDBRANCH  61  84
ENDBRANCH  35  36
ENDBRANCH  27  30
ENDBRANCH  25  26
ENDBRANCH  24  25
ENDBRANCH   1  24
TORSDOF 20
ENDMDL
MODEL 2
REMARK VINA RESULT:     -11.0      5.524      8.650
REMARK SMILES CC(=O)N[C@@H](C(=O)N(CC(=O)NCCCCNC(=O)c1ccc(-c2c3nc(c(-c4cc(S(=O)(=O)[O-])ccc4F)c4ccc([nH]4)c(-c4cc(S(=O)(=O)[O-])ccc4F)c4nc(c(-c5cc(S(=O)(=O)[O-])ccc5F)c5ccc2[nH]5)C=C4)C=C3)cc1)C(C)(C)C)C(C)C
REMARK SMILES IDX 14 1 13 2 12 3 10 4 11 5 9 7 8 8 6 9 7 10 5 11 4 12 1 13
REMARK SMILES IDX 2 14 3 15 87 17 88 18 89 19 83 20 84 21 85 22 86 23 15 24
REMARK SMILES IDX 16 25 17 26 18 27 19 29 20 30 21 31 82 32 22 33 81 34 23 35
REMARK SMILES IDX 24 36 25 37 75 38 26 39 80 40 74 41 76 42 27 43 79 44 73 45
REMARK SMILES IDX 72 46 28 48 60 49 40 50 59 51 41 52 44 53 58 54 77 55 42 56
REMARK SMILES IDX 43 57 57 59 78 60 45 61 29 62 30 63 38 64 31 65 37 66 39 67
REMARK SMILES IDX 36 68 32 69 33 70 34 71 35 72 61 73 62 74 70 75 63 76 69 77
REMARK SMILES IDX 71 78 68 79 64 80 65 81 66 82 67 83 46 84 47 85 55 86 48 87
REMARK SMILES IDX 54 88 56 89 53 90 49 91 50 92 51 93 52 94
REMARK H PARENT 12 6 4 16 17 28 76 47 44 58
REMARK Flexibility Score: inf
ROOT
ATOM      1  C   UNL A   1      31.386  31.112  26.102  1.00  0.00     0.023 C 
ENDROOT
BRANCH   1   2
ATOM      2  C   UNL A   1      32.236  30.161  26.928  1.00  0.00     0.116 C 
BRANCH   2   3
ATOM      3  N   UNL A   1      31.631  28.881  27.209  1.00  0.00    -0.355 N 
ATOM      4  C   UNL A   1      32.023  27.648  26.769  1.00  0.00     0.239 C 
ATOM      5  O   UNL A   1      31.606  26.660  27.384  1.00  0.00    -0.273 OA
ATOM      6  H   UNL A   1      30.837  28.898  27.789  1.00  0.00     0.163 HD
BRANCH   4   7
ATOM      7  C   UNL A   1      33.057  27.468  25.635  1.00  0.00     0.220 C 
BRANCH   7   8
ATOM      8  N   UNL A   1      32.592  26.906  24.355  1.00  0.00    -0.327 N 
BRANCH   8   9
ATOM      9  C   UNL A   1      31.972  25.642  24.260  1.00  0.00     0.246 C 
ATOM     10  O   UNL A   1      30.777  25.562  23.953  1.00  0.00    -0.272 OA
BRANCH   9  11
ATOM     11  C   UNL A   1      32.755  24.303  24.615  1.00  0.00     0.174 C 
BRANCH  11  12
ATOM     12  N   UNL A   1      32.676  23.948  26.038  1.00  0.00    -0.344 N 
ATOM     13  C   UNL A   1      30.638  22.550  25.940  1.00  0.00     0.114 C 
ATOM     14  C   UNL A   1      31.783  23.160  26.699  1.00  0.00     0.217 C 
ATOM     15  O   UNL A   1      31.942  22.967  27.902  1.00  0.00    -0.275 OA
ATOM     16  H   UNL A   1      33.379  24.342  26.603  1.00  0.00     0.164 HD
ENDBRANCH  11  12
BRANCH  11  17
ATOM     17  C   UNL A   1      34.271  24.451  24.244  1.00  0.00     0.015 C 
ATOM     18  C   UNL A   1      35.214  24.403  25.458  1.00  0.00     0.010 C 
ATOM     19  C   UNL A   1      34.724  23.380  23.244  1.00  0.00     0.010 C 
ENDBRANCH  11  17
ENDBRANCH   9  11
ENDBRANCH   8   9
BRANCH   8  20
ATOM     20  C   UNL A   1      32.890  27.690  23.084  1.00  0.00     0.035 C 
ATOM     21  C   UNL A   1      33.083  26.772  21.862  1.00  0.00     0.034 C 
ATOM     22  C   UNL A   1      31.745  28.691  22.800  1.00  0.00     0.034 C 
ATOM     23  C   UNL A   1      34.176  28.559  23.162  1.00  0.00     0.034 C 
ENDBRANCH   8  20
ENDBRANCH   7   8
ENDBRANCH   4   7
ENDBRANCH   2   3
ENDBRANCH   1   2
BRANCH   1  24
ATOM     24  C   UNL A   1      31.453  32.567  26.533  1.00  0.00     0.023 C 
BRANCH  24  25
ATOM     25  C   UNL A   1      32.667  32.913  27.379  1.00  0.00     0.116 C 
BRANCH  25  26
ATOM     26  N   UNL A   1      32.599  34.246  27.968  1.00  0.00    -0.352 N 
ATOM     27  C   UNL A   1      33.411  34.792  28.934  1.00  0.00     0.251 C 
ATOM     28  H   UNL A   1      31.879  34.828  27.632  1.00  0.00     0.163 HD
ATOM     29  O   UNL A   1      33.158  35.890  29.421  1.00  0.00    -0.269 OA
BRANCH  27  30
ATOM     30  C   UNL A   1      34.565  34.000  29.401  1.00  0.00     0.039 A 
ATOM     31  C   UNL A   1      35.847  34.342  28.969  1.00  0.00     0.014 A 
ATOM     32  C   UNL A   1      34.375  33.009  30.368  1.00  0.00     0.014 A 
ATOM     33  C   UNL A   1      36.953  33.750  29.579  1.00  0.00     0.010 A 
ATOM     34  C   UNL A   1      35.476  32.491  31.034  1.00  0.00     0.010 A 
ATOM     35  C   UNL A   1      36.776  32.860  30.652  1.00  0.00    -0.014 A 
BRANCH  35  36
ATOM     36  C   UNL A   1      37.928  32.287  31.392  1.00  0.00     0.031 A 
ATOM     37  C   UNL A   1      38.745  31.198  30.755  1.00  0.00     0.074 A 
ATOM     38  C   UNL A   1      38.169  32.667  32.662  1.00  0.00     0.049 A 
ATOM     39  N   UNL A   1      39.687  30.456  31.274  1.00  0.00    -0.248 NA
ATOM     40  C   UNL A   1      38.420  30.871  29.358  1.00  0.00     0.031 C 
ATOM     41  C   UNL A   1      37.407  33.673  33.408  1.00  0.00     0.029 A 
ATOM     42  N   UNL A   1      39.113  32.237  33.561  1.00  0.00    -0.354 N 
ATOM     43  C   UNL A   1      40.042  29.550  30.279  1.00  0.00     0.074 A 
ATOM     44  C   UNL A   1      39.169  29.801  29.152  1.00  0.00     0.031 C 
ATOM     45  C   UNL A   1      37.925  33.793  34.642  1.00  0.00     0.029 A 
ATOM     46  C   UNL A   1      39.025  32.846  34.792  1.00  0.00     0.049 A 
ATOM     47  H   UNL A   1      39.790  31.555  33.345  1.00  0.00     0.167 HD
ATOM     48  C   UNL A   1      41.021  28.612  30.296  1.00  0.00     0.034 A 
ATOM     49  C   UNL A   1      39.741  32.651  35.917  1.00  0.00     0.034 A 
ATOM     50  C   UNL A   1      41.903  28.403  31.416  1.00  0.00     0.049 A 
ATOM     51  C   UNL A   1      40.845  31.625  35.906  1.00  0.00     0.074 A 
ATOM     52  C   UNL A   1      42.974  27.533  31.522  1.00  0.00     0.029 A 
ATOM     53  N   UNL A   1      41.816  29.075  32.630  1.00  0.00    -0.354 N 
ATOM     54  N   UNL A   1      41.202  30.808  34.941  1.00  0.00    -0.248 NA
ATOM     55  C   UNL A   1      41.648  31.503  37.129  1.00  0.00     0.031 C 
ATOM     56  C   UNL A   1      43.502  27.643  32.814  1.00  0.00     0.029 A 
ATOM     57  C   UNL A   1      42.802  28.627  33.495  1.00  0.00     0.049 A 
ATOM     58  H   UNL A   1      41.151  29.768  32.844  1.00  0.00     0.167 HD
ATOM     59  C   UNL A   1      42.290  30.095  35.434  1.00  0.00     0.074 A 
ATOM     60  C   UNL A   1      42.536  30.585  36.775  1.00  0.00     0.031 C 
ATOM     61  C   UNL A   1      43.025  29.126  34.831  1.00  0.00     0.034 A 
BRANCH  48  62
ATOM     62  C   UNL A   1      41.161  27.739  29.072  1.00  0.00     0.023 A 
ATOM     63  C   UNL A   1      42.179  27.954  28.126  1.00  0.00     0.031 A 
ATOM     64  C   UNL A   1      40.232  26.715  28.819  1.00  0.00     0.131 A 
ATOM     65  C   UNL A   1      42.190  27.222  26.930  1.00  0.00     0.055 A 
ATOM     66  C   UNL A   1      40.301  25.929  27.665  1.00  0.00     0.041 A 
ATOM     67  F   UNL A   1      39.228  26.475  29.675  1.00  0.00    -0.206 F 
ATOM     68  C   UNL A   1      41.272  26.193  26.704  1.00  0.00     0.022 A 
BRANCH  65  69
ATOM     69  S   UNL A   1      43.318  27.742  25.609  1.00  0.00     0.124 S 
ATOM     70  O   UNL A   1      44.163  26.559  25.462  1.00  0.00    -0.237 OA
ATOM     71  O   UNL A   1      42.405  28.015  24.504  1.00  0.00    -0.237 OA
ATOM     72  O   UNL A   1      43.987  28.913  26.170  1.00  0.00    -0.744 OA
ENDBRANCH  65  69
ENDBRANCH  48  62
BRANCH  49  73
ATOM     73  C   UNL A   1      39.442  33.436  37.147  1.00  0.00     0.023 A 
ATOM     74  C   UNL A   1      40.069  34.668  37.387  1.00  0.00     0.031 A 
ATOM     75  C   UNL A   1      38.545  32.951  38.115  1.00  0.00     0.131 A 
ATOM     76  C   UNL A   1      39.824  35.356  38.586  1.00  0.00     0.055 A 
ATOM     77  C   UNL A   1      38.271  33.660  39.286  1.00  0.00     0.041 A 
ATOM     78  F   UNL A   1      37.911  31.783  37.928  1.00  0.00    -0.206 F 
ATOM     79  C   UNL A   1      38.921  34.865  39.533  1.00  0.00     0.022 A 
BRANCH  76  80
ATOM     80  S   UNL A   1      40.754  36.877  38.922  1.00  0.00     0.124 S 
ATOM     81  O   UNL A   1      41.632  36.951  37.760  1.00  0.00    -0.237 OA
ATOM     82  O   UNL A   1      39.690  37.874  38.988  1.00  0.00    -0.237 OA
ATOM     83  O   UNL A   1      41.419  36.596  40.192  1.00  0.00    -0.744 OA
ENDBRANCH  76  80
ENDBRANCH  49  73
BRANCH  61  84
ATOM     84  C   UNL A   1      44.195  28.576  35.605  1.00  0.00     0.023 A 
ATOM     85  C   UNL A   1      44.050  27.501  36.498  1.00  0.00     0.031 A 
ATOM     86  C   UNL A   1      45.471  29.143  35.448  1.00  0.00     0.131 A 
ATOM     87  C   UNL A   1      45.157  27.056  37.237  1.00  0.00     0.055 A 
ATOM     88  C   UNL A   1      46.578  28.663  36.147  1.00  0.00     0.041 A 
ATOM     89  F   UNL A   1      45.662  30.173  34.607  1.00  0.00    -0.206 F 
ATOM     90  C   UNL A   1      46.422  27.620  37.056  1.00  0.00     0.022 A 
BRANCH  87  91
ATOM     91  S   UNL A   1      44.907  25.774  38.496  1.00  0.00     0.124 S 
ATOM     92  O   UNL A   1      44.261  24.715  37.727  1.00  0.00    -0.237 OA
ATOM     93  O   UNL A   1      46.270  25.500  38.937  1.00  0.00    -0.237 OA
ATOM     94  O   UNL A   1      44.055  26.428  39.488  1.00  0.00    -0.744 OA
ENDBRANCH  87  91
ENDBRANCH  61  84
ENDBRANCH  35  36
ENDBRANCH  27  30
ENDBRANCH  25  26
ENDBRANCH  24  25
ENDBRANCH   1  24
TORSDOF 20
ENDMDL
MODEL 3
REMARK VINA RESULT:     -10.8      1.581      2.142
REMARK SMILES CC(=O)N[C@@H](C(=O)N(CC(=O)NCCCCNC(=O)c1ccc(-c2c3nc(c(-c4cc(S(=O)(=O)[O-])ccc4F)c4ccc([nH]4)c(-c4cc(S(=O)(=O)[O-])ccc4F)c4nc(c(-c5cc(S(=O)(=O)[O-])ccc5F)c5ccc2[nH]5)C=C4)C=C3)cc1)C(C)(C)C)C(C)C
REMARK SMILES IDX 14 1 13 2 12 3 10 4 11 5 9 7 8 8 6 9 7 10 5 11 4 12 1 13
REMARK SMILES IDX 2 14 3 15 87 17 88 18 89 19 83 20 84 21 85 22 86 23 15 24
REMARK SMILES IDX 16 25 17 26 18 27 19 29 20 30 21 31 82 32 22 33 81 34 23 35
REMARK SMILES IDX 24 36 25 37 75 38 26 39 80 40 74 41 76 42 27 43 79 44 73 45
REMARK SMILES IDX 72 46 28 48 60 49 40 50 59 51 41 52 44 53 58 54 77 55 42 56
REMARK SMILES IDX 43 57 57 59 78 60 45 61 29 62 30 63 38 64 31 65 37 66 39 67
REMARK SMILES IDX 36 68 32 69 33 70 34 71 35 72 61 73 62 74 70 75 63 76 69 77
REMARK SMILES IDX 71 78 68 79 64 80 65 81 66 82 67 83 46 84 47 85 55 86 48 87
REMARK SMILES IDX 54 88 56 89 53 90 49 91 50 92 51 93 52 94
REMARK H PARENT 12 6 4 16 17 28 76 47 44 58
REMARK Flexibility Score: inf
ROOT
ATOM      1  C   UNL A   1      34.946  22.008  26.860  1.00  0.00     0.023 C 
ENDROOT
BRANCH   1   2
ATOM      2  C   UNL A   1      33.664  21.332  27.317  1.00  0.00     0.116 C 
BRANCH   2   3
ATOM      3  N   UNL A   1      32.610  22.228  27.730  1.00  0.00    -0.355 N 
ATOM      4  C   UNL A   1      31.508  22.618  27.023  1.00  0.00     0.239 C 
ATOM      5  O   UNL A   1      30.560  23.097  27.655  1.00  0.00    -0.273 OA
ATOM      6  H   UNL A   1      32.697  22.606  28.634  1.00  0.00     0.163 HD
BRANCH   4   7
ATOM      7  C   UNL A   1      31.366  22.354  25.507  1.00  0.00     0.220 C 
BRANCH   7   8
ATOM      8  N   UNL A   1      32.283  23.057  24.592  1.00  0.00    -0.327 N 
BRANCH   8   9
ATOM      9  C   UNL A   1      32.579  24.431  24.719  1.00  0.00     0.246 C 
ATOM     10  O   UNL A   1      33.349  24.818  25.606  1.00  0.00    -0.272 OA
BRANCH   9  11
ATOM     11  C   UNL A   1      31.883  25.521  23.791  1.00  0.00     0.174 C 
BRANCH  11  12
ATOM     12  N   UNL A   1      32.835  26.467  23.197  1.00  0.00    -0.344 N 
ATOM     13  C   UNL A   1      32.644  25.729  20.844  1.00  0.00     0.114 C 
ATOM     14  C   UNL A   1      33.211  26.638  21.899  1.00  0.00     0.217 C 
ATOM     15  O   UNL A   1      34.003  27.536  21.625  1.00  0.00    -0.275 OA
ATOM     16  H   UNL A   1      33.272  27.073  23.838  1.00  0.00     0.164 HD
ENDBRANCH  11  12
BRANCH  11  17
ATOM     17  C   UNL A   1      30.842  26.349  24.621  1.00  0.00     0.015 C 
ATOM     18  C   UNL A   1      31.308  27.776  24.951  1.00  0.00     0.010 C 
ATOM     19  C   UNL A   1      29.485  26.440  23.913  1.00  0.00     0.010 C 
ENDBRANCH  11  17
ENDBRANCH   9  11
ENDBRANCH   8   9
BRANCH   8  20
ATOM     20  C   UNL A   1      32.846  22.278  23.412  1.00  0.00     0.035 C 
ATOM     21  C   UNL A   1      34.204  22.831  22.939  1.00  0.00     0.034 C 
ATOM     22  C   UNL A   1      33.002  20.786  23.789  1.00  0.00     0.034 C 
ATOM     23  C   UNL A   1      31.931  22.283  22.154  1.00  0.00     0.034 C 
ENDBRANCH   8  20
ENDBRANCH   7   8
ENDBRANCH   4   7
ENDBRANCH   2   3
ENDBRANCH   1   2
BRANCH   1  24
ATOM     24  C   UNL A   1      35.705  21.268  25.772  1.00  0.00     0.023 C 
BRANCH  24  25
ATOM     25  C   UNL A   1      37.092  21.822  25.490  1.00  0.00     0.116 C 
BRANCH  25  26
ATOM     26  N   UNL A   1      38.153  20.834  25.659  1.00  0.00    -0.352 N 
ATOM     27  C   UNL A   1      39.415  21.021  26.173  1.00  0.00     0.251 C 
ATOM     28  H   UNL A   1      37.938  19.918  25.368  1.00  0.00     0.163 HD
ATOM     29  O   UNL A   1      40.245  20.118  26.143  1.00  0.00    -0.269 OA
BRANCH  27  30
ATOM     30  C   UNL A   1      39.756  22.350  26.714  1.00  0.00     0.039 A 
ATOM     31  C   UNL A   1      40.785  22.462  27.650  1.00  0.00     0.014 A 
ATOM     32  C   UNL A   1      39.139  23.488  26.187  1.00  0.00     0.014 A 
ATOM     33  C   UNL A   1      41.262  23.728  27.991  1.00  0.00     0.010 A 
ATOM     34  C   UNL A   1      39.676  24.738  26.458  1.00  0.00     0.010 A 
ATOM     35  C   UNL A   1      40.747  24.871  27.357  1.00  0.00    -0.014 A 
BRANCH  35  36
ATOM     36  C   UNL A   1      41.296  26.225  27.618  1.00  0.00     0.031 A 
ATOM     37  C   UNL A   1      42.671  26.571  27.118  1.00  0.00     0.074 A 
ATOM     38  C   UNL A   1      40.611  27.094  28.388  1.00  0.00     0.049 A 
ATOM     39  N   UNL A   1      43.401  27.627  27.362  1.00  0.00    -0.248 NA
ATOM     40  C   UNL A   1      43.327  25.567  26.268  1.00  0.00     0.031 C 
ATOM     41  C   UNL A   1      39.292  26.849  28.979  1.00  0.00     0.029 A 
ATOM     42  N   UNL A   1      40.936  28.355  28.822  1.00  0.00    -0.354 N 
ATOM     43  C   UNL A   1      44.617  27.398  26.725  1.00  0.00     0.074 A 
ATOM     44  C   UNL A   1      44.541  26.077  26.139  1.00  0.00     0.031 C 
ATOM     45  C   UNL A   1      38.917  27.930  29.683  1.00  0.00     0.029 A 
ATOM     46  C   UNL A   1      39.981  28.927  29.630  1.00  0.00     0.049 A 
ATOM     47  H   UNL A   1      41.776  28.807  28.577  1.00  0.00     0.167 HD
ATOM     48  C   UNL A   1      45.687  28.223  26.619  1.00  0.00     0.034 A 
ATOM     49  C   UNL A   1      39.973  30.114  30.268  1.00  0.00     0.034 A 
ATOM     50  C   UNL A   1      45.728  29.550  27.180  1.00  0.00     0.049 A 
ATOM     51  C   UNL A   1      41.160  31.029  30.113  1.00  0.00     0.074 A 
ATOM     52  C   UNL A   1      46.729  30.501  27.078  1.00  0.00     0.029 A 
ATOM     53  N   UNL A   1      44.720  30.115  27.952  1.00  0.00    -0.354 N 
ATOM     54  N   UNL A   1      42.285  30.819  29.468  1.00  0.00    -0.248 NA
ATOM     55  C   UNL A   1      41.073  32.344  30.762  1.00  0.00     0.031 C 
ATOM     56  C   UNL A   1      46.347  31.621  27.827  1.00  0.00     0.029 A 
ATOM     57  C   UNL A   1      45.082  31.395  28.346  1.00  0.00     0.049 A 
ATOM     58  H   UNL A   1      43.872  29.673  28.184  1.00  0.00     0.167 HD
ATOM     59  C   UNL A   1      43.026  31.988  29.610  1.00  0.00     0.074 A 
ATOM     60  C   UNL A   1      42.217  32.900  30.394  1.00  0.00     0.031 C 
ATOM     61  C   UNL A   1      44.262  32.285  29.132  1.00  0.00     0.034 A 
BRANCH  48  62
ATOM     62  C   UNL A   1      46.897  27.693  25.888  1.00  0.00     0.023 A 
ATOM     63  C   UNL A   1      47.168  28.051  24.555  1.00  0.00     0.031 A 
ATOM     64  C   UNL A   1      47.759  26.774  26.511  1.00  0.00     0.131 A 
ATOM     65  C   UNL A   1      48.214  27.426  23.860  1.00  0.00     0.055 A 
ATOM     66  C   UNL A   1      48.853  26.220  25.840  1.00  0.00     0.041 A 
ATOM     67  F   UNL A   1      47.541  26.379  27.774  1.00  0.00    -0.206 F 
ATOM     68  C   UNL A   1      49.074  26.530  24.501  1.00  0.00     0.022 A 
BRANCH  65  69
ATOM     69  S   UNL A   1      48.332  27.677  22.068  1.00  0.00     0.124 S 
ATOM     70  O   UNL A   1      49.486  28.568  21.972  1.00  0.00    -0.237 OA
ATOM     71  O   UNL A   1      48.530  26.320  21.572  1.00  0.00    -0.237 OA
ATOM     72  O   UNL A   1      47.051  28.287  21.722  1.00  0.00    -0.744 OA
ENDBRANCH  65  69
ENDBRANCH  48  62
BRANCH  49  73
ATOM     73  C   UNL A   1      38.811  30.509  31.112  1.00  0.00     0.023 A 
ATOM     74  C   UNL A   1      37.709  31.178  30.556  1.00  0.00     0.031 A 
ATOM     75  C   UNL A   1      38.797  30.248  32.494  1.00  0.00     0.131 A 
ATOM     76  C   UNL A   1      36.658  31.603  31.383  1.00  0.00     0.055 A 
ATOM     77  C   UNL A   1      37.728  30.633  33.305  1.00  0.00     0.041 A 
ATOM     78  F   UNL A   1      39.821  29.601  33.072  1.00  0.00    -0.206 F 
ATOM     79  C   UNL A   1      36.655  31.325  32.753  1.00  0.00     0.022 A 
BRANCH  76  80
ATOM     80  S   UNL A   1      35.318  32.582  30.652  1.00  0.00     0.124 S 
ATOM     81  O   UNL A   1      35.145  31.932  29.358  1.00  0.00    -0.237 OA
ATOM     82  O   UNL A   1      34.240  32.388  31.617  1.00  0.00    -0.237 OA
ATOM     83  O   UNL A   1      35.871  33.934  30.605  1.00  0.00    -0.744 OA
ENDBRANCH  76  80
ENDBRANCH  49  73
BRANCH  61  84
ATOM     84  C   UNL A   1      44.783  33.672  29.404  1.00  0.00     0.023 A 
ATOM     85  C   UNL A   1      45.571  33.958  30.532  1.00  0.00     0.031 A 
ATOM     86  C   UNL A   1      44.480  34.722  28.521  1.00  0.00     0.131 A 
ATOM     87  C   UNL A   1      45.991  35.274  30.772  1.00  0.00     0.055 A 
ATOM     88  C   UNL A   1      44.943  36.020  28.738  1.00  0.00     0.041 A 
ATOM     89  F   UNL A   1      43.729  34.501  27.429  1.00  0.00    -0.206 F 
ATOM     90  C   UNL A   1      45.694  36.304  29.875  1.00  0.00     0.022 A 
BRANCH  87  91
ATOM     91  S   UNL A   1      46.871  35.641  32.316  1.00  0.00     0.124 S 
ATOM     92  O   UNL A   1      45.816  36.233  33.133  1.00  0.00    -0.237 OA
ATOM     93  O   UNL A   1      47.334  34.322  32.733  1.00  0.00    -0.237 OA
ATOM     94  O   UNL A   1      47.925  36.565  31.900  1.00  0.00    -0.744 OA
ENDBRANCH  87  91
ENDBRANCH  61  84
ENDBRANCH  35  36
ENDBRANCH  27  30
ENDBRANCH  25  26
ENDBRANCH  24  25
ENDBRANCH   1  24
TORSDOF 20
ENDMDL
