MODEL 1
REMARK VINA RESULT:     -13.4      0.000      0.000
REMARK SMILES CC(C)Oc1ccc([C@@H]2CC(=O)Nc3c(C(=O)NCCCCNC(=O)c4ccc(-c5c6nc(c(-c7cc(S(=O)(=O)[O-])ccc7F)c7ccc([nH]7)c(-c7cc(S(=O)(=O)[O-])ccc7F)c7nc(c(-c8cc(S(=O)(=O)[O-])ccc8F)c8ccc5[nH]8)C=C7)C=C6)cc4)nsc32)cc1
REMARK SMILES IDX 20 1 19 2 18 3 16 4 17 5 15 7 9 8 10 9 91 10 11 11 14 12
REMARK SMILES IDX 90 13 12 14 13 15 89 16 8 18 5 19 6 20 93 21 7 22 92 23 4 24
REMARK SMILES IDX 2 25 1 26 3 27 21 28 22 29 23 30 24 31 25 33 26 34 27 35
REMARK SMILES IDX 88 36 28 37 87 38 29 39 30 40 31 41 81 42 32 43 86 44 80 45
REMARK SMILES IDX 82 46 33 47 85 48 79 49 78 50 34 52 66 53 46 54 65 55 47 56
REMARK SMILES IDX 50 57 64 58 83 59 48 60 49 61 63 63 84 64 51 65 35 66 36 67
REMARK SMILES IDX 44 68 37 69 43 70 45 71 42 72 38 73 39 74 40 75 41 76 67 77
REMARK SMILES IDX 68 78 76 79 69 80 75 81 77 82 74 83 70 84 71 85 72 86 73 87
REMARK SMILES IDX 52 88 53 89 61 90 54 91 60 92 62 93 59 94 55 95 56 96 57 97
REMARK SMILES IDX 58 98
REMARK H PARENT 18 6 13 17 23 32 82 51 50 62
REMARK Flexibility Score: inf
ROOT
ATOM      1  C   UNL A   1      32.529  29.876  25.470  1.00  0.00     0.023 C 
ENDROOT
BRANCH   1   2
ATOM      2  C   UNL A   1      32.354  28.408  25.096  1.00  0.00     0.116 C 
BRANCH   2   3
ATOM      3  N   UNL A   1      31.597  28.130  23.890  1.00  0.00    -0.351 N 
ATOM      4  C   UNL A   1      31.509  26.959  23.136  1.00  0.00     0.273 C 
ATOM      5  O   UNL A   1      30.791  26.983  22.152  1.00  0.00    -0.267 OA
ATOM      6  H   UNL A   1      31.063  28.884  23.550  1.00  0.00     0.163 HD
BRANCH   4   7
ATOM      7  C   UNL A   1      32.326  25.774  23.502  1.00  0.00     0.165 A 
ATOM      8  C   UNL A   1      33.324  23.002  25.839  1.00  0.00     0.073 C 
ATOM      9  C   UNL A   1      32.165  23.098  26.853  1.00  0.00     0.114 C 
ATOM     10  C   UNL A   1      33.172  24.001  24.743  1.00  0.00     0.058 A 
ATOM     11  C   UNL A   1      30.941  23.904  26.451  1.00  0.00     0.225 C 
ATOM     12  C   UNL A   1      32.061  24.767  24.502  1.00  0.00     0.089 A 
ATOM     13  S   UNL A   1      34.358  24.384  23.595  1.00  0.00    -0.038 S 
ATOM     14  O   UNL A   1      29.982  24.020  27.214  1.00  0.00    -0.275 OA
ATOM     15  N   UNL A   1      30.932  24.580  25.267  1.00  0.00    -0.323 N 
ATOM     16  N   UNL A   1      33.512  25.617  22.886  1.00  0.00    -0.185 NA
ATOM     17  H   UNL A   1      30.079  24.952  24.944  1.00  0.00     0.170 HD
BRANCH   8  18
ATOM     18  C   UNL A   1      33.480  21.578  25.337  1.00  0.00    -0.039 A 
ATOM     19  C   UNL A   1      33.752  18.919  24.483  1.00  0.00     0.119 A 
ATOM     20  C   UNL A   1      34.852  19.601  24.999  1.00  0.00     0.047 A 
ATOM     21  C   UNL A   1      32.510  19.543  24.439  1.00  0.00     0.047 A 
ATOM     22  C   UNL A   1      34.720  20.926  25.420  1.00  0.00     0.008 A 
ATOM     23  C   UNL A   1      32.378  20.871  24.837  1.00  0.00     0.008 A 
BRANCH  19  24
ATOM     24  O   UNL A   1      33.940  17.614  24.132  1.00  0.00    -0.491 OA
BRANCH  24  25
ATOM     25  C   UNL A   1      33.986  16.641  25.193  1.00  0.00     0.167 C 
ATOM     26  C   UNL A   1      32.700  15.830  25.337  1.00  0.00     0.052 C 
ATOM     27  C   UNL A   1      35.237  15.764  25.173  1.00  0.00     0.052 C 
ENDBRANCH  24  25
ENDBRANCH  19  24
ENDBRANCH   8  18
ENDBRANCH   4   7
ENDBRANCH   2   3
ENDBRANCH   1   2
BRANCH   1  28
ATOM     28  C   UNL A   1      32.716  30.213  26.950  1.00  0.00     0.023 C 
BRANCH  28  29
ATOM     29  C   UNL A   1      34.121  30.620  27.379  1.00  0.00     0.116 C 
BRANCH  29  30
ATOM     30  N   UNL A   1      34.161  31.640  28.421  1.00  0.00    -0.352 N 
ATOM     31  C   UNL A   1      35.130  31.777  29.403  1.00  0.00     0.251 C 
ATOM     32  H   UNL A   1      33.427  32.297  28.427  1.00  0.00     0.163 HD
ATOM     33  O   UNL A   1      34.899  32.412  30.425  1.00  0.00    -0.269 OA
BRANCH  31  34
ATOM     34  C   UNL A   1      36.433  31.108  29.202  1.00  0.00     0.039 A 
ATOM     35  C   UNL A   1      37.629  31.818  29.326  1.00  0.00     0.014 A 
ATOM     36  C   UNL A   1      36.444  29.735  28.965  1.00  0.00     0.014 A 
ATOM     37  C   UNL A   1      38.837  31.116  29.329  1.00  0.00     0.010 A 
ATOM     38  C   UNL A   1      37.630  29.033  29.062  1.00  0.00     0.010 A 
ATOM     39  C   UNL A   1      38.837  29.714  29.237  1.00  0.00    -0.014 A 
BRANCH  39  40
ATOM     40  C   UNL A   1      40.075  28.961  29.491  1.00  0.00     0.031 A 
ATOM     41  C   UNL A   1      40.416  28.733  30.928  1.00  0.00     0.074 A 
ATOM     42  C   UNL A   1      40.753  28.266  28.551  1.00  0.00     0.049 A 
ATOM     43  N   UNL A   1      41.468  29.115  31.576  1.00  0.00    -0.248 NA
ATOM     44  C   UNL A   1      39.416  28.065  31.775  1.00  0.00     0.031 C 
ATOM     45  C   UNL A   1      40.398  28.078  27.142  1.00  0.00     0.029 A 
ATOM     46  N   UNL A   1      41.846  27.461  28.699  1.00  0.00    -0.354 N 
ATOM     47  C   UNL A   1      41.372  28.561  32.853  1.00  0.00     0.074 A 
ATOM     48  C   UNL A   1      40.021  28.077  32.964  1.00  0.00     0.031 C 
ATOM     49  C   UNL A   1      41.099  27.040  26.638  1.00  0.00     0.029 A 
ATOM     50  C   UNL A   1      42.067  26.602  27.627  1.00  0.00     0.049 A 
ATOM     51  H   UNL A   1      42.426  27.485  29.494  1.00  0.00     0.167 HD
ATOM     52  C   UNL A   1      42.472  28.374  33.641  1.00  0.00     0.034 A 
ATOM     53  C   UNL A   1      42.958  25.581  27.554  1.00  0.00     0.034 A 
ATOM     54  C   UNL A   1      43.592  29.151  33.155  1.00  0.00     0.049 A 
ATOM     55  C   UNL A   1      44.012  25.845  28.560  1.00  0.00     0.074 A 
ATOM     56  C   UNL A   1      43.805  30.493  32.899  1.00  0.00     0.029 A 
ATOM     57  N   UNL A   1      44.617  28.496  32.510  1.00  0.00    -0.354 N 
ATOM     58  N   UNL A   1      44.836  26.854  28.493  1.00  0.00    -0.248 NA
ATOM     59  C   UNL A   1      43.888  25.233  29.874  1.00  0.00     0.031 C 
ATOM     60  C   UNL A   1      44.594  30.518  31.711  1.00  0.00     0.029 A 
ATOM     61  C   UNL A   1      44.879  29.197  31.361  1.00  0.00     0.049 A 
ATOM     62  H   UNL A   1      45.077  27.680  32.816  1.00  0.00     0.167 HD
ATOM     63  C   UNL A   1      44.993  27.274  29.803  1.00  0.00     0.074 A 
ATOM     64  C   UNL A   1      44.487  26.169  30.615  1.00  0.00     0.031 C 
ATOM     65  C   UNL A   1      45.253  28.581  30.102  1.00  0.00     0.034 A 
BRANCH  52  66
ATOM     66  C   UNL A   1      42.663  27.249  34.648  1.00  0.00     0.023 A 
ATOM     67  C   UNL A   1      43.482  26.167  34.258  1.00  0.00     0.031 A 
ATOM     68  C   UNL A   1      41.894  27.031  35.812  1.00  0.00     0.131 A 
ATOM     69  C   UNL A   1      43.408  24.922  34.906  1.00  0.00     0.055 A 
ATOM     70  C   UNL A   1      41.882  25.811  36.501  1.00  0.00     0.041 A 
ATOM     71  F   UNL A   1      41.048  27.941  36.306  1.00  0.00    -0.206 F 
ATOM     72  C   UNL A   1      42.610  24.735  36.028  1.00  0.00     0.022 A 
BRANCH  69  73
ATOM     73  S   UNL A   1      44.214  23.499  34.124  1.00  0.00     0.124 S 
ATOM     74  O   UNL A   1      45.543  24.036  33.847  1.00  0.00    -0.237 OA
ATOM     75  O   UNL A   1      44.133  22.493  35.177  1.00  0.00    -0.237 OA
ATOM     76  O   UNL A   1      43.385  23.243  32.949  1.00  0.00    -0.744 OA
ENDBRANCH  69  73
ENDBRANCH  52  66
BRANCH  53  77
ATOM     77  C   UNL A   1      42.825  24.296  26.819  1.00  0.00     0.023 A 
ATOM     78  C   UNL A   1      43.828  23.822  25.951  1.00  0.00     0.031 A 
ATOM     79  C   UNL A   1      41.794  23.390  27.156  1.00  0.00     0.131 A 
ATOM     80  C   UNL A   1      43.776  22.496  25.460  1.00  0.00     0.055 A 
ATOM     81  C   UNL A   1      41.741  22.086  26.660  1.00  0.00     0.041 A 
ATOM     82  F   UNL A   1      40.846  23.714  28.049  1.00  0.00    -0.206 F 
ATOM     83  C   UNL A   1      42.741  21.629  25.816  1.00  0.00     0.022 A 
BRANCH  80  84
ATOM     84  S   UNL A   1      45.136  21.841  24.442  1.00  0.00     0.124 S 
ATOM     85  O   UNL A   1      44.524  20.667  23.830  1.00  0.00    -0.237 OA
ATOM     86  O   UNL A   1      45.435  22.957  23.553  1.00  0.00    -0.237 OA
ATOM     87  O   UNL A   1      46.181  21.547  25.425  1.00  0.00    -0.744 OA
ENDBRANCH  80  84
ENDBRANCH  53  77
BRANCH  65  88
ATOM     88  C   UNL A   1      45.725  29.507  28.999  1.00  0.00     0.023 A 
ATOM     89  C   UNL A   1      44.902  30.409  28.289  1.00  0.00     0.031 A 
ATOM     90  C   UNL A   1      47.108  29.550  28.744  1.00  0.00     0.131 A 
ATOM     91  C   UNL A   1      45.470  31.300  27.357  1.00  0.00     0.055 A 
ATOM     92  C   UNL A   1      47.671  30.447  27.838  1.00  0.00     0.041 A 
ATOM     93  F   UNL A   1      47.950  28.737  29.405  1.00  0.00    -0.206 F 
ATOM     94  C   UNL A   1      46.851  31.322  27.135  1.00  0.00     0.022 A 
BRANCH  91  95
ATOM     95  S   UNL A   1      44.422  32.438  26.397  1.00  0.00     0.124 S 
ATOM     96  O   UNL A   1      45.351  33.058  25.461  1.00  0.00    -0.237 OA
ATOM     97  O   UNL A   1      43.432  31.536  25.813  1.00  0.00    -0.237 OA
ATOM     98  O   UNL A   1      43.887  33.346  27.415  1.00  0.00    -0.744 OA
ENDBRANCH  91  95
ENDBRANCH  65  88
ENDBRANCH  39  40
ENDBRANCH  31  34
ENDBRANCH  29  30
ENDBRANCH  28  29
ENDBRANCH   1  28
TORSDOF 17
ENDMDL
MODEL 2
REMARK VINA RESULT:     -12.8      2.700      7.208
REMARK SMILES CC(C)Oc1ccc([C@@H]2CC(=O)Nc3c(C(=O)NCCCCNC(=O)c4ccc(-c5c6nc(c(-c7cc(S(=O)(=O)[O-])ccc7F)c7ccc([nH]7)c(-c7cc(S(=O)(=O)[O-])ccc7F)c7nc(c(-c8cc(S(=O)(=O)[O-])ccc8F)c8ccc5[nH]8)C=C7)C=C6)cc4)nsc32)cc1
REMARK SMILES IDX 20 1 19 2 18 3 16 4 17 5 15 7 9 8 10 9 91 10 11 11 14 12
REMARK SMILES IDX 90 13 12 14 13 15 89 16 8 18 5 19 6 20 93 21 7 22 92 23 4 24
REMARK SMILES IDX 2 25 1 26 3 27 21 28 22 29 23 30 24 31 25 33 26 34 27 35
REMARK SMILES IDX 88 36 28 37 87 38 29 39 30 40 31 41 81 42 32 43 86 44 80 45
REMARK SMILES IDX 82 46 33 47 85 48 79 49 78 50 34 52 66 53 46 54 65 55 47 56
REMARK SMILES IDX 50 57 64 58 83 59 48 60 49 61 63 63 84 64 51 65 35 66 36 67
REMARK SMILES IDX 44 68 37 69 43 70 45 71 42 72 38 73 39 74 40 75 41 76 67 77
REMARK SMILES IDX 68 78 76 79 69 80 75 81 77 82 74 83 70 84 71 85 72 86 73 87
REMARK SMILES IDX 52 88 53 89 61 90 54 91 60 92 62 93 59 94 55 95 56 96 57 97
REMARK SMILES IDX 58 98
REMARK H PARENT 18 6 13 17 23 32 82 51 50 62
REMARK Flexibility Score: inf
ROOT
ATOM      1  C   UNL A   1      32.806  29.540  26.131  1.00  0.00     0.023 C 
ENDROOT
BRANCH   1   2
ATOM      2  C   UNL A   1      32.673  29.242  24.642  1.00  0.00     0.116 C 
BRANCH   2   3
ATOM      3  N   UNL A   1      31.338  28.961  24.151  1.00  0.00    -0.351 N 
ATOM      4  C   UNL A   1      30.682  27.740  23.982  1.00  0.00     0.273 C 
ATOM      5  O   UNL A   1      29.544  27.775  23.548  1.00  0.00    -0.267 OA
ATOM      6  H   UNL A   1      30.812  29.753  23.897  1.00  0.00     0.163 HD
BRANCH   4   7
ATOM      7  C   UNL A   1      31.395  26.467  24.259  1.00  0.00     0.165 A 
ATOM      8  C   UNL A   1      33.058  23.272  23.178  1.00  0.00     0.073 C 
ATOM      9  C   UNL A   1      33.153  23.538  21.661  1.00  0.00     0.114 C 
ATOM     10  C   UNL A   1      32.441  24.424  23.894  1.00  0.00     0.058 A 
ATOM     11  C   UNL A   1      32.935  24.963  21.180  1.00  0.00     0.225 C 
ATOM     12  C   UNL A   1      32.184  25.660  23.359  1.00  0.00     0.089 A 
ATOM     13  S   UNL A   1      31.930  24.413  25.510  1.00  0.00    -0.038 S 
ATOM     14  O   UNL A   1      32.996  25.242  19.983  1.00  0.00    -0.275 OA
ATOM     15  N   UNL A   1      32.581  25.934  22.070  1.00  0.00    -0.323 N 
ATOM     16  N   UNL A   1      31.258  25.926  25.483  1.00  0.00    -0.185 NA
ATOM     17  H   UNL A   1      32.612  26.874  21.777  1.00  0.00     0.170 HD
BRANCH   8  18
ATOM     18  C   UNL A   1      34.411  22.870  23.736  1.00  0.00    -0.039 A 
ATOM     19  C   UNL A   1      36.914  22.067  24.717  1.00  0.00     0.119 A 
ATOM     20  C   UNL A   1      35.748  21.513  25.244  1.00  0.00     0.047 A 
ATOM     21  C   UNL A   1      36.833  22.980  23.671  1.00  0.00     0.047 A 
ATOM     22  C   UNL A   1      34.501  21.915  24.761  1.00  0.00     0.008 A 
ATOM     23  C   UNL A   1      35.591  23.401  23.201  1.00  0.00     0.008 A 
BRANCH  19  24
ATOM     24  O   UNL A   1      38.099  21.597  25.203  1.00  0.00    -0.491 OA
BRANCH  24  25
ATOM     25  C   UNL A   1      38.658  22.265  26.351  1.00  0.00     0.167 C 
ATOM     26  C   UNL A   1      40.114  21.897  26.626  1.00  0.00     0.052 C 
ATOM     27  C   UNL A   1      38.419  23.775  26.363  1.00  0.00     0.052 C 
ENDBRANCH  24  25
ENDBRANCH  19  24
ENDBRANCH   8  18
ENDBRANCH   4   7
ENDBRANCH   2   3
ENDBRANCH   1   2
BRANCH   1  28
ATOM     28  C   UNL A   1      33.647  28.581  26.974  1.00  0.00     0.023 C 
BRANCH  28  29
ATOM     29  C   UNL A   1      35.077  29.021  27.273  1.00  0.00     0.116 C 
BRANCH  29  30
ATOM     30  N   UNL A   1      35.187  30.062  28.288  1.00  0.00    -0.352 N 
ATOM     31  C   UNL A   1      36.172  30.166  29.259  1.00  0.00     0.251 C 
ATOM     32  H   UNL A   1      34.493  30.761  28.284  1.00  0.00     0.163 HD
ATOM     33  O   UNL A   1      35.988  30.838  30.266  1.00  0.00    -0.269 OA
BRANCH  31  34
ATOM     34  C   UNL A   1      37.431  29.415  29.065  1.00  0.00     0.039 A 
ATOM     35  C   UNL A   1      38.272  29.696  27.986  1.00  0.00     0.014 A 
ATOM     36  C   UNL A   1      37.799  28.477  30.027  1.00  0.00     0.014 A 
ATOM     37  C   UNL A   1      39.541  29.113  27.946  1.00  0.00     0.010 A 
ATOM     38  C   UNL A   1      39.087  27.975  30.036  1.00  0.00     0.010 A 
ATOM     39  C   UNL A   1      39.966  28.281  28.995  1.00  0.00    -0.014 A 
BRANCH  39  40
ATOM     40  C   UNL A   1      41.376  27.871  29.082  1.00  0.00     0.031 A 
ATOM     41  C   UNL A   1      41.758  26.673  28.273  1.00  0.00     0.074 A 
ATOM     42  C   UNL A   1      42.362  28.629  29.612  1.00  0.00     0.049 A 
ATOM     43  N   UNL A   1      42.241  25.546  28.683  1.00  0.00    -0.248 NA
ATOM     44  C   UNL A   1      41.487  26.704  26.827  1.00  0.00     0.031 C 
ATOM     45  C   UNL A   1      42.258  29.986  30.153  1.00  0.00     0.029 A 
ATOM     46  N   UNL A   1      43.705  28.387  29.652  1.00  0.00    -0.354 N 
ATOM     47  C   UNL A   1      42.536  24.800  27.540  1.00  0.00     0.074 A 
ATOM     48  C   UNL A   1      41.896  25.491  26.453  1.00  0.00     0.031 C 
ATOM     49  C   UNL A   1      43.491  30.532  30.235  1.00  0.00     0.029 A 
ATOM     50  C   UNL A   1      44.476  29.514  29.916  1.00  0.00     0.049 A 
ATOM     51  H   UNL A   1      44.094  27.494  29.506  1.00  0.00     0.167 HD
ATOM     52  C   UNL A   1      43.446  23.782  27.560  1.00  0.00     0.034 A 
ATOM     53  C   UNL A   1      45.827  29.627  29.852  1.00  0.00     0.034 A 
ATOM     54  C   UNL A   1      43.723  23.364  28.919  1.00  0.00     0.049 A 
ATOM     55  C   UNL A   1      46.388  28.262  29.980  1.00  0.00     0.074 A 
ATOM     56  C   UNL A   1      42.949  22.910  29.972  1.00  0.00     0.029 A 
ATOM     57  N   UNL A   1      44.926  23.722  29.486  1.00  0.00    -0.354 N 
ATOM     58  N   UNL A   1      46.284  27.538  31.059  1.00  0.00    -0.248 NA
ATOM     59  C   UNL A   1      46.702  27.524  28.766  1.00  0.00     0.031 C 
ATOM     60  C   UNL A   1      43.519  23.514  31.131  1.00  0.00     0.029 A 
ATOM     61  C   UNL A   1      44.646  24.233  30.728  1.00  0.00     0.049 A 
ATOM     62  H   UNL A   1      45.817  23.628  29.078  1.00  0.00     0.167 HD
ATOM     63  C   UNL A   1      46.086  26.246  30.603  1.00  0.00     0.074 A 
ATOM     64  C   UNL A   1      46.474  26.280  29.195  1.00  0.00     0.031 C 
ATOM     65  C   UNL A   1      45.362  25.342  31.328  1.00  0.00     0.034 A 
BRANCH  52  66
ATOM     66  C   UNL A   1      44.348  23.372  26.405  1.00  0.00     0.023 A 
ATOM     67  C   UNL A   1      45.485  24.172  26.160  1.00  0.00     0.031 A 
ATOM     68  C   UNL A   1      44.027  22.455  25.381  1.00  0.00     0.131 A 
ATOM     69  C   UNL A   1      46.144  24.147  24.919  1.00  0.00     0.055 A 
ATOM     70  C   UNL A   1      44.735  22.378  24.175  1.00  0.00     0.041 A 
ATOM     71  F   UNL A   1      42.969  21.639  25.441  1.00  0.00    -0.206 F 
ATOM     72  C   UNL A   1      45.775  23.254  23.920  1.00  0.00     0.022 A 
BRANCH  69  73
ATOM     73  S   UNL A   1      47.353  25.449  24.563  1.00  0.00     0.124 S 
ATOM     74  O   UNL A   1      46.491  26.621  24.449  1.00  0.00    -0.237 OA
ATOM     75  O   UNL A   1      48.211  25.392  25.742  1.00  0.00    -0.237 OA
ATOM     76  O   UNL A   1      47.973  25.005  23.317  1.00  0.00    -0.744 OA
ENDBRANCH  69  73
ENDBRANCH  52  66
BRANCH  53  77
ATOM     77  C   UNL A   1      46.633  30.816  29.471  1.00  0.00     0.023 A 
ATOM     78  C   UNL A   1      46.441  31.493  28.251  1.00  0.00     0.031 A 
ATOM     79  C   UNL A   1      47.455  31.453  30.429  1.00  0.00     0.131 A 
ATOM     80  C   UNL A   1      47.052  32.749  28.029  1.00  0.00     0.055 A 
ATOM     81  C   UNL A   1      48.065  32.688  30.201  1.00  0.00     0.041 A 
ATOM     82  F   UNL A   1      47.623  30.936  31.656  1.00  0.00    -0.206 F 
ATOM     83  C   UNL A   1      47.857  33.347  29.001  1.00  0.00     0.022 A 
BRANCH  80  84
ATOM     84  S   UNL A   1      46.701  33.684  26.507  1.00  0.00     0.124 S 
ATOM     85  O   UNL A   1      46.130  34.920  27.029  1.00  0.00    -0.237 OA
ATOM     86  O   UNL A   1      48.017  33.787  25.886  1.00  0.00    -0.237 OA
ATOM     87  O   UNL A   1      45.756  32.823  25.792  1.00  0.00    -0.744 OA
ENDBRANCH  80  84
ENDBRANCH  53  77
BRANCH  65  88
ATOM     88  C   UNL A   1      45.079  25.630  32.788  1.00  0.00     0.023 A 
ATOM     89  C   UNL A   1      43.917  26.269  33.279  1.00  0.00     0.031 A 
ATOM     90  C   UNL A   1      45.989  25.122  33.734  1.00  0.00     0.131 A 
ATOM     91  C   UNL A   1      43.710  26.388  34.667  1.00  0.00     0.055 A 
ATOM     92  C   UNL A   1      45.771  25.222  35.107  1.00  0.00     0.041 A 
ATOM     93  F   UNL A   1      47.100  24.481  33.334  1.00  0.00    -0.206 F 
ATOM     94  C   UNL A   1      44.632  25.863  35.579  1.00  0.00     0.022 A 
BRANCH  91  95
ATOM     95  S   UNL A   1      42.243  27.248  35.320  1.00  0.00     0.124 S 
ATOM     96  O   UNL A   1      42.023  28.328  34.366  1.00  0.00    -0.237 OA
ATOM     97  O   UNL A   1      41.237  26.188  35.329  1.00  0.00    -0.237 OA
ATOM     98  O   UNL A   1      42.672  27.688  36.649  1.00  0.00    -0.744 OA
ENDBRANCH  91  95
ENDBRANCH  65  88
ENDBRANCH  39  40
ENDBRANCH  31  34
ENDBRANCH  29  30
ENDBRANCH  28  29
ENDBRANCH   1  28
TORSDOF 17
ENDMDL
MODEL 3
REMARK VINA RESULT:     -12.1      8.929     15.863
REMARK SMILES CC(C)Oc1ccc([C@@H]2CC(=O)Nc3c(C(=O)NCCCCNC(=O)c4ccc(-c5c6nc(c(-c7cc(S(=O)(=O)[O-])ccc7F)c7ccc([nH]7)c(-c7cc(S(=O)(=O)[O-])ccc7F)c7nc(c(-c8cc(S(=O)(=O)[O-])ccc8F)c8ccc5[nH]8)C=C7)C=C6)cc4)nsc32)cc1
REMARK SMILES IDX 20 1 19 2 18 3 16 4 17 5 15 7 9 8 10 9 91 10 11 11 14 12
REMARK SMILES IDX 90 13 12 14 13 15 89 16 8 18 5 19 6 20 93 21 7 22 92 23 4 24
REMARK SMILES IDX 2 25 1 26 3 27 21 28 22 29 23 30 24 31 25 33 26 34 27 35
REMARK SMILES IDX 88 36 28 37 87 38 29 39 30 40 31 41 81 42 32 43 86 44 80 45
REMARK SMILES IDX 82 46 33 47 85 48 79 49 78 50 34 52 66 53 46 54 65 55 47 56
REMARK SMILES IDX 50 57 64 58 83 59 48 60 49 61 63 63 84 64 51 65 35 66 36 67
REMARK SMILES IDX 44 68 37 69 43 70 45 71 42 72 38 73 39 74 40 75 41 76 67 77
REMARK SMILES IDX 68 78 76 79 69 80 75 81 77 82 74 83 70 84 71 85 72 86 73 87
REMARK SMILES IDX 52 88 53 89 61 90 54 91 60 92 62 93 59 94 55 95 56 96 57 97
REMARK SMILES IDX 58 98
REMARK H PARENT 18 6 13 17 23 32 82 51 50 62
REMARK Flexibility Score: inf
ROOT
ATOM      1  C   UNL A   1      46.756  40.320  26.591  1.00  0.00     0.023 C 
ENDROOT
BRANCH   1   2
ATOM      2  C   UNL A   1      45.594  41.118  26.009  1.00  0.00     0.116 C 
BRANCH   2   3
ATOM      3  N   UNL A   1      45.484  42.503  26.423  1.00  0.00    -0.351 N 
ATOM      4  C   UNL A   1      45.289  43.655  25.660  1.00  0.00     0.273 C 
ATOM      5  O   UNL A   1      45.228  44.716  26.257  1.00  0.00    -0.267 OA
ATOM      6  H   UNL A   1      45.559  42.656  27.393  1.00  0.00     0.163 HD
BRANCH   4   7
ATOM      7  C   UNL A   1      45.235  43.567  24.178  1.00  0.00     0.165 A 
ATOM      8  C   UNL A   1      43.510  42.718  20.947  1.00  0.00     0.073 C 
ATOM      9  C   UNL A   1      42.079  42.488  21.478  1.00  0.00     0.114 C 
ATOM     10  C   UNL A   1      44.440  43.109  22.043  1.00  0.00     0.058 A 
ATOM     11  C   UNL A   1      41.759  42.982  22.879  1.00  0.00     0.225 C 
ATOM     12  C   UNL A   1      44.080  43.450  23.321  1.00  0.00     0.089 A 
ATOM     13  S   UNL A   1      46.128  43.192  21.913  1.00  0.00    -0.038 S 
ATOM     14  O   UNL A   1      40.638  42.830  23.362  1.00  0.00    -0.275 OA
ATOM     15  N   UNL A   1      42.745  43.525  23.650  1.00  0.00    -0.323 N 
ATOM     16  N   UNL A   1      46.403  43.522  23.511  1.00  0.00    -0.185 NA
ATOM     17  H   UNL A   1      42.490  43.992  24.478  1.00  0.00     0.170 HD
BRANCH   8  18
ATOM     18  C   UNL A   1      43.499  43.698  19.788  1.00  0.00    -0.039 A 
ATOM     19  C   UNL A   1      43.506  45.452  17.598  1.00  0.00     0.119 A 
ATOM     20  C   UNL A   1      44.662  45.280  18.357  1.00  0.00     0.047 A 
ATOM     21  C   UNL A   1      42.366  44.715  17.899  1.00  0.00     0.047 A 
ATOM     22  C   UNL A   1      44.660  44.412  19.450  1.00  0.00     0.008 A 
ATOM     23  C   UNL A   1      42.351  43.864  19.002  1.00  0.00     0.008 A 
BRANCH  19  24
ATOM     24  O   UNL A   1      43.590  46.281  16.518  1.00  0.00    -0.491 OA
BRANCH  24  25
ATOM     25  C   UNL A   1      43.232  47.663  16.712  1.00  0.00     0.167 C 
ATOM     26  C   UNL A   1      41.773  47.970  16.382  1.00  0.00     0.052 C 
ATOM     27  C   UNL A   1      43.662  48.228  18.065  1.00  0.00     0.052 C 
ENDBRANCH  24  25
ENDBRANCH  19  24
ENDBRANCH   8  18
ENDBRANCH   4   7
ENDBRANCH   2   3
ENDBRANCH   1   2
BRANCH   1  28
ATOM     28  C   UNL A   1      46.448  39.342  27.725  1.00  0.00     0.023 C 
BRANCH  28  29
ATOM     29  C   UNL A   1      45.164  38.530  27.588  1.00  0.00     0.116 C 
BRANCH  29  30
ATOM     30  N   UNL A   1      45.215  37.492  26.564  1.00  0.00    -0.352 N 
ATOM     31  C   UNL A   1      44.806  36.175  26.706  1.00  0.00     0.251 C 
ATOM     32  H   UNL A   1      45.574  37.753  25.685  1.00  0.00     0.163 HD
ATOM     33  O   UNL A   1      45.212  35.309  25.940  1.00  0.00    -0.269 OA
BRANCH  31  34
ATOM     34  C   UNL A   1      43.901  35.837  27.825  1.00  0.00     0.039 A 
ATOM     35  C   UNL A   1      42.572  36.265  27.825  1.00  0.00     0.014 A 
ATOM     36  C   UNL A   1      44.382  35.012  28.841  1.00  0.00     0.014 A 
ATOM     37  C   UNL A   1      41.697  35.761  28.790  1.00  0.00     0.010 A 
ATOM     38  C   UNL A   1      43.496  34.443  29.736  1.00  0.00     0.010 A 
ATOM     39  C   UNL A   1      42.150  34.816  29.726  1.00  0.00    -0.014 A 
BRANCH  39  40
ATOM     40  C   UNL A   1      41.184  34.102  30.575  1.00  0.00     0.031 A 
ATOM     41  C   UNL A   1      41.562  33.959  32.014  1.00  0.00     0.074 A 
ATOM     42  C   UNL A   1      39.915  33.812  30.212  1.00  0.00     0.049 A 
ATOM     43  N   UNL A   1      41.742  32.875  32.696  1.00  0.00    -0.248 NA
ATOM     44  C   UNL A   1      41.861  35.184  32.772  1.00  0.00     0.031 C 
ATOM     45  C   UNL A   1      39.234  34.167  28.965  1.00  0.00     0.029 A 
ATOM     46  N   UNL A   1      38.917  33.246  30.954  1.00  0.00    -0.354 N 
ATOM     47  C   UNL A   1      41.969  33.267  34.016  1.00  0.00     0.074 A 
ATOM     48  C   UNL A   1      42.198  34.687  33.962  1.00  0.00     0.031 C 
ATOM     49  C   UNL A   1      37.900  34.036  29.130  1.00  0.00     0.029 A 
ATOM     50  C   UNL A   1      37.644  33.431  30.424  1.00  0.00     0.049 A 
ATOM     51  H   UNL A   1      39.084  32.752  31.789  1.00  0.00     0.167 HD
ATOM     52  C   UNL A   1      41.756  32.419  35.065  1.00  0.00     0.034 A 
ATOM     53  C   UNL A   1      36.454  33.139  31.008  1.00  0.00     0.034 A 
ATOM     54  C   UNL A   1      41.667  31.048  34.610  1.00  0.00     0.049 A 
ATOM     55  C   UNL A   1      36.715  32.121  32.052  1.00  0.00     0.074 A 
ATOM     56  C   UNL A   1      42.497  30.207  33.890  1.00  0.00     0.029 A 
ATOM     57  N   UNL A   1      40.430  30.444  34.578  1.00  0.00    -0.354 N 
ATOM     58  N   UNL A   1      37.128  30.912  31.792  1.00  0.00    -0.248 NA
ATOM     59  C   UNL A   1      36.926  32.567  33.420  1.00  0.00     0.031 C 
ATOM     60  C   UNL A   1      41.621  29.466  33.043  1.00  0.00     0.029 A 
ATOM     61  C   UNL A   1      40.312  29.840  33.352  1.00  0.00     0.049 A 
ATOM     62  H   UNL A   1      39.758  30.443  35.298  1.00  0.00     0.167 HD
ATOM     63  C   UNL A   1      38.022  30.615  32.807  1.00  0.00     0.074 A 
ATOM     64  C   UNL A   1      37.764  31.616  33.840  1.00  0.00     0.031 C 
ATOM     65  C   UNL A   1      39.074  29.768  32.599  1.00  0.00     0.034 A 
BRANCH  52  66
ATOM     66  C   UNL A   1      41.293  32.825  36.456  1.00  0.00     0.023 A 
ATOM     67  C   UNL A   1      40.010  32.395  36.859  1.00  0.00     0.031 A 
ATOM     68  C   UNL A   1      41.880  33.813  37.277  1.00  0.00     0.131 A 
ATOM     69  C   UNL A   1      39.324  33.025  37.912  1.00  0.00     0.055 A 
ATOM     70  C   UNL A   1      41.223  34.383  38.374  1.00  0.00     0.041 A 
ATOM     71  F   UNL A   1      43.080  34.347  37.026  1.00  0.00    -0.206 F 
ATOM     72  C   UNL A   1      39.923  34.021  38.674  1.00  0.00     0.022 A 
BRANCH  69  73
ATOM     73  S   UNL A   1      37.562  32.661  38.126  1.00  0.00     0.124 S 
ATOM     74  O   UNL A   1      36.968  33.474  37.069  1.00  0.00    -0.237 OA
ATOM     75  O   UNL A   1      37.527  31.217  37.925  1.00  0.00    -0.237 OA
ATOM     76  O   UNL A   1      37.286  33.109  39.489  1.00  0.00    -0.744 OA
ENDBRANCH  69  73
ENDBRANCH  52  66
BRANCH  53  77
ATOM     77  C   UNL A   1      35.158  33.850  30.858  1.00  0.00     0.023 A 
ATOM     78  C   UNL A   1      34.712  34.803  31.795  1.00  0.00     0.031 A 
ATOM     79  C   UNL A   1      34.442  33.772  29.641  1.00  0.00     0.131 A 
ATOM     80  C   UNL A   1      33.600  35.626  31.500  1.00  0.00     0.055 A 
ATOM     81  C   UNL A   1      33.339  34.578  29.359  1.00  0.00     0.041 A 
ATOM     82  F   UNL A   1      34.846  32.964  28.648  1.00  0.00    -0.206 F 
ATOM     83  C   UNL A   1      32.919  35.519  30.285  1.00  0.00     0.022 A 
BRANCH  80  84
ATOM     84  S   UNL A   1      33.102  36.943  32.653  1.00  0.00     0.124 S 
ATOM     85  O   UNL A   1      33.252  38.142  31.835  1.00  0.00    -0.237 OA
ATOM     86  O   UNL A   1      31.739  36.562  33.004  1.00  0.00    -0.237 OA
ATOM     87  O   UNL A   1      34.069  36.819  33.746  1.00  0.00    -0.744 OA
ENDBRANCH  80  84
ENDBRANCH  53  77
BRANCH  65  88
ATOM     88  C   UNL A   1      39.066  28.873  31.377  1.00  0.00     0.023 A 
ATOM     89  C   UNL A   1      39.608  29.215  30.118  1.00  0.00     0.031 A 
ATOM     90  C   UNL A   1      38.583  27.562  31.542  1.00  0.00     0.131 A 
ATOM     91  C   UNL A   1      39.642  28.261  29.081  1.00  0.00     0.055 A 
ATOM     92  C   UNL A   1      38.637  26.614  30.522  1.00  0.00     0.041 A 
ATOM     93  F   UNL A   1      38.079  27.164  32.723  1.00  0.00    -0.206 F 
ATOM     94  C   UNL A   1      39.161  26.963  29.283  1.00  0.00     0.022 A 
BRANCH  91  95
ATOM     95  S   UNL A   1      40.293  28.695  27.436  1.00  0.00     0.124 S 
ATOM     96  O   UNL A   1      40.454  27.406  26.777  1.00  0.00    -0.237 OA
ATOM     97  O   UNL A   1      39.245  29.561  26.902  1.00  0.00    -0.237 OA
ATOM     98  O   UNL A   1      41.550  29.383  27.741  1.00  0.00    -0.744 OA
ENDBRANCH  91  95
ENDBRANCH  65  88
ENDBRANCH  39  40
ENDBRANCH  31  34
ENDBRANCH  29  30
ENDBRANCH  28  29
ENDBRANCH   1  28
TORSDOF 17
ENDMDL
