MODEL 1
REMARK VINA RESULT:     -12.7      0.000      0.000
REMARK SMILES O=C(NCCCCNC(=O)[C@H]1CC2(CCN(C(=O)c3cc4ccccc4[nH]3)CC2)CN1C(=O)C1CC1)c1ccc(-c2c3nc(c(-c4cc(S(=O)(=O)[O-])ccc4F)c4ccc([nH]4)c(-c4cc(S(=O)(=O)[O-])ccc4F)c4nc(c(-c5cc(S(=O)(=O)[O-])ccc5F)c5ccc2[nH]5)C=C4)C=C3)cc1
REMARK SMILES IDX 5 1 4 2 3 3 1 4 2 5 37 7 38 8 99 9 39 10 98 11 40 12 41 13
REMARK SMILES IDX 42 14 92 15 43 16 97 17 91 18 93 19 44 20 96 21 90 22 89 23
REMARK SMILES IDX 45 25 77 26 57 27 76 28 58 29 61 30 75 31 94 32 59 33 60 34
REMARK SMILES IDX 74 36 95 37 62 38 46 39 47 40 55 41 48 42 54 43 56 44 53 45
REMARK SMILES IDX 49 46 50 47 51 48 52 49 78 50 79 51 87 52 80 53 86 54 88 55
REMARK SMILES IDX 85 56 81 57 82 58 83 59 84 60 63 61 64 62 72 63 65 64 71 65
REMARK SMILES IDX 73 66 70 67 66 68 67 69 68 70 69 71 6 72 7 73 8 74 9 75
REMARK SMILES IDX 10 77 11 78 12 79 31 80 13 81 30 82 14 83 29 84 15 85 28 86
REMARK SMILES IDX 16 87 17 88 18 89 32 90 33 91 34 92 35 93 36 94 19 95 20 96
REMARK SMILES IDX 27 97 21 98 26 99 22 101 25 102 23 103 24 104
REMARK H PARENT 3 6 93 24 61 35 8 76 27 100
REMARK Flexibility Score: inf
ROOT
ATOM      1  C   UNL A   1      32.839  30.054  25.795  1.00  0.00     0.023 C 
ENDROOT
BRANCH   1   2
ATOM      2  C   UNL A   1      32.864  30.665  27.196  1.00  0.00     0.116 C 
BRANCH   2   3
ATOM      3  N   UNL A   1      32.582  32.091  27.221  1.00  0.00    -0.352 N 
ATOM      4  O   UNL A   1      32.762  34.256  27.787  1.00  0.00    -0.269 OA
ATOM      5  C   UNL A   1      33.233  33.122  27.856  1.00  0.00     0.251 C 
ATOM      6  H   UNL A   1      31.795  32.362  26.696  1.00  0.00     0.163 HD
BRANCH   5   7
ATOM      7  C   UNL A   1      34.454  32.886  28.661  1.00  0.00     0.039 A 
ATOM      8  C   UNL A   1      35.733  33.187  28.183  1.00  0.00     0.014 A 
ATOM      9  C   UNL A   1      34.302  32.365  29.950  1.00  0.00     0.014 A 
ATOM     10  C   UNL A   1      36.860  32.824  28.926  1.00  0.00     0.010 A 
ATOM     11  C   UNL A   1      35.429  32.052  30.715  1.00  0.00     0.010 A 
ATOM     12  C   UNL A   1      36.719  32.229  30.189  1.00  0.00    -0.014 A 
BRANCH  12  13
ATOM     13  C   UNL A   1      37.903  31.729  30.939  1.00  0.00     0.031 A 
ATOM     14  C   UNL A   1      38.774  30.660  30.335  1.00  0.00     0.074 A 
ATOM     15  C   UNL A   1      38.188  32.208  32.165  1.00  0.00     0.049 A 
ATOM     16  N   UNL A   1      39.789  30.019  30.857  1.00  0.00    -0.248 NA
ATOM     17  C   UNL A   1      38.446  30.251  28.962  1.00  0.00     0.031 C 
ATOM     18  C   UNL A   1      37.431  33.247  32.861  1.00  0.00     0.029 A 
ATOM     19  N   UNL A   1      39.182  31.865  33.049  1.00  0.00    -0.354 N 
ATOM     20  C   UNL A   1      40.210  29.116  29.885  1.00  0.00     0.074 A 
ATOM     21  C   UNL A   1      39.312  29.270  28.760  1.00  0.00     0.031 C 
ATOM     22  C   UNL A   1      37.981  33.450  34.070  1.00  0.00     0.029 A 
ATOM     23  C   UNL A   1      39.096  32.524  34.252  1.00  0.00     0.049 A 
ATOM     24  H   UNL A   1      39.886  31.210  32.841  1.00  0.00     0.167 HD
ATOM     25  C   UNL A   1      41.253  28.247  29.923  1.00  0.00     0.034 A 
ATOM     26  C   UNL A   1      39.807  32.375  35.388  1.00  0.00     0.034 A 
ATOM     27  C   UNL A   1      42.143  28.102  31.051  1.00  0.00     0.049 A 
ATOM     28  C   UNL A   1      40.925  31.367  35.436  1.00  0.00     0.074 A 
ATOM     29  C   UNL A   1      43.254  27.286  31.177  1.00  0.00     0.029 A 
ATOM     30  N   UNL A   1      42.012  28.780  32.257  1.00  0.00    -0.354 N 
ATOM     31  N   UNL A   1      41.323  30.532  34.504  1.00  0.00    -0.248 NA
ATOM     32  C   UNL A   1      41.691  31.285  36.687  1.00  0.00     0.031 C 
ATOM     33  C   UNL A   1      43.756  27.422  32.476  1.00  0.00     0.029 A 
ATOM     34  C   UNL A   1      43.002  28.375  33.141  1.00  0.00     0.049 A 
ATOM     35  H   UNL A   1      41.319  29.449  32.456  1.00  0.00     0.167 HD
ATOM     36  C   UNL A   1      42.403  29.843  35.049  1.00  0.00     0.074 A 
ATOM     37  C   UNL A   1      42.592  30.358  36.390  1.00  0.00     0.031 C 
ATOM     38  C   UNL A   1      43.175  28.883  34.482  1.00  0.00     0.034 A 
BRANCH  25  39
ATOM     39  C   UNL A   1      41.451  27.356  28.719  1.00  0.00     0.023 A 
ATOM     40  C   UNL A   1      42.493  27.574  27.800  1.00  0.00     0.031 A 
ATOM     41  C   UNL A   1      40.554  26.307  28.456  1.00  0.00     0.131 A 
ATOM     42  C   UNL A   1      42.560  26.815  26.622  1.00  0.00     0.055 A 
ATOM     43  C   UNL A   1      40.674  25.499  27.323  1.00  0.00     0.041 A 
ATOM     44  F   UNL A   1      39.526  26.062  29.285  1.00  0.00    -0.206 F 
ATOM     45  C   UNL A   1      41.670  25.765  26.387  1.00  0.00     0.022 A 
BRANCH  42  46
ATOM     46  S   UNL A   1      43.712  27.339  25.321  1.00  0.00     0.124 S 
ATOM     47  O   UNL A   1      42.796  27.772  24.267  1.00  0.00    -0.237 OA
ATOM     48  O   UNL A   1      44.472  28.394  25.980  1.00  0.00    -0.237 OA
ATOM     49  O   UNL A   1      44.462  26.121  25.017  1.00  0.00    -0.744 OA
ENDBRANCH  42  46
ENDBRANCH  25  39
BRANCH  26  50
ATOM     50  C   UNL A   1      39.444  33.174  36.589  1.00  0.00     0.023 A 
ATOM     51  C   UNL A   1      38.608  32.654  37.587  1.00  0.00     0.031 A 
ATOM     52  C   UNL A   1      39.946  34.477  36.754  1.00  0.00     0.131 A 
ATOM     53  C   UNL A   1      38.284  33.441  38.702  1.00  0.00     0.055 A 
ATOM     54  C   UNL A   1      39.652  35.243  37.882  1.00  0.00     0.041 A 
ATOM     55  F   UNL A   1      40.757  35.015  35.828  1.00  0.00    -0.206 F 
ATOM     56  C   UNL A   1      38.811  34.726  38.862  1.00  0.00     0.022 A 
BRANCH  53  57
ATOM     57  S   UNL A   1      37.137  32.772  39.937  1.00  0.00     0.124 S 
ATOM     58  O   UNL A   1      35.921  32.598  39.150  1.00  0.00    -0.237 OA
ATOM     59  O   UNL A   1      37.814  31.548  40.350  1.00  0.00    -0.237 OA
ATOM     60  O   UNL A   1      37.080  33.822  40.953  1.00  0.00    -0.744 OA
ENDBRANCH  53  57
ENDBRANCH  26  50
BRANCH  38  61
ATOM     61  C   UNL A   1      44.334  28.362  35.293  1.00  0.00     0.023 A 
ATOM     62  C   UNL A   1      44.165  27.391  36.295  1.00  0.00     0.031 A 
ATOM     63  C   UNL A   1      45.633  28.840  35.042  1.00  0.00     0.131 A 
ATOM     64  C   UNL A   1      45.275  26.952  37.035  1.00  0.00     0.055 A 
ATOM     65  C   UNL A   1      46.739  28.367  35.750  1.00  0.00     0.041 A 
ATOM     66  F   UNL A   1      45.849  29.766  34.096  1.00  0.00    -0.206 F 
ATOM     67  C   UNL A   1      46.562  27.423  36.758  1.00  0.00     0.022 A 
BRANCH  64  68
ATOM     68  S   UNL A   1      45.014  25.785  38.399  1.00  0.00     0.124 S 
ATOM     69  O   UNL A   1      44.235  26.585  39.337  1.00  0.00    -0.237 OA
ATOM     70  O   UNL A   1      44.301  24.692  37.746  1.00  0.00    -0.237 OA
ATOM     71  O   UNL A   1      46.371  25.461  38.837  1.00  0.00    -0.744 OA
ENDBRANCH  64  68
ENDBRANCH  38  61
ENDBRANCH  12  13
ENDBRANCH   5   7
ENDBRANCH   2   3
ENDBRANCH   1   2
BRANCH   1  72
ATOM     72  C   UNL A   1      33.978  29.095  25.426  1.00  0.00     0.023 C 
BRANCH  72  73
ATOM     73  C   UNL A   1      33.590  27.646  25.137  1.00  0.00     0.116 C 
BRANCH  73  74
ATOM     74  N   UNL A   1      33.735  27.263  23.751  1.00  0.00    -0.354 N 
ATOM     75  C   UNL A   1      33.693  26.029  23.182  1.00  0.00     0.242 C 
ATOM     76  H   UNL A   1      33.886  28.008  23.125  1.00  0.00     0.163 HD
ATOM     77  O   UNL A   1      33.751  25.981  21.946  1.00  0.00    -0.273 OA
BRANCH  75  78
ATOM     78  C   UNL A   1      33.780  24.711  23.988  1.00  0.00     0.175 C 
ATOM     79  C   UNL A   1      35.283  24.389  24.137  1.00  0.00     0.044 C 
ATOM     80  N   UNL A   1      33.234  24.573  25.333  1.00  0.00    -0.330 N 
ATOM     81  C   UNL A   1      35.449  23.660  25.483  1.00  0.00    -0.006 C 
ATOM     82  C   UNL A   1      34.258  24.190  26.292  1.00  0.00     0.127 C 
ATOM     83  C   UNL A   1      36.780  24.034  26.166  1.00  0.00     0.030 C 
ATOM     84  C   UNL A   1      35.375  22.119  25.342  1.00  0.00     0.030 C 
ATOM     85  C   UNL A   1      37.981  23.433  25.442  1.00  0.00     0.120 C 
ATOM     86  C   UNL A   1      36.639  21.491  24.744  1.00  0.00     0.120 C 
ATOM     87  N   UNL A   1      37.862  21.979  25.386  1.00  0.00    -0.337 N 
ATOM     88  C   UNL A   1      38.919  21.078  25.570  1.00  0.00     0.270 C 
ATOM     89  O   UNL A   1      38.841  19.916  25.175  1.00  0.00    -0.267 OA
BRANCH  80  90
ATOM     90  C   UNL A   1      31.902  24.508  25.714  1.00  0.00     0.226 C 
ATOM     91  O   UNL A   1      31.051  25.206  25.175  1.00  0.00    -0.275 OA
BRANCH  90  92
ATOM     92  C   UNL A   1      31.416  23.488  26.685  1.00  0.00     0.079 C 
ATOM     93  C   UNL A   1      30.046  22.908  26.887  1.00  0.00     0.014 C 
ATOM     94  C   UNL A   1      31.085  22.106  26.168  1.00  0.00     0.014 C 
ENDBRANCH  90  92
ENDBRANCH  80  90
BRANCH  88  95
ATOM     95  C   UNL A   1      40.123  21.547  26.232  1.00  0.00     0.105 A 
ATOM     96  C   UNL A   1      40.283  21.865  27.571  1.00  0.00     0.042 A 
ATOM     97  N   UNL A   1      41.312  21.871  25.616  1.00  0.00    -0.351 N 
ATOM     98  C   UNL A   1      41.624  22.285  27.781  1.00  0.00     0.000 A 
ATOM     99  C   UNL A   1      42.253  22.268  26.539  1.00  0.00     0.046 A 
ATOM    100  H   UNL A   1      41.466  21.826  24.644  1.00  0.00     0.167 HD
ATOM    101  C   UNL A   1      42.363  22.678  28.913  1.00  0.00     0.010 A 
ATOM    102  C   UNL A   1      43.598  22.622  26.369  1.00  0.00     0.026 A 
ATOM    103  C   UNL A   1      43.711  23.029  28.763  1.00  0.00     0.001 A 
ATOM    104  C   UNL A   1      44.316  22.998  27.509  1.00  0.00     0.002 A 
ENDBRANCH  88  95
ENDBRANCH  75  78
ENDBRANCH  73  74
ENDBRANCH  72  73
ENDBRANCH   1  72
TORSDOF 17
ENDMDL
MODEL 2
REMARK VINA RESULT:     -12.6      1.922      3.819
REMARK SMILES O=C(NCCCCNC(=O)[C@H]1CC2(CCN(C(=O)c3cc4ccccc4[nH]3)CC2)CN1C(=O)C1CC1)c1ccc(-c2c3nc(c(-c4cc(S(=O)(=O)[O-])ccc4F)c4ccc([nH]4)c(-c4cc(S(=O)(=O)[O-])ccc4F)c4nc(c(-c5cc(S(=O)(=O)[O-])ccc5F)c5ccc2[nH]5)C=C4)C=C3)cc1
REMARK SMILES IDX 5 1 4 2 3 3 1 4 2 5 37 7 38 8 99 9 39 10 98 11 40 12 41 13
REMARK SMILES IDX 42 14 92 15 43 16 97 17 91 18 93 19 44 20 96 21 90 22 89 23
REMARK SMILES IDX 45 25 77 26 57 27 76 28 58 29 61 30 75 31 94 32 59 33 60 34
REMARK SMILES IDX 74 36 95 37 62 38 46 39 47 40 55 41 48 42 54 43 56 44 53 45
REMARK SMILES IDX 49 46 50 47 51 48 52 49 78 50 79 51 87 52 80 53 86 54 88 55
REMARK SMILES IDX 85 56 81 57 82 58 83 59 84 60 63 61 64 62 72 63 65 64 71 65
REMARK SMILES IDX 73 66 70 67 66 68 67 69 68 70 69 71 6 72 7 73 8 74 9 75
REMARK SMILES IDX 10 77 11 78 12 79 31 80 13 81 30 82 14 83 29 84 15 85 28 86
REMARK SMILES IDX 16 87 17 88 18 89 32 90 33 91 34 92 35 93 36 94 19 95 20 96
REMARK SMILES IDX 27 97 21 98 26 99 22 101 25 102 23 103 24 104
REMARK H PARENT 3 6 93 24 61 35 8 76 27 100
REMARK Flexibility Score: inf
ROOT
ATOM      1  C   UNL A   1      31.403  32.667  26.682  1.00  0.00     0.023 C 
ENDROOT
BRANCH   1   2
ATOM      2  C   UNL A   1      32.739  33.185  27.210  1.00  0.00     0.116 C 
BRANCH   2   3
ATOM      3  N   UNL A   1      32.630  34.408  27.989  1.00  0.00    -0.352 N 
ATOM      4  O   UNL A   1      33.027  35.903  29.618  1.00  0.00    -0.269 OA
ATOM      5  C   UNL A   1      33.352  34.849  29.073  1.00  0.00     0.251 C 
ATOM      6  H   UNL A   1      31.920  35.021  27.691  1.00  0.00     0.163 HD
BRANCH   5   7
ATOM      7  C   UNL A   1      34.476  34.058  29.626  1.00  0.00     0.039 A 
ATOM      8  C   UNL A   1      34.282  33.039  30.563  1.00  0.00     0.014 A 
ATOM      9  C   UNL A   1      35.767  34.339  29.167  1.00  0.00     0.014 A 
ATOM     10  C   UNL A   1      35.384  32.412  31.153  1.00  0.00     0.010 A 
ATOM     11  C   UNL A   1      36.866  33.673  29.717  1.00  0.00     0.010 A 
ATOM     12  C   UNL A   1      36.689  32.742  30.753  1.00  0.00    -0.014 A 
BRANCH  12  13
ATOM     13  C   UNL A   1      37.872  32.172  31.452  1.00  0.00     0.031 A 
ATOM     14  C   UNL A   1      38.631  31.031  30.827  1.00  0.00     0.074 A 
ATOM     15  C   UNL A   1      38.257  32.652  32.650  1.00  0.00     0.049 A 
ATOM     16  N   UNL A   1      39.624  30.328  31.310  1.00  0.00    -0.248 NA
ATOM     17  C   UNL A   1      38.201  30.621  29.483  1.00  0.00     0.031 C 
ATOM     18  C   UNL A   1      37.615  33.756  33.361  1.00  0.00     0.029 A 
ATOM     19  N   UNL A   1      39.269  32.254  33.488  1.00  0.00    -0.354 N 
ATOM     20  C   UNL A   1      39.927  29.378  30.338  1.00  0.00     0.074 A 
ATOM     21  C   UNL A   1      38.982  29.576  29.258  1.00  0.00     0.031 C 
ATOM     22  C   UNL A   1      38.242  33.941  34.534  1.00  0.00     0.029 A 
ATOM     23  C   UNL A   1      39.296  32.940  34.678  1.00  0.00     0.049 A 
ATOM     24  H   UNL A   1      39.913  31.546  33.258  1.00  0.00     0.167 HD
ATOM     25  C   UNL A   1      40.906  28.437  30.340  1.00  0.00     0.034 A 
ATOM     26  C   UNL A   1      40.054  32.761  35.779  1.00  0.00     0.034 A 
ATOM     27  C   UNL A   1      41.842  28.249  31.423  1.00  0.00     0.049 A 
ATOM     28  C   UNL A   1      41.098  31.676  35.792  1.00  0.00     0.074 A 
ATOM     29  C   UNL A   1      42.896  27.357  31.510  1.00  0.00     0.029 A 
ATOM     30  N   UNL A   1      41.825  28.957  32.619  1.00  0.00    -0.354 N 
ATOM     31  N   UNL A   1      41.384  30.797  34.859  1.00  0.00    -0.248 NA
ATOM     32  C   UNL A   1      41.922  31.562  37.002  1.00  0.00     0.031 C 
ATOM     33  C   UNL A   1      43.476  27.480  32.778  1.00  0.00     0.029 A 
ATOM     34  C   UNL A   1      42.829  28.498  33.460  1.00  0.00     0.049 A 
ATOM     35  H   UNL A   1      41.193  29.679  32.839  1.00  0.00     0.167 HD
ATOM     36  C   UNL A   1      42.440  30.042  35.362  1.00  0.00     0.074 A 
ATOM     37  C   UNL A   1      42.738  30.566  36.680  1.00  0.00     0.031 C 
ATOM     38  C   UNL A   1      43.110  29.017  34.778  1.00  0.00     0.034 A 
BRANCH  25  39
ATOM     39  C   UNL A   1      40.974  27.512  29.148  1.00  0.00     0.023 A 
ATOM     40  C   UNL A   1      41.917  27.696  28.122  1.00  0.00     0.031 A 
ATOM     41  C   UNL A   1      40.049  26.462  29.009  1.00  0.00     0.131 A 
ATOM     42  C   UNL A   1      41.858  26.905  26.965  1.00  0.00     0.055 A 
ATOM     43  C   UNL A   1      40.049  25.623  27.893  1.00  0.00     0.041 A 
ATOM     44  F   UNL A   1      39.112  26.248  29.946  1.00  0.00    -0.206 F 
ATOM     45  C   UNL A   1      40.945  25.854  26.853  1.00  0.00     0.022 A 
BRANCH  42  46
ATOM     46  S   UNL A   1      42.872  27.383  25.538  1.00  0.00     0.124 S 
ATOM     47  O   UNL A   1      42.654  26.261  24.626  1.00  0.00    -0.237 OA
ATOM     48  O   UNL A   1      42.277  28.653  25.141  1.00  0.00    -0.237 OA
ATOM     49  O   UNL A   1      44.223  27.468  26.090  1.00  0.00    -0.744 OA
ENDBRANCH  42  46
ENDBRANCH  25  39
BRANCH  26  50
ATOM     50  C   UNL A   1      39.814  33.607  36.979  1.00  0.00     0.023 A 
ATOM     51  C   UNL A   1      39.073  33.133  38.070  1.00  0.00     0.031 A 
ATOM     52  C   UNL A   1      40.342  34.909  37.048  1.00  0.00     0.131 A 
ATOM     53  C   UNL A   1      38.863  33.964  39.181  1.00  0.00     0.055 A 
ATOM     54  C   UNL A   1      40.163  35.718  38.170  1.00  0.00     0.041 A 
ATOM     55  F   UNL A   1      41.065  35.403  36.029  1.00  0.00    -0.206 F 
ATOM     56  C   UNL A   1      39.414  35.247  39.244  1.00  0.00     0.022 A 
BRANCH  53  57
ATOM     57  S   UNL A   1      37.833  33.353  40.543  1.00  0.00     0.124 S 
ATOM     58  O   UNL A   1      37.791  34.512  41.427  1.00  0.00    -0.237 OA
ATOM     59  O   UNL A   1      36.588  33.022  39.859  1.00  0.00    -0.237 OA
ATOM     60  O   UNL A   1      38.585  32.206  41.051  1.00  0.00    -0.744 OA
ENDBRANCH  53  57
ENDBRANCH  26  50
BRANCH  38  61
ATOM     61  C   UNL A   1      44.271  28.429  35.538  1.00  0.00     0.023 A 
ATOM     62  C   UNL A   1      44.094  27.422  36.504  1.00  0.00     0.031 A 
ATOM     63  C   UNL A   1      45.578  28.877  35.276  1.00  0.00     0.131 A 
ATOM     64  C   UNL A   1      45.207  26.920  37.198  1.00  0.00     0.055 A 
ATOM     65  C   UNL A   1      46.684  28.343  35.938  1.00  0.00     0.041 A 
ATOM     66  F   UNL A   1      45.800  29.836  34.364  1.00  0.00    -0.206 F 
ATOM     67  C   UNL A   1      46.501  27.364  36.910  1.00  0.00     0.022 A 
BRANCH  64  68
ATOM     68  S   UNL A   1      44.942  25.706  38.520  1.00  0.00     0.124 S 
ATOM     69  O   UNL A   1      46.258  25.647  39.145  1.00  0.00    -0.237 OA
ATOM     70  O   UNL A   1      43.886  26.329  39.312  1.00  0.00    -0.237 OA
ATOM     71  O   UNL A   1      44.542  24.497  37.801  1.00  0.00    -0.744 OA
ENDBRANCH  64  68
ENDBRANCH  38  61
ENDBRANCH  12  13
ENDBRANCH   5   7
ENDBRANCH   2   3
ENDBRANCH   1   2
BRANCH   1  72
ATOM     72  C   UNL A   1      31.385  31.257  26.077  1.00  0.00     0.023 C 
BRANCH  72  73
ATOM     73  C   UNL A   1      32.180  30.181  26.815  1.00  0.00     0.116 C 
BRANCH  73  74
ATOM     74  N   UNL A   1      31.410  29.002  27.142  1.00  0.00    -0.354 N 
ATOM     75  C   UNL A   1      31.624  27.704  26.797  1.00  0.00     0.242 C 
ATOM     76  H   UNL A   1      30.612  29.163  27.696  1.00  0.00     0.163 HD
ATOM     77  O   UNL A   1      30.860  26.863  27.289  1.00  0.00    -0.273 OA
BRANCH  75  78
ATOM     78  C   UNL A   1      32.615  27.262  25.694  1.00  0.00     0.175 C 
ATOM     79  C   UNL A   1      32.927  25.773  25.960  1.00  0.00     0.044 C 
ATOM     80  N   UNL A   1      32.293  27.328  24.274  1.00  0.00    -0.330 N 
ATOM     81  C   UNL A   1      33.191  25.124  24.589  1.00  0.00    -0.006 C 
ATOM     82  C   UNL A   1      32.385  26.022  23.640  1.00  0.00     0.127 C 
ATOM     83  C   UNL A   1      32.666  23.674  24.541  1.00  0.00     0.030 C 
ATOM     84  C   UNL A   1      34.691  25.125  24.204  1.00  0.00     0.030 C 
ATOM     85  C   UNL A   1      33.512  22.734  25.394  1.00  0.00     0.120 C 
ATOM     86  C   UNL A   1      35.524  24.082  24.958  1.00  0.00     0.120 C 
ATOM     87  N   UNL A   1      34.902  22.757  24.947  1.00  0.00    -0.337 N 
ATOM     88  C   UNL A   1      35.734  21.634  24.850  1.00  0.00     0.270 C 
ATOM     89  O   UNL A   1      36.957  21.750  24.809  1.00  0.00    -0.267 OA
BRANCH  80  90
ATOM     90  C   UNL A   1      32.183  28.454  23.473  1.00  0.00     0.226 C 
ATOM     91  O   UNL A   1      33.154  29.160  23.230  1.00  0.00    -0.275 OA
BRANCH  90  92
ATOM     92  C   UNL A   1      30.920  28.779  22.749  1.00  0.00     0.079 C 
ATOM     93  C   UNL A   1      29.550  28.174  22.858  1.00  0.00     0.014 C 
ATOM     94  C   UNL A   1      29.824  29.496  23.506  1.00  0.00     0.014 C 
ENDBRANCH  90  92
ENDBRANCH  80  90
BRANCH  88  95
ATOM     95  C   UNL A   1      35.122  20.318  24.808  1.00  0.00     0.105 A 
ATOM     96  C   UNL A   1      33.776  20.015  24.686  1.00  0.00     0.042 A 
ATOM     97  N   UNL A   1      35.770  19.117  25.000  1.00  0.00    -0.351 N 
ATOM     98  C   UNL A   1      33.626  18.601  24.694  1.00  0.00     0.000 A 
ATOM     99  C   UNL A   1      34.896  18.060  24.880  1.00  0.00     0.046 A 
ATOM    100  H   UNL A   1      36.731  19.028  25.196  1.00  0.00     0.167 HD
ATOM    101  C   UNL A   1      32.528  17.731  24.560  1.00  0.00     0.010 A 
ATOM    102  C   UNL A   1      35.128  16.681  24.935  1.00  0.00     0.026 A 
ATOM    103  C   UNL A   1      32.742  16.347  24.605  1.00  0.00     0.001 A 
ATOM    104  C   UNL A   1      34.024  15.833  24.787  1.00  0.00     0.002 A 
ENDBRANCH  88  95
ENDBRANCH  75  78
ENDBRANCH  73  74
ENDBRANCH  72  73
ENDBRANCH   1  72
TORSDOF 17
ENDMDL
MODEL 3
REMARK VINA RESULT:     -12.0      1.762      1.991
REMARK SMILES O=C(NCCCCNC(=O)[C@H]1CC2(CCN(C(=O)c3cc4ccccc4[nH]3)CC2)CN1C(=O)C1CC1)c1ccc(-c2c3nc(c(-c4cc(S(=O)(=O)[O-])ccc4F)c4ccc([nH]4)c(-c4cc(S(=O)(=O)[O-])ccc4F)c4nc(c(-c5cc(S(=O)(=O)[O-])ccc5F)c5ccc2[nH]5)C=C4)C=C3)cc1
REMARK SMILES IDX 5 1 4 2 3 3 1 4 2 5 37 7 38 8 99 9 39 10 98 11 40 12 41 13
REMARK SMILES IDX 42 14 92 15 43 16 97 17 91 18 93 19 44 20 96 21 90 22 89 23
REMARK SMILES IDX 45 25 77 26 57 27 76 28 58 29 61 30 75 31 94 32 59 33 60 34
REMARK SMILES IDX 74 36 95 37 62 38 46 39 47 40 55 41 48 42 54 43 56 44 53 45
REMARK SMILES IDX 49 46 50 47 51 48 52 49 78 50 79 51 87 52 80 53 86 54 88 55
REMARK SMILES IDX 85 56 81 57 82 58 83 59 84 60 63 61 64 62 72 63 65 64 71 65
REMARK SMILES IDX 73 66 70 67 66 68 67 69 68 70 69 71 6 72 7 73 8 74 9 75
REMARK SMILES IDX 10 77 11 78 12 79 31 80 13 81 30 82 14 83 29 84 15 85 28 86
REMARK SMILES IDX 16 87 17 88 18 89 32 90 33 91 34 92 35 93 36 94 19 95 20 96
REMARK SMILES IDX 27 97 21 98 26 99 22 101 25 102 23 103 24 104
REMARK H PARENT 3 6 93 24 61 35 8 76 27 100
REMARK Flexibility Score: inf
ROOT
ATOM      1  C   UNL A   1      32.511  30.025  25.904  1.00  0.00     0.023 C 
ENDROOT
BRANCH   1   2
ATOM      2  C   UNL A   1      33.211  30.728  27.066  1.00  0.00     0.116 C 
BRANCH   2   3
ATOM      3  N   UNL A   1      32.842  32.126  27.215  1.00  0.00    -0.352 N 
ATOM      4  O   UNL A   1      32.864  34.232  27.995  1.00  0.00    -0.269 OA
ATOM      5  C   UNL A   1      33.400  33.125  27.977  1.00  0.00     0.251 C 
ATOM      6  H   UNL A   1      32.062  32.403  26.681  1.00  0.00     0.163 HD
BRANCH   5   7
ATOM      7  C   UNL A   1      34.598  32.880  28.813  1.00  0.00     0.039 A 
ATOM      8  C   UNL A   1      35.859  33.381  28.476  1.00  0.00     0.014 A 
ATOM      9  C   UNL A   1      34.440  32.139  29.989  1.00  0.00     0.014 A 
ATOM     10  C   UNL A   1      36.981  33.012  29.225  1.00  0.00     0.010 A 
ATOM     11  C   UNL A   1      35.555  31.816  30.767  1.00  0.00     0.010 A 
ATOM     12  C   UNL A   1      36.843  32.204  30.364  1.00  0.00    -0.014 A 
BRANCH  12  13
ATOM     13  C   UNL A   1      38.035  31.707  31.101  1.00  0.00     0.031 A 
ATOM     14  C   UNL A   1      38.917  30.658  30.476  1.00  0.00     0.074 A 
ATOM     15  C   UNL A   1      38.319  32.168  32.334  1.00  0.00     0.049 A 
ATOM     16  N   UNL A   1      39.941  30.020  30.984  1.00  0.00    -0.248 NA
ATOM     17  C   UNL A   1      38.589  30.268  29.097  1.00  0.00     0.031 C 
ATOM     18  C   UNL A   1      37.552  33.186  33.050  1.00  0.00     0.029 A 
ATOM     19  N   UNL A   1      39.320  31.822  33.209  1.00  0.00    -0.354 N 
ATOM     20  C   UNL A   1      40.369  29.139  29.995  1.00  0.00     0.074 A 
ATOM     21  C   UNL A   1      39.465  29.301  28.876  1.00  0.00     0.031 C 
ATOM     22  C   UNL A   1      38.104  33.375  34.260  1.00  0.00     0.029 A 
ATOM     23  C   UNL A   1      39.230  32.459  34.423  1.00  0.00     0.049 A 
ATOM     24  H   UNL A   1      40.031  31.179  32.987  1.00  0.00     0.167 HD
ATOM     25  C   UNL A   1      41.423  28.282  30.015  1.00  0.00     0.034 A 
ATOM     26  C   UNL A   1      39.947  32.300  35.553  1.00  0.00     0.034 A 
ATOM     27  C   UNL A   1      42.318  28.129  31.137  1.00  0.00     0.049 A 
ATOM     28  C   UNL A   1      41.077  31.305  35.581  1.00  0.00     0.074 A 
ATOM     29  C   UNL A   1      43.439  27.325  31.246  1.00  0.00     0.029 A 
ATOM     30  N   UNL A   1      42.184  28.784  32.355  1.00  0.00    -0.354 N 
ATOM     31  N   UNL A   1      41.481  30.491  34.634  1.00  0.00    -0.248 NA
ATOM     32  C   UNL A   1      41.848  31.211  36.828  1.00  0.00     0.031 C 
ATOM     33  C   UNL A   1      43.944  27.444  32.546  1.00  0.00     0.029 A 
ATOM     34  C   UNL A   1      43.182  28.377  33.229  1.00  0.00     0.049 A 
ATOM     35  H   UNL A   1      41.483  29.442  32.568  1.00  0.00     0.167 HD
ATOM     36  C   UNL A   1      42.571  29.805  35.163  1.00  0.00     0.074 A 
ATOM     37  C   UNL A   1      42.760  30.300  36.512  1.00  0.00     0.031 C 
ATOM     38  C   UNL A   1      43.353  28.864  34.578  1.00  0.00     0.034 A 
BRANCH  25  39
ATOM     39  C   UNL A   1      41.627  27.414  28.795  1.00  0.00     0.023 A 
ATOM     40  C   UNL A   1      42.667  27.656  27.880  1.00  0.00     0.031 A 
ATOM     41  C   UNL A   1      40.738  26.362  28.515  1.00  0.00     0.131 A 
ATOM     42  C   UNL A   1      42.738  26.919  26.688  1.00  0.00     0.055 A 
ATOM     43  C   UNL A   1      40.864  25.576  27.367  1.00  0.00     0.041 A 
ATOM     44  F   UNL A   1      39.713  26.095  29.340  1.00  0.00    -0.206 F 
ATOM     45  C   UNL A   1      41.857  25.865  26.436  1.00  0.00     0.022 A 
BRANCH  42  46
ATOM     46  S   UNL A   1      43.885  27.475  25.396  1.00  0.00     0.124 S 
ATOM     47  O   UNL A   1      42.965  27.912  24.347  1.00  0.00    -0.237 OA
ATOM     48  O   UNL A   1      44.632  28.529  26.070  1.00  0.00    -0.237 OA
ATOM     49  O   UNL A   1      44.650  26.271  25.076  1.00  0.00    -0.744 OA
ENDBRANCH  42  46
ENDBRANCH  25  39
BRANCH  26  50
ATOM     50  C   UNL A   1      39.579  33.074  36.769  1.00  0.00     0.023 A 
ATOM     51  C   UNL A   1      40.215  34.282  37.087  1.00  0.00     0.031 A 
ATOM     52  C   UNL A   1      38.565  32.610  37.627  1.00  0.00     0.131 A 
ATOM     53  C   UNL A   1      39.843  34.980  38.246  1.00  0.00     0.055 A 
ATOM     54  C   UNL A   1      38.172  33.326  38.758  1.00  0.00     0.041 A 
ATOM     55  F   UNL A   1      37.922  31.462  37.358  1.00  0.00    -0.206 F 
ATOM     56  C   UNL A   1      38.817  34.516  39.075  1.00  0.00     0.022 A 
BRANCH  53  57
ATOM     57  S   UNL A   1      40.738  36.498  38.674  1.00  0.00     0.124 S 
ATOM     58  O   UNL A   1      39.687  37.503  38.566  1.00  0.00    -0.237 OA
ATOM     59  O   UNL A   1      41.209  36.204  40.023  1.00  0.00    -0.237 OA
ATOM     60  O   UNL A   1      41.785  36.574  37.655  1.00  0.00    -0.744 OA
ENDBRANCH  53  57
ENDBRANCH  26  50
BRANCH  38  61
ATOM     61  C   UNL A   1      44.521  28.344  35.376  1.00  0.00     0.023 A 
ATOM     62  C   UNL A   1      45.782  28.965  35.340  1.00  0.00     0.031 A 
ATOM     63  C   UNL A   1      44.359  27.214  36.197  1.00  0.00     0.131 A 
ATOM     64  C   UNL A   1      46.844  28.430  36.088  1.00  0.00     0.055 A 
ATOM     65  C   UNL A   1      45.406  26.712  36.972  1.00  0.00     0.041 A 
ATOM     66  F   UNL A   1      43.176  26.585  36.266  1.00  0.00    -0.206 F 
ATOM     67  C   UNL A   1      46.659  27.316  36.914  1.00  0.00     0.022 A 
BRANCH  64  68
ATOM     68  S   UNL A   1      48.489  29.178  35.937  1.00  0.00     0.124 S 
ATOM     69  O   UNL A   1      48.427  30.248  36.925  1.00  0.00    -0.237 OA
ATOM     70  O   UNL A   1      49.373  28.062  36.259  1.00  0.00    -0.237 OA
ATOM     71  O   UNL A   1      48.538  29.621  34.544  1.00  0.00    -0.744 OA
ENDBRANCH  64  68
ENDBRANCH  38  61
ENDBRANCH  12  13
ENDBRANCH   5   7
ENDBRANCH   2   3
ENDBRANCH   1   2
BRANCH   1  72
ATOM     72  C   UNL A   1      33.401  29.379  24.833  1.00  0.00     0.023 C 
BRANCH  72  73
ATOM     73  C   UNL A   1      33.344  27.857  24.718  1.00  0.00     0.116 C 
BRANCH  73  74
ATOM     74  N   UNL A   1      33.569  27.360  23.379  1.00  0.00    -0.354 N 
ATOM     75  C   UNL A   1      33.563  26.082  22.915  1.00  0.00     0.242 C 
ATOM     76  H   UNL A   1      33.754  28.051  22.702  1.00  0.00     0.163 HD
ATOM     77  O   UNL A   1      33.692  25.931  21.693  1.00  0.00    -0.273 OA
BRANCH  75  78
ATOM     78  C   UNL A   1      33.607  24.837  23.834  1.00  0.00     0.175 C 
ATOM     79  C   UNL A   1      35.095  24.444  23.963  1.00  0.00     0.044 C 
ATOM     80  N   UNL A   1      33.104  24.850  25.201  1.00  0.00    -0.330 N 
ATOM     81  C   UNL A   1      35.270  23.828  25.364  1.00  0.00    -0.006 C 
ATOM     82  C   UNL A   1      34.139  24.495  26.159  1.00  0.00     0.127 C 
ATOM     83  C   UNL A   1      36.643  24.184  25.969  1.00  0.00     0.030 C 
ATOM     84  C   UNL A   1      35.107  22.288  25.365  1.00  0.00     0.030 C 
ATOM     85  C   UNL A   1      37.783  23.454  25.265  1.00  0.00     0.120 C 
ATOM     86  C   UNL A   1      36.313  21.538  24.786  1.00  0.00     0.120 C 
ATOM     87  N   UNL A   1      37.582  22.009  25.343  1.00  0.00    -0.337 N 
ATOM     88  C   UNL A   1      38.595  21.069  25.575  1.00  0.00     0.270 C 
ATOM     89  O   UNL A   1      38.440  19.883  25.289  1.00  0.00    -0.267 OA
BRANCH  80  90
ATOM     90  C   UNL A   1      31.785  24.896  25.628  1.00  0.00     0.226 C 
ATOM     91  O   UNL A   1      31.245  25.957  25.915  1.00  0.00    -0.275 OA
BRANCH  90  92
ATOM     92  C   UNL A   1      30.917  23.684  25.615  1.00  0.00     0.079 C 
ATOM     93  C   UNL A   1      31.276  22.226  25.642  1.00  0.00     0.014 C 
ATOM     94  C   UNL A   1      30.782  22.886  26.893  1.00  0.00     0.014 C 
ENDBRANCH  90  92
ENDBRANCH  80  90
BRANCH  88  95
ATOM     95  C   UNL A   1      39.846  21.524  26.155  1.00  0.00     0.105 A 
ATOM     96  C   UNL A   1      40.090  21.874  27.472  1.00  0.00     0.042 A 
ATOM     97  N   UNL A   1      41.005  21.802  25.463  1.00  0.00    -0.351 N 
ATOM     98  C   UNL A   1      41.451  22.264  27.595  1.00  0.00     0.000 A 
ATOM     99  C   UNL A   1      42.007  22.199  26.320  1.00  0.00     0.046 A 
ATOM    100  H   UNL A   1      41.102  21.726  24.486  1.00  0.00     0.167 HD
ATOM    101  C   UNL A   1      42.262  22.668  28.672  1.00  0.00     0.010 A 
ATOM    102  C   UNL A   1      43.347  22.514  26.064  1.00  0.00     0.026 A 
ATOM    103  C   UNL A   1      43.607  22.981  28.436  1.00  0.00     0.001 A 
ATOM    104  C   UNL A   1      44.139  22.901  27.151  1.00  0.00     0.002 A 
ENDBRANCH  88  95
ENDBRANCH  75  78
ENDBRANCH  73  74
ENDBRANCH  72  73
ENDBRANCH   1  72
TORSDOF 17
ENDMDL
