MODEL 1
REMARK VINA RESULT:     -12.9      0.000      0.000
REMARK SMILES O=C(NCCCCNC(=O)c1cc(-c2ccccn2)nc2ccc(F)cc12)c1ccc(-c2c3nc(c(-c4cc(S(=O)(=O)[O-])ccc4F)c4ccc([nH]4)c(-c4cc(S(=O)(=O)[O-])ccc4F)c4nc(c(-c5cc(S(=O)(=O)[O-])ccc5F)c5ccc2[nH]5)C=C4)C=C3)cc1
REMARK SMILES IDX 4 1 3 2 1 3 2 4 28 6 29 7 90 8 30 9 89 10 31 11 32 12 33 13
REMARK SMILES IDX 83 14 34 15 88 16 82 17 84 18 35 19 87 20 81 21 80 22 36 24
REMARK SMILES IDX 68 25 48 26 67 27 49 28 52 29 66 30 85 31 50 32 51 33 65 35
REMARK SMILES IDX 86 36 53 37 37 38 38 39 46 40 39 41 45 42 47 43 44 44 40 45
REMARK SMILES IDX 41 46 42 47 43 48 69 49 70 50 78 51 71 52 77 53 79 54 76 55
REMARK SMILES IDX 72 56 73 57 74 58 75 59 54 60 55 61 63 62 56 63 62 64 64 65
REMARK SMILES IDX 61 66 57 67 58 68 59 69 60 70 5 71 6 72 7 73 8 74 9 75 10 77
REMARK SMILES IDX 11 78 12 79 27 80 13 81 21 82 26 83 20 84 22 85 24 86 23 87
REMARK SMILES IDX 25 88 14 89 15 90 19 91 16 92 18 93 17 94
REMARK H PARENT 3 5 84 23 52 34 8 76
REMARK Flexibility Score: inf
ROOT
ATOM      1  C   UNL A   1      32.799  32.537  27.267  1.00  0.00     0.116 C 
ENDROOT
BRANCH   1   2
ATOM      2  N   UNL A   1      32.584  33.919  27.663  1.00  0.00    -0.352 N 
ATOM      3  O   UNL A   1      32.752  35.768  28.928  1.00  0.00    -0.269 OA
ATOM      4  C   UNL A   1      33.183  34.648  28.661  1.00  0.00     0.251 C 
ATOM      5  H   UNL A   1      31.906  34.404  27.139  1.00  0.00     0.163 HD
BRANCH   4   6
ATOM      6  C   UNL A   1      34.329  34.097  29.419  1.00  0.00     0.039 A 
ATOM      7  C   UNL A   1      35.627  34.402  28.997  1.00  0.00     0.014 A 
ATOM      8  C   UNL A   1      34.137  33.243  30.509  1.00  0.00     0.014 A 
ATOM      9  C   UNL A   1      36.727  33.875  29.679  1.00  0.00     0.010 A 
ATOM     10  C   UNL A   1      35.232  32.783  31.236  1.00  0.00     0.010 A 
ATOM     11  C   UNL A   1      36.539  33.067  30.811  1.00  0.00    -0.014 A 
BRANCH  11  12
ATOM     12  C   UNL A   1      37.685  32.438  31.518  1.00  0.00     0.031 A 
ATOM     13  C   UNL A   1      38.404  31.282  30.874  1.00  0.00     0.074 A 
ATOM     14  C   UNL A   1      38.050  32.866  32.742  1.00  0.00     0.049 A 
ATOM     15  N   UNL A   1      39.363  30.535  31.355  1.00  0.00    -0.248 NA
ATOM     16  C   UNL A   1      37.967  30.898  29.521  1.00  0.00     0.031 C 
ATOM     17  C   UNL A   1      37.414  33.960  33.474  1.00  0.00     0.029 A 
ATOM     18  N   UNL A   1      39.036  32.425  33.591  1.00  0.00    -0.354 N 
ATOM     19  C   UNL A   1      39.629  29.585  30.375  1.00  0.00     0.074 A 
ATOM     20  C   UNL A   1      38.689  29.810  29.300  1.00  0.00     0.031 C 
ATOM     21  C   UNL A   1      38.040  34.122  34.651  1.00  0.00     0.029 A 
ATOM     22  C   UNL A   1      39.092  33.115  34.781  1.00  0.00     0.049 A 
ATOM     23  H   UNL A   1      39.648  31.687  33.369  1.00  0.00     0.167 HD
ATOM     24  C   UNL A   1      40.589  28.632  30.358  1.00  0.00     0.034 A 
ATOM     25  C   UNL A   1      39.893  32.952  35.854  1.00  0.00     0.034 A 
ATOM     26  C   UNL A   1      41.546  28.447  31.417  1.00  0.00     0.049 A 
ATOM     27  C   UNL A   1      40.959  31.882  35.816  1.00  0.00     0.074 A 
ATOM     28  C   UNL A   1      42.590  27.542  31.474  1.00  0.00     0.029 A 
ATOM     29  N   UNL A   1      41.589  29.184  32.592  1.00  0.00    -0.354 N 
ATOM     30  N   UNL A   1      41.241  31.035  34.853  1.00  0.00    -0.248 NA
ATOM     31  C   UNL A   1      41.825  31.749  36.996  1.00  0.00     0.031 C 
ATOM     32  C   UNL A   1      43.230  27.693  32.704  1.00  0.00     0.029 A 
ATOM     33  C   UNL A   1      42.632  28.741  33.387  1.00  0.00     0.049 A 
ATOM     34  H   UNL A   1      40.970  29.912  32.826  1.00  0.00     0.167 HD
ATOM     35  C   UNL A   1      42.332  30.294  35.298  1.00  0.00     0.074 A 
ATOM     36  C   UNL A   1      42.672  30.805  36.609  1.00  0.00     0.031 C 
ATOM     37  C   UNL A   1      42.988  29.280  34.678  1.00  0.00     0.034 A 
BRANCH  24  38
ATOM     38  C   UNL A   1      40.694  27.731  29.153  1.00  0.00     0.023 A 
ATOM     39  C   UNL A   1      41.613  28.026  28.129  1.00  0.00     0.031 A 
ATOM     40  C   UNL A   1      39.804  26.659  28.959  1.00  0.00     0.131 A 
ATOM     41  C   UNL A   1      41.600  27.277  26.945  1.00  0.00     0.055 A 
ATOM     42  C   UNL A   1      39.825  25.887  27.798  1.00  0.00     0.041 A 
ATOM     43  F   UNL A   1      38.907  26.338  29.907  1.00  0.00    -0.206 F 
ATOM     44  C   UNL A   1      40.717  26.204  26.779  1.00  0.00     0.022 A 
BRANCH  41  45
ATOM     45  S   UNL A   1      42.679  27.703  25.553  1.00  0.00     0.124 S 
ATOM     46  O   UNL A   1      42.029  28.901  25.026  1.00  0.00    -0.237 OA
ATOM     47  O   UNL A   1      43.960  27.927  26.217  1.00  0.00    -0.237 OA
ATOM     48  O   UNL A   1      42.613  26.531  24.686  1.00  0.00    -0.744 OA
ENDBRANCH  41  45
ENDBRANCH  24  38
BRANCH  25  49
ATOM     49  C   UNL A   1      39.751  33.877  37.019  1.00  0.00     0.023 A 
ATOM     50  C   UNL A   1      39.166  33.449  38.224  1.00  0.00     0.031 A 
ATOM     51  C   UNL A   1      40.108  35.232  36.905  1.00  0.00     0.131 A 
ATOM     52  C   UNL A   1      38.898  34.378  39.239  1.00  0.00     0.055 A 
ATOM     53  C   UNL A   1      39.904  36.140  37.945  1.00  0.00     0.041 A 
ATOM     54  F   UNL A   1      40.659  35.692  35.770  1.00  0.00    -0.206 F 
ATOM     55  C   UNL A   1      39.280  35.717  39.114  1.00  0.00     0.022 A 
BRANCH  52  56
ATOM     56  S   UNL A   1      37.928  33.909  40.699  1.00  0.00     0.124 S 
ATOM     57  O   UNL A   1      36.789  33.221  40.101  1.00  0.00    -0.237 OA
ATOM     58  O   UNL A   1      38.871  33.059  41.423  1.00  0.00    -0.237 OA
ATOM     59  O   UNL A   1      37.630  35.186  41.339  1.00  0.00    -0.744 OA
ENDBRANCH  52  56
ENDBRANCH  25  49
BRANCH  37  60
ATOM     60  C   UNL A   1      44.169  28.641  35.368  1.00  0.00     0.023 A 
ATOM     61  C   UNL A   1      43.959  27.594  36.287  1.00  0.00     0.031 A 
ATOM     62  C   UNL A   1      45.460  29.187  35.265  1.00  0.00     0.131 A 
ATOM     63  C   UNL A   1      45.010  27.163  37.107  1.00  0.00     0.055 A 
ATOM     64  C   UNL A   1      46.516  28.719  36.048  1.00  0.00     0.041 A 
ATOM     65  F   UNL A   1      45.707  30.195  34.413  1.00  0.00    -0.206 F 
ATOM     66  C   UNL A   1      46.289  27.717  36.987  1.00  0.00     0.022 A 
BRANCH  63  67
ATOM     67  S   UNL A   1      44.731  25.951  38.428  1.00  0.00     0.124 S 
ATOM     68  O   UNL A   1      46.082  25.757  38.948  1.00  0.00    -0.237 OA
ATOM     69  O   UNL A   1      43.818  26.667  39.314  1.00  0.00    -0.237 OA
ATOM     70  O   UNL A   1      44.160  24.801  37.736  1.00  0.00    -0.744 OA
ENDBRANCH  63  67
ENDBRANCH  37  60
ENDBRANCH  11  12
ENDBRANCH   4   6
ENDBRANCH   1   2
BRANCH   1  71
ATOM     71  C   UNL A   1      31.526  31.854  26.781  1.00  0.00     0.023 C 
BRANCH  71  72
ATOM     72  C   UNL A   1      31.704  30.439  26.231  1.00  0.00     0.023 C 
BRANCH  72  73
ATOM     73  C   UNL A   1      33.125  29.891  26.274  1.00  0.00     0.116 C 
BRANCH  73  74
ATOM     74  N   UNL A   1      33.686  29.649  24.952  1.00  0.00    -0.352 N 
ATOM     75  C   UNL A   1      33.519  28.576  24.114  1.00  0.00     0.252 C 
ATOM     76  H   UNL A   1      34.272  30.362  24.608  1.00  0.00     0.163 HD
ATOM     77  O   UNL A   1      34.107  28.525  23.035  1.00  0.00    -0.269 OA
BRANCH  75  78
ATOM     78  C   UNL A   1      32.607  27.481  24.502  1.00  0.00     0.051 A 
ATOM     79  C   UNL A   1      33.148  26.442  25.254  1.00  0.00     0.045 A 
ATOM     80  C   UNL A   1      31.248  27.475  24.128  1.00  0.00     0.016 A 
ATOM     81  C   UNL A   1      32.356  25.343  25.529  1.00  0.00     0.090 A 
ATOM     82  C   UNL A   1      30.511  26.330  24.497  1.00  0.00     0.072 A 
ATOM     83  C   UNL A   1      30.601  28.515  23.415  1.00  0.00     0.050 A 
ATOM     84  N   UNL A   1      31.051  25.293  25.161  1.00  0.00    -0.246 NA
ATOM     85  C   UNL A   1      29.166  26.263  24.149  1.00  0.00     0.032 A 
ATOM     86  C   UNL A   1      29.254  28.416  23.096  1.00  0.00     0.123 A 
ATOM     87  C   UNL A   1      28.528  27.295  23.457  1.00  0.00     0.041 A 
ATOM     88  F   UNL A   1      28.651  29.412  22.438  1.00  0.00    -0.207 F 
BRANCH  81  89
ATOM     89  C   UNL A   1      32.944  24.154  26.167  1.00  0.00     0.089 A 
ATOM     90  C   UNL A   1      32.231  23.397  27.099  1.00  0.00     0.030 A 
ATOM     91  N   UNL A   1      34.259  23.922  25.910  1.00  0.00    -0.255 NA
ATOM     92  C   UNL A   1      32.885  22.385  27.796  1.00  0.00     0.004 A 
ATOM     93  C   UNL A   1      34.866  22.929  26.595  1.00  0.00     0.112 A 
ATOM     94  C   UNL A   1      34.230  22.147  27.545  1.00  0.00     0.020 A 
ENDBRANCH  81  89
ENDBRANCH  75  78
ENDBRANCH  73  74
ENDBRANCH  72  73
ENDBRANCH  71  72
ENDBRANCH   1  71
TORSDOF 15
ENDMDL
MODEL 2
REMARK VINA RESULT:     -12.9      6.091     11.671
REMARK SMILES O=C(NCCCCNC(=O)c1cc(-c2ccccn2)nc2ccc(F)cc12)c1ccc(-c2c3nc(c(-c4cc(S(=O)(=O)[O-])ccc4F)c4ccc([nH]4)c(-c4cc(S(=O)(=O)[O-])ccc4F)c4nc(c(-c5cc(S(=O)(=O)[O-])ccc5F)c5ccc2[nH]5)C=C4)C=C3)cc1
REMARK SMILES IDX 4 1 3 2 1 3 2 4 28 6 29 7 90 8 30 9 89 10 31 11 32 12 33 13
REMARK SMILES IDX 83 14 34 15 88 16 82 17 84 18 35 19 87 20 81 21 80 22 36 24
REMARK SMILES IDX 68 25 48 26 67 27 49 28 52 29 66 30 85 31 50 32 51 33 65 35
REMARK SMILES IDX 86 36 53 37 37 38 38 39 46 40 39 41 45 42 47 43 44 44 40 45
REMARK SMILES IDX 41 46 42 47 43 48 69 49 70 50 78 51 71 52 77 53 79 54 76 55
REMARK SMILES IDX 72 56 73 57 74 58 75 59 54 60 55 61 63 62 56 63 62 64 64 65
REMARK SMILES IDX 61 66 57 67 58 68 59 69 60 70 5 71 6 72 7 73 8 74 9 75 10 77
REMARK SMILES IDX 11 78 12 79 27 80 13 81 21 82 26 83 20 84 22 85 24 86 23 87
REMARK SMILES IDX 25 88 14 89 15 90 19 91 16 92 18 93 17 94
REMARK H PARENT 3 5 84 23 52 34 8 76
REMARK Flexibility Score: inf
ROOT
ATOM      1  C   UNL A   1      40.120  20.176  26.826  1.00  0.00     0.116 C 
ENDROOT
BRANCH   1   2
ATOM      2  N   UNL A   1      41.166  19.446  26.130  1.00  0.00    -0.352 N 
ATOM      3  O   UNL A   1      43.069  19.137  24.976  1.00  0.00    -0.269 OA
ATOM      4  C   UNL A   1      42.385  19.884  25.673  1.00  0.00     0.251 C 
ATOM      5  H   UNL A   1      40.972  18.496  25.959  1.00  0.00     0.163 HD
BRANCH   4   6
ATOM      6  C   UNL A   1      42.874  21.243  26.001  1.00  0.00     0.039 A 
ATOM      7  C   UNL A   1      43.222  21.533  27.324  1.00  0.00     0.014 A 
ATOM      8  C   UNL A   1      42.945  22.245  25.029  1.00  0.00     0.014 A 
ATOM      9  C   UNL A   1      43.663  22.814  27.667  1.00  0.00     0.010 A 
ATOM     10  C   UNL A   1      43.459  23.497  25.355  1.00  0.00     0.010 A 
ATOM     11  C   UNL A   1      43.794  23.806  26.683  1.00  0.00    -0.014 A 
BRANCH  11  12
ATOM     12  C   UNL A   1      44.196  25.195  27.026  1.00  0.00     0.031 A 
ATOM     13  C   UNL A   1      43.163  26.151  27.562  1.00  0.00     0.074 A 
ATOM     14  C   UNL A   1      45.460  25.611  26.817  1.00  0.00     0.049 A 
ATOM     15  N   UNL A   1      43.279  27.423  27.837  1.00  0.00    -0.248 NA
ATOM     16  C   UNL A   1      41.813  25.610  27.795  1.00  0.00     0.031 C 
ATOM     17  C   UNL A   1      46.539  24.783  26.281  1.00  0.00     0.029 A 
ATOM     18  N   UNL A   1      46.048  26.836  27.020  1.00  0.00    -0.354 N 
ATOM     19  C   UNL A   1      42.018  27.837  28.253  1.00  0.00     0.074 A 
ATOM     20  C   UNL A   1      41.139  26.697  28.136  1.00  0.00     0.031 C 
ATOM     21  C   UNL A   1      47.664  25.514  26.220  1.00  0.00     0.029 A 
ATOM     22  C   UNL A   1      47.378  26.877  26.667  1.00  0.00     0.049 A 
ATOM     23  H   UNL A   1      45.565  27.612  27.385  1.00  0.00     0.167 HD
ATOM     24  C   UNL A   1      41.636  29.048  28.721  1.00  0.00     0.034 A 
ATOM     25  C   UNL A   1      48.263  27.895  26.695  1.00  0.00     0.034 A 
ATOM     26  C   UNL A   1      42.533  30.162  28.872  1.00  0.00     0.049 A 
ATOM     27  C   UNL A   1      47.817  29.239  27.220  1.00  0.00     0.074 A 
ATOM     28  C   UNL A   1      42.256  31.417  29.383  1.00  0.00     0.029 A 
ATOM     29  N   UNL A   1      43.878  30.157  28.532  1.00  0.00    -0.354 N 
ATOM     30  N   UNL A   1      46.636  29.595  27.673  1.00  0.00    -0.248 NA
ATOM     31  C   UNL A   1      48.816  30.317  27.253  1.00  0.00     0.031 C 
ATOM     32  C   UNL A   1      43.416  32.186  29.302  1.00  0.00     0.029 A 
ATOM     33  C   UNL A   1      44.438  31.392  28.807  1.00  0.00     0.049 A 
ATOM     34  H   UNL A   1      44.362  29.389  28.151  1.00  0.00     0.167 HD
ATOM     35  C   UNL A   1      46.761  30.923  28.073  1.00  0.00     0.074 A 
ATOM     36  C   UNL A   1      48.136  31.302  27.825  1.00  0.00     0.031 C 
ATOM     37  C   UNL A   1      45.820  31.751  28.592  1.00  0.00     0.034 A 
BRANCH  24  38
ATOM     38  C   UNL A   1      40.200  29.240  29.141  1.00  0.00     0.023 A 
ATOM     39  C   UNL A   1      39.846  29.155  30.501  1.00  0.00     0.031 A 
ATOM     40  C   UNL A   1      39.171  29.383  28.194  1.00  0.00     0.131 A 
ATOM     41  C   UNL A   1      38.495  29.182  30.870  1.00  0.00     0.055 A 
ATOM     42  C   UNL A   1      37.830  29.454  28.570  1.00  0.00     0.041 A 
ATOM     43  F   UNL A   1      39.458  29.467  26.884  1.00  0.00    -0.206 F 
ATOM     44  C   UNL A   1      37.487  29.340  29.913  1.00  0.00     0.022 A 
BRANCH  41  45
ATOM     45  S   UNL A   1      37.989  28.947  32.595  1.00  0.00     0.124 S 
ATOM     46  O   UNL A   1      36.624  29.470  32.580  1.00  0.00    -0.237 OA
ATOM     47  O   UNL A   1      38.102  27.500  32.753  1.00  0.00    -0.237 OA
ATOM     48  O   UNL A   1      38.949  29.742  33.354  1.00  0.00    -0.744 OA
ENDBRANCH  41  45
ENDBRANCH  24  38
BRANCH  25  49
ATOM     49  C   UNL A   1      49.675  27.647  26.272  1.00  0.00     0.023 A 
ATOM     50  C   UNL A   1      50.075  27.807  24.934  1.00  0.00     0.031 A 
ATOM     51  C   UNL A   1      50.619  27.148  27.187  1.00  0.00     0.131 A 
ATOM     52  C   UNL A   1      51.361  27.412  24.538  1.00  0.00     0.055 A 
ATOM     53  C   UNL A   1      51.920  26.822  26.802  1.00  0.00     0.041 A 
ATOM     54  F   UNL A   1      50.282  26.966  28.474  1.00  0.00    -0.206 F 
ATOM     55  C   UNL A   1      52.291  26.937  25.466  1.00  0.00     0.022 A 
BRANCH  52  56
ATOM     56  S   UNL A   1      51.825  27.376  22.783  1.00  0.00     0.124 S 
ATOM     57  O   UNL A   1      52.854  26.341  22.761  1.00  0.00    -0.237 OA
ATOM     58  O   UNL A   1      50.558  27.022  22.146  1.00  0.00    -0.237 OA
ATOM     59  O   UNL A   1      52.290  28.734  22.523  1.00  0.00    -0.744 OA
ENDBRANCH  52  56
ENDBRANCH  25  49
BRANCH  37  60
ATOM     60  C   UNL A   1      46.211  33.160  28.968  1.00  0.00     0.023 A 
ATOM     61  C   UNL A   1      46.149  34.184  28.002  1.00  0.00     0.031 A 
ATOM     62  C   UNL A   1      46.819  33.446  30.203  1.00  0.00     0.131 A 
ATOM     63  C   UNL A   1      46.735  35.429  28.266  1.00  0.00     0.055 A 
ATOM     64  C   UNL A   1      47.356  34.704  30.480  1.00  0.00     0.041 A 
ATOM     65  F   UNL A   1      46.915  32.499  31.150  1.00  0.00    -0.206 F 
ATOM     66  C   UNL A   1      47.333  35.696  29.503  1.00  0.00     0.022 A 
BRANCH  63  67
ATOM     67  S   UNL A   1      46.840  36.706  26.982  1.00  0.00     0.124 S 
ATOM     68  O   UNL A   1      45.501  37.289  27.026  1.00  0.00    -0.237 OA
ATOM     69  O   UNL A   1      47.910  37.562  27.487  1.00  0.00    -0.237 OA
ATOM     70  O   UNL A   1      47.153  35.961  25.768  1.00  0.00    -0.744 OA
ENDBRANCH  63  67
ENDBRANCH  37  60
ENDBRANCH  11  12
ENDBRANCH   4   6
ENDBRANCH   1   2
BRANCH   1  71
ATOM     71  C   UNL A   1      39.356  21.131  25.915  1.00  0.00     0.023 C 
BRANCH  71  72
ATOM     72  C   UNL A   1      39.226  22.566  26.423  1.00  0.00     0.023 C 
BRANCH  72  73
ATOM     73  C   UNL A   1      37.926  23.276  26.061  1.00  0.00     0.116 C 
BRANCH  73  74
ATOM     74  N   UNL A   1      37.703  23.366  24.624  1.00  0.00    -0.352 N 
ATOM     75  C   UNL A   1      36.613  22.986  23.884  1.00  0.00     0.252 C 
ATOM     76  H   UNL A   1      38.445  23.757  24.108  1.00  0.00     0.163 HD
ATOM     77  O   UNL A   1      36.614  23.105  22.659  1.00  0.00    -0.269 OA
BRANCH  75  78
ATOM     78  C   UNL A   1      35.417  22.450  24.565  1.00  0.00     0.051 A 
ATOM     79  C   UNL A   1      35.275  21.066  24.601  1.00  0.00     0.045 A 
ATOM     80  C   UNL A   1      34.453  23.294  25.152  1.00  0.00     0.016 A 
ATOM     81  C   UNL A   1      34.110  20.534  25.120  1.00  0.00     0.090 A 
ATOM     82  C   UNL A   1      33.321  22.653  25.699  1.00  0.00     0.072 A 
ATOM     83  C   UNL A   1      34.545  24.707  25.214  1.00  0.00     0.050 A 
ATOM     84  N   UNL A   1      33.149  21.319  25.669  1.00  0.00    -0.246 NA
ATOM     85  C   UNL A   1      32.331  23.432  26.286  1.00  0.00     0.032 A 
ATOM     86  C   UNL A   1      33.541  25.450  25.819  1.00  0.00     0.123 A 
ATOM     87  C   UNL A   1      32.430  24.824  26.356  1.00  0.00     0.041 A 
ATOM     88  F   UNL A   1      33.647  26.782  25.886  1.00  0.00    -0.207 F 
BRANCH  81  89
ATOM     89  C   UNL A   1      33.849  19.089  25.013  1.00  0.00     0.089 A 
ATOM     90  C   UNL A   1      34.739  18.233  24.361  1.00  0.00     0.030 A 
ATOM     91  N   UNL A   1      32.634  18.663  25.451  1.00  0.00    -0.255 NA
ATOM     92  C   UNL A   1      34.369  16.909  24.140  1.00  0.00     0.004 A 
ATOM     93  C   UNL A   1      32.305  17.372  25.229  1.00  0.00     0.112 A 
ATOM     94  C   UNL A   1      33.127  16.468  24.577  1.00  0.00     0.020 A 
ENDBRANCH  81  89
ENDBRANCH  75  78
ENDBRANCH  73  74
ENDBRANCH  72  73
ENDBRANCH  71  72
ENDBRANCH   1  71
TORSDOF 15
ENDMDL
MODEL 3
REMARK VINA RESULT:     -12.9      0.447      7.746
REMARK SMILES O=C(NCCCCNC(=O)c1cc(-c2ccccn2)nc2ccc(F)cc12)c1ccc(-c2c3nc(c(-c4cc(S(=O)(=O)[O-])ccc4F)c4ccc([nH]4)c(-c4cc(S(=O)(=O)[O-])ccc4F)c4nc(c(-c5cc(S(=O)(=O)[O-])ccc5F)c5ccc2[nH]5)C=C4)C=C3)cc1
REMARK SMILES IDX 4 1 3 2 1 3 2 4 28 6 29 7 90 8 30 9 89 10 31 11 32 12 33 13
REMARK SMILES IDX 83 14 34 15 88 16 82 17 84 18 35 19 87 20 81 21 80 22 36 24
REMARK SMILES IDX 68 25 48 26 67 27 49 28 52 29 66 30 85 31 50 32 51 33 65 35
REMARK SMILES IDX 86 36 53 37 37 38 38 39 46 40 39 41 45 42 47 43 44 44 40 45
REMARK SMILES IDX 41 46 42 47 43 48 69 49 70 50 78 51 71 52 77 53 79 54 76 55
REMARK SMILES IDX 72 56 73 57 74 58 75 59 54 60 55 61 63 62 56 63 62 64 64 65
REMARK SMILES IDX 61 66 57 67 58 68 59 69 60 70 5 71 6 72 7 73 8 74 9 75 10 77
REMARK SMILES IDX 11 78 12 79 27 80 13 81 21 82 26 83 20 84 22 85 24 86 23 87
REMARK SMILES IDX 25 88 14 89 15 90 19 91 16 92 18 93 17 94
REMARK H PARENT 3 5 84 23 52 34 8 76
REMARK Flexibility Score: inf
ROOT
ATOM      1  C   UNL A   1      32.738  32.671  27.215  1.00  0.00     0.116 C 
ENDROOT
BRANCH   1   2
ATOM      2  N   UNL A   1      32.566  34.030  27.702  1.00  0.00    -0.352 N 
ATOM      3  O   UNL A   1      32.810  35.792  29.074  1.00  0.00    -0.269 OA
ATOM      4  C   UNL A   1      33.207  34.681  28.727  1.00  0.00     0.251 C 
ATOM      5  H   UNL A   1      31.888  34.562  27.226  1.00  0.00     0.163 HD
BRANCH   4   6
ATOM      6  C   UNL A   1      34.357  34.057  29.420  1.00  0.00     0.039 A 
ATOM      7  C   UNL A   1      35.652  34.405  29.024  1.00  0.00     0.014 A 
ATOM      8  C   UNL A   1      34.171  33.098  30.419  1.00  0.00     0.014 A 
ATOM      9  C   UNL A   1      36.757  33.813  29.644  1.00  0.00     0.010 A 
ATOM     10  C   UNL A   1      35.270  32.567  31.090  1.00  0.00     0.010 A 
ATOM     11  C   UNL A   1      36.575  32.895  30.689  1.00  0.00    -0.014 A 
BRANCH  11  12
ATOM     12  C   UNL A   1      37.725  32.199  31.323  1.00  0.00     0.031 A 
ATOM     13  C   UNL A   1      38.236  32.681  32.655  1.00  0.00     0.074 A 
ATOM     14  C   UNL A   1      38.336  31.176  30.693  1.00  0.00     0.049 A 
ATOM     15  N   UNL A   1      39.277  32.278  33.335  1.00  0.00    -0.248 NA
ATOM     16  C   UNL A   1      37.492  33.780  33.294  1.00  0.00     0.031 C 
ATOM     17  C   UNL A   1      37.945  30.638  29.391  1.00  0.00     0.029 A 
ATOM     18  N   UNL A   1      39.419  30.415  31.058  1.00  0.00    -0.354 N 
ATOM     19  C   UNL A   1      39.324  33.085  34.467  1.00  0.00     0.074 A 
ATOM     20  C   UNL A   1      38.246  34.040  34.352  1.00  0.00     0.031 C 
ATOM     21  C   UNL A   1      38.760  29.619  29.076  1.00  0.00     0.029 A 
ATOM     22  C   UNL A   1      39.762  29.459  30.129  1.00  0.00     0.049 A 
ATOM     23  H   UNL A   1      39.905  30.540  31.904  1.00  0.00     0.167 HD
ATOM     24  C   UNL A   1      40.169  33.016  35.522  1.00  0.00     0.034 A 
ATOM     25  C   UNL A   1      40.769  28.561  30.123  1.00  0.00     0.034 A 
ATOM     26  C   UNL A   1      41.212  32.032  35.643  1.00  0.00     0.049 A 
ATOM     27  C   UNL A   1      41.702  28.500  31.309  1.00  0.00     0.074 A 
ATOM     28  C   UNL A   1      42.091  31.846  36.694  1.00  0.00     0.029 A 
ATOM     29  N   UNL A   1      41.509  31.062  34.696  1.00  0.00    -0.354 N 
ATOM     30  N   UNL A   1      41.692  29.227  32.403  1.00  0.00    -0.248 NA
ATOM     31  C   UNL A   1      42.774  27.495  31.274  1.00  0.00     0.031 C 
ATOM     32  C   UNL A   1      42.953  30.802  36.362  1.00  0.00     0.029 A 
ATOM     33  C   UNL A   1      42.568  30.287  35.133  1.00  0.00     0.049 A 
ATOM     34  H   UNL A   1      41.037  30.944  33.840  1.00  0.00     0.167 HD
ATOM     35  C   UNL A   1      42.730  28.746  33.196  1.00  0.00     0.074 A 
ATOM     36  C   UNL A   1      43.338  27.654  32.465  1.00  0.00     0.031 C 
ATOM     37  C   UNL A   1      43.145  29.175  34.414  1.00  0.00     0.034 A 
BRANCH  24  38
ATOM     38  C   UNL A   1      39.996  33.998  36.653  1.00  0.00     0.023 A 
ATOM     39  C   UNL A   1      39.463  33.569  37.883  1.00  0.00     0.031 A 
ATOM     40  C   UNL A   1      40.239  35.371  36.476  1.00  0.00     0.131 A 
ATOM     41  C   UNL A   1      39.161  34.510  38.876  1.00  0.00     0.055 A 
ATOM     42  C   UNL A   1      39.979  36.300  37.484  1.00  0.00     0.041 A 
ATOM     43  F   UNL A   1      40.746  35.831  35.320  1.00  0.00    -0.206 F 
ATOM     44  C   UNL A   1      39.425  35.871  38.686  1.00  0.00     0.022 A 
BRANCH  41  45
ATOM     45  S   UNL A   1      38.357  34.017  40.424  1.00  0.00     0.124 S 
ATOM     46  O   UNL A   1      37.192  33.283  39.935  1.00  0.00    -0.237 OA
ATOM     47  O   UNL A   1      39.389  33.201  41.057  1.00  0.00    -0.237 OA
ATOM     48  O   UNL A   1      38.059  35.283  41.084  1.00  0.00    -0.744 OA
ENDBRANCH  41  45
ENDBRANCH  24  38
BRANCH  25  49
ATOM     49  C   UNL A   1      40.891  27.607  28.979  1.00  0.00     0.023 A 
ATOM     50  C   UNL A   1      41.853  27.796  27.971  1.00  0.00     0.031 A 
ATOM     51  C   UNL A   1      39.976  26.551  28.828  1.00  0.00     0.131 A 
ATOM     52  C   UNL A   1      41.838  26.981  26.830  1.00  0.00     0.055 A 
ATOM     53  C   UNL A   1      40.009  25.698  27.723  1.00  0.00     0.041 A 
ATOM     54  F   UNL A   1      39.030  26.337  29.756  1.00  0.00    -0.206 F 
ATOM     55  C   UNL A   1      40.933  25.922  26.708  1.00  0.00     0.022 A 
BRANCH  52  56
ATOM     56  S   UNL A   1      42.903  27.350  25.408  1.00  0.00     0.124 S 
ATOM     57  O   UNL A   1      44.145  27.759  26.055  1.00  0.00    -0.237 OA
ATOM     58  O   UNL A   1      42.943  26.060  24.723  1.00  0.00    -0.237 OA
ATOM     59  O   UNL A   1      42.182  28.404  24.702  1.00  0.00    -0.744 OA
ENDBRANCH  52  56
ENDBRANCH  25  49
BRANCH  37  60
ATOM     60  C   UNL A   1      44.298  28.469  35.087  1.00  0.00     0.023 A 
ATOM     61  C   UNL A   1      44.040  27.469  36.046  1.00  0.00     0.031 A 
ATOM     62  C   UNL A   1      45.621  28.912  34.927  1.00  0.00     0.131 A 
ATOM     63  C   UNL A   1      45.083  26.985  36.846  1.00  0.00     0.055 A 
ATOM     64  C   UNL A   1      46.665  28.390  35.692  1.00  0.00     0.041 A 
ATOM     65  F   UNL A   1      45.915  29.873  34.036  1.00  0.00    -0.206 F 
ATOM     66  C   UNL A   1      46.395  27.436  36.670  1.00  0.00     0.022 A 
BRANCH  63  67
ATOM     67  S   UNL A   1      44.759  25.838  38.214  1.00  0.00     0.124 S 
ATOM     68  O   UNL A   1      43.773  24.936  37.624  1.00  0.00    -0.237 OA
ATOM     69  O   UNL A   1      46.078  25.255  38.445  1.00  0.00    -0.237 OA
ATOM     70  O   UNL A   1      44.256  26.695  39.282  1.00  0.00    -0.744 OA
ENDBRANCH  63  67
ENDBRANCH  37  60
ENDBRANCH  11  12
ENDBRANCH   4   6
ENDBRANCH   1   2
BRANCH   1  71
ATOM     71  C   UNL A   1      31.433  32.041  26.741  1.00  0.00     0.023 C 
BRANCH  71  72
ATOM     72  C   UNL A   1      31.575  30.736  25.960  1.00  0.00     0.023 C 
BRANCH  72  73
ATOM     73  C   UNL A   1      32.924  30.036  26.087  1.00  0.00     0.116 C 
BRANCH  73  74
ATOM     74  N   UNL A   1      33.521  29.705  24.801  1.00  0.00    -0.352 N 
ATOM     75  C   UNL A   1      33.425  28.552  24.063  1.00  0.00     0.252 C 
ATOM     76  H   UNL A   1      34.075  30.414  24.400  1.00  0.00     0.163 HD
ATOM     77  O   UNL A   1      34.035  28.434  23.001  1.00  0.00    -0.269 OA
BRANCH  75  78
ATOM     78  C   UNL A   1      32.564  27.451  24.538  1.00  0.00     0.051 A 
ATOM     79  C   UNL A   1      33.160  26.480  25.337  1.00  0.00     0.045 A 
ATOM     80  C   UNL A   1      31.198  27.373  24.199  1.00  0.00     0.016 A 
ATOM     81  C   UNL A   1      32.417  25.371  25.697  1.00  0.00     0.090 A 
ATOM     82  C   UNL A   1      30.513  26.226  24.653  1.00  0.00     0.072 A 
ATOM     83  C   UNL A   1      30.497  28.343  23.442  1.00  0.00     0.050 A 
ATOM     84  N   UNL A   1      31.107  25.251  25.364  1.00  0.00    -0.246 NA
ATOM     85  C   UNL A   1      29.164  26.089  24.344  1.00  0.00     0.032 A 
ATOM     86  C   UNL A   1      29.147  28.177  23.163  1.00  0.00     0.123 A 
ATOM     87  C   UNL A   1      28.473  27.053  23.607  1.00  0.00     0.041 A 
ATOM     88  F   UNL A   1      28.492  29.108  22.461  1.00  0.00    -0.207 F 
BRANCH  81  89
ATOM     89  C   UNL A   1      33.064  24.244  26.389  1.00  0.00     0.089 A 
ATOM     90  C   UNL A   1      34.361  23.838  26.069  1.00  0.00     0.030 A 
ATOM     91  N   UNL A   1      32.281  23.535  27.245  1.00  0.00    -0.255 NA
ATOM     92  C   UNL A   1      34.864  22.668  26.631  1.00  0.00     0.004 A 
ATOM     93  C   UNL A   1      32.798  22.408  27.781  1.00  0.00     0.112 A 
ATOM     94  C   UNL A   1      34.068  21.934  27.500  1.00  0.00     0.020 A 
ENDBRANCH  81  89
ENDBRANCH  75  78
ENDBRANCH  73  74
ENDBRANCH  72  73
ENDBRANCH  71  72
ENDBRANCH   1  71
TORSDOF 15
ENDMDL
