MODEL 1
REMARK VINA RESULT:     -12.0      0.000      0.000
REMARK SMILES C[C@@H](C(=O)NCCCCNC(=O)c1ccc(-c2c3nc(c(-c4cc(S(=O)(=O)[O-])ccc4F)c4ccc([nH]4)c(-c4cc(S(=O)(=O)[O-])ccc4F)c4nc(c(-c5cc(S(=O)(=O)[O-])ccc5F)c5ccc2[nH]5)C=C4)C=C3)cc1)c1ccc(C[C@H]2CCC[C@@H]2O)cc1F
REMARK SMILES IDX 7 1 6 2 5 3 3 4 4 5 2 7 1 8 76 9 77 10 88 11 78 12 87 13
REMARK SMILES IDX 89 14 79 15 80 16 81 17 82 18 85 19 83 20 84 21 86 22 8 24
REMARK SMILES IDX 9 25 10 26 11 27 12 29 13 30 14 31 75 32 15 33 74 34 16 35
REMARK SMILES IDX 17 36 18 37 68 38 19 39 73 40 67 41 69 42 20 43 72 44 66 45
REMARK SMILES IDX 65 46 21 48 53 49 33 50 52 51 34 52 37 53 51 54 70 55 35 56
REMARK SMILES IDX 36 57 50 59 71 60 38 61 22 62 23 63 31 64 24 65 30 66 32 67
REMARK SMILES IDX 29 68 25 69 26 70 27 71 28 72 54 73 55 74 63 75 56 76 62 77
REMARK SMILES IDX 64 78 61 79 57 80 58 81 59 82 60 83 39 84 40 85 48 86 41 87
REMARK SMILES IDX 47 88 49 89 46 90 42 91 43 92 44 93 45 94
REMARK H PARENT 5 6 86 23 10 28 69 47 37 58
REMARK Flexibility Score: inf
ROOT
ATOM      1  C   UNL A   1      31.871  28.147  27.200  1.00  0.00     0.023 C 
ENDROOT
BRANCH   1   2
ATOM      2  C   UNL A   1      31.048  27.396  26.153  1.00  0.00     0.116 C 
BRANCH   2   3
ATOM      3  N   UNL A   1      30.644  26.096  26.643  1.00  0.00    -0.356 N 
ATOM      4  C   UNL A   1      30.768  24.864  26.073  1.00  0.00     0.227 C 
ATOM      5  O   UNL A   1      30.291  23.921  26.708  1.00  0.00    -0.274 OA
ATOM      6  H   UNL A   1      30.213  26.102  27.528  1.00  0.00     0.163 HD
BRANCH   4   7
ATOM      7  C   UNL A   1      31.514  24.697  24.732  1.00  0.00     0.108 C 
ATOM      8  C   UNL A   1      30.599  24.725  23.507  1.00  0.00     0.023 C 
BRANCH   7   9
ATOM      9  C   UNL A   1      32.327  23.413  24.663  1.00  0.00    -0.000 A 
ATOM     10  C   UNL A   1      31.930  22.341  23.852  1.00  0.00     0.008 A 
ATOM     11  C   UNL A   1      33.524  23.296  25.371  1.00  0.00     0.127 A 
ATOM     12  C   UNL A   1      32.676  21.165  23.810  1.00  0.00     0.004 A 
ATOM     13  C   UNL A   1      34.270  22.121  25.342  1.00  0.00     0.043 A 
ATOM     14  F   UNL A   1      33.976  24.326  26.103  1.00  0.00    -0.207 F 
ATOM     15  C   UNL A   1      33.825  21.024  24.594  1.00  0.00    -0.045 A 
BRANCH  15  16
ATOM     16  C   UNL A   1      34.526  19.691  24.682  1.00  0.00     0.041 C 
BRANCH  16  17
ATOM     17  C   UNL A   1      33.617  18.462  24.492  1.00  0.00     0.022 C 
ATOM     18  C   UNL A   1      34.078  17.438  23.442  1.00  0.00     0.007 C 
ATOM     19  C   UNL A   1      33.361  17.621  25.747  1.00  0.00     0.117 C 
ATOM     20  C   UNL A   1      33.660  16.064  23.977  1.00  0.00     0.003 C 
ATOM     21  C   UNL A   1      32.768  16.344  25.175  1.00  0.00     0.032 C 
BRANCH  19  22
ATOM     22  O   UNL A   1      32.463  18.272  26.626  1.00  0.00    -0.393 OA
ATOM     23  H   UNL A   1      32.964  18.751  27.304  1.00  0.00     0.210 HD
ENDBRANCH  19  22
ENDBRANCH  16  17
ENDBRANCH  15  16
ENDBRANCH   7   9
ENDBRANCH   4   7
ENDBRANCH   2   3
ENDBRANCH   1   2
BRANCH   1  24
ATOM     24  C   UNL A   1      33.380  28.138  26.953  1.00  0.00     0.023 C 
BRANCH  24  25
ATOM     25  C   UNL A   1      33.899  29.287  26.099  1.00  0.00     0.116 C 
BRANCH  25  26
ATOM     26  N   UNL A   1      33.637  30.585  26.697  1.00  0.00    -0.352 N 
ATOM     27  C   UNL A   1      34.305  31.212  27.718  1.00  0.00     0.251 C 
ATOM     28  H   UNL A   1      32.877  31.082  26.317  1.00  0.00     0.163 HD
ATOM     29  O   UNL A   1      33.833  32.236  28.210  1.00  0.00    -0.269 OA
BRANCH  27  30
ATOM     30  C   UNL A   1      35.567  30.642  28.236  1.00  0.00     0.039 A 
ATOM     31  C   UNL A   1      36.775  31.036  27.659  1.00  0.00     0.014 A 
ATOM     32  C   UNL A   1      35.559  29.716  29.284  1.00  0.00     0.014 A 
ATOM     33  C   UNL A   1      37.977  30.527  28.154  1.00  0.00     0.010 A 
ATOM     34  C   UNL A   1      36.761  29.282  29.837  1.00  0.00     0.010 A 
ATOM     35  C   UNL A   1      37.981  29.659  29.259  1.00  0.00    -0.014 A 
BRANCH  35  36
ATOM     36  C   UNL A   1      39.252  29.087  29.778  1.00  0.00     0.031 A 
ATOM     37  C   UNL A   1      39.875  29.659  31.025  1.00  0.00     0.074 A 
ATOM     38  C   UNL A   1      39.855  28.080  29.117  1.00  0.00     0.049 A 
ATOM     39  N   UNL A   1      40.982  29.317  31.631  1.00  0.00    -0.248 NA
ATOM     40  C   UNL A   1      39.174  30.788  31.654  1.00  0.00     0.031 C 
ATOM     41  C   UNL A   1      39.368  27.469  27.879  1.00  0.00     0.029 A 
ATOM     42  N   UNL A   1      41.006  27.387  29.397  1.00  0.00    -0.354 N 
ATOM     43  C   UNL A   1      41.119  30.199  32.698  1.00  0.00     0.074 A 
ATOM     44  C   UNL A   1      40.021  31.137  32.608  1.00  0.00     0.031 C 
ATOM     45  C   UNL A   1      40.188  26.463  27.533  1.00  0.00     0.029 A 
ATOM     46  C   UNL A   1      41.283  26.385  28.495  1.00  0.00     0.049 A 
ATOM     47  H   UNL A   1      41.580  27.588  30.171  1.00  0.00     0.167 HD
ATOM     48  C   UNL A   1      42.057  30.210  33.678  1.00  0.00     0.034 A 
ATOM     49  C   UNL A   1      42.302  25.505  28.451  1.00  0.00     0.034 A 
ATOM     50  C   UNL A   1      43.135  29.255  33.759  1.00  0.00     0.049 A 
ATOM     51  C   UNL A   1      43.345  25.547  29.542  1.00  0.00     0.074 A 
ATOM     52  C   UNL A   1      44.109  29.135  34.735  1.00  0.00     0.029 A 
ATOM     53  N   UNL A   1      43.389  28.260  32.821  1.00  0.00    -0.354 N 
ATOM     54  N   UNL A   1      43.431  26.351  30.577  1.00  0.00    -0.248 NA
ATOM     55  C   UNL A   1      44.417  24.548  29.467  1.00  0.00     0.031 C 
ATOM     56  C   UNL A   1      44.997  28.126  34.346  1.00  0.00     0.029 A 
ATOM     57  C   UNL A   1      44.523  27.546  33.179  1.00  0.00     0.049 A 
ATOM     58  H   UNL A   1      42.844  28.088  32.019  1.00  0.00     0.167 HD
ATOM     59  C   UNL A   1      44.539  25.920  31.302  1.00  0.00     0.074 A 
ATOM     60  C   UNL A   1      45.081  24.782  30.589  1.00  0.00     0.031 C 
ATOM     61  C   UNL A   1      45.056  26.412  32.458  1.00  0.00     0.034 A 
BRANCH  48  62
ATOM     62  C   UNL A   1      41.969  31.309  34.714  1.00  0.00     0.023 A 
ATOM     63  C   UNL A   1      40.970  31.321  35.705  1.00  0.00     0.031 A 
ATOM     64  C   UNL A   1      42.872  32.387  34.684  1.00  0.00     0.131 A 
ATOM     65  C   UNL A   1      40.840  32.428  36.558  1.00  0.00     0.055 A 
ATOM     66  C   UNL A   1      42.797  33.439  35.600  1.00  0.00     0.041 A 
ATOM     67  F   UNL A   1      43.833  32.448  33.750  1.00  0.00    -0.206 F 
ATOM     68  C   UNL A   1      41.765  33.473  36.532  1.00  0.00     0.022 A 
BRANCH  65  69
ATOM     69  S   UNL A   1      39.346  32.563  37.579  1.00  0.00     0.124 S 
ATOM     70  O   UNL A   1      38.556  31.432  37.097  1.00  0.00    -0.237 OA
ATOM     71  O   UNL A   1      39.876  32.443  38.932  1.00  0.00    -0.237 OA
ATOM     72  O   UNL A   1      38.811  33.878  37.231  1.00  0.00    -0.744 OA
ENDBRANCH  65  69
ENDBRANCH  48  62
BRANCH  49  73
ATOM     73  C   UNL A   1      42.389  24.497  27.356  1.00  0.00     0.023 A 
ATOM     74  C   UNL A   1      41.577  23.349  27.366  1.00  0.00     0.031 A 
ATOM     75  C   UNL A   1      43.316  24.637  26.308  1.00  0.00     0.131 A 
ATOM     76  C   UNL A   1      41.746  22.364  26.381  1.00  0.00     0.055 A 
ATOM     77  C   UNL A   1      43.438  23.682  25.297  1.00  0.00     0.041 A 
ATOM     78  F   UNL A   1      44.112  25.716  26.246  1.00  0.00    -0.206 F 
ATOM     79  C   UNL A   1      42.660  22.529  25.339  1.00  0.00     0.022 A 
BRANCH  76  80
ATOM     80  S   UNL A   1      40.816  20.814  26.537  1.00  0.00     0.124 S 
ATOM     81  O   UNL A   1      40.870  20.580  27.975  1.00  0.00    -0.237 OA
ATOM     82  O   UNL A   1      39.514  21.186  25.994  1.00  0.00    -0.237 OA
ATOM     83  O   UNL A   1      41.583  19.874  25.722  1.00  0.00    -0.744 OA
ENDBRANCH  76  80
ENDBRANCH  49  73
BRANCH  61  84
ATOM     84  C   UNL A   1      46.228  25.670  33.059  1.00  0.00     0.023 A 
ATOM     85  C   UNL A   1      46.061  24.649  34.011  1.00  0.00     0.031 A 
ATOM     86  C   UNL A   1      47.542  26.016  32.690  1.00  0.00     0.131 A 
ATOM     87  C   UNL A   1      47.184  24.065  34.616  1.00  0.00     0.055 A 
ATOM     88  C   UNL A   1      48.654  25.378  33.238  1.00  0.00     0.041 A 
ATOM     89  F   UNL A   1      47.766  26.986  31.789  1.00  0.00    -0.206 F 
ATOM     90  C   UNL A   1      48.479  24.409  34.221  1.00  0.00     0.022 A 
BRANCH  87  91
ATOM     91  S   UNL A   1      46.932  22.947  36.023  1.00  0.00     0.124 S 
ATOM     92  O   UNL A   1      47.928  21.911  35.767  1.00  0.00    -0.237 OA
ATOM     93  O   UNL A   1      47.197  23.819  37.163  1.00  0.00    -0.237 OA
ATOM     94  O   UNL A   1      45.542  22.521  35.877  1.00  0.00    -0.744 OA
ENDBRANCH  87  91
ENDBRANCH  61  84
ENDBRANCH  35  36
ENDBRANCH  27  30
ENDBRANCH  25  26
ENDBRANCH  24  25
ENDBRANCH   1  24
TORSDOF 18
ENDMDL
MODEL 2
REMARK VINA RESULT:     -11.7      1.406      1.751
REMARK SMILES C[C@@H](C(=O)NCCCCNC(=O)c1ccc(-c2c3nc(c(-c4cc(S(=O)(=O)[O-])ccc4F)c4ccc([nH]4)c(-c4cc(S(=O)(=O)[O-])ccc4F)c4nc(c(-c5cc(S(=O)(=O)[O-])ccc5F)c5ccc2[nH]5)C=C4)C=C3)cc1)c1ccc(C[C@H]2CCC[C@@H]2O)cc1F
REMARK SMILES IDX 7 1 6 2 5 3 3 4 4 5 2 7 1 8 76 9 77 10 88 11 78 12 87 13
REMARK SMILES IDX 89 14 79 15 80 16 81 17 82 18 85 19 83 20 84 21 86 22 8 24
REMARK SMILES IDX 9 25 10 26 11 27 12 29 13 30 14 31 75 32 15 33 74 34 16 35
REMARK SMILES IDX 17 36 18 37 68 38 19 39 73 40 67 41 69 42 20 43 72 44 66 45
REMARK SMILES IDX 65 46 21 48 53 49 33 50 52 51 34 52 37 53 51 54 70 55 35 56
REMARK SMILES IDX 36 57 50 59 71 60 38 61 22 62 23 63 31 64 24 65 30 66 32 67
REMARK SMILES IDX 29 68 25 69 26 70 27 71 28 72 54 73 55 74 63 75 56 76 62 77
REMARK SMILES IDX 64 78 61 79 57 80 58 81 59 82 60 83 39 84 40 85 48 86 41 87
REMARK SMILES IDX 47 88 49 89 46 90 42 91 43 92 44 93 45 94
REMARK H PARENT 5 6 86 23 10 28 69 47 37 58
REMARK Flexibility Score: inf
ROOT
ATOM      1  C   UNL A   1      32.006  28.151  27.230  1.00  0.00     0.023 C 
ENDROOT
BRANCH   1   2
ATOM      2  C   UNL A   1      31.032  27.483  26.259  1.00  0.00     0.116 C 
BRANCH   2   3
ATOM      3  N   UNL A   1      30.689  26.149  26.701  1.00  0.00    -0.356 N 
ATOM      4  C   UNL A   1      30.977  24.937  26.146  1.00  0.00     0.227 C 
ATOM      5  O   UNL A   1      30.516  23.952  26.725  1.00  0.00    -0.274 OA
ATOM      6  H   UNL A   1      30.166  26.110  27.534  1.00  0.00     0.163 HD
BRANCH   4   7
ATOM      7  C   UNL A   1      31.875  24.848  24.893  1.00  0.00     0.108 C 
ATOM      8  C   UNL A   1      31.123  25.054  23.577  1.00  0.00     0.023 C 
BRANCH   7   9
ATOM      9  C   UNL A   1      32.616  23.524  24.790  1.00  0.00    -0.000 A 
ATOM     10  C   UNL A   1      32.116  22.465  24.018  1.00  0.00     0.008 A 
ATOM     11  C   UNL A   1      33.848  23.352  25.425  1.00  0.00     0.127 A 
ATOM     12  C   UNL A   1      32.798  21.253  23.945  1.00  0.00     0.004 A 
ATOM     13  C   UNL A   1      34.531  22.141  25.364  1.00  0.00     0.043 A 
ATOM     14  F   UNL A   1      34.396  24.365  26.114  1.00  0.00    -0.207 F 
ATOM     15  C   UNL A   1      33.986  21.061  24.659  1.00  0.00    -0.045 A 
BRANCH  15  16
ATOM     16  C   UNL A   1      34.623  19.696  24.719  1.00  0.00     0.041 C 
BRANCH  16  17
ATOM     17  C   UNL A   1      33.656  18.514  24.513  1.00  0.00     0.022 C 
ATOM     18  C   UNL A   1      34.075  17.476  23.459  1.00  0.00     0.007 C 
ATOM     19  C   UNL A   1      33.347  17.679  25.758  1.00  0.00     0.117 C 
ATOM     20  C   UNL A   1      33.585  16.121  23.980  1.00  0.00     0.003 C 
ATOM     21  C   UNL A   1      32.696  16.436  25.173  1.00  0.00     0.032 C 
BRANCH  19  22
ATOM     22  O   UNL A   1      32.474  18.368  26.634  1.00  0.00    -0.393 OA
ATOM     23  H   UNL A   1      32.994  18.875  27.277  1.00  0.00     0.210 HD
ENDBRANCH  19  22
ENDBRANCH  16  17
ENDBRANCH  15  16
ENDBRANCH   7   9
ENDBRANCH   4   7
ENDBRANCH   2   3
ENDBRANCH   1   2
BRANCH   1  24
ATOM     24  C   UNL A   1      33.483  27.982  26.870  1.00  0.00     0.023 C 
BRANCH  24  25
ATOM     25  C   UNL A   1      34.083  29.125  26.064  1.00  0.00     0.116 C 
BRANCH  25  26
ATOM     26  N   UNL A   1      33.814  30.424  26.655  1.00  0.00    -0.352 N 
ATOM     27  C   UNL A   1      34.480  31.060  27.672  1.00  0.00     0.251 C 
ATOM     28  H   UNL A   1      33.050  30.914  26.274  1.00  0.00     0.163 HD
ATOM     29  O   UNL A   1      34.001  32.083  28.160  1.00  0.00    -0.269 OA
BRANCH  27  30
ATOM     30  C   UNL A   1      35.745  30.500  28.191  1.00  0.00     0.039 A 
ATOM     31  C   UNL A   1      35.707  29.668  29.312  1.00  0.00     0.014 A 
ATOM     32  C   UNL A   1      36.967  30.796  27.579  1.00  0.00     0.014 A 
ATOM     33  C   UNL A   1      36.891  29.110  29.799  1.00  0.00     0.010 A 
ATOM     34  C   UNL A   1      38.131  30.164  28.007  1.00  0.00     0.010 A 
ATOM     35  C   UNL A   1      38.110  29.339  29.140  1.00  0.00    -0.014 A 
BRANCH  35  36
ATOM     36  C   UNL A   1      39.382  28.773  29.665  1.00  0.00     0.031 A 
ATOM     37  C   UNL A   1      40.016  29.373  30.892  1.00  0.00     0.074 A 
ATOM     38  C   UNL A   1      39.975  27.746  29.026  1.00  0.00     0.049 A 
ATOM     39  N   UNL A   1      41.126  29.041  31.499  1.00  0.00    -0.248 NA
ATOM     40  C   UNL A   1      39.326  30.522  31.498  1.00  0.00     0.031 C 
ATOM     41  C   UNL A   1      39.475  27.107  27.807  1.00  0.00     0.029 A 
ATOM     42  N   UNL A   1      41.124  27.055  29.316  1.00  0.00    -0.354 N 
ATOM     43  C   UNL A   1      41.276  29.949  32.543  1.00  0.00     0.074 A 
ATOM     44  C   UNL A   1      40.182  30.890  32.437  1.00  0.00     0.031 C 
ATOM     45  C   UNL A   1      40.287  26.088  27.482  1.00  0.00     0.029 A 
ATOM     46  C   UNL A   1      41.389  26.029  28.437  1.00  0.00     0.049 A 
ATOM     47  H   UNL A   1      41.704  27.272  30.080  1.00  0.00     0.167 HD
ATOM     48  C   UNL A   1      42.220  29.980  33.516  1.00  0.00     0.034 A 
ATOM     49  C   UNL A   1      42.403  25.142  28.409  1.00  0.00     0.034 A 
ATOM     50  C   UNL A   1      43.294  29.021  33.613  1.00  0.00     0.049 A 
ATOM     51  C   UNL A   1      43.454  25.206  29.491  1.00  0.00     0.074 A 
ATOM     52  C   UNL A   1      44.274  28.920  34.585  1.00  0.00     0.029 A 
ATOM     53  N   UNL A   1      43.536  28.002  32.700  1.00  0.00    -0.354 N 
ATOM     54  N   UNL A   1      43.551  26.036  30.505  1.00  0.00    -0.248 NA
ATOM     55  C   UNL A   1      44.519  24.199  29.434  1.00  0.00     0.031 C 
ATOM     56  C   UNL A   1      45.154  27.897  34.215  1.00  0.00     0.029 A 
ATOM     57  C   UNL A   1      44.668  27.290  33.067  1.00  0.00     0.049 A 
ATOM     58  H   UNL A   1      42.984  27.812  31.906  1.00  0.00     0.167 HD
ATOM     59  C   UNL A   1      44.663  25.617  31.233  1.00  0.00     0.074 A 
ATOM     60  C   UNL A   1      45.193  24.458  30.544  1.00  0.00     0.031 C 
ATOM     61  C   UNL A   1      45.191  26.135  32.372  1.00  0.00     0.034 A 
BRANCH  48  62
ATOM     62  C   UNL A   1      42.145  31.105  34.523  1.00  0.00     0.023 A 
ATOM     63  C   UNL A   1      42.845  32.313  34.346  1.00  0.00     0.031 A 
ATOM     64  C   UNL A   1      41.396  30.953  35.705  1.00  0.00     0.131 A 
ATOM     65  C   UNL A   1      42.859  33.274  35.368  1.00  0.00     0.055 A 
ATOM     66  C   UNL A   1      41.336  31.955  36.675  1.00  0.00     0.041 A 
ATOM     67  F   UNL A   1      40.726  29.816  35.947  1.00  0.00    -0.206 F 
ATOM     68  C   UNL A   1      42.085  33.117  36.519  1.00  0.00     0.022 A 
BRANCH  65  69
ATOM     69  S   UNL A   1      44.039  34.648  35.248  1.00  0.00     0.124 S 
ATOM     70  O   UNL A   1      45.009  34.294  36.283  1.00  0.00    -0.237 OA
ATOM     71  O   UNL A   1      44.506  34.544  33.871  1.00  0.00    -0.237 OA
ATOM     72  O   UNL A   1      43.225  35.825  35.545  1.00  0.00    -0.744 OA
ENDBRANCH  65  69
ENDBRANCH  48  62
BRANCH  49  73
ATOM     73  C   UNL A   1      42.476  24.105  27.340  1.00  0.00     0.023 A 
ATOM     74  C   UNL A   1      41.849  22.858  27.499  1.00  0.00     0.031 A 
ATOM     75  C   UNL A   1      43.213  24.324  26.162  1.00  0.00     0.131 A 
ATOM     76  C   UNL A   1      42.015  21.861  26.526  1.00  0.00     0.055 A 
ATOM     77  C   UNL A   1      43.326  23.349  25.169  1.00  0.00     0.041 A 
ATOM     78  F   UNL A   1      43.829  25.499  25.955  1.00  0.00    -0.206 F 
ATOM     79  C   UNL A   1      42.737  22.103  25.356  1.00  0.00     0.022 A 
BRANCH  76  80
ATOM     80  S   UNL A   1      41.350  20.205  26.857  1.00  0.00     0.124 S 
ATOM     81  O   UNL A   1      40.307  20.098  25.844  1.00  0.00    -0.237 OA
ATOM     82  O   UNL A   1      42.525  19.362  26.663  1.00  0.00    -0.237 OA
ATOM     83  O   UNL A   1      40.875  20.300  28.236  1.00  0.00    -0.744 OA
ENDBRANCH  76  80
ENDBRANCH  49  73
BRANCH  61  84
ATOM     84  C   UNL A   1      46.362  25.403  32.984  1.00  0.00     0.023 A 
ATOM     85  C   UNL A   1      46.194  24.373  33.926  1.00  0.00     0.031 A 
ATOM     86  C   UNL A   1      47.677  25.765  32.634  1.00  0.00     0.131 A 
ATOM     87  C   UNL A   1      47.316  23.798  34.542  1.00  0.00     0.055 A 
ATOM     88  C   UNL A   1      48.790  25.136  33.193  1.00  0.00     0.041 A 
ATOM     89  F   UNL A   1      47.902  26.744  31.742  1.00  0.00    -0.206 F 
ATOM     90  C   UNL A   1      48.613  24.158  34.167  1.00  0.00     0.022 A 
BRANCH  87  91
ATOM     91  S   UNL A   1      47.059  22.668  35.938  1.00  0.00     0.124 S 
ATOM     92  O   UNL A   1      48.046  23.145  36.900  1.00  0.00    -0.237 OA
ATOM     93  O   UNL A   1      45.662  22.914  36.283  1.00  0.00    -0.237 OA
ATOM     94  O   UNL A   1      47.334  21.350  35.367  1.00  0.00    -0.744 OA
ENDBRANCH  87  91
ENDBRANCH  61  84
ENDBRANCH  35  36
ENDBRANCH  27  30
ENDBRANCH  25  26
ENDBRANCH  24  25
ENDBRANCH   1  24
TORSDOF 18
ENDMDL
MODEL 3
REMARK VINA RESULT:     -11.6      1.620      1.851
REMARK SMILES C[C@@H](C(=O)NCCCCNC(=O)c1ccc(-c2c3nc(c(-c4cc(S(=O)(=O)[O-])ccc4F)c4ccc([nH]4)c(-c4cc(S(=O)(=O)[O-])ccc4F)c4nc(c(-c5cc(S(=O)(=O)[O-])ccc5F)c5ccc2[nH]5)C=C4)C=C3)cc1)c1ccc(C[C@H]2CCC[C@@H]2O)cc1F
REMARK SMILES IDX 7 1 6 2 5 3 3 4 4 5 2 7 1 8 76 9 77 10 88 11 78 12 87 13
REMARK SMILES IDX 89 14 79 15 80 16 81 17 82 18 85 19 83 20 84 21 86 22 8 24
REMARK SMILES IDX 9 25 10 26 11 27 12 29 13 30 14 31 75 32 15 33 74 34 16 35
REMARK SMILES IDX 17 36 18 37 68 38 19 39 73 40 67 41 69 42 20 43 72 44 66 45
REMARK SMILES IDX 65 46 21 48 53 49 33 50 52 51 34 52 37 53 51 54 70 55 35 56
REMARK SMILES IDX 36 57 50 59 71 60 38 61 22 62 23 63 31 64 24 65 30 66 32 67
REMARK SMILES IDX 29 68 25 69 26 70 27 71 28 72 54 73 55 74 63 75 56 76 62 77
REMARK SMILES IDX 64 78 61 79 57 80 58 81 59 82 60 83 39 84 40 85 48 86 41 87
REMARK SMILES IDX 47 88 49 89 46 90 42 91 43 92 44 93 45 94
REMARK H PARENT 5 6 86 23 10 28 69 47 37 58
REMARK Flexibility Score: inf
ROOT
ATOM      1  C   UNL A   1      31.786  27.851  26.351  1.00  0.00     0.023 C 
ENDROOT
BRANCH   1   2
ATOM      2  C   UNL A   1      31.505  28.047  24.860  1.00  0.00     0.116 C 
BRANCH   2   3
ATOM      3  N   UNL A   1      30.812  26.904  24.306  1.00  0.00    -0.356 N 
ATOM      4  C   UNL A   1      31.284  25.873  23.549  1.00  0.00     0.227 C 
ATOM      5  O   UNL A   1      30.447  25.046  23.178  1.00  0.00    -0.274 OA
ATOM      6  H   UNL A   1      29.850  26.864  24.509  1.00  0.00     0.163 HD
BRANCH   4   7
ATOM      7  C   UNL A   1      32.792  25.757  23.242  1.00  0.00     0.108 C 
ATOM      8  C   UNL A   1      33.140  25.960  21.767  1.00  0.00     0.023 C 
BRANCH   7   9
ATOM      9  C   UNL A   1      33.381  24.421  23.668  1.00  0.00    -0.000 A 
ATOM     10  C   UNL A   1      33.037  23.229  23.015  1.00  0.00     0.008 A 
ATOM     11  C   UNL A   1      34.327  24.361  24.693  1.00  0.00     0.127 A 
ATOM     12  C   UNL A   1      33.573  22.011  23.426  1.00  0.00     0.004 A 
ATOM     13  C   UNL A   1      34.860  23.146  25.116  1.00  0.00     0.043 A 
ATOM     14  F   UNL A   1      34.738  25.487  25.296  1.00  0.00    -0.207 F 
ATOM     15  C   UNL A   1      34.450  21.951  24.513  1.00  0.00    -0.045 A 
BRANCH  15  16
ATOM     16  C   UNL A   1      34.886  20.616  25.064  1.00  0.00     0.041 C 
BRANCH  16  17
ATOM     17  C   UNL A   1      34.033  19.415  24.614  1.00  0.00     0.022 C 
ATOM     18  C   UNL A   1      34.797  18.106  24.356  1.00  0.00     0.007 C 
ATOM     19  C   UNL A   1      32.902  19.006  25.563  1.00  0.00     0.117 C 
ATOM     20  C   UNL A   1      33.857  16.974  24.786  1.00  0.00     0.003 C 
ATOM     21  C   UNL A   1      32.511  17.632  25.042  1.00  0.00     0.032 C 
BRANCH  19  22
ATOM     22  O   UNL A   1      31.823  19.921  25.497  1.00  0.00    -0.393 OA
ATOM     23  H   UNL A   1      31.874  20.423  24.669  1.00  0.00     0.210 HD
ENDBRANCH  19  22
ENDBRANCH  16  17
ENDBRANCH  15  16
ENDBRANCH   7   9
ENDBRANCH   4   7
ENDBRANCH   2   3
ENDBRANCH   1   2
BRANCH   1  24
ATOM     24  C   UNL A   1      33.256  27.994  26.748  1.00  0.00     0.023 C 
BRANCH  24  25
ATOM     25  C   UNL A   1      33.999  29.133  26.063  1.00  0.00     0.116 C 
BRANCH  25  26
ATOM     26  N   UNL A   1      33.722  30.422  26.672  1.00  0.00    -0.352 N 
ATOM     27  C   UNL A   1      34.389  31.053  27.691  1.00  0.00     0.251 C 
ATOM     28  H   UNL A   1      32.951  30.909  26.302  1.00  0.00     0.163 HD
ATOM     29  O   UNL A   1      33.904  32.065  28.195  1.00  0.00    -0.269 OA
BRANCH  27  30
ATOM     30  C   UNL A   1      35.663  30.499  28.195  1.00  0.00     0.039 A 
ATOM     31  C   UNL A   1      36.859  30.906  27.601  1.00  0.00     0.014 A 
ATOM     32  C   UNL A   1      35.681  29.577  29.246  1.00  0.00     0.014 A 
ATOM     33  C   UNL A   1      38.073  30.412  28.082  1.00  0.00     0.010 A 
ATOM     34  C   UNL A   1      36.894  29.160  29.785  1.00  0.00     0.010 A 
ATOM     35  C   UNL A   1      38.103  29.549  29.189  1.00  0.00    -0.014 A 
BRANCH  35  36
ATOM     36  C   UNL A   1      39.387  28.993  29.694  1.00  0.00     0.031 A 
ATOM     37  C   UNL A   1      40.044  29.610  30.901  1.00  0.00     0.074 A 
ATOM     38  C   UNL A   1      39.971  27.962  29.054  1.00  0.00     0.049 A 
ATOM     39  N   UNL A   1      41.168  29.288  31.488  1.00  0.00    -0.248 NA
ATOM     40  C   UNL A   1      39.362  30.763  31.508  1.00  0.00     0.031 C 
ATOM     41  C   UNL A   1      39.449  27.307  27.853  1.00  0.00     0.029 A 
ATOM     42  N   UNL A   1      41.128  27.278  29.328  1.00  0.00    -0.354 N 
ATOM     43  C   UNL A   1      41.335  30.208  32.518  1.00  0.00     0.074 A 
ATOM     44  C   UNL A   1      40.236  31.145  32.425  1.00  0.00     0.031 C 
ATOM     45  C   UNL A   1      40.258  26.287  27.522  1.00  0.00     0.029 A 
ATOM     46  C   UNL A   1      41.379  26.243  28.455  1.00  0.00     0.049 A 
ATOM     47  H   UNL A   1      41.723  27.505  30.078  1.00  0.00     0.167 HD
ATOM     48  C   UNL A   1      42.300  30.254  33.471  1.00  0.00     0.034 A 
ATOM     49  C   UNL A   1      42.396  25.360  28.416  1.00  0.00     0.034 A 
ATOM     50  C   UNL A   1      43.379  29.300  33.557  1.00  0.00     0.049 A 
ATOM     51  C   UNL A   1      43.468  25.440  29.476  1.00  0.00     0.074 A 
ATOM     52  C   UNL A   1      44.379  29.214  34.509  1.00  0.00     0.029 A 
ATOM     53  N   UNL A   1      43.606  28.272  32.650  1.00  0.00    -0.354 N 
ATOM     54  N   UNL A   1      43.583  26.281  30.477  1.00  0.00    -0.248 NA
ATOM     55  C   UNL A   1      44.536  24.436  29.407  1.00  0.00     0.031 C 
ATOM     56  C   UNL A   1      45.255  28.190  34.133  1.00  0.00     0.029 A 
ATOM     57  C   UNL A   1      44.749  27.568  33.002  1.00  0.00     0.049 A 
ATOM     58  H   UNL A   1      43.039  28.071  31.870  1.00  0.00     0.167 HD
ATOM     59  C   UNL A   1      44.711  25.874  31.187  1.00  0.00     0.074 A 
ATOM     60  C   UNL A   1      45.232  24.710  30.501  1.00  0.00     0.031 C 
ATOM     61  C   UNL A   1      45.261  26.408  32.309  1.00  0.00     0.034 A 
BRANCH  48  62
ATOM     62  C   UNL A   1      42.241  31.390  34.467  1.00  0.00     0.023 A 
ATOM     63  C   UNL A   1      41.312  31.409  35.524  1.00  0.00     0.031 A 
ATOM     64  C   UNL A   1      43.100  32.497  34.334  1.00  0.00     0.131 A 
ATOM     65  C   UNL A   1      41.200  32.544  36.342  1.00  0.00     0.055 A 
ATOM     66  C   UNL A   1      43.048  33.582  35.212  1.00  0.00     0.041 A 
ATOM     67  F   UNL A   1      43.992  32.553  33.333  1.00  0.00    -0.206 F 
ATOM     68  C   UNL A   1      42.081  33.619  36.212  1.00  0.00     0.022 A 
BRANCH  65  69
ATOM     69  S   UNL A   1      39.775  32.669  37.458  1.00  0.00     0.124 S 
ATOM     70  O   UNL A   1      39.010  31.478  37.094  1.00  0.00    -0.237 OA
ATOM     71  O   UNL A   1      40.402  32.648  38.774  1.00  0.00    -0.237 OA
ATOM     72  O   UNL A   1      39.155  33.937  37.081  1.00  0.00    -0.744 OA
ENDBRANCH  65  69
ENDBRANCH  48  62
BRANCH  49  73
ATOM     73  C   UNL A   1      42.451  24.311  27.357  1.00  0.00     0.023 A 
ATOM     74  C   UNL A   1      41.763  23.095  27.508  1.00  0.00     0.031 A 
ATOM     75  C   UNL A   1      43.228  24.486  26.198  1.00  0.00     0.131 A 
ATOM     76  C   UNL A   1      41.911  22.083  26.548  1.00  0.00     0.055 A 
ATOM     77  C   UNL A   1      43.324  23.499  25.216  1.00  0.00     0.041 A 
ATOM     78  F   UNL A   1      43.902  25.630  26.000  1.00  0.00    -0.206 F 
ATOM     79  C   UNL A   1      42.674  22.282  25.396  1.00  0.00     0.022 A 
BRANCH  76  80
ATOM     80  S   UNL A   1      41.163  20.462  26.874  1.00  0.00     0.124 S 
ATOM     81  O   UNL A   1      42.232  19.556  26.469  1.00  0.00    -0.237 OA
ATOM     82  O   UNL A   1      40.890  20.536  28.305  1.00  0.00    -0.237 OA
ATOM     83  O   UNL A   1      39.980  20.455  26.016  1.00  0.00    -0.744 OA
ENDBRANCH  76  80
ENDBRANCH  49  73
BRANCH  61  84
ATOM     84  C   UNL A   1      46.448  25.686  32.904  1.00  0.00     0.023 A 
ATOM     85  C   UNL A   1      47.765  25.928  32.476  1.00  0.00     0.031 A 
ATOM     86  C   UNL A   1      46.249  24.714  33.904  1.00  0.00     0.131 A 
ATOM     87  C   UNL A   1      48.819  25.156  32.987  1.00  0.00     0.055 A 
ATOM     88  C   UNL A   1      47.311  24.004  34.464  1.00  0.00     0.041 A 
ATOM     89  F   UNL A   1      45.014  24.437  34.351  1.00  0.00    -0.206 F 
ATOM     90  C   UNL A   1      48.604  24.210  33.992  1.00  0.00     0.022 A 
BRANCH  87  91
ATOM     91  S   UNL A   1      50.459  25.309  32.224  1.00  0.00     0.124 S 
ATOM     92  O   UNL A   1      51.239  24.338  32.985  1.00  0.00    -0.237 OA
ATOM     93  O   UNL A   1      50.187  24.960  30.833  1.00  0.00    -0.237 OA
ATOM     94  O   UNL A   1      50.814  26.708  32.454  1.00  0.00    -0.744 OA
ENDBRANCH  87  91
ENDBRANCH  61  84
ENDBRANCH  35  36
ENDBRANCH  27  30
ENDBRANCH  25  26
ENDBRANCH  24  25
ENDBRANCH   1  24
TORSDOF 18
ENDMDL
