MODEL 1
REMARK VINA RESULT:     -12.8      0.000      0.000
REMARK SMILES O=C(NCCCCNC(=O)c1cccnc1Nc1cccc(C(F)(F)F)c1)c1ccc(-c2c3nc(c(-c4cc(S(=O)(=O)[O-])ccc4F)c4ccc([nH]4)c(-c4cc(S(=O)(=O)[O-])ccc4F)c4nc(c(-c5cc(S(=O)(=O)[O-])ccc5F)c5ccc2[nH]5)C=C4)C=C3)cc1
REMARK SMILES IDX 5 1 4 2 3 3 1 4 2 5 28 7 29 8 90 9 30 10 89 11 31 12 32 13
REMARK SMILES IDX 33 14 83 15 34 16 88 17 82 18 84 19 35 20 87 21 81 22 80 23
REMARK SMILES IDX 36 25 68 26 48 27 67 28 49 29 52 30 66 31 85 32 50 33 51 34
REMARK SMILES IDX 65 36 86 37 53 38 37 39 38 40 46 41 39 42 45 43 47 44 44 45
REMARK SMILES IDX 40 46 41 47 42 48 43 49 69 50 70 51 78 52 71 53 77 54 79 55
REMARK SMILES IDX 76 56 72 57 73 58 74 59 75 60 54 61 55 62 63 63 56 64 62 65
REMARK SMILES IDX 64 66 61 67 57 68 58 69 59 70 60 71 6 72 7 73 8 74 9 75
REMARK SMILES IDX 10 77 11 78 12 79 16 80 13 81 15 82 14 83 17 84 18 86 19 87
REMARK SMILES IDX 27 88 20 89 22 90 21 91 23 92 24 93 25 94 26 95
REMARK H PARENT 3 6 84 24 52 35 8 76 17 85
REMARK Flexibility Score: inf
ROOT
ATOM      1  C   UNL A   1      31.423  31.890  26.484  1.00  0.00     0.023 C 
ENDROOT
BRANCH   1   2
ATOM      2  C   UNL A   1      32.620  32.446  27.244  1.00  0.00     0.116 C 
BRANCH   2   3
ATOM      3  N   UNL A   1      32.448  33.839  27.621  1.00  0.00    -0.352 N 
ATOM      4  O   UNL A   1      32.755  35.697  28.858  1.00  0.00    -0.269 OA
ATOM      5  C   UNL A   1      33.135  34.567  28.563  1.00  0.00     0.251 C 
ATOM      6  H   UNL A   1      31.744  34.327  27.138  1.00  0.00     0.163 HD
BRANCH   5   7
ATOM      7  C   UNL A   1      34.317  33.979  29.226  1.00  0.00     0.039 A 
ATOM      8  C   UNL A   1      34.165  33.108  30.310  1.00  0.00     0.014 A 
ATOM      9  C   UNL A   1      35.594  34.291  28.750  1.00  0.00     0.014 A 
ATOM     10  C   UNL A   1      35.286  32.642  30.988  1.00  0.00     0.010 A 
ATOM     11  C   UNL A   1      36.719  33.760  29.385  1.00  0.00     0.010 A 
ATOM     12  C   UNL A   1      36.575  32.943  30.517  1.00  0.00    -0.014 A 
BRANCH  12  13
ATOM     13  C   UNL A   1      37.754  32.308  31.157  1.00  0.00     0.031 A 
ATOM     14  C   UNL A   1      38.483  31.173  30.495  1.00  0.00     0.074 A 
ATOM     15  C   UNL A   1      38.149  32.767  32.362  1.00  0.00     0.049 A 
ATOM     16  N   UNL A   1      39.499  30.480  30.940  1.00  0.00    -0.248 NA
ATOM     17  C   UNL A   1      38.006  30.756  29.168  1.00  0.00     0.031 C 
ATOM     18  C   UNL A   1      37.504  33.861  33.096  1.00  0.00     0.029 A 
ATOM     19  N   UNL A   1      39.174  32.379  33.185  1.00  0.00    -0.354 N 
ATOM     20  C   UNL A   1      39.774  29.530  29.962  1.00  0.00     0.074 A 
ATOM     21  C   UNL A   1      38.803  29.729  28.905  1.00  0.00     0.031 C 
ATOM     22  C   UNL A   1      38.156  34.064  34.248  1.00  0.00     0.029 A 
ATOM     23  C   UNL A   1      39.216  33.072  34.373  1.00  0.00     0.049 A 
ATOM     24  H   UNL A   1      39.817  31.671  32.950  1.00  0.00     0.167 HD
ATOM     25  C   UNL A   1      40.746  28.584  29.956  1.00  0.00     0.034 A 
ATOM     26  C   UNL A   1      39.991  32.902  35.462  1.00  0.00     0.034 A 
ATOM     27  C   UNL A   1      41.709  28.417  31.018  1.00  0.00     0.049 A 
ATOM     28  C   UNL A   1      41.025  31.809  35.444  1.00  0.00     0.074 A 
ATOM     29  C   UNL A   1      42.790  27.553  31.070  1.00  0.00     0.029 A 
ATOM     30  N   UNL A   1      41.696  29.108  32.223  1.00  0.00    -0.354 N 
ATOM     31  N   UNL A   1      41.310  30.961  34.483  1.00  0.00    -0.248 NA
ATOM     32  C   UNL A   1      41.837  31.646  36.656  1.00  0.00     0.031 C 
ATOM     33  C   UNL A   1      43.381  27.666  32.334  1.00  0.00     0.029 A 
ATOM     34  C   UNL A   1      42.716  28.651  33.045  1.00  0.00     0.049 A 
ATOM     35  H   UNL A   1      41.057  29.819  32.459  1.00  0.00     0.167 HD
ATOM     36  C   UNL A   1      42.345  30.171  34.973  1.00  0.00     0.074 A 
ATOM     37  C   UNL A   1      42.648  30.660  36.303  1.00  0.00     0.031 C 
ATOM     38  C   UNL A   1      42.986  29.133  34.378  1.00  0.00     0.034 A 
BRANCH  25  39
ATOM     39  C   UNL A   1      40.791  27.622  28.796  1.00  0.00     0.023 A 
ATOM     40  C   UNL A   1      41.757  27.718  27.781  1.00  0.00     0.031 A 
ATOM     41  C   UNL A   1      39.863  26.566  28.725  1.00  0.00     0.131 A 
ATOM     42  C   UNL A   1      41.748  26.801  26.716  1.00  0.00     0.055 A 
ATOM     43  C   UNL A   1      39.897  25.621  27.698  1.00  0.00     0.041 A 
ATOM     44  F   UNL A   1      38.907  26.435  29.658  1.00  0.00    -0.206 F 
ATOM     45  C   UNL A   1      40.838  25.740  26.681  1.00  0.00     0.022 A 
BRANCH  42  46
ATOM     46  S   UNL A   1      42.881  27.068  25.325  1.00  0.00     0.124 S 
ATOM     47  O   UNL A   1      42.800  25.788  24.626  1.00  0.00    -0.237 OA
ATOM     48  O   UNL A   1      42.278  28.207  24.642  1.00  0.00    -0.237 OA
ATOM     49  O   UNL A   1      44.163  27.337  25.972  1.00  0.00    -0.744 OA
ENDBRANCH  42  46
ENDBRANCH  25  39
BRANCH  26  50
ATOM     50  C   UNL A   1      39.772  33.735  36.677  1.00  0.00     0.023 A 
ATOM     51  C   UNL A   1      39.176  33.199  37.828  1.00  0.00     0.031 A 
ATOM     52  C   UNL A   1      40.121  35.099  36.690  1.00  0.00     0.131 A 
ATOM     53  C   UNL A   1      38.906  34.031  38.927  1.00  0.00     0.055 A 
ATOM     54  C   UNL A   1      39.905  35.907  37.805  1.00  0.00     0.041 A 
ATOM     55  F   UNL A   1      40.695  35.663  35.614  1.00  0.00    -0.206 F 
ATOM     56  C   UNL A   1      39.280  35.378  38.928  1.00  0.00     0.022 A 
BRANCH  53  57
ATOM     57  S   UNL A   1      37.965  33.350  40.319  1.00  0.00     0.124 S 
ATOM     58  O   UNL A   1      38.751  32.169  40.661  1.00  0.00    -0.237 OA
ATOM     59  O   UNL A   1      38.008  34.449  41.277  1.00  0.00    -0.237 OA
ATOM     60  O   UNL A   1      36.651  33.079  39.741  1.00  0.00    -0.744 OA
ENDBRANCH  53  57
ENDBRANCH  26  50
BRANCH  38  61
ATOM     61  C   UNL A   1      44.090  28.479  35.167  1.00  0.00     0.023 A 
ATOM     62  C   UNL A   1      43.833  27.397  36.027  1.00  0.00     0.031 A 
ATOM     63  C   UNL A   1      45.410  28.950  35.068  1.00  0.00     0.131 A 
ATOM     64  C   UNL A   1      44.875  26.851  36.791  1.00  0.00     0.055 A 
ATOM     65  C   UNL A   1      46.453  28.366  35.788  1.00  0.00     0.041 A 
ATOM     66  F   UNL A   1      45.707  29.983  34.263  1.00  0.00    -0.206 F 
ATOM     67  C   UNL A   1      46.186  27.318  36.664  1.00  0.00     0.022 A 
BRANCH  64  68
ATOM     68  S   UNL A   1      44.481  25.565  38.008  1.00  0.00     0.124 S 
ATOM     69  O   UNL A   1      43.784  26.329  39.039  1.00  0.00    -0.237 OA
ATOM     70  O   UNL A   1      43.660  24.640  37.234  1.00  0.00    -0.237 OA
ATOM     71  O   UNL A   1      45.793  25.049  38.397  1.00  0.00    -0.744 OA
ENDBRANCH  64  68
ENDBRANCH  38  61
ENDBRANCH  12  13
ENDBRANCH   5   7
ENDBRANCH   2   3
ENDBRANCH   1   2
BRANCH   1  72
ATOM     72  C   UNL A   1      31.510  30.408  26.122  1.00  0.00     0.023 C 
BRANCH  72  73
ATOM     73  C   UNL A   1      32.927  29.866  25.945  1.00  0.00     0.116 C 
BRANCH  73  74
ATOM     74  N   UNL A   1      33.278  29.703  24.544  1.00  0.00    -0.352 N 
ATOM     75  C   UNL A   1      33.478  28.550  23.830  1.00  0.00     0.255 C 
ATOM     76  H   UNL A   1      33.387  30.540  24.035  1.00  0.00     0.163 HD
ATOM     77  O   UNL A   1      34.027  28.592  22.733  1.00  0.00    -0.269 OA
BRANCH  75  78
ATOM     78  C   UNL A   1      33.061  27.247  24.378  1.00  0.00     0.082 A 
ATOM     79  C   UNL A   1      33.789  26.660  25.422  1.00  0.00     0.019 A 
ATOM     80  C   UNL A   1      31.891  26.628  23.921  1.00  0.00     0.143 A 
ATOM     81  C   UNL A   1      33.400  25.425  25.916  1.00  0.00     0.021 A 
ATOM     82  N   UNL A   1      31.521  25.414  24.407  1.00  0.00    -0.238 NA
ATOM     83  C   UNL A   1      32.274  24.840  25.370  1.00  0.00     0.113 A 
BRANCH  80  84
ATOM     84  N   UNL A   1      31.122  27.205  22.887  1.00  0.00    -0.340 N 
ATOM     85  H   UNL A   1      31.510  27.169  21.983  1.00  0.00     0.168 HD
BRANCH  84  86
ATOM     86  C   UNL A   1      29.864  27.823  23.000  1.00  0.00     0.040 A 
ATOM     87  C   UNL A   1      28.780  27.096  23.501  1.00  0.00     0.026 A 
ATOM     88  C   UNL A   1      29.643  29.122  22.529  1.00  0.00     0.039 A 
ATOM     89  C   UNL A   1      27.512  27.676  23.584  1.00  0.00     0.003 A 
ATOM     90  C   UNL A   1      28.372  29.712  22.582  1.00  0.00     0.058 A 
ATOM     91  C   UNL A   1      27.309  28.979  23.128  1.00  0.00     0.013 A 
BRANCH  90  92
ATOM     92  C   UNL A   1      28.148  31.105  22.058  1.00  0.00     0.416 C 
ATOM     93  F   UNL A   1      29.300  31.835  22.008  1.00  0.00    -0.166 F 
ATOM     94  F   UNL A   1      27.653  31.115  20.788  1.00  0.00    -0.166 F 
ATOM     95  F   UNL A   1      27.278  31.848  22.801  1.00  0.00    -0.166 F 
ENDBRANCH  90  92
ENDBRANCH  84  86
ENDBRANCH  80  84
ENDBRANCH  75  78
ENDBRANCH  73  74
ENDBRANCH  72  73
ENDBRANCH   1  72
TORSDOF 17
ENDMDL
MODEL 2
REMARK VINA RESULT:     -12.6      1.327      1.620
REMARK SMILES O=C(NCCCCNC(=O)c1cccnc1Nc1cccc(C(F)(F)F)c1)c1ccc(-c2c3nc(c(-c4cc(S(=O)(=O)[O-])ccc4F)c4ccc([nH]4)c(-c4cc(S(=O)(=O)[O-])ccc4F)c4nc(c(-c5cc(S(=O)(=O)[O-])ccc5F)c5ccc2[nH]5)C=C4)C=C3)cc1
REMARK SMILES IDX 5 1 4 2 3 3 1 4 2 5 28 7 29 8 90 9 30 10 89 11 31 12 32 13
REMARK SMILES IDX 33 14 83 15 34 16 88 17 82 18 84 19 35 20 87 21 81 22 80 23
REMARK SMILES IDX 36 25 68 26 48 27 67 28 49 29 52 30 66 31 85 32 50 33 51 34
REMARK SMILES IDX 65 36 86 37 53 38 37 39 38 40 46 41 39 42 45 43 47 44 44 45
REMARK SMILES IDX 40 46 41 47 42 48 43 49 69 50 70 51 78 52 71 53 77 54 79 55
REMARK SMILES IDX 76 56 72 57 73 58 74 59 75 60 54 61 55 62 63 63 56 64 62 65
REMARK SMILES IDX 64 66 61 67 57 68 58 69 59 70 60 71 6 72 7 73 8 74 9 75
REMARK SMILES IDX 10 77 11 78 12 79 16 80 13 81 15 82 14 83 17 84 18 86 19 87
REMARK SMILES IDX 27 88 20 89 22 90 21 91 23 92 24 93 25 94 26 95
REMARK H PARENT 3 6 84 24 52 35 8 76 17 85
REMARK Flexibility Score: inf
ROOT
ATOM      1  C   UNL A   1      31.387  31.864  26.512  1.00  0.00     0.023 C 
ENDROOT
BRANCH   1   2
ATOM      2  C   UNL A   1      32.699  32.487  26.971  1.00  0.00     0.116 C 
BRANCH   2   3
ATOM      3  N   UNL A   1      32.526  33.826  27.510  1.00  0.00    -0.352 N 
ATOM      4  O   UNL A   1      32.834  35.526  28.956  1.00  0.00    -0.269 OA
ATOM      5  C   UNL A   1      33.215  34.440  28.528  1.00  0.00     0.251 C 
ATOM      6  H   UNL A   1      31.820  34.366  27.089  1.00  0.00     0.163 HD
BRANCH   5   7
ATOM      7  C   UNL A   1      34.399  33.779  29.115  1.00  0.00     0.039 A 
ATOM      8  C   UNL A   1      35.689  34.222  28.803  1.00  0.00     0.014 A 
ATOM      9  C   UNL A   1      34.218  32.710  29.998  1.00  0.00     0.014 A 
ATOM     10  C   UNL A   1      36.795  33.528  29.282  1.00  0.00     0.010 A 
ATOM     11  C   UNL A   1      35.331  32.062  30.540  1.00  0.00     0.010 A 
ATOM     12  C   UNL A   1      36.628  32.457  30.175  1.00  0.00    -0.014 A 
BRANCH  12  13
ATOM     13  C   UNL A   1      37.821  31.831  30.798  1.00  0.00     0.031 A 
ATOM     14  C   UNL A   1      38.626  30.793  30.070  1.00  0.00     0.074 A 
ATOM     15  C   UNL A   1      38.158  32.208  32.048  1.00  0.00     0.049 A 
ATOM     16  N   UNL A   1      39.666  30.118  30.489  1.00  0.00    -0.248 NA
ATOM     17  C   UNL A   1      38.209  30.465  28.698  1.00  0.00     0.031 C 
ATOM     18  C   UNL A   1      37.436  33.203  32.848  1.00  0.00     0.029 A 
ATOM     19  N   UNL A   1      39.179  31.805  32.870  1.00  0.00    -0.354 N 
ATOM     20  C   UNL A   1      40.016  29.268  29.445  1.00  0.00     0.074 A 
ATOM     21  C   UNL A   1      39.066  29.504  28.378  1.00  0.00     0.031 C 
ATOM     22  C   UNL A   1      38.045  33.343  34.033  1.00  0.00     0.029 A 
ATOM     23  C   UNL A   1      39.152  32.399  34.110  1.00  0.00     0.049 A 
ATOM     24  H   UNL A   1      39.864  31.153  32.598  1.00  0.00     0.167 HD
ATOM     25  C   UNL A   1      41.037  28.375  29.393  1.00  0.00     0.034 A 
ATOM     26  C   UNL A   1      39.905  32.178  35.206  1.00  0.00     0.034 A 
ATOM     27  C   UNL A   1      41.978  28.169  30.469  1.00  0.00     0.049 A 
ATOM     28  C   UNL A   1      40.995  31.144  35.132  1.00  0.00     0.074 A 
ATOM     29  C   UNL A   1      43.101  27.360  30.484  1.00  0.00     0.029 A 
ATOM     30  N   UNL A   1      41.896  28.756  31.725  1.00  0.00    -0.354 N 
ATOM     31  N   UNL A   1      41.351  30.394  34.115  1.00  0.00    -0.248 NA
ATOM     32  C   UNL A   1      41.781  30.922  36.352  1.00  0.00     0.031 C 
ATOM     33  C   UNL A   1      43.651  27.397  31.770  1.00  0.00     0.029 A 
ATOM     34  C   UNL A   1      42.915  28.285  32.538  1.00  0.00     0.049 A 
ATOM     35  H   UNL A   1      41.214  29.412  31.997  1.00  0.00     0.167 HD
ATOM     36  C   UNL A   1      42.412  29.619  34.571  1.00  0.00     0.074 A 
ATOM     37  C   UNL A   1      42.652  30.010  35.945  1.00  0.00     0.031 C 
ATOM     38  C   UNL A   1      43.123  28.668  33.914  1.00  0.00     0.034 A 
BRANCH  25  39
ATOM     39  C   UNL A   1      41.165  27.516  28.161  1.00  0.00     0.023 A 
ATOM     40  C   UNL A   1      40.818  26.155  28.157  1.00  0.00     0.031 A 
ATOM     41  C   UNL A   1      41.617  28.084  26.955  1.00  0.00     0.131 A 
ATOM     42  C   UNL A   1      40.968  25.397  26.984  1.00  0.00     0.055 A 
ATOM     43  C   UNL A   1      41.705  27.342  25.776  1.00  0.00     0.041 A 
ATOM     44  F   UNL A   1      41.979  29.375  26.904  1.00  0.00    -0.206 F 
ATOM     45  C   UNL A   1      41.387  25.988  25.788  1.00  0.00     0.022 A 
BRANCH  42  46
ATOM     46  S   UNL A   1      40.698  23.605  27.062  1.00  0.00     0.124 S 
ATOM     47  O   UNL A   1      39.244  23.519  26.962  1.00  0.00    -0.237 OA
ATOM     48  O   UNL A   1      41.447  23.124  25.907  1.00  0.00    -0.237 OA
ATOM     49  O   UNL A   1      41.251  23.231  28.363  1.00  0.00    -0.744 OA
ENDBRANCH  42  46
ENDBRANCH  25  39
BRANCH  26  50
ATOM     50  C   UNL A   1      39.609  32.895  36.477  1.00  0.00     0.023 A 
ATOM     51  C   UNL A   1      38.708  32.370  37.416  1.00  0.00     0.031 A 
ATOM     52  C   UNL A   1      40.195  34.145  36.755  1.00  0.00     0.131 A 
ATOM     53  C   UNL A   1      38.386  33.110  38.565  1.00  0.00     0.055 A 
ATOM     54  C   UNL A   1      39.918  34.848  37.926  1.00  0.00     0.041 A 
ATOM     55  F   UNL A   1      41.065  34.693  35.890  1.00  0.00    -0.206 F 
ATOM     56  C   UNL A   1      38.996  34.339  38.833  1.00  0.00     0.022 A 
BRANCH  53  57
ATOM     57  S   UNL A   1      37.080  32.489  39.657  1.00  0.00     0.124 S 
ATOM     58  O   UNL A   1      37.477  31.096  39.836  1.00  0.00    -0.237 OA
ATOM     59  O   UNL A   1      37.227  33.353  40.824  1.00  0.00    -0.237 OA
ATOM     60  O   UNL A   1      35.860  32.695  38.880  1.00  0.00    -0.744 OA
ENDBRANCH  53  57
ENDBRANCH  26  50
BRANCH  38  61
ATOM     61  C   UNL A   1      44.238  28.007  34.681  1.00  0.00     0.023 A 
ATOM     62  C   UNL A   1      44.064  26.750  35.289  1.00  0.00     0.031 A 
ATOM     63  C   UNL A   1      45.482  28.645  34.818  1.00  0.00     0.131 A 
ATOM     64  C   UNL A   1      45.104  26.192  36.046  1.00  0.00     0.055 A 
ATOM     65  C   UNL A   1      46.533  28.059  35.525  1.00  0.00     0.041 A 
ATOM     66  F   UNL A   1      45.698  29.847  34.261  1.00  0.00    -0.206 F 
ATOM     67  C   UNL A   1      46.343  26.831  36.153  1.00  0.00     0.022 A 
BRANCH  64  68
ATOM     68  S   UNL A   1      44.795  24.650  36.948  1.00  0.00     0.124 S 
ATOM     69  O   UNL A   1      44.570  25.135  38.306  1.00  0.00    -0.237 OA
ATOM     70  O   UNL A   1      43.625  24.113  36.260  1.00  0.00    -0.237 OA
ATOM     71  O   UNL A   1      46.027  23.888  36.756  1.00  0.00    -0.744 OA
ENDBRANCH  64  68
ENDBRANCH  38  61
ENDBRANCH  12  13
ENDBRANCH   5   7
ENDBRANCH   2   3
ENDBRANCH   1   2
BRANCH   1  72
ATOM     72  C   UNL A   1      31.479  30.406  26.062  1.00  0.00     0.023 C 
BRANCH  72  73
ATOM     73  C   UNL A   1      32.898  29.856  25.933  1.00  0.00     0.116 C 
BRANCH  73  74
ATOM     74  N   UNL A   1      33.305  29.716  24.544  1.00  0.00    -0.352 N 
ATOM     75  C   UNL A   1      33.545  28.575  23.824  1.00  0.00     0.255 C 
ATOM     76  H   UNL A   1      33.423  30.561  24.052  1.00  0.00     0.163 HD
ATOM     77  O   UNL A   1      34.136  28.637  22.749  1.00  0.00    -0.269 OA
BRANCH  75  78
ATOM     78  C   UNL A   1      33.123  27.260  24.338  1.00  0.00     0.082 A 
ATOM     79  C   UNL A   1      33.892  26.607  25.310  1.00  0.00     0.019 A 
ATOM     80  C   UNL A   1      31.910  26.695  23.924  1.00  0.00     0.143 A 
ATOM     81  C   UNL A   1      33.496  25.361  25.772  1.00  0.00     0.021 A 
ATOM     82  N   UNL A   1      31.532  25.470  24.378  1.00  0.00    -0.238 NA
ATOM     83  C   UNL A   1      32.323  24.833  25.269  1.00  0.00     0.113 A 
BRANCH  80  84
ATOM     84  N   UNL A   1      31.100  27.338  22.964  1.00  0.00    -0.340 N 
ATOM     85  H   UNL A   1      31.454  27.372  22.046  1.00  0.00     0.168 HD
BRANCH  84  86
ATOM     86  C   UNL A   1      29.844  27.936  23.168  1.00  0.00     0.040 A 
ATOM     87  C   UNL A   1      28.725  27.130  23.402  1.00  0.00     0.026 A 
ATOM     88  C   UNL A   1      29.663  29.318  23.044  1.00  0.00     0.039 A 
ATOM     89  C   UNL A   1      27.460  27.699  23.566  1.00  0.00     0.003 A 
ATOM     90  C   UNL A   1      28.396  29.904  23.181  1.00  0.00     0.058 A 
ATOM     91  C   UNL A   1      27.297  29.080  23.458  1.00  0.00     0.013 A 
BRANCH  90  92
ATOM     92  C   UNL A   1      28.216  31.392  23.030  1.00  0.00     0.416 C 
ATOM     93  F   UNL A   1      28.127  31.776  21.724  1.00  0.00    -0.166 F 
ATOM     94  F   UNL A   1      27.076  31.844  23.624  1.00  0.00    -0.166 F 
ATOM     95  F   UNL A   1      29.230  32.133  23.561  1.00  0.00    -0.166 F 
ENDBRANCH  90  92
ENDBRANCH  84  86
ENDBRANCH  80  84
ENDBRANCH  75  78
ENDBRANCH  73  74
ENDBRANCH  72  73
ENDBRANCH   1  72
TORSDOF 17
ENDMDL
MODEL 3
REMARK VINA RESULT:     -12.4      6.960     11.879
REMARK SMILES O=C(NCCCCNC(=O)c1cccnc1Nc1cccc(C(F)(F)F)c1)c1ccc(-c2c3nc(c(-c4cc(S(=O)(=O)[O-])ccc4F)c4ccc([nH]4)c(-c4cc(S(=O)(=O)[O-])ccc4F)c4nc(c(-c5cc(S(=O)(=O)[O-])ccc5F)c5ccc2[nH]5)C=C4)C=C3)cc1
REMARK SMILES IDX 5 1 4 2 3 3 1 4 2 5 28 7 29 8 90 9 30 10 89 11 31 12 32 13
REMARK SMILES IDX 33 14 83 15 34 16 88 17 82 18 84 19 35 20 87 21 81 22 80 23
REMARK SMILES IDX 36 25 68 26 48 27 67 28 49 29 52 30 66 31 85 32 50 33 51 34
REMARK SMILES IDX 65 36 86 37 53 38 37 39 38 40 46 41 39 42 45 43 47 44 44 45
REMARK SMILES IDX 40 46 41 47 42 48 43 49 69 50 70 51 78 52 71 53 77 54 79 55
REMARK SMILES IDX 76 56 72 57 73 58 74 59 75 60 54 61 55 62 63 63 56 64 62 65
REMARK SMILES IDX 64 66 61 67 57 68 58 69 59 70 60 71 6 72 7 73 8 74 9 75
REMARK SMILES IDX 10 77 11 78 12 79 16 80 13 81 15 82 14 83 17 84 18 86 19 87
REMARK SMILES IDX 27 88 20 89 22 90 21 91 23 92 24 93 25 94 26 95
REMARK H PARENT 3 6 84 24 52 35 8 76 17 85
REMARK Flexibility Score: inf
ROOT
ATOM      1  C   UNL A   1      37.762  19.665  24.856  1.00  0.00     0.023 C 
ENDROOT
BRANCH   1   2
ATOM      2  C   UNL A   1      38.867  20.205  25.755  1.00  0.00     0.116 C 
BRANCH   2   3
ATOM      3  N   UNL A   1      39.989  19.288  25.877  1.00  0.00    -0.352 N 
ATOM      4  O   UNL A   1      42.152  18.683  26.051  1.00  0.00    -0.269 OA
ATOM      5  C   UNL A   1      41.309  19.572  26.131  1.00  0.00     0.251 C 
ATOM      6  H   UNL A   1      39.774  18.335  25.762  1.00  0.00     0.163 HD
BRANCH   5   7
ATOM      7  C   UNL A   1      41.709  20.951  26.481  1.00  0.00     0.039 A 
ATOM      8  C   UNL A   1      41.962  21.303  27.810  1.00  0.00     0.014 A 
ATOM      9  C   UNL A   1      41.844  21.901  25.464  1.00  0.00     0.014 A 
ATOM     10  C   UNL A   1      42.238  22.626  28.137  1.00  0.00     0.010 A 
ATOM     11  C   UNL A   1      42.198  23.214  25.786  1.00  0.00     0.010 A 
ATOM     12  C   UNL A   1      42.383  23.590  27.126  1.00  0.00    -0.014 A 
BRANCH  12  13
ATOM     13  C   UNL A   1      42.833  24.960  27.480  1.00  0.00     0.031 A 
ATOM     14  C   UNL A   1      41.900  25.944  28.127  1.00  0.00     0.074 A 
ATOM     15  C   UNL A   1      44.104  25.307  27.193  1.00  0.00     0.049 A 
ATOM     16  N   UNL A   1      42.122  27.190  28.457  1.00  0.00    -0.248 NA
ATOM     17  C   UNL A   1      40.542  25.472  28.436  1.00  0.00     0.031 C 
ATOM     18  C   UNL A   1      45.091  24.428  26.556  1.00  0.00     0.029 A 
ATOM     19  N   UNL A   1      44.786  26.480  27.386  1.00  0.00    -0.354 N 
ATOM     20  C   UNL A   1      40.928  27.663  28.992  1.00  0.00     0.074 A 
ATOM     21  C   UNL A   1      39.980  26.569  28.928  1.00  0.00     0.031 C 
ATOM     22  C   UNL A   1      46.251  25.086  26.428  1.00  0.00     0.029 A 
ATOM     23  C   UNL A   1      46.073  26.453  26.902  1.00  0.00     0.049 A 
ATOM     24  H   UNL A   1      44.392  27.267  27.829  1.00  0.00     0.167 HD
ATOM     25  C   UNL A   1      40.658  28.896  29.488  1.00  0.00     0.034 A 
ATOM     26  C   UNL A   1      46.997  27.430  26.806  1.00  0.00     0.034 A 
ATOM     27  C   UNL A   1      41.627  29.965  29.552  1.00  0.00     0.049 A 
ATOM     28  C   UNL A   1      46.647  28.801  27.316  1.00  0.00     0.074 A 
ATOM     29  C   UNL A   1      41.484  31.221  30.118  1.00  0.00     0.029 A 
ATOM     30  N   UNL A   1      42.906  29.916  29.014  1.00  0.00    -0.354 N 
ATOM     31  N   UNL A   1      45.533  29.211  27.876  1.00  0.00    -0.248 NA
ATOM     32  C   UNL A   1      47.674  29.841  27.177  1.00  0.00     0.031 C 
ATOM     33  C   UNL A   1      42.646  31.955  29.853  1.00  0.00     0.029 A 
ATOM     34  C   UNL A   1      43.543  31.135  29.187  1.00  0.00     0.049 A 
ATOM     35  H   UNL A   1      43.304  29.129  28.575  1.00  0.00     0.167 HD
ATOM     36  C   UNL A   1      45.732  30.557  28.168  1.00  0.00     0.074 A 
ATOM     37  C   UNL A   1      47.079  30.880  27.745  1.00  0.00     0.031 C 
ATOM     38  C   UNL A   1      44.877  31.446  28.734  1.00  0.00     0.034 A 
BRANCH  25  39
ATOM     39  C   UNL A   1      39.252  29.181  29.953  1.00  0.00     0.023 A 
ATOM     40  C   UNL A   1      38.338  29.909  29.172  1.00  0.00     0.031 A 
ATOM     41  C   UNL A   1      38.811  28.685  31.193  1.00  0.00     0.131 A 
ATOM     42  C   UNL A   1      37.043  30.156  29.659  1.00  0.00     0.055 A 
ATOM     43  C   UNL A   1      37.504  28.880  31.645  1.00  0.00     0.041 A 
ATOM     44  F   UNL A   1      39.645  27.998  31.988  1.00  0.00    -0.206 F 
ATOM     45  C   UNL A   1      36.614  29.626  30.879  1.00  0.00     0.022 A 
BRANCH  42  46
ATOM     46  S   UNL A   1      35.954  31.260  28.718  1.00  0.00     0.124 S 
ATOM     47  O   UNL A   1      36.893  32.279  28.256  1.00  0.00    -0.237 OA
ATOM     48  O   UNL A   1      35.418  30.375  27.692  1.00  0.00    -0.237 OA
ATOM     49  O   UNL A   1      34.987  31.719  29.714  1.00  0.00    -0.744 OA
ENDBRANCH  42  46
ENDBRANCH  25  39
BRANCH  26  50
ATOM     50  C   UNL A   1      48.304  27.165  26.141  1.00  0.00     0.023 A 
ATOM     51  C   UNL A   1      48.481  27.391  24.769  1.00  0.00     0.031 A 
ATOM     52  C   UNL A   1      49.389  26.640  26.868  1.00  0.00     0.131 A 
ATOM     53  C   UNL A   1      49.698  27.053  24.156  1.00  0.00     0.055 A 
ATOM     54  C   UNL A   1      50.616  26.361  26.267  1.00  0.00     0.041 A 
ATOM     55  F   UNL A   1      49.274  26.404  28.186  1.00  0.00    -0.206 F 
ATOM     56  C   UNL A   1      50.771  26.553  24.899  1.00  0.00     0.022 A 
BRANCH  53  57
ATOM     57  S   UNL A   1      49.826  27.180  22.353  1.00  0.00     0.124 S 
ATOM     58  O   UNL A   1      49.571  28.600  22.135  1.00  0.00    -0.237 OA
ATOM     59  O   UNL A   1      51.193  26.731  22.115  1.00  0.00    -0.237 OA
ATOM     60  O   UNL A   1      48.781  26.278  21.873  1.00  0.00    -0.744 OA
ENDBRANCH  53  57
ENDBRANCH  26  50
BRANCH  38  61
ATOM     61  C   UNL A   1      45.395  32.846  28.938  1.00  0.00     0.023 A 
ATOM     62  C   UNL A   1      45.102  33.876  28.027  1.00  0.00     0.031 A 
ATOM     63  C   UNL A   1      46.202  33.151  30.048  1.00  0.00     0.131 A 
ATOM     64  C   UNL A   1      45.651  35.152  28.217  1.00  0.00     0.055 A 
ATOM     65  C   UNL A   1      46.698  34.437  30.262  1.00  0.00     0.041 A 
ATOM     66  F   UNL A   1      46.514  32.202  30.946  1.00  0.00    -0.206 F 
ATOM     67  C   UNL A   1      46.433  35.443  29.338  1.00  0.00     0.022 A 
BRANCH  64  68
ATOM     68  S   UNL A   1      45.386  36.413  26.941  1.00  0.00     0.124 S 
ATOM     69  O   UNL A   1      43.994  36.178  26.569  1.00  0.00    -0.237 OA
ATOM     70  O   UNL A   1      45.653  37.653  27.663  1.00  0.00    -0.237 OA
ATOM     71  O   UNL A   1      46.369  36.073  25.914  1.00  0.00    -0.744 OA
ENDBRANCH  64  68
ENDBRANCH  38  61
ENDBRANCH  12  13
ENDBRANCH   5   7
ENDBRANCH   2   3
ENDBRANCH   1   2
BRANCH   1  72
ATOM     72  C   UNL A   1      36.460  20.465  24.872  1.00  0.00     0.023 C 
BRANCH  72  73
ATOM     73  C   UNL A   1      36.470  21.703  25.766  1.00  0.00     0.116 C 
BRANCH  73  74
ATOM     74  N   UNL A   1      35.442  21.645  26.791  1.00  0.00    -0.352 N 
ATOM     75  C   UNL A   1      34.290  22.380  26.905  1.00  0.00     0.255 C 
ATOM     76  H   UNL A   1      35.594  20.983  27.505  1.00  0.00     0.163 HD
ATOM     77  O   UNL A   1      33.670  22.394  27.965  1.00  0.00    -0.269 OA
BRANCH  75  78
ATOM     78  C   UNL A   1      33.794  23.179  25.770  1.00  0.00     0.082 A 
ATOM     79  C   UNL A   1      34.344  24.441  25.510  1.00  0.00     0.019 A 
ATOM     80  C   UNL A   1      32.837  22.650  24.897  1.00  0.00     0.143 A 
ATOM     81  C   UNL A   1      33.856  25.193  24.451  1.00  0.00     0.021 A 
ATOM     82  N   UNL A   1      32.360  23.396  23.865  1.00  0.00    -0.238 NA
ATOM     83  C   UNL A   1      32.862  24.636  23.671  1.00  0.00     0.113 A 
BRANCH  80  84
ATOM     84  N   UNL A   1      32.281  21.371  25.117  1.00  0.00    -0.340 N 
ATOM     85  H   UNL A   1      31.647  21.294  25.867  1.00  0.00     0.168 HD
BRANCH  84  86
ATOM     86  C   UNL A   1      32.527  20.194  24.389  1.00  0.00     0.040 A 
ATOM     87  C   UNL A   1      32.144  20.120  23.046  1.00  0.00     0.026 A 
ATOM     88  C   UNL A   1      33.059  19.053  25.000  1.00  0.00     0.039 A 
ATOM     89  C   UNL A   1      32.341  18.947  22.313  1.00  0.00     0.003 A 
ATOM     90  C   UNL A   1      33.241  17.860  24.286  1.00  0.00     0.058 A 
ATOM     91  C   UNL A   1      32.889  17.823  22.930  1.00  0.00     0.013 A 
BRANCH  90  92
ATOM     92  C   UNL A   1      33.801  16.636  24.963  1.00  0.00     0.416 C 
ATOM     93  F   UNL A   1      33.375  16.514  26.253  1.00  0.00    -0.166 F 
ATOM     94  F   UNL A   1      33.431  15.480  24.344  1.00  0.00    -0.166 F 
ATOM     95  F   UNL A   1      35.162  16.606  25.023  1.00  0.00    -0.166 F 
ENDBRANCH  90  92
ENDBRANCH  84  86
ENDBRANCH  80  84
ENDBRANCH  75  78
ENDBRANCH  73  74
ENDBRANCH  72  73
ENDBRANCH   1  72
TORSDOF 17
ENDMDL
