MODEL 1
REMARK VINA RESULT:     -11.6      0.000      0.000
REMARK SMILES Cc1nsc(NC(=O)CC2([NH3+])CCC2)c1C(=O)NCCCCNC(=O)c1ccc(-c2c3nc(c(-c4cc(S(=O)(=O)[O-])ccc4F)c4ccc([nH]4)c(-c4cc(S(=O)(=O)[O-])ccc4F)c4nc(c(-c5cc(S(=O)(=O)[O-])ccc5F)c5ccc2[nH]5)C=C4)C=C3)cc1
REMARK SMILES IDX 20 1 19 2 18 3 16 4 17 5 15 7 1 8 2 9 3 10 4 11 5 12 6 13
REMARK SMILES IDX 7 14 8 16 9 17 10 18 12 19 14 20 13 21 11 22 21 26 22 27
REMARK SMILES IDX 23 28 24 29 25 31 26 32 27 33 88 34 28 35 87 36 29 37 30 38
REMARK SMILES IDX 31 39 81 40 32 41 86 42 80 43 82 44 33 45 85 46 79 47 78 48
REMARK SMILES IDX 34 50 66 51 46 52 65 53 47 54 50 55 64 56 83 57 48 58 49 59
REMARK SMILES IDX 63 61 84 62 51 63 35 64 36 65 44 66 37 67 43 68 45 69 42 70
REMARK SMILES IDX 38 71 39 72 40 73 41 74 67 75 68 76 76 77 69 78 75 79 77 80
REMARK SMILES IDX 74 81 70 82 71 83 72 84 73 85 52 86 53 87 61 88 54 89 60 90
REMARK SMILES IDX 62 91 59 92 55 93 56 94 57 95 58 96
REMARK H PARENT 18 6 6 15 11 23 11 24 11 25 23 30 82 49 50 60
REMARK Flexibility Score: inf
ROOT
ATOM      1  C   UNL A   1      35.995  21.604  25.284  1.00  0.00     0.023 C 
ENDROOT
BRANCH   1   2
ATOM      2  C   UNL A   1      34.517  21.234  25.184  1.00  0.00     0.116 C 
BRANCH   2   3
ATOM      3  N   UNL A   1      33.807  21.674  24.017  1.00  0.00    -0.352 N 
ATOM      4  C   UNL A   1      32.980  22.757  23.815  1.00  0.00     0.256 C 
ATOM      5  O   UNL A   1      32.467  22.788  22.690  1.00  0.00    -0.269 OA
ATOM      6  H   UNL A   1      33.933  21.104  23.224  1.00  0.00     0.163 HD
BRANCH   4   7
ATOM      7  C   UNL A   1      32.656  23.821  24.797  1.00  0.00     0.097 A 
ATOM      8  C   UNL A   1      31.175  22.871  26.862  1.00  0.00     0.069 C 
ATOM      9  C   UNL A   1      31.946  23.882  26.087  1.00  0.00     0.066 A 
ATOM     10  N   UNL A   1      31.962  25.065  26.707  1.00  0.00    -0.195 NA
ATOM     11  S   UNL A   1      32.862  26.119  25.857  1.00  0.00    -0.017 S 
ATOM     12  C   UNL A   1      33.040  25.141  24.492  1.00  0.00     0.129 A 
BRANCH  12  13
ATOM     13  N   UNL A   1      33.580  25.638  23.317  1.00  0.00    -0.316 N 
ATOM     14  C   UNL A   1      33.030  26.414  22.332  1.00  0.00     0.231 C 
ATOM     15  H   UNL A   1      34.521  25.391  23.164  1.00  0.00     0.170 HD
ATOM     16  O   UNL A   1      33.732  26.674  21.345  1.00  0.00    -0.274 OA
BRANCH  14  17
ATOM     17  C   UNL A   1      31.583  26.869  22.337  1.00  0.00     0.168 C 
BRANCH  17  18
ATOM     18  C   UNL A   1      31.360  28.342  22.680  1.00  0.00     0.103 C 
ATOM     19  C   UNL A   1      30.155  29.186  22.166  1.00  0.00     0.069 C 
ATOM     20  C   UNL A   1      30.870  28.637  24.129  1.00  0.00     0.069 C 
ATOM     21  C   UNL A   1      29.946  29.739  23.584  1.00  0.00     0.013 C 
BRANCH  18  22
ATOM     22  N   UNL A   1      32.577  29.151  22.467  1.00  0.00    -0.352 N 
ATOM     23  H   UNL A   1      32.338  29.996  21.949  1.00  0.00     0.344 HD
ATOM     24  H   UNL A   1      33.258  28.609  21.936  1.00  0.00     0.344 HD
ATOM     25  H   UNL A   1      32.977  29.408  23.369  1.00  0.00     0.344 HD
ENDBRANCH  18  22
ENDBRANCH  17  18
ENDBRANCH  14  17
ENDBRANCH  12  13
ENDBRANCH   4   7
ENDBRANCH   2   3
ENDBRANCH   1   2
BRANCH   1  26
ATOM     26  C   UNL A   1      37.043  20.535  24.978  1.00  0.00     0.023 C 
BRANCH  26  27
ATOM     27  C   UNL A   1      38.466  20.877  25.394  1.00  0.00     0.116 C 
BRANCH  27  28
ATOM     28  N   UNL A   1      39.332  19.715  25.578  1.00  0.00    -0.352 N 
ATOM     29  C   UNL A   1      40.687  19.727  25.888  1.00  0.00     0.251 C 
ATOM     30  H   UNL A   1      38.913  18.831  25.470  1.00  0.00     0.163 HD
ATOM     31  O   UNL A   1      41.388  18.756  25.653  1.00  0.00    -0.269 OA
BRANCH  29  32
ATOM     32  C   UNL A   1      41.252  20.945  26.514  1.00  0.00     0.039 A 
ATOM     33  C   UNL A   1      41.789  21.987  25.753  1.00  0.00     0.014 A 
ATOM     34  C   UNL A   1      41.200  21.038  27.903  1.00  0.00     0.014 A 
ATOM     35  C   UNL A   1      42.187  23.157  26.404  1.00  0.00     0.010 A 
ATOM     36  C   UNL A   1      41.453  22.235  28.525  1.00  0.00     0.010 A 
ATOM     37  C   UNL A   1      41.994  23.284  27.793  1.00  0.00    -0.014 A 
BRANCH  37  38
ATOM     38  C   UNL A   1      42.185  24.560  28.479  1.00  0.00     0.031 A 
ATOM     39  C   UNL A   1      41.048  25.500  28.290  1.00  0.00     0.074 A 
ATOM     40  C   UNL A   1      43.159  24.792  29.388  1.00  0.00     0.049 A 
ATOM     41  N   UNL A   1      41.018  26.546  27.535  1.00  0.00    -0.248 NA
ATOM     42  C   UNL A   1      39.726  25.132  28.830  1.00  0.00     0.031 C 
ATOM     43  C   UNL A   1      44.159  23.850  29.903  1.00  0.00     0.029 A 
ATOM     44  N   UNL A   1      43.407  25.909  30.130  1.00  0.00    -0.354 N 
ATOM     45  C   UNL A   1      39.772  27.128  27.737  1.00  0.00     0.074 A 
ATOM     46  C   UNL A   1      38.957  26.097  28.319  1.00  0.00     0.031 C 
ATOM     47  C   UNL A   1      44.741  24.360  31.014  1.00  0.00     0.029 A 
ATOM     48  C   UNL A   1      44.276  25.724  31.210  1.00  0.00     0.049 A 
ATOM     49  H   UNL A   1      43.003  26.782  29.920  1.00  0.00     0.167 HD
ATOM     50  C   UNL A   1      39.618  28.482  27.668  1.00  0.00     0.034 A 
ATOM     51  C   UNL A   1      44.576  26.616  32.198  1.00  0.00     0.034 A 
ATOM     52  C   UNL A   1      40.793  29.092  27.077  1.00  0.00     0.049 A 
ATOM     53  C   UNL A   1      44.241  27.962  31.666  1.00  0.00     0.074 A 
ATOM     54  C   UNL A   1      41.461  28.948  25.875  1.00  0.00     0.029 A 
ATOM     55  N   UNL A   1      41.690  29.704  27.927  1.00  0.00    -0.354 N 
ATOM     56  N   UNL A   1      44.879  28.513  30.672  1.00  0.00    -0.248 NA
ATOM     57  C   UNL A   1      42.892  28.459  31.887  1.00  0.00     0.031 C 
ATOM     58  C   UNL A   1      42.845  28.999  26.220  1.00  0.00     0.029 A 
ATOM     59  C   UNL A   1      42.951  29.285  27.582  1.00  0.00     0.049 A 
ATOM     60  H   UNL A   1      41.466  30.330  28.652  1.00  0.00     0.167 HD
ATOM     61  C   UNL A   1      43.888  29.065  29.876  1.00  0.00     0.074 A 
ATOM     62  C   UNL A   1      42.692  29.082  30.720  1.00  0.00     0.031 C 
ATOM     63  C   UNL A   1      44.052  29.173  28.522  1.00  0.00     0.034 A 
BRANCH  50  64
ATOM     64  C   UNL A   1      38.630  29.300  28.477  1.00  0.00     0.023 A 
ATOM     65  C   UNL A   1      38.873  29.384  29.863  1.00  0.00     0.031 A 
ATOM     66  C   UNL A   1      37.356  29.738  28.057  1.00  0.00     0.131 A 
ATOM     67  C   UNL A   1      37.852  29.732  30.761  1.00  0.00     0.055 A 
ATOM     68  C   UNL A   1      36.362  30.154  28.952  1.00  0.00     0.041 A 
ATOM     69  F   UNL A   1      36.959  29.716  26.781  1.00  0.00    -0.206 F 
ATOM     70  C   UNL A   1      36.593  30.115  30.315  1.00  0.00     0.022 A 
BRANCH  67  71
ATOM     71  S   UNL A   1      38.154  29.486  32.529  1.00  0.00     0.124 S 
ATOM     72  O   UNL A   1      37.542  30.685  33.093  1.00  0.00    -0.237 OA
ATOM     73  O   UNL A   1      37.461  28.227  32.778  1.00  0.00    -0.237 OA
ATOM     74  O   UNL A   1      39.611  29.425  32.616  1.00  0.00    -0.744 OA
ENDBRANCH  67  71
ENDBRANCH  50  64
BRANCH  51  75
ATOM     75  C   UNL A   1      44.842  26.370  33.650  1.00  0.00     0.023 A 
ATOM     76  C   UNL A   1      43.870  26.575  34.662  1.00  0.00     0.031 A 
ATOM     77  C   UNL A   1      45.996  25.651  34.029  1.00  0.00     0.131 A 
ATOM     78  C   UNL A   1      44.072  26.060  35.970  1.00  0.00     0.055 A 
ATOM     79  C   UNL A   1      46.185  25.139  35.316  1.00  0.00     0.041 A 
ATOM     80  F   UNL A   1      46.944  25.338  33.132  1.00  0.00    -0.206 F 
ATOM     81  C   UNL A   1      45.218  25.329  36.290  1.00  0.00     0.022 A 
BRANCH  78  82
ATOM     82  S   UNL A   1      42.795  26.236  37.266  1.00  0.00     0.124 S 
ATOM     83  O   UNL A   1      43.594  26.284  38.485  1.00  0.00    -0.237 OA
ATOM     84  O   UNL A   1      42.119  27.470  36.884  1.00  0.00    -0.237 OA
ATOM     85  O   UNL A   1      41.984  25.027  37.114  1.00  0.00    -0.744 OA
ENDBRANCH  78  82
ENDBRANCH  51  75
BRANCH  63  86
ATOM     86  C   UNL A   1      45.444  28.994  27.944  1.00  0.00     0.023 A 
ATOM     87  C   UNL A   1      46.443  29.994  27.870  1.00  0.00     0.031 A 
ATOM     88  C   UNL A   1      45.794  27.698  27.523  1.00  0.00     0.131 A 
ATOM     89  C   UNL A   1      47.723  29.678  27.369  1.00  0.00     0.055 A 
ATOM     90  C   UNL A   1      47.068  27.384  27.056  1.00  0.00     0.041 A 
ATOM     91  F   UNL A   1      44.900  26.698  27.585  1.00  0.00    -0.206 F 
ATOM     92  C   UNL A   1      48.035  28.376  26.968  1.00  0.00     0.022 A 
BRANCH  89  93
ATOM     93  S   UNL A   1      49.003  30.963  27.184  1.00  0.00     0.124 S 
ATOM     94  O   UNL A   1      49.460  31.196  28.549  1.00  0.00    -0.237 OA
ATOM     95  O   UNL A   1      49.964  30.323  26.290  1.00  0.00    -0.237 OA
ATOM     96  O   UNL A   1      48.273  32.084  26.587  1.00  0.00    -0.744 OA
ENDBRANCH  89  93
ENDBRANCH  63  86
ENDBRANCH  37  38
ENDBRANCH  29  32
ENDBRANCH  27  28
ENDBRANCH  26  27
ENDBRANCH   1  26
TORSDOF 18
ENDMDL
MODEL 2
REMARK VINA RESULT:     -11.6      1.233      1.455
REMARK SMILES Cc1nsc(NC(=O)CC2([NH3+])CCC2)c1C(=O)NCCCCNC(=O)c1ccc(-c2c3nc(c(-c4cc(S(=O)(=O)[O-])ccc4F)c4ccc([nH]4)c(-c4cc(S(=O)(=O)[O-])ccc4F)c4nc(c(-c5cc(S(=O)(=O)[O-])ccc5F)c5ccc2[nH]5)C=C4)C=C3)cc1
REMARK SMILES IDX 20 1 19 2 18 3 16 4 17 5 15 7 1 8 2 9 3 10 4 11 5 12 6 13
REMARK SMILES IDX 7 14 8 16 9 17 10 18 12 19 14 20 13 21 11 22 21 26 22 27
REMARK SMILES IDX 23 28 24 29 25 31 26 32 27 33 88 34 28 35 87 36 29 37 30 38
REMARK SMILES IDX 31 39 81 40 32 41 86 42 80 43 82 44 33 45 85 46 79 47 78 48
REMARK SMILES IDX 34 50 66 51 46 52 65 53 47 54 50 55 64 56 83 57 48 58 49 59
REMARK SMILES IDX 63 61 84 62 51 63 35 64 36 65 44 66 37 67 43 68 45 69 42 70
REMARK SMILES IDX 38 71 39 72 40 73 41 74 67 75 68 76 76 77 69 78 75 79 77 80
REMARK SMILES IDX 74 81 70 82 71 83 72 84 73 85 52 86 53 87 61 88 54 89 60 90
REMARK SMILES IDX 62 91 59 92 55 93 56 94 57 95 58 96
REMARK H PARENT 18 6 6 15 11 23 11 24 11 25 23 30 82 49 50 60
REMARK Flexibility Score: inf
ROOT
ATOM      1  C   UNL A   1      35.998  21.590  25.314  1.00  0.00     0.023 C 
ENDROOT
BRANCH   1   2
ATOM      2  C   UNL A   1      34.534  21.192  25.135  1.00  0.00     0.116 C 
BRANCH   2   3
ATOM      3  N   UNL A   1      33.863  21.673  23.960  1.00  0.00    -0.352 N 
ATOM      4  C   UNL A   1      33.025  22.750  23.773  1.00  0.00     0.256 C 
ATOM      5  O   UNL A   1      32.556  22.823  22.631  1.00  0.00    -0.269 OA
ATOM      6  H   UNL A   1      34.030  21.141  23.149  1.00  0.00     0.163 HD
BRANCH   4   7
ATOM      7  C   UNL A   1      32.643  23.763  24.787  1.00  0.00     0.097 A 
ATOM      8  C   UNL A   1      31.082  22.702  26.737  1.00  0.00     0.069 C 
ATOM      9  C   UNL A   1      31.874  23.757  26.045  1.00  0.00     0.066 A 
ATOM     10  N   UNL A   1      31.848  24.910  26.719  1.00  0.00    -0.195 NA
ATOM     11  S   UNL A   1      32.772  26.012  25.960  1.00  0.00    -0.017 S 
ATOM     12  C   UNL A   1      33.023  25.101  24.561  1.00  0.00     0.129 A 
BRANCH  12  13
ATOM     13  N   UNL A   1      33.610  25.657  23.437  1.00  0.00    -0.316 N 
ATOM     14  C   UNL A   1      33.090  26.456  22.454  1.00  0.00     0.231 C 
ATOM     15  H   UNL A   1      34.564  25.442  23.325  1.00  0.00     0.170 HD
ATOM     16  O   UNL A   1      33.834  26.774  21.516  1.00  0.00    -0.274 OA
BRANCH  14  17
ATOM     17  C   UNL A   1      31.632  26.873  22.399  1.00  0.00     0.168 C 
BRANCH  17  18
ATOM     18  C   UNL A   1      31.359  28.346  22.702  1.00  0.00     0.103 C 
ATOM     19  C   UNL A   1      30.143  29.143  22.139  1.00  0.00     0.069 C 
ATOM     20  C   UNL A   1      30.826  28.660  24.131  1.00  0.00     0.069 C 
ATOM     21  C   UNL A   1      29.884  29.722  23.539  1.00  0.00     0.013 C 
BRANCH  18  22
ATOM     22  N   UNL A   1      32.557  29.185  22.498  1.00  0.00    -0.352 N 
ATOM     23  H   UNL A   1      32.901  29.063  21.546  1.00  0.00     0.344 HD
ATOM     24  H   UNL A   1      33.282  28.909  23.160  1.00  0.00     0.344 HD
ATOM     25  H   UNL A   1      32.316  30.165  22.649  1.00  0.00     0.344 HD
ENDBRANCH  18  22
ENDBRANCH  17  18
ENDBRANCH  14  17
ENDBRANCH  12  13
ENDBRANCH   4   7
ENDBRANCH   2   3
ENDBRANCH   1   2
BRANCH   1  26
ATOM     26  C   UNL A   1      37.083  20.573  24.964  1.00  0.00     0.023 C 
BRANCH  26  27
ATOM     27  C   UNL A   1      38.475  20.898  25.485  1.00  0.00     0.116 C 
BRANCH  27  28
ATOM     28  N   UNL A   1      39.346  19.734  25.634  1.00  0.00    -0.352 N 
ATOM     29  C   UNL A   1      40.708  19.744  25.909  1.00  0.00     0.251 C 
ATOM     30  H   UNL A   1      38.925  18.851  25.528  1.00  0.00     0.163 HD
ATOM     31  O   UNL A   1      41.403  18.776  25.646  1.00  0.00    -0.269 OA
BRANCH  29  32
ATOM     32  C   UNL A   1      41.289  20.955  26.533  1.00  0.00     0.039 A 
ATOM     33  C   UNL A   1      41.865  21.976  25.772  1.00  0.00     0.014 A 
ATOM     34  C   UNL A   1      41.212  21.064  27.920  1.00  0.00     0.014 A 
ATOM     35  C   UNL A   1      42.278  23.143  26.419  1.00  0.00     0.010 A 
ATOM     36  C   UNL A   1      41.481  22.262  28.534  1.00  0.00     0.010 A 
ATOM     37  C   UNL A   1      42.060  23.290  27.802  1.00  0.00    -0.014 A 
BRANCH  37  38
ATOM     38  C   UNL A   1      42.268  24.569  28.478  1.00  0.00     0.031 A 
ATOM     39  C   UNL A   1      41.152  25.529  28.267  1.00  0.00     0.074 A 
ATOM     40  C   UNL A   1      43.236  24.791  29.397  1.00  0.00     0.049 A 
ATOM     41  N   UNL A   1      41.151  26.567  27.501  1.00  0.00    -0.248 NA
ATOM     42  C   UNL A   1      39.817  25.191  28.794  1.00  0.00     0.031 C 
ATOM     43  C   UNL A   1      44.211  23.835  29.932  1.00  0.00     0.029 A 
ATOM     44  N   UNL A   1      43.496  25.910  30.131  1.00  0.00    -0.354 N 
ATOM     45  C   UNL A   1      39.914  27.176  27.683  1.00  0.00     0.074 A 
ATOM     46  C   UNL A   1      39.073  26.166  28.264  1.00  0.00     0.031 C 
ATOM     47  C   UNL A   1      44.789  24.345  31.046  1.00  0.00     0.029 A 
ATOM     48  C   UNL A   1      44.348  25.719  31.223  1.00  0.00     0.049 A 
ATOM     49  H   UNL A   1      43.112  26.789  29.908  1.00  0.00     0.167 HD
ATOM     50  C   UNL A   1      39.787  28.531  27.599  1.00  0.00     0.034 A 
ATOM     51  C   UNL A   1      44.654  26.615  32.206  1.00  0.00     0.034 A 
ATOM     52  C   UNL A   1      40.981  29.113  27.017  1.00  0.00     0.049 A 
ATOM     53  C   UNL A   1      44.351  27.961  31.658  1.00  0.00     0.074 A 
ATOM     54  C   UNL A   1      41.660  28.944  25.824  1.00  0.00     0.029 A 
ATOM     55  N   UNL A   1      41.879  29.716  27.871  1.00  0.00    -0.354 N 
ATOM     56  N   UNL A   1      45.012  28.491  30.666  1.00  0.00    -0.248 NA
ATOM     57  C   UNL A   1      43.009  28.487  31.857  1.00  0.00     0.031 C 
ATOM     58  C   UNL A   1      43.041  28.972  26.185  1.00  0.00     0.029 A 
ATOM     59  C   UNL A   1      43.136  29.270  27.546  1.00  0.00     0.049 A 
ATOM     60  H   UNL A   1      41.659  30.353  28.588  1.00  0.00     0.167 HD
ATOM     61  C   UNL A   1      44.041  29.053  29.852  1.00  0.00     0.074 A 
ATOM     62  C   UNL A   1      42.836  29.102  30.682  1.00  0.00     0.031 C 
ATOM     63  C   UNL A   1      44.223  29.146  28.500  1.00  0.00     0.034 A 
BRANCH  50  64
ATOM     64  C   UNL A   1      38.806  29.376  28.388  1.00  0.00     0.023 A 
ATOM     65  C   UNL A   1      39.017  29.444  29.780  1.00  0.00     0.031 A 
ATOM     66  C   UNL A   1      37.557  29.856  27.940  1.00  0.00     0.131 A 
ATOM     67  C   UNL A   1      37.985  29.820  30.655  1.00  0.00     0.055 A 
ATOM     68  C   UNL A   1      36.555  30.299  28.812  1.00  0.00     0.041 A 
ATOM     69  F   UNL A   1      37.192  29.854  26.654  1.00  0.00    -0.206 F 
ATOM     70  C   UNL A   1      36.750  30.245  30.180  1.00  0.00     0.022 A 
BRANCH  67  71
ATOM     71  S   UNL A   1      38.234  29.555  32.428  1.00  0.00     0.124 S 
ATOM     72  O   UNL A   1      37.113  28.678  32.746  1.00  0.00    -0.237 OA
ATOM     73  O   UNL A   1      39.560  28.947  32.456  1.00  0.00    -0.237 OA
ATOM     74  O   UNL A   1      38.153  30.903  32.985  1.00  0.00    -0.744 OA
ENDBRANCH  67  71
ENDBRANCH  50  64
BRANCH  51  75
ATOM     75  C   UNL A   1      44.898  26.378  33.664  1.00  0.00     0.023 A 
ATOM     76  C   UNL A   1      43.907  26.576  34.658  1.00  0.00     0.031 A 
ATOM     77  C   UNL A   1      46.054  25.674  34.065  1.00  0.00     0.131 A 
ATOM     78  C   UNL A   1      44.092  26.069  35.971  1.00  0.00     0.055 A 
ATOM     79  C   UNL A   1      46.226  25.169  35.358  1.00  0.00     0.041 A 
ATOM     80  F   UNL A   1      47.020  25.367  33.186  1.00  0.00    -0.206 F 
ATOM     81  C   UNL A   1      45.240  25.352  36.314  1.00  0.00     0.022 A 
BRANCH  78  82
ATOM     82  S   UNL A   1      42.791  26.236  37.245  1.00  0.00     0.124 S 
ATOM     83  O   UNL A   1      43.566  26.260  38.480  1.00  0.00    -0.237 OA
ATOM     84  O   UNL A   1      42.132  27.480  36.867  1.00  0.00    -0.237 OA
ATOM     85  O   UNL A   1      41.974  25.035  37.060  1.00  0.00    -0.744 OA
ENDBRANCH  78  82
ENDBRANCH  51  75
BRANCH  63  86
ATOM     86  C   UNL A   1      45.618  28.934  27.940  1.00  0.00     0.023 A 
ATOM     87  C   UNL A   1      46.188  27.687  27.591  1.00  0.00     0.031 A 
ATOM     88  C   UNL A   1      46.374  30.090  27.668  1.00  0.00     0.131 A 
ATOM     89  C   UNL A   1      47.474  27.634  27.014  1.00  0.00     0.055 A 
ATOM     90  C   UNL A   1      47.632  30.035  27.072  1.00  0.00     0.041 A 
ATOM     91  F   UNL A   1      45.885  31.307  27.956  1.00  0.00    -0.206 F 
ATOM     92  C   UNL A   1      48.191  28.806  26.751  1.00  0.00     0.022 A 
BRANCH  89  93
ATOM     93  S   UNL A   1      48.268  26.038  26.631  1.00  0.00     0.124 S 
ATOM     94  O   UNL A   1      49.113  25.785  27.793  1.00  0.00    -0.237 OA
ATOM     95  O   UNL A   1      47.123  25.147  26.470  1.00  0.00    -0.237 OA
ATOM     96  O   UNL A   1      49.002  26.314  25.393  1.00  0.00    -0.744 OA
ENDBRANCH  89  93
ENDBRANCH  63  86
ENDBRANCH  37  38
ENDBRANCH  29  32
ENDBRANCH  27  28
ENDBRANCH  26  27
ENDBRANCH   1  26
TORSDOF 18
ENDMDL
MODEL 3
REMARK VINA RESULT:     -11.5      4.223      5.645
REMARK SMILES Cc1nsc(NC(=O)CC2([NH3+])CCC2)c1C(=O)NCCCCNC(=O)c1ccc(-c2c3nc(c(-c4cc(S(=O)(=O)[O-])ccc4F)c4ccc([nH]4)c(-c4cc(S(=O)(=O)[O-])ccc4F)c4nc(c(-c5cc(S(=O)(=O)[O-])ccc5F)c5ccc2[nH]5)C=C4)C=C3)cc1
REMARK SMILES IDX 20 1 19 2 18 3 16 4 17 5 15 7 1 8 2 9 3 10 4 11 5 12 6 13
REMARK SMILES IDX 7 14 8 16 9 17 10 18 12 19 14 20 13 21 11 22 21 26 22 27
REMARK SMILES IDX 23 28 24 29 25 31 26 32 27 33 88 34 28 35 87 36 29 37 30 38
REMARK SMILES IDX 31 39 81 40 32 41 86 42 80 43 82 44 33 45 85 46 79 47 78 48
REMARK SMILES IDX 34 50 66 51 46 52 65 53 47 54 50 55 64 56 83 57 48 58 49 59
REMARK SMILES IDX 63 61 84 62 51 63 35 64 36 65 44 66 37 67 43 68 45 69 42 70
REMARK SMILES IDX 38 71 39 72 40 73 41 74 67 75 68 76 76 77 69 78 75 79 77 80
REMARK SMILES IDX 74 81 70 82 71 83 72 84 73 85 52 86 53 87 61 88 54 89 60 90
REMARK SMILES IDX 62 91 59 92 55 93 56 94 57 95 58 96
REMARK H PARENT 18 6 6 15 11 23 11 24 11 25 23 30 82 49 50 60
REMARK Flexibility Score: inf
ROOT
ATOM      1  C   UNL A   1      36.821  23.407  24.787  1.00  0.00     0.023 C 
ENDROOT
BRANCH   1   2
ATOM      2  C   UNL A   1      35.508  24.174  24.923  1.00  0.00     0.116 C 
BRANCH   2   3
ATOM      3  N   UNL A   1      34.606  23.753  25.957  1.00  0.00    -0.352 N 
ATOM      4  C   UNL A   1      33.233  23.824  26.045  1.00  0.00     0.256 C 
ATOM      5  O   UNL A   1      32.783  23.433  27.129  1.00  0.00    -0.269 OA
ATOM      6  H   UNL A   1      35.044  23.345  26.739  1.00  0.00     0.163 HD
BRANCH   4   7
ATOM      7  C   UNL A   1      32.302  24.326  25.005  1.00  0.00     0.097 A 
ATOM      8  C   UNL A   1      32.865  23.292  22.561  1.00  0.00     0.069 C 
ATOM      9  C   UNL A   1      32.104  24.087  23.565  1.00  0.00     0.066 A 
ATOM     10  N   UNL A   1      31.053  24.697  23.010  1.00  0.00    -0.195 NA
ATOM     11  S   UNL A   1      30.220  25.502  24.151  1.00  0.00    -0.017 S 
ATOM     12  C   UNL A   1      31.365  25.310  25.376  1.00  0.00     0.129 A 
BRANCH  12  13
ATOM     13  N   UNL A   1      31.258  25.998  26.574  1.00  0.00    -0.316 N 
ATOM     14  C   UNL A   1      31.314  27.338  26.849  1.00  0.00     0.231 C 
ATOM     15  H   UNL A   1      31.118  25.425  27.363  1.00  0.00     0.170 HD
ATOM     16  O   UNL A   1      31.242  27.686  28.035  1.00  0.00    -0.274 OA
BRANCH  14  17
ATOM     17  C   UNL A   1      31.571  28.397  25.793  1.00  0.00     0.168 C 
BRANCH  17  18
ATOM     18  C   UNL A   1      32.969  29.015  25.810  1.00  0.00     0.103 C 
ATOM     19  C   UNL A   1      33.463  30.031  26.883  1.00  0.00     0.069 C 
ATOM     20  C   UNL A   1      34.124  28.071  26.259  1.00  0.00     0.069 C 
ATOM     21  C   UNL A   1      34.774  29.241  27.018  1.00  0.00     0.013 C 
BRANCH  18  22
ATOM     22  N   UNL A   1      33.350  29.558  24.490  1.00  0.00    -0.352 N 
ATOM     23  H   UNL A   1      34.355  29.450  24.354  1.00  0.00     0.344 HD
ATOM     24  H   UNL A   1      33.107  30.548  24.447  1.00  0.00     0.344 HD
ATOM     25  H   UNL A   1      32.852  29.054  23.757  1.00  0.00     0.344 HD
ENDBRANCH  18  22
ENDBRANCH  17  18
ENDBRANCH  14  17
ENDBRANCH  12  13
ENDBRANCH   4   7
ENDBRANCH   2   3
ENDBRANCH   1   2
BRANCH   1  26
ATOM     26  C   UNL A   1      37.653  23.145  26.043  1.00  0.00     0.023 C 
BRANCH  26  27
ATOM     27  C   UNL A   1      38.413  24.346  26.584  1.00  0.00     0.116 C 
BRANCH  27  28
ATOM     28  N   UNL A   1      39.740  24.529  25.999  1.00  0.00    -0.352 N 
ATOM     29  C   UNL A   1      40.537  25.664  26.083  1.00  0.00     0.251 C 
ATOM     30  H   UNL A   1      40.106  23.770  25.491  1.00  0.00     0.163 HD
ATOM     31  O   UNL A   1      41.429  25.859  25.273  1.00  0.00    -0.269 OA
BRANCH  29  32
ATOM     32  C   UNL A   1      40.278  26.623  27.182  1.00  0.00     0.039 A 
ATOM     33  C   UNL A   1      40.018  26.200  28.487  1.00  0.00     0.014 A 
ATOM     34  C   UNL A   1      40.337  27.982  26.877  1.00  0.00     0.014 A 
ATOM     35  C   UNL A   1      39.909  27.161  29.495  1.00  0.00     0.010 A 
ATOM     36  C   UNL A   1      40.376  28.914  27.884  1.00  0.00     0.010 A 
ATOM     37  C   UNL A   1      40.114  28.519  29.189  1.00  0.00    -0.014 A 
BRANCH  37  38
ATOM     38  C   UNL A   1      40.232  29.531  30.238  1.00  0.00     0.031 A 
ATOM     39  C   UNL A   1      38.967  30.276  30.476  1.00  0.00     0.074 A 
ATOM     40  C   UNL A   1      41.287  29.628  31.080  1.00  0.00     0.049 A 
ATOM     41  N   UNL A   1      38.695  31.484  30.115  1.00  0.00    -0.248 NA
ATOM     42  C   UNL A   1      37.794  29.540  30.982  1.00  0.00     0.031 C 
ATOM     43  C   UNL A   1      42.463  28.756  31.161  1.00  0.00     0.029 A 
ATOM     44  N   UNL A   1      41.489  30.482  32.123  1.00  0.00    -0.354 N 
ATOM     45  C   UNL A   1      37.424  31.755  30.611  1.00  0.00     0.074 A 
ATOM     46  C   UNL A   1      36.841  30.471  30.891  1.00  0.00     0.031 C 
ATOM     47  C   UNL A   1      43.125  28.984  32.320  1.00  0.00     0.029 A 
ATOM     48  C   UNL A   1      42.518  30.119  32.997  1.00  0.00     0.049 A 
ATOM     49  H   UNL A   1      40.949  31.296  32.252  1.00  0.00     0.167 HD
ATOM     50  C   UNL A   1      37.086  33.015  31.007  1.00  0.00     0.034 A 
ATOM     51  C   UNL A   1      42.837  30.696  34.193  1.00  0.00     0.034 A 
ATOM     52  C   UNL A   1      38.077  33.969  30.547  1.00  0.00     0.049 A 
ATOM     53  C   UNL A   1      42.257  32.062  34.169  1.00  0.00     0.074 A 
ATOM     54  C   UNL A   1      38.581  34.323  29.309  1.00  0.00     0.029 A 
ATOM     55  N   UNL A   1      38.998  34.428  31.465  1.00  0.00    -0.354 N 
ATOM     56  N   UNL A   1      42.671  32.996  33.359  1.00  0.00    -0.248 NA
ATOM     57  C   UNL A   1      40.899  32.230  34.664  1.00  0.00     0.031 C 
ATOM     58  C   UNL A   1      39.982  34.497  29.523  1.00  0.00     0.029 A 
ATOM     59  C   UNL A   1      40.241  34.357  30.887  1.00  0.00     0.049 A 
ATOM     60  H   UNL A   1      38.799  34.749  32.374  1.00  0.00     0.167 HD
ATOM     61  C   UNL A   1      41.514  33.593  32.883  1.00  0.00     0.074 A 
ATOM     62  C   UNL A   1      40.457  33.143  33.792  1.00  0.00     0.031 C 
ATOM     63  C   UNL A   1      41.469  34.145  31.633  1.00  0.00     0.034 A 
BRANCH  50  64
ATOM     64  C   UNL A   1      36.125  33.360  32.129  1.00  0.00     0.023 A 
ATOM     65  C   UNL A   1      34.999  34.129  31.774  1.00  0.00     0.031 A 
ATOM     66  C   UNL A   1      36.374  33.253  33.514  1.00  0.00     0.131 A 
ATOM     67  C   UNL A   1      34.281  34.857  32.737  1.00  0.00     0.055 A 
ATOM     68  C   UNL A   1      35.611  33.923  34.478  1.00  0.00     0.041 A 
ATOM     69  F   UNL A   1      37.406  32.571  34.020  1.00  0.00    -0.206 F 
ATOM     70  C   UNL A   1      34.583  34.762  34.091  1.00  0.00     0.022 A 
BRANCH  67  71
ATOM     71  S   UNL A   1      33.074  36.074  32.158  1.00  0.00     0.124 S 
ATOM     72  O   UNL A   1      33.452  37.246  32.940  1.00  0.00    -0.237 OA
ATOM     73  O   UNL A   1      33.365  36.128  30.729  1.00  0.00    -0.237 OA
ATOM     74  O   UNL A   1      31.791  35.470  32.512  1.00  0.00    -0.744 OA
ENDBRANCH  67  71
ENDBRANCH  50  64
BRANCH  51  75
ATOM     75  C   UNL A   1      43.335  30.057  35.451  1.00  0.00     0.023 A 
ATOM     76  C   UNL A   1      42.918  28.773  35.887  1.00  0.00     0.031 A 
ATOM     77  C   UNL A   1      44.461  30.603  36.104  1.00  0.00     0.131 A 
ATOM     78  C   UNL A   1      43.625  28.097  36.916  1.00  0.00     0.055 A 
ATOM     79  C   UNL A   1      45.158  29.929  37.112  1.00  0.00     0.041 A 
ATOM     80  F   UNL A   1      44.983  31.778  35.721  1.00  0.00    -0.206 F 
ATOM     81  C   UNL A   1      44.751  28.666  37.513  1.00  0.00     0.022 A 
BRANCH  78  82
ATOM     82  S   UNL A   1      43.159  26.407  37.434  1.00  0.00     0.124 S 
ATOM     83  O   UNL A   1      43.819  26.285  38.729  1.00  0.00    -0.237 OA
ATOM     84  O   UNL A   1      41.703  26.467  37.449  1.00  0.00    -0.237 OA
ATOM     85  O   UNL A   1      43.721  25.559  36.381  1.00  0.00    -0.744 OA
ENDBRANCH  78  82
ENDBRANCH  51  75
BRANCH  63  86
ATOM     86  C   UNL A   1      42.776  34.394  30.903  1.00  0.00     0.023 A 
ATOM     87  C   UNL A   1      43.334  33.564  29.901  1.00  0.00     0.031 A 
ATOM     88  C   UNL A   1      43.444  35.599  31.191  1.00  0.00     0.131 A 
ATOM     89  C   UNL A   1      44.526  33.946  29.251  1.00  0.00     0.055 A 
ATOM     90  C   UNL A   1      44.605  35.986  30.525  1.00  0.00     0.041 A 
ATOM     91  F   UNL A   1      42.958  36.442  32.116  1.00  0.00    -0.206 F 
ATOM     92  C   UNL A   1      45.156  35.156  29.559  1.00  0.00     0.022 A 
BRANCH  89  93
ATOM     93  S   UNL A   1      45.313  32.859  28.017  1.00  0.00     0.124 S 
ATOM     94  O   UNL A   1      44.208  32.457  27.154  1.00  0.00    -0.237 OA
ATOM     95  O   UNL A   1      46.308  33.739  27.411  1.00  0.00    -0.237 OA
ATOM     96  O   UNL A   1      45.875  31.777  28.830  1.00  0.00    -0.744 OA
ENDBRANCH  89  93
ENDBRANCH  63  86
ENDBRANCH  37  38
ENDBRANCH  29  32
ENDBRANCH  27  28
ENDBRANCH  26  27
ENDBRANCH   1  26
TORSDOF 18
ENDMDL
