MODEL 1
REMARK VINA RESULT:     -12.4      0.000      0.000
REMARK SMILES O=C(NCCCCNC(=O)c1cc2nn[nH]n2n1)c1ccc(-c2c3nc(c(-c4cc(S(=O)(=O)[O-])ccc4F)c4ccc([nH]4)c(-c4cc(S(=O)(=O)[O-])ccc4F)c4nc(c(-c5cc(S(=O)(=O)[O-])ccc5F)c5ccc2[nH]5)C=C4)C=C3)cc1
REMARK SMILES IDX 4 1 3 2 1 3 2 4 19 6 20 7 81 8 21 9 80 10 22 11 23 12 24 13
REMARK SMILES IDX 74 14 25 15 79 16 73 17 75 18 26 19 78 20 72 21 71 22 27 24
REMARK SMILES IDX 59 25 39 26 58 27 40 28 43 29 57 30 76 31 41 32 42 33 56 35
REMARK SMILES IDX 77 36 44 37 28 38 29 39 37 40 30 41 36 42 38 43 35 44 31 45
REMARK SMILES IDX 32 46 33 47 34 48 60 49 61 50 69 51 62 52 68 53 70 54 67 55
REMARK SMILES IDX 63 56 64 57 65 58 66 59 45 60 46 61 54 62 47 63 53 64 55 65
REMARK SMILES IDX 52 66 48 67 49 68 50 69 51 70 5 71 6 72 7 73 8 74 9 75 10 77
REMARK SMILES IDX 11 78 12 79 18 80 13 81 17 82 14 83 16 84 15 85
REMARK H PARENT 3 5 75 23 43 34 8 76 16 86
REMARK Flexibility Score: inf
ROOT
ATOM      1  C   UNL A   1      36.177  31.678  30.509  1.00  0.00     0.116 C 
ENDROOT
BRANCH   1   2
ATOM      2  N   UNL A   1      35.510  30.841  29.534  1.00  0.00    -0.352 N 
ATOM      3  O   UNL A   1      35.006  29.260  28.079  1.00  0.00    -0.269 OA
ATOM      4  C   UNL A   1      35.903  29.800  28.734  1.00  0.00     0.251 C 
ATOM      5  H   UNL A   1      34.559  31.071  29.421  1.00  0.00     0.163 HD
BRANCH   4   6
ATOM      6  C   UNL A   1      37.303  29.314  28.577  1.00  0.00     0.039 A 
ATOM      7  C   UNL A   1      38.154  29.626  27.517  1.00  0.00     0.014 A 
ATOM      8  C   UNL A   1      37.797  28.497  29.612  1.00  0.00     0.014 A 
ATOM      9  C   UNL A   1      39.444  29.097  27.462  1.00  0.00     0.010 A 
ATOM     10  C   UNL A   1      39.094  27.984  29.572  1.00  0.00     0.010 A 
ATOM     11  C   UNL A   1      39.918  28.273  28.486  1.00  0.00    -0.014 A 
BRANCH  11  12
ATOM     12  C   UNL A   1      41.330  27.878  28.451  1.00  0.00     0.031 A 
ATOM     13  C   UNL A   1      41.624  26.565  27.798  1.00  0.00     0.074 A 
ATOM     14  C   UNL A   1      42.356  28.679  28.799  1.00  0.00     0.049 A 
ATOM     15  N   UNL A   1      42.269  25.549  28.276  1.00  0.00    -0.248 NA
ATOM     16  C   UNL A   1      41.080  26.342  26.449  1.00  0.00     0.031 C 
ATOM     17  C   UNL A   1      42.299  30.097  29.153  1.00  0.00     0.029 A 
ATOM     18  N   UNL A   1      43.697  28.409  28.791  1.00  0.00    -0.354 N 
ATOM     19  C   UNL A   1      42.379  24.629  27.232  1.00  0.00     0.074 A 
ATOM     20  C   UNL A   1      41.530  25.118  26.175  1.00  0.00     0.031 C 
ATOM     21  C   UNL A   1      43.548  30.613  29.111  1.00  0.00     0.029 A 
ATOM     22  C   UNL A   1      44.497  29.543  28.849  1.00  0.00     0.049 A 
ATOM     23  H   UNL A   1      44.061  27.496  28.749  1.00  0.00     0.167 HD
ATOM     24  C   UNL A   1      43.286  23.611  27.243  1.00  0.00     0.034 A 
ATOM     25  C   UNL A   1      45.834  29.622  28.623  1.00  0.00     0.034 A 
ATOM     26  C   UNL A   1      43.745  23.320  28.577  1.00  0.00     0.049 A 
ATOM     27  C   UNL A   1      46.410  28.271  28.816  1.00  0.00     0.074 A 
ATOM     28  C   UNL A   1      43.124  22.953  29.756  1.00  0.00     0.029 A 
ATOM     29  N   UNL A   1      45.018  23.692  28.940  1.00  0.00    -0.354 N 
ATOM     30  N   UNL A   1      46.458  27.657  29.964  1.00  0.00    -0.248 NA
ATOM     31  C   UNL A   1      46.590  27.418  27.651  1.00  0.00     0.031 C 
ATOM     32  C   UNL A   1      43.861  23.614  30.781  1.00  0.00     0.029 A 
ATOM     33  C   UNL A   1      44.908  24.302  30.166  1.00  0.00     0.049 A 
ATOM     34  H   UNL A   1      45.843  23.551  28.424  1.00  0.00     0.167 HD
ATOM     35  C   UNL A   1      46.250  26.321  29.666  1.00  0.00     0.074 A 
ATOM     36  C   UNL A   1      46.459  26.220  28.225  1.00  0.00     0.031 C 
ATOM     37  C   UNL A   1      45.662  25.476  30.563  1.00  0.00     0.034 A 
BRANCH  24  38
ATOM     38  C   UNL A   1      43.960  23.044  26.013  1.00  0.00     0.023 A 
ATOM     39  C   UNL A   1      43.956  21.646  25.831  1.00  0.00     0.031 A 
ATOM     40  C   UNL A   1      44.830  23.769  25.167  1.00  0.00     0.131 A 
ATOM     41  C   UNL A   1      44.819  21.031  24.904  1.00  0.00     0.055 A 
ATOM     42  C   UNL A   1      45.632  23.160  24.197  1.00  0.00     0.041 A 
ATOM     43  F   UNL A   1      45.023  25.087  25.297  1.00  0.00    -0.206 F 
ATOM     44  C   UNL A   1      45.650  21.782  24.077  1.00  0.00     0.022 A 
BRANCH  41  45
ATOM     45  S   UNL A   1      44.974  19.224  24.926  1.00  0.00     0.124 S 
ATOM     46  O   UNL A   1      44.887  18.900  23.507  1.00  0.00    -0.237 OA
ATOM     47  O   UNL A   1      46.279  19.042  25.551  1.00  0.00    -0.237 OA
ATOM     48  O   UNL A   1      43.832  18.796  25.732  1.00  0.00    -0.744 OA
ENDBRANCH  41  45
ENDBRANCH  24  38
BRANCH  25  49
ATOM     49  C   UNL A   1      46.569  30.744  27.982  1.00  0.00     0.023 A 
ATOM     50  C   UNL A   1      45.948  31.660  27.110  1.00  0.00     0.031 A 
ATOM     51  C   UNL A   1      47.879  31.060  28.409  1.00  0.00     0.131 A 
ATOM     52  C   UNL A   1      46.637  32.822  26.694  1.00  0.00     0.055 A 
ATOM     53  C   UNL A   1      48.562  32.199  27.981  1.00  0.00     0.041 A 
ATOM     54  F   UNL A   1      48.511  30.312  29.329  1.00  0.00    -0.206 F 
ATOM     55  C   UNL A   1      47.940  33.090  27.124  1.00  0.00     0.022 A 
BRANCH  52  56
ATOM     56  S   UNL A   1      45.799  34.067  25.662  1.00  0.00     0.124 S 
ATOM     57  O   UNL A   1      44.929  33.246  24.831  1.00  0.00    -0.237 OA
ATOM     58  O   UNL A   1      45.143  34.908  26.657  1.00  0.00    -0.237 OA
ATOM     59  O   UNL A   1      46.901  34.714  24.948  1.00  0.00    -0.744 OA
ENDBRANCH  52  56
ENDBRANCH  25  49
BRANCH  37  60
ATOM     60  C   UNL A   1      45.539  25.913  32.008  1.00  0.00     0.023 A 
ATOM     61  C   UNL A   1      44.372  26.466  32.581  1.00  0.00     0.031 A 
ATOM     62  C   UNL A   1      46.618  25.640  32.869  1.00  0.00     0.131 A 
ATOM     63  C   UNL A   1      44.322  26.739  33.961  1.00  0.00     0.055 A 
ATOM     64  C   UNL A   1      46.558  25.893  34.240  1.00  0.00     0.041 A 
ATOM     65  F   UNL A   1      47.746  25.083  32.394  1.00  0.00    -0.206 F 
ATOM     66  C   UNL A   1      45.411  26.451  34.790  1.00  0.00     0.022 A 
BRANCH  63  67
ATOM     67  S   UNL A   1      42.834  27.483  34.701  1.00  0.00     0.124 S 
ATOM     68  O   UNL A   1      42.543  28.612  33.825  1.00  0.00    -0.237 OA
ATOM     69  O   UNL A   1      41.878  26.379  34.665  1.00  0.00    -0.237 OA
ATOM     70  O   UNL A   1      43.275  27.857  36.047  1.00  0.00    -0.744 OA
ENDBRANCH  63  67
ENDBRANCH  37  60
ENDBRANCH  11  12
ENDBRANCH   4   6
ENDBRANCH   1   2
BRANCH   1  71
ATOM     71  C   UNL A   1      37.398  32.427  29.980  1.00  0.00     0.023 C 
BRANCH  71  72
ATOM     72  C   UNL A   1      37.158  33.262  28.717  1.00  0.00     0.023 C 
BRANCH  72  73
ATOM     73  C   UNL A   1      36.107  34.363  28.835  1.00  0.00     0.116 C 
BRANCH  73  74
ATOM     74  N   UNL A   1      34.854  34.023  28.182  1.00  0.00    -0.351 N 
ATOM     75  C   UNL A   1      33.563  34.279  28.589  1.00  0.00     0.271 C 
ATOM     76  H   UNL A   1      34.940  33.540  27.328  1.00  0.00     0.163 HD
ATOM     77  O   UNL A   1      32.630  33.845  27.926  1.00  0.00    -0.267 OA
BRANCH  75  78
ATOM     78  C   UNL A   1      33.364  35.094  29.795  1.00  0.00     0.154 A 
ATOM     79  C   UNL A   1      33.140  36.520  29.857  1.00  0.00     0.089 A 
ATOM     80  N   UNL A   1      33.373  34.541  31.035  1.00  0.00    -0.143 NA
ATOM     81  C   UNL A   1      33.074  36.781  31.196  1.00  0.00     0.199 A 
ATOM     82  N   UNL A   1      33.202  35.598  31.798  1.00  0.00    -0.135 N 
ATOM     83  N   UNL A   1      32.943  37.747  32.135  1.00  0.00    -0.109 NA
ATOM     84  N   UNL A   1      33.160  35.839  33.088  1.00  0.00    -0.177 N 
ATOM     85  N   UNL A   1      33.005  37.188  33.289  1.00  0.00    -0.050 NA
ATOM     86  H   UNL A   1      33.228  35.160  33.797  1.00  0.00     0.216 HD
ENDBRANCH  75  78
ENDBRANCH  73  74
ENDBRANCH  72  73
ENDBRANCH  71  72
ENDBRANCH   1  71
TORSDOF 14
ENDMDL
MODEL 2
REMARK VINA RESULT:     -12.4      4.271      8.557
REMARK SMILES O=C(NCCCCNC(=O)c1cc2nn[nH]n2n1)c1ccc(-c2c3nc(c(-c4cc(S(=O)(=O)[O-])ccc4F)c4ccc([nH]4)c(-c4cc(S(=O)(=O)[O-])ccc4F)c4nc(c(-c5cc(S(=O)(=O)[O-])ccc5F)c5ccc2[nH]5)C=C4)C=C3)cc1
REMARK SMILES IDX 4 1 3 2 1 3 2 4 19 6 20 7 81 8 21 9 80 10 22 11 23 12 24 13
REMARK SMILES IDX 74 14 25 15 79 16 73 17 75 18 26 19 78 20 72 21 71 22 27 24
REMARK SMILES IDX 59 25 39 26 58 27 40 28 43 29 57 30 76 31 41 32 42 33 56 35
REMARK SMILES IDX 77 36 44 37 28 38 29 39 37 40 30 41 36 42 38 43 35 44 31 45
REMARK SMILES IDX 32 46 33 47 34 48 60 49 61 50 69 51 62 52 68 53 70 54 67 55
REMARK SMILES IDX 63 56 64 57 65 58 66 59 45 60 46 61 54 62 47 63 53 64 55 65
REMARK SMILES IDX 52 66 48 67 49 68 50 69 51 70 5 71 6 72 7 73 8 74 9 75 10 77
REMARK SMILES IDX 11 78 12 79 18 80 13 81 17 82 14 83 16 84 15 85
REMARK H PARENT 3 5 75 23 43 34 8 76 16 86
REMARK Flexibility Score: inf
ROOT
ATOM      1  C   UNL A   1      33.214  30.017  27.248  1.00  0.00     0.116 C 
ENDROOT
BRANCH   1   2
ATOM      2  N   UNL A   1      33.697  31.371  27.428  1.00  0.00    -0.352 N 
ATOM      3  O   UNL A   1      34.960  33.156  27.718  1.00  0.00    -0.269 OA
ATOM      4  C   UNL A   1      34.910  31.923  27.745  1.00  0.00     0.251 C 
ATOM      5  H   UNL A   1      32.994  32.046  27.291  1.00  0.00     0.163 HD
BRANCH   4   6
ATOM      6  C   UNL A   1      36.126  31.160  28.145  1.00  0.00     0.039 A 
ATOM      7  C   UNL A   1      36.350  29.806  27.898  1.00  0.00     0.014 A 
ATOM      8  C   UNL A   1      37.133  31.895  28.800  1.00  0.00     0.014 A 
ATOM      9  C   UNL A   1      37.522  29.188  28.337  1.00  0.00     0.010 A 
ATOM     10  C   UNL A   1      38.316  31.286  29.221  1.00  0.00     0.010 A 
ATOM     11  C   UNL A   1      38.507  29.923  29.001  1.00  0.00    -0.014 A 
BRANCH  11  12
ATOM     12  C   UNL A   1      39.779  29.256  29.296  1.00  0.00     0.031 A 
ATOM     13  C   UNL A   1      40.148  29.163  30.743  1.00  0.00     0.074 A 
ATOM     14  C   UNL A   1      40.520  28.588  28.389  1.00  0.00     0.049 A 
ATOM     15  N   UNL A   1      41.235  29.553  31.328  1.00  0.00    -0.248 NA
ATOM     16  C   UNL A   1      39.145  28.606  31.664  1.00  0.00     0.031 C 
ATOM     17  C   UNL A   1      40.171  28.289  27.000  1.00  0.00     0.029 A 
ATOM     18  N   UNL A   1      41.705  27.929  28.567  1.00  0.00    -0.354 N 
ATOM     19  C   UNL A   1      41.140  29.127  32.654  1.00  0.00     0.074 A 
ATOM     20  C   UNL A   1      39.789  28.659  32.829  1.00  0.00     0.031 C 
ATOM     21  C   UNL A   1      41.006  27.335  26.532  1.00  0.00     0.029 A 
ATOM     22  C   UNL A   1      42.015  27.047  27.539  1.00  0.00     0.049 A 
ATOM     23  H   UNL A   1      42.285  28.068  29.350  1.00  0.00     0.167 HD
ATOM     24  C   UNL A   1      42.224  29.037  33.475  1.00  0.00     0.034 A 
ATOM     25  C   UNL A   1      42.981  26.093  27.534  1.00  0.00     0.034 A 
ATOM     26  C   UNL A   1      43.321  29.843  33.002  1.00  0.00     0.049 A 
ATOM     27  C   UNL A   1      43.989  26.457  28.557  1.00  0.00     0.074 A 
ATOM     28  C   UNL A   1      43.483  31.187  32.721  1.00  0.00     0.029 A 
ATOM     29  N   UNL A   1      44.412  29.223  32.441  1.00  0.00    -0.354 N 
ATOM     30  N   UNL A   1      44.766  27.499  28.474  1.00  0.00    -0.248 NA
ATOM     31  C   UNL A   1      43.873  25.877  29.886  1.00  0.00     0.031 C 
ATOM     32  C   UNL A   1      44.349  31.224  31.589  1.00  0.00     0.029 A 
ATOM     33  C   UNL A   1      44.694  29.906  31.284  1.00  0.00     0.049 A 
ATOM     34  H   UNL A   1      44.894  28.443  32.798  1.00  0.00     0.167 HD
ATOM     35  C   UNL A   1      44.896  27.956  29.775  1.00  0.00     0.074 A 
ATOM     36  C   UNL A   1      44.428  26.853  30.609  1.00  0.00     0.031 C 
ATOM     37  C   UNL A   1      45.111  29.277  30.046  1.00  0.00     0.034 A 
BRANCH  24  38
ATOM     38  C   UNL A   1      42.390  28.011  34.575  1.00  0.00     0.023 A 
ATOM     39  C   UNL A   1      43.095  26.825  34.285  1.00  0.00     0.031 A 
ATOM     40  C   UNL A   1      41.669  28.014  35.791  1.00  0.00     0.131 A 
ATOM     41  C   UNL A   1      43.017  25.707  35.137  1.00  0.00     0.055 A 
ATOM     42  C   UNL A   1      41.654  26.926  36.670  1.00  0.00     0.041 A 
ATOM     43  F   UNL A   1      40.866  29.024  36.146  1.00  0.00    -0.206 F 
ATOM     44  C   UNL A   1      42.309  25.755  36.334  1.00  0.00     0.022 A 
BRANCH  41  45
ATOM     45  S   UNL A   1      43.703  24.129  34.565  1.00  0.00     0.124 S 
ATOM     46  O   UNL A   1      44.181  24.477  33.232  1.00  0.00    -0.237 OA
ATOM     47  O   UNL A   1      44.728  23.865  35.569  1.00  0.00    -0.237 OA
ATOM     48  O   UNL A   1      42.553  23.228  34.596  1.00  0.00    -0.744 OA
ENDBRANCH  41  45
ENDBRANCH  24  38
BRANCH  25  49
ATOM     49  C   UNL A   1      42.915  24.756  26.887  1.00  0.00     0.023 A 
ATOM     50  C   UNL A   1      43.914  24.284  26.014  1.00  0.00     0.031 A 
ATOM     51  C   UNL A   1      41.945  23.819  27.311  1.00  0.00     0.131 A 
ATOM     52  C   UNL A   1      43.907  22.934  25.592  1.00  0.00     0.055 A 
ATOM     53  C   UNL A   1      41.932  22.492  26.877  1.00  0.00     0.041 A 
ATOM     54  F   UNL A   1      41.022  24.140  28.232  1.00  0.00    -0.206 F 
ATOM     55  C   UNL A   1      42.920  22.042  26.018  1.00  0.00     0.022 A 
BRANCH  52  56
ATOM     56  S   UNL A   1      45.260  22.288  24.558  1.00  0.00     0.124 S 
ATOM     57  O   UNL A   1      45.643  23.461  23.781  1.00  0.00    -0.237 OA
ATOM     58  O   UNL A   1      46.222  21.826  25.552  1.00  0.00    -0.237 OA
ATOM     59  O   UNL A   1      44.619  21.222  23.787  1.00  0.00    -0.744 OA
ENDBRANCH  52  56
ENDBRANCH  25  49
BRANCH  37  60
ATOM     60  C   UNL A   1      45.542  30.194  28.920  1.00  0.00     0.023 A 
ATOM     61  C   UNL A   1      46.884  30.507  28.611  1.00  0.00     0.031 A 
ATOM     62  C   UNL A   1      44.546  30.671  28.048  1.00  0.00     0.131 A 
ATOM     63  C   UNL A   1      47.186  31.283  27.475  1.00  0.00     0.055 A 
ATOM     64  C   UNL A   1      44.849  31.423  26.913  1.00  0.00     0.041 A 
ATOM     65  F   UNL A   1      43.251  30.381  28.267  1.00  0.00    -0.206 F 
ATOM     66  C   UNL A   1      46.172  31.737  26.625  1.00  0.00     0.022 A 
BRANCH  63  67
ATOM     67  S   UNL A   1      48.910  31.718  27.088  1.00  0.00     0.124 S 
ATOM     68  O   UNL A   1      49.444  30.503  26.482  1.00  0.00    -0.237 OA
ATOM     69  O   UNL A   1      48.754  32.864  26.195  1.00  0.00    -0.237 OA
ATOM     70  O   UNL A   1      49.480  32.045  28.397  1.00  0.00    -0.744 OA
ENDBRANCH  63  67
ENDBRANCH  37  60
ENDBRANCH  11  12
ENDBRANCH   4   6
ENDBRANCH   1   2
BRANCH   1  71
ATOM     71  C   UNL A   1      32.339  29.810  26.013  1.00  0.00     0.023 C 
BRANCH  71  72
ATOM     72  C   UNL A   1      33.028  29.122  24.830  1.00  0.00     0.023 C 
BRANCH  72  73
ATOM     73  C   UNL A   1      32.242  29.099  23.521  1.00  0.00     0.116 C 
BRANCH  73  74
ATOM     74  N   UNL A   1      31.178  28.110  23.517  1.00  0.00    -0.351 N 
ATOM     75  C   UNL A   1      29.836  28.276  23.248  1.00  0.00     0.271 C 
ATOM     76  H   UNL A   1      31.454  27.191  23.738  1.00  0.00     0.163 HD
ATOM     77  O   UNL A   1      29.081  27.320  23.366  1.00  0.00    -0.267 OA
BRANCH  75  78
ATOM     78  C   UNL A   1      29.377  29.597  22.799  1.00  0.00     0.154 A 
ATOM     79  C   UNL A   1      29.000  30.718  23.630  1.00  0.00     0.089 A 
ATOM     80  N   UNL A   1      29.260  29.898  21.480  1.00  0.00    -0.143 NA
ATOM     81  C   UNL A   1      28.606  31.669  22.733  1.00  0.00     0.199 A 
ATOM     82  N   UNL A   1      28.797  31.128  21.529  1.00  0.00    -0.135 N 
ATOM     83  N   UNL A   1      28.097  32.914  22.585  1.00  0.00    -0.109 NA
ATOM     84  N   UNL A   1      28.401  32.026  20.658  1.00  0.00    -0.177 N 
ATOM     85  N   UNL A   1      27.958  33.139  21.329  1.00  0.00    -0.050 NA
ATOM     86  H   UNL A   1      28.420  31.919  19.680  1.00  0.00     0.216 HD
ENDBRANCH  75  78
ENDBRANCH  73  74
ENDBRANCH  72  73
ENDBRANCH  71  72
ENDBRANCH   1  71
TORSDOF 14
ENDMDL
MODEL 3
REMARK VINA RESULT:     -12.3      4.192      8.442
REMARK SMILES O=C(NCCCCNC(=O)c1cc2nn[nH]n2n1)c1ccc(-c2c3nc(c(-c4cc(S(=O)(=O)[O-])ccc4F)c4ccc([nH]4)c(-c4cc(S(=O)(=O)[O-])ccc4F)c4nc(c(-c5cc(S(=O)(=O)[O-])ccc5F)c5ccc2[nH]5)C=C4)C=C3)cc1
REMARK SMILES IDX 4 1 3 2 1 3 2 4 19 6 20 7 81 8 21 9 80 10 22 11 23 12 24 13
REMARK SMILES IDX 74 14 25 15 79 16 73 17 75 18 26 19 78 20 72 21 71 22 27 24
REMARK SMILES IDX 59 25 39 26 58 27 40 28 43 29 57 30 76 31 41 32 42 33 56 35
REMARK SMILES IDX 77 36 44 37 28 38 29 39 37 40 30 41 36 42 38 43 35 44 31 45
REMARK SMILES IDX 32 46 33 47 34 48 60 49 61 50 69 51 62 52 68 53 70 54 67 55
REMARK SMILES IDX 63 56 64 57 65 58 66 59 45 60 46 61 54 62 47 63 53 64 55 65
REMARK SMILES IDX 52 66 48 67 49 68 50 69 51 70 5 71 6 72 7 73 8 74 9 75 10 77
REMARK SMILES IDX 11 78 12 79 18 80 13 81 17 82 14 83 16 84 15 85
REMARK H PARENT 3 5 75 23 43 34 8 76 16 86
REMARK Flexibility Score: inf
ROOT
ATOM      1  C   UNL A   1      33.675  30.143  27.112  1.00  0.00     0.116 C 
ENDROOT
BRANCH   1   2
ATOM      2  N   UNL A   1      34.176  31.460  27.450  1.00  0.00    -0.352 N 
ATOM      3  O   UNL A   1      35.459  33.173  27.984  1.00  0.00    -0.269 OA
ATOM      4  C   UNL A   1      35.380  31.945  27.888  1.00  0.00     0.251 C 
ATOM      5  H   UNL A   1      33.498  32.165  27.339  1.00  0.00     0.163 HD
BRANCH   4   6
ATOM      6  C   UNL A   1      36.553  31.114  28.280  1.00  0.00     0.039 A 
ATOM      7  C   UNL A   1      36.721  29.761  27.988  1.00  0.00     0.014 A 
ATOM      8  C   UNL A   1      37.580  31.778  28.979  1.00  0.00     0.014 A 
ATOM      9  C   UNL A   1      37.855  29.075  28.424  1.00  0.00     0.010 A 
ATOM     10  C   UNL A   1      38.726  31.102  29.397  1.00  0.00     0.010 A 
ATOM     11  C   UNL A   1      38.859  29.740  29.131  1.00  0.00    -0.014 A 
BRANCH  11  12
ATOM     12  C   UNL A   1      40.095  29.005  29.423  1.00  0.00     0.031 A 
ATOM     13  C   UNL A   1      40.453  28.878  30.870  1.00  0.00     0.074 A 
ATOM     14  C   UNL A   1      40.804  28.311  28.511  1.00  0.00     0.049 A 
ATOM     15  N   UNL A   1      41.555  29.206  31.463  1.00  0.00    -0.248 NA
ATOM     16  C   UNL A   1      39.419  28.363  31.781  1.00  0.00     0.031 C 
ATOM     17  C   UNL A   1      40.447  28.046  27.118  1.00  0.00     0.029 A 
ATOM     18  N   UNL A   1      41.954  27.590  28.686  1.00  0.00    -0.354 N 
ATOM     19  C   UNL A   1      41.434  28.771  32.784  1.00  0.00     0.074 A 
ATOM     20  C   UNL A   1      40.060  28.370  32.949  1.00  0.00     0.031 C 
ATOM     21  C   UNL A   1      41.234  27.055  26.642  1.00  0.00     0.029 A 
ATOM     22  C   UNL A   1      42.223  26.705  27.649  1.00  0.00     0.049 A 
ATOM     23  H   UNL A   1      42.537  27.690  29.472  1.00  0.00     0.167 HD
ATOM     24  C   UNL A   1      42.509  28.616  33.608  1.00  0.00     0.034 A 
ATOM     25  C   UNL A   1      43.139  25.703  27.637  1.00  0.00     0.034 A 
ATOM     26  C   UNL A   1      43.647  29.371  33.148  1.00  0.00     0.049 A 
ATOM     27  C   UNL A   1      44.159  26.003  28.668  1.00  0.00     0.074 A 
ATOM     28  C   UNL A   1      43.878  30.707  32.882  1.00  0.00     0.029 A 
ATOM     29  N   UNL A   1      44.707  28.702  32.584  1.00  0.00    -0.354 N 
ATOM     30  N   UNL A   1      44.989  27.006  28.599  1.00  0.00    -0.248 NA
ATOM     31  C   UNL A   1      44.008  25.416  29.990  1.00  0.00     0.031 C 
ATOM     32  C   UNL A   1      44.750  30.713  31.754  1.00  0.00     0.029 A 
ATOM     33  C   UNL A   1      45.029  29.382  31.436  1.00  0.00     0.049 A 
ATOM     34  H   UNL A   1      45.148  27.894  32.934  1.00  0.00     0.167 HD
ATOM     35  C   UNL A   1      45.137  27.441  29.905  1.00  0.00     0.074 A 
ATOM     36  C   UNL A   1      44.610  26.354  30.725  1.00  0.00     0.031 C 
ATOM     37  C   UNL A   1      45.418  28.746  30.192  1.00  0.00     0.034 A 
BRANCH  24  38
ATOM     38  C   UNL A   1      42.617  27.571  34.697  1.00  0.00     0.023 A 
ATOM     39  C   UNL A   1      43.321  26.382  34.417  1.00  0.00     0.031 A 
ATOM     40  C   UNL A   1      41.846  27.563  35.882  1.00  0.00     0.131 A 
ATOM     41  C   UNL A   1      43.196  25.251  35.246  1.00  0.00     0.055 A 
ATOM     42  C   UNL A   1      41.783  26.462  36.741  1.00  0.00     0.041 A 
ATOM     43  F   UNL A   1      41.040  28.576  36.220  1.00  0.00    -0.206 F 
ATOM     44  C   UNL A   1      42.439  25.288  36.414  1.00  0.00     0.022 A 
BRANCH  41  45
ATOM     45  S   UNL A   1      43.888  23.675  34.678  1.00  0.00     0.124 S 
ATOM     46  O   UNL A   1      42.693  22.967  34.234  1.00  0.00    -0.237 OA
ATOM     47  O   UNL A   1      44.806  24.110  33.631  1.00  0.00    -0.237 OA
ATOM     48  O   UNL A   1      44.523  23.131  35.877  1.00  0.00    -0.744 OA
ENDBRANCH  41  45
ENDBRANCH  24  38
BRANCH  25  49
ATOM     49  C   UNL A   1      43.007  24.378  26.975  1.00  0.00     0.023 A 
ATOM     50  C   UNL A   1      43.942  23.902  26.035  1.00  0.00     0.031 A 
ATOM     51  C   UNL A   1      42.046  23.452  27.443  1.00  0.00     0.131 A 
ATOM     52  C   UNL A   1      43.883  22.560  25.594  1.00  0.00     0.055 A 
ATOM     53  C   UNL A   1      41.982  22.134  26.991  1.00  0.00     0.041 A 
ATOM     54  F   UNL A   1      41.188  23.775  28.424  1.00  0.00    -0.206 F 
ATOM     55  C   UNL A   1      42.906  21.679  26.066  1.00  0.00     0.022 A 
BRANCH  52  56
ATOM     56  S   UNL A   1      45.157  21.906  24.468  1.00  0.00     0.124 S 
ATOM     57  O   UNL A   1      44.532  20.689  23.966  1.00  0.00    -0.237 OA
ATOM     58  O   UNL A   1      45.319  22.996  23.512  1.00  0.00    -0.237 OA
ATOM     59  O   UNL A   1      46.308  21.690  25.347  1.00  0.00    -0.744 OA
ENDBRANCH  52  56
ENDBRANCH  25  49
BRANCH  37  60
ATOM     60  C   UNL A   1      45.899  29.652  29.078  1.00  0.00     0.023 A 
ATOM     61  C   UNL A   1      45.068  30.523  28.338  1.00  0.00     0.031 A 
ATOM     62  C   UNL A   1      47.285  29.724  28.845  1.00  0.00     0.131 A 
ATOM     63  C   UNL A   1      45.629  31.406  27.397  1.00  0.00     0.055 A 
ATOM     64  C   UNL A   1      47.840  30.615  27.925  1.00  0.00     0.041 A 
ATOM     65  F   UNL A   1      48.135  28.947  29.539  1.00  0.00    -0.206 F 
ATOM     66  C   UNL A   1      47.011  31.456  27.193  1.00  0.00     0.022 A 
BRANCH  63  67
ATOM     67  S   UNL A   1      44.561  32.507  26.416  1.00  0.00     0.124 S 
ATOM     68  O   UNL A   1      45.489  33.153  25.494  1.00  0.00    -0.237 OA
ATOM     69  O   UNL A   1      43.609  31.574  25.819  1.00  0.00    -0.237 OA
ATOM     70  O   UNL A   1      43.982  33.402  27.420  1.00  0.00    -0.744 OA
ENDBRANCH  63  67
ENDBRANCH  37  60
ENDBRANCH  11  12
ENDBRANCH   4   6
ENDBRANCH   1   2
BRANCH   1  71
ATOM     71  C   UNL A   1      32.388  30.142  26.289  1.00  0.00     0.023 C 
BRANCH  71  72
ATOM     72  C   UNL A   1      32.043  28.810  25.616  1.00  0.00     0.023 C 
BRANCH  72  73
ATOM     73  C   UNL A   1      31.507  28.901  24.190  1.00  0.00     0.116 C 
BRANCH  73  74
ATOM     74  N   UNL A   1      30.423  27.968  23.931  1.00  0.00    -0.351 N 
ATOM     75  C   UNL A   1      29.186  28.204  23.370  1.00  0.00     0.271 C 
ATOM     76  H   UNL A   1      30.597  27.035  24.193  1.00  0.00     0.163 HD
ATOM     77  O   UNL A   1      28.378  27.288  23.301  1.00  0.00    -0.267 OA
BRANCH  75  78
ATOM     78  C   UNL A   1      28.905  29.549  22.852  1.00  0.00     0.154 A 
ATOM     79  C   UNL A   1      28.574  30.728  23.619  1.00  0.00     0.089 A 
ATOM     80  N   UNL A   1      28.934  29.818  21.521  1.00  0.00    -0.143 NA
ATOM     81  C   UNL A   1      28.358  31.684  22.668  1.00  0.00     0.199 A 
ATOM     82  N   UNL A   1      28.597  31.088  21.499  1.00  0.00    -0.135 N 
ATOM     83  N   UNL A   1      27.994  32.969  22.446  1.00  0.00    -0.109 NA
ATOM     84  N   UNL A   1      28.372  31.993  20.575  1.00  0.00    -0.177 N 
ATOM     85  N   UNL A   1      27.989  33.165  21.178  1.00  0.00    -0.050 NA
ATOM     86  H   UNL A   1      28.465  31.853  19.606  1.00  0.00     0.216 HD
ENDBRANCH  75  78
ENDBRANCH  73  74
ENDBRANCH  72  73
ENDBRANCH  71  72
ENDBRANCH   1  71
TORSDOF 14
ENDMDL
