MODEL 1
REMARK VINA RESULT:     -11.3      0.000      0.000
REMARK SMILES COc1ccc(C(C)(C)C)cc1CC(=O)NCCCCNC(=O)c1ccc(-c2c3nc(c(-c4cc(S(=O)(=O)[O-])ccc4F)c4ccc([nH]4)c(-c4cc(S(=O)(=O)[O-])ccc4F)c4nc(c(-c5cc(S(=O)(=O)[O-])ccc5F)c5ccc2[nH]5)C=C4)C=C3)cc1
REMARK SMILES IDX 19 1 18 2 17 3 16 4 14 5 15 6 13 8 12 9 3 10 4 11 5 12 11 13
REMARK SMILES IDX 6 14 2 15 1 16 7 17 8 18 9 19 10 20 20 21 21 22 22 23 23 25
REMARK SMILES IDX 24 26 25 27 86 28 26 29 85 30 27 31 28 32 29 33 79 34 30 35
REMARK SMILES IDX 84 36 78 37 80 38 31 39 83 40 77 41 76 42 32 44 64 45 44 46
REMARK SMILES IDX 63 47 45 48 48 49 62 50 81 51 46 52 47 53 61 55 82 56 49 57
REMARK SMILES IDX 33 58 34 59 42 60 35 61 41 62 43 63 40 64 36 65 37 66 38 67
REMARK SMILES IDX 39 68 65 69 66 70 74 71 67 72 73 73 75 74 72 75 68 76 69 77
REMARK SMILES IDX 70 78 71 79 50 80 51 81 59 82 52 83 58 84 60 85 57 86 53 87
REMARK SMILES IDX 54 88 55 89 56 90
REMARK H PARENT 16 7 21 24 80 43 48 54
REMARK Flexibility Score: inf
ROOT
ATOM      1  C   UNL A   1      31.428  32.304  26.578  1.00  0.00     0.023 C 
ENDROOT
BRANCH   1   2
ATOM      2  C   UNL A   1      31.386  30.822  26.195  1.00  0.00     0.023 C 
BRANCH   2   3
ATOM      3  C   UNL A   1      32.216  29.919  27.107  1.00  0.00     0.116 C 
BRANCH   3   4
ATOM      4  N   UNL A   1      31.617  28.606  27.244  1.00  0.00    -0.356 N 
ATOM      5  C   UNL A   1      32.130  27.400  26.856  1.00  0.00     0.224 C 
ATOM      6  O   UNL A   1      31.431  26.391  26.967  1.00  0.00    -0.275 OA
ATOM      7  H   UNL A   1      30.729  28.579  27.669  1.00  0.00     0.163 HD
BRANCH   5   8
ATOM      8  C   UNL A   1      33.558  27.318  26.344  1.00  0.00     0.139 C 
BRANCH   8   9
ATOM      9  C   UNL A   1      33.728  26.427  25.135  1.00  0.00     0.004 A 
ATOM     10  C   UNL A   1      33.069  26.650  23.920  1.00  0.00     0.122 A 
ATOM     11  C   UNL A   1      33.167  25.717  22.890  1.00  0.00     0.047 A 
ATOM     12  C   UNL A   1      33.955  24.573  23.043  1.00  0.00     0.008 A 
ATOM     13  C   UNL A   1      34.543  25.280  25.259  1.00  0.00     0.012 A 
ATOM     14  C   UNL A   1      34.665  24.329  24.231  1.00  0.00    -0.042 A 
BRANCH  10  15
ATOM     15  O   UNL A   1      32.180  27.672  23.718  1.00  0.00    -0.496 OA
ATOM     16  C   UNL A   1      31.407  27.521  22.530  1.00  0.00     0.278 C 
ENDBRANCH  10  15
BRANCH  14  17
ATOM     17  C   UNL A   1      35.501  23.044  24.384  1.00  0.00    -0.013 C 
ATOM     18  C   UNL A   1      36.229  23.053  25.746  1.00  0.00     0.016 C 
ATOM     19  C   UNL A   1      34.572  21.813  24.312  1.00  0.00     0.016 C 
ATOM     20  C   UNL A   1      36.582  22.866  23.293  1.00  0.00     0.016 C 
ENDBRANCH  14  17
ENDBRANCH   8   9
ENDBRANCH   5   8
ENDBRANCH   3   4
ENDBRANCH   2   3
ENDBRANCH   1   2
BRANCH   1  21
ATOM     21  C   UNL A   1      32.703  32.749  27.285  1.00  0.00     0.116 C 
BRANCH  21  22
ATOM     22  N   UNL A   1      32.646  34.126  27.750  1.00  0.00    -0.352 N 
ATOM     23  C   UNL A   1      33.430  34.737  28.704  1.00  0.00     0.251 C 
ATOM     24  H   UNL A   1      31.959  34.693  27.330  1.00  0.00     0.163 HD
ATOM     25  O   UNL A   1      33.170  35.872  29.077  1.00  0.00    -0.269 OA
BRANCH  23  26
ATOM     26  C   UNL A   1      34.558  33.984  29.297  1.00  0.00     0.039 A 
ATOM     27  C   UNL A   1      35.860  34.320  28.925  1.00  0.00     0.014 A 
ATOM     28  C   UNL A   1      34.329  32.981  30.244  1.00  0.00     0.014 A 
ATOM     29  C   UNL A   1      36.939  33.696  29.556  1.00  0.00     0.010 A 
ATOM     30  C   UNL A   1      35.405  32.413  30.920  1.00  0.00     0.010 A 
ATOM     31  C   UNL A   1      36.721  32.766  30.586  1.00  0.00    -0.014 A 
BRANCH  31  32
ATOM     32  C   UNL A   1      37.857  32.154  31.324  1.00  0.00     0.031 A 
ATOM     33  C   UNL A   1      38.653  31.043  30.694  1.00  0.00     0.074 A 
ATOM     34  C   UNL A   1      38.127  32.552  32.583  1.00  0.00     0.049 A 
ATOM     35  N   UNL A   1      39.627  30.332  31.201  1.00  0.00    -0.248 NA
ATOM     36  C   UNL A   1      38.283  30.667  29.321  1.00  0.00     0.031 C 
ATOM     37  C   UNL A   1      37.395  33.586  33.317  1.00  0.00     0.029 A 
ATOM     38  N   UNL A   1      39.082  32.128  33.473  1.00  0.00    -0.354 N 
ATOM     39  C   UNL A   1      39.980  29.416  30.215  1.00  0.00     0.074 A 
ATOM     40  C   UNL A   1      39.069  29.622  29.109  1.00  0.00     0.031 C 
ATOM     41  C   UNL A   1      37.942  33.730  34.536  1.00  0.00     0.029 A 
ATOM     42  C   UNL A   1      39.030  32.771  34.689  1.00  0.00     0.049 A 
ATOM     43  H   UNL A   1      39.742  31.429  33.262  1.00  0.00     0.167 HD
ATOM     44  C   UNL A   1      40.985  28.506  30.222  1.00  0.00     0.034 A 
ATOM     45  C   UNL A   1      39.767  32.598  35.804  1.00  0.00     0.034 A 
ATOM     46  C   UNL A   1      41.889  28.319  31.332  1.00  0.00     0.049 A 
ATOM     47  C   UNL A   1      40.865  31.566  35.798  1.00  0.00     0.074 A 
ATOM     48  C   UNL A   1      42.972  27.462  31.428  1.00  0.00     0.029 A 
ATOM     49  N   UNL A   1      41.811  28.993  32.545  1.00  0.00    -0.354 N 
ATOM     50  N   UNL A   1      41.220  30.743  34.838  1.00  0.00    -0.248 NA
ATOM     51  C   UNL A   1      41.671  31.448  37.020  1.00  0.00     0.031 C 
ATOM     52  C   UNL A   1      43.505  27.569  32.717  1.00  0.00     0.029 A 
ATOM     53  C   UNL A   1      42.806  28.550  33.402  1.00  0.00     0.049 A 
ATOM     54  H   UNL A   1      41.145  29.685  32.762  1.00  0.00     0.167 HD
ATOM     55  C   UNL A   1      42.309  30.030  35.333  1.00  0.00     0.074 A 
ATOM     56  C   UNL A   1      42.562  30.533  36.668  1.00  0.00     0.031 C 
ATOM     57  C   UNL A   1      43.039  29.052  34.737  1.00  0.00     0.034 A 
BRANCH  44  58
ATOM     58  C   UNL A   1      41.138  27.633  28.998  1.00  0.00     0.023 A 
ATOM     59  C   UNL A   1      42.137  27.878  28.038  1.00  0.00     0.031 A 
ATOM     60  C   UNL A   1      40.255  26.564  28.766  1.00  0.00     0.131 A 
ATOM     61  C   UNL A   1      42.175  27.122  26.856  1.00  0.00     0.055 A 
ATOM     62  C   UNL A   1      40.353  25.760  27.629  1.00  0.00     0.041 A 
ATOM     63  F   UNL A   1      39.268  26.293  29.634  1.00  0.00    -0.206 F 
ATOM     64  C   UNL A   1      41.307  26.048  26.656  1.00  0.00     0.022 A 
BRANCH  61  65
ATOM     65  S   UNL A   1      43.274  27.663  25.519  1.00  0.00     0.124 S 
ATOM     66  O   UNL A   1      42.319  28.201  24.552  1.00  0.00    -0.237 OA
ATOM     67  O   UNL A   1      44.126  28.641  26.186  1.00  0.00    -0.237 OA
ATOM     68  O   UNL A   1      43.943  26.432  25.104  1.00  0.00    -0.744 OA
ENDBRANCH  61  65
ENDBRANCH  44  58
BRANCH  45  69
ATOM     69  C   UNL A   1      39.490  33.408  37.025  1.00  0.00     0.023 A 
ATOM     70  C   UNL A   1      40.174  34.609  37.271  1.00  0.00     0.031 A 
ATOM     71  C   UNL A   1      38.560  32.971  37.987  1.00  0.00     0.131 A 
ATOM     72  C   UNL A   1      39.956  35.307  38.468  1.00  0.00     0.055 A 
ATOM     73  C   UNL A   1      38.308  33.696  39.153  1.00  0.00     0.041 A 
ATOM     74  F   UNL A   1      37.875  31.832  37.800  1.00  0.00    -0.206 F 
ATOM     75  C   UNL A   1      39.018  34.866  39.405  1.00  0.00     0.022 A 
BRANCH  72  76
ATOM     76  S   UNL A   1      40.979  36.762  38.826  1.00  0.00     0.124 S 
ATOM     77  O   UNL A   1      39.969  37.789  39.049  1.00  0.00    -0.237 OA
ATOM     78  O   UNL A   1      41.723  36.326  40.003  1.00  0.00    -0.237 OA
ATOM     79  O   UNL A   1      41.777  36.923  37.612  1.00  0.00    -0.744 OA
ENDBRANCH  72  76
ENDBRANCH  45  69
BRANCH  57  80
ATOM     80  C   UNL A   1      44.208  28.498  35.515  1.00  0.00     0.023 A 
ATOM     81  C   UNL A   1      44.060  27.430  36.417  1.00  0.00     0.031 A 
ATOM     82  C   UNL A   1      45.489  29.059  35.359  1.00  0.00     0.131 A 
ATOM     83  C   UNL A   1      45.160  26.995  37.171  1.00  0.00     0.055 A 
ATOM     84  C   UNL A   1      46.592  28.581  36.067  1.00  0.00     0.041 A 
ATOM     85  F   UNL A   1      45.688  30.083  34.514  1.00  0.00    -0.206 F 
ATOM     86  C   UNL A   1      46.429  27.551  36.989  1.00  0.00     0.022 A 
BRANCH  83  87
ATOM     87  S   UNL A   1      44.893  25.751  38.465  1.00  0.00     0.124 S 
ATOM     88  O   UNL A   1      44.348  26.556  39.552  1.00  0.00    -0.237 OA
ATOM     89  O   UNL A   1      43.961  24.830  37.824  1.00  0.00    -0.237 OA
ATOM     90  O   UNL A   1      46.230  25.211  38.703  1.00  0.00    -0.744 OA
ENDBRANCH  83  87
ENDBRANCH  57  80
ENDBRANCH  31  32
ENDBRANCH  23  26
ENDBRANCH  21  22
ENDBRANCH   1  21
TORSDOF 17
ENDMDL
MODEL 2
REMARK VINA RESULT:     -11.3      3.933     10.413
REMARK SMILES COc1ccc(C(C)(C)C)cc1CC(=O)NCCCCNC(=O)c1ccc(-c2c3nc(c(-c4cc(S(=O)(=O)[O-])ccc4F)c4ccc([nH]4)c(-c4cc(S(=O)(=O)[O-])ccc4F)c4nc(c(-c5cc(S(=O)(=O)[O-])ccc5F)c5ccc2[nH]5)C=C4)C=C3)cc1
REMARK SMILES IDX 19 1 18 2 17 3 16 4 14 5 15 6 13 8 12 9 3 10 4 11 5 12 11 13
REMARK SMILES IDX 6 14 2 15 1 16 7 17 8 18 9 19 10 20 20 21 21 22 22 23 23 25
REMARK SMILES IDX 24 26 25 27 86 28 26 29 85 30 27 31 28 32 29 33 79 34 30 35
REMARK SMILES IDX 84 36 78 37 80 38 31 39 83 40 77 41 76 42 32 44 64 45 44 46
REMARK SMILES IDX 63 47 45 48 48 49 62 50 81 51 46 52 47 53 61 55 82 56 49 57
REMARK SMILES IDX 33 58 34 59 42 60 35 61 41 62 43 63 40 64 36 65 37 66 38 67
REMARK SMILES IDX 39 68 65 69 66 70 74 71 67 72 73 73 75 74 72 75 68 76 69 77
REMARK SMILES IDX 70 78 71 79 50 80 51 81 59 82 52 83 58 84 60 85 57 86 53 87
REMARK SMILES IDX 54 88 55 89 56 90
REMARK H PARENT 16 7 21 24 80 43 48 54
REMARK Flexibility Score: inf
ROOT
ATOM      1  C   UNL A   1      35.573  33.642  29.699  1.00  0.00     0.023 C 
ENDROOT
BRANCH   1   2
ATOM      2  C   UNL A   1      34.227  33.876  30.390  1.00  0.00     0.023 C 
BRANCH   2   3
ATOM      3  C   UNL A   1      34.343  34.376  31.830  1.00  0.00     0.116 C 
BRANCH   3   4
ATOM      4  N   UNL A   1      34.812  33.330  32.719  1.00  0.00    -0.356 N 
ATOM      5  C   UNL A   1      35.900  33.352  33.546  1.00  0.00     0.224 C 
ATOM      6  O   UNL A   1      36.202  32.329  34.162  1.00  0.00    -0.275 OA
ATOM      7  H   UNL A   1      34.282  32.501  32.728  1.00  0.00     0.163 HD
BRANCH   5   8
ATOM      8  C   UNL A   1      36.684  34.641  33.726  1.00  0.00     0.139 C 
BRANCH   8   9
ATOM      9  C   UNL A   1      38.150  34.524  33.375  1.00  0.00     0.004 A 
ATOM     10  C   UNL A   1      39.179  34.870  34.259  1.00  0.00     0.122 A 
ATOM     11  C   UNL A   1      40.503  34.863  33.827  1.00  0.00     0.047 A 
ATOM     12  C   UNL A   1      40.820  34.472  32.524  1.00  0.00     0.008 A 
ATOM     13  C   UNL A   1      38.494  34.102  32.072  1.00  0.00     0.012 A 
ATOM     14  C   UNL A   1      39.823  34.078  31.615  1.00  0.00    -0.042 A 
BRANCH  10  15
ATOM     15  O   UNL A   1      38.961  35.383  35.511  1.00  0.00    -0.496 OA
ATOM     16  C   UNL A   1      40.021  36.218  35.970  1.00  0.00     0.278 C 
ENDBRANCH  10  15
BRANCH  14  17
ATOM     17  C   UNL A   1      40.199  33.682  30.175  1.00  0.00    -0.013 C 
ATOM     18  C   UNL A   1      40.449  34.951  29.332  1.00  0.00     0.016 C 
ATOM     19  C   UNL A   1      41.481  32.822  30.195  1.00  0.00     0.016 C 
ATOM     20  C   UNL A   1      39.109  32.861  29.447  1.00  0.00     0.016 C 
ENDBRANCH  14  17
ENDBRANCH   8   9
ENDBRANCH   5   8
ENDBRANCH   3   4
ENDBRANCH   2   3
ENDBRANCH   1   2
BRANCH   1  21
ATOM     21  C   UNL A   1      35.505  33.537  28.180  1.00  0.00     0.116 C 
BRANCH  21  22
ATOM     22  N   UNL A   1      34.429  32.677  27.715  1.00  0.00    -0.352 N 
ATOM     23  C   UNL A   1      34.415  31.302  27.625  1.00  0.00     0.251 C 
ATOM     24  H   UNL A   1      33.607  33.135  27.428  1.00  0.00     0.163 HD
ATOM     25  O   UNL A   1      33.476  30.731  27.090  1.00  0.00    -0.269 OA
BRANCH  23  26
ATOM     26  C   UNL A   1      35.570  30.536  28.144  1.00  0.00     0.039 A 
ATOM     27  C   UNL A   1      36.746  30.501  27.394  1.00  0.00     0.014 A 
ATOM     28  C   UNL A   1      35.503  29.891  29.383  1.00  0.00     0.014 A 
ATOM     29  C   UNL A   1      37.880  29.877  27.918  1.00  0.00     0.010 A 
ATOM     30  C   UNL A   1      36.652  29.331  29.933  1.00  0.00     0.010 A 
ATOM     31  C   UNL A   1      37.854  29.321  29.208  1.00  0.00    -0.014 A 
BRANCH  31  32
ATOM     32  C   UNL A   1      39.073  28.725  29.815  1.00  0.00     0.031 A 
ATOM     33  C   UNL A   1      39.612  29.268  31.110  1.00  0.00     0.074 A 
ATOM     34  C   UNL A   1      39.730  27.743  29.166  1.00  0.00     0.049 A 
ATOM     35  N   UNL A   1      40.699  28.937  31.759  1.00  0.00    -0.248 NA
ATOM     36  C   UNL A   1      38.838  30.345  31.744  1.00  0.00     0.031 C 
ATOM     37  C   UNL A   1      39.331  27.167  27.880  1.00  0.00     0.029 A 
ATOM     38  N   UNL A   1      40.876  27.063  29.491  1.00  0.00    -0.354 N 
ATOM     39  C   UNL A   1      40.746  29.772  32.870  1.00  0.00     0.074 A 
ATOM     40  C   UNL A   1      39.613  30.667  32.768  1.00  0.00     0.031 C 
ATOM     41  C   UNL A   1      40.206  26.206  27.538  1.00  0.00     0.029 A 
ATOM     42  C   UNL A   1      41.251  26.129  28.553  1.00  0.00     0.049 A 
ATOM     43  H   UNL A   1      41.383  27.227  30.319  1.00  0.00     0.167 HD
ATOM     44  C   UNL A   1      41.637  29.775  33.893  1.00  0.00     0.034 A 
ATOM     45  C   UNL A   1      42.322  25.312  28.508  1.00  0.00     0.034 A 
ATOM     46  C   UNL A   1      42.758  28.870  33.982  1.00  0.00     0.049 A 
ATOM     47  C   UNL A   1      43.313  25.347  29.644  1.00  0.00     0.074 A 
ATOM     48  C   UNL A   1      43.693  28.753  34.995  1.00  0.00     0.029 A 
ATOM     49  N   UNL A   1      43.103  27.933  33.016  1.00  0.00    -0.354 N 
ATOM     50  N   UNL A   1      43.315  26.107  30.715  1.00  0.00    -0.248 NA
ATOM     51  C   UNL A   1      44.437  24.405  29.573  1.00  0.00     0.031 C 
ATOM     52  C   UNL A   1      44.639  27.794  34.613  1.00  0.00     0.029 A 
ATOM     53  C   UNL A   1      44.251  27.255  33.396  1.00  0.00     0.049 A 
ATOM     54  H   UNL A   1      42.604  27.773  32.183  1.00  0.00     0.167 HD
ATOM     55  C   UNL A   1      44.424  25.713  31.458  1.00  0.00     0.074 A 
ATOM     56  C   UNL A   1      45.056  24.638  30.720  1.00  0.00     0.031 C 
ATOM     57  C   UNL A   1      44.879  26.192  32.645  1.00  0.00     0.034 A 
BRANCH  44  58
ATOM     58  C   UNL A   1      41.440  30.806  34.980  1.00  0.00     0.023 A 
ATOM     59  C   UNL A   1      40.304  30.794  35.810  1.00  0.00     0.031 A 
ATOM     60  C   UNL A   1      42.379  31.835  35.169  1.00  0.00     0.131 A 
ATOM     61  C   UNL A   1      40.095  31.834  36.729  1.00  0.00     0.055 A 
ATOM     62  C   UNL A   1      42.208  32.819  36.146  1.00  0.00     0.041 A 
ATOM     63  F   UNL A   1      43.473  31.913  34.396  1.00  0.00    -0.206 F 
ATOM     64  C   UNL A   1      41.052  32.832  36.922  1.00  0.00     0.022 A 
BRANCH  61  65
ATOM     65  S   UNL A   1      38.485  31.947  37.556  1.00  0.00     0.124 S 
ATOM     66  O   UNL A   1      37.886  30.659  37.210  1.00  0.00    -0.237 OA
ATOM     67  O   UNL A   1      38.860  32.122  38.954  1.00  0.00    -0.237 OA
ATOM     68  O   UNL A   1      37.856  33.106  36.927  1.00  0.00    -0.744 OA
ENDBRANCH  61  65
ENDBRANCH  44  58
BRANCH  45  69
ATOM     69  C   UNL A   1      42.528  24.398  27.347  1.00  0.00     0.023 A 
ATOM     70  C   UNL A   1      42.014  23.093  27.350  1.00  0.00     0.031 A 
ATOM     71  C   UNL A   1      43.277  24.808  26.229  1.00  0.00     0.131 A 
ATOM     72  C   UNL A   1      42.295  22.227  26.283  1.00  0.00     0.055 A 
ATOM     73  C   UNL A   1      43.510  23.961  25.144  1.00  0.00     0.041 A 
ATOM     74  F   UNL A   1      43.788  26.049  26.171  1.00  0.00    -0.206 F 
ATOM     75  C   UNL A   1      43.028  22.656  25.174  1.00  0.00     0.022 A 
BRANCH  72  76
ATOM     76  S   UNL A   1      41.757  20.498  26.401  1.00  0.00     0.124 S 
ATOM     77  O   UNL A   1      42.584  19.859  25.384  1.00  0.00    -0.237 OA
ATOM     78  O   UNL A   1      42.081  20.174  27.787  1.00  0.00    -0.237 OA
ATOM     79  O   UNL A   1      40.330  20.564  26.096  1.00  0.00    -0.744 OA
ENDBRANCH  72  76
ENDBRANCH  45  69
BRANCH  57  80
ATOM     80  C   UNL A   1      46.094  25.520  33.236  1.00  0.00     0.023 A 
ATOM     81  C   UNL A   1      45.985  24.414  34.098  1.00  0.00     0.031 A 
ATOM     82  C   UNL A   1      47.382  26.002  32.939  1.00  0.00     0.131 A 
ATOM     83  C   UNL A   1      47.138  23.866  34.679  1.00  0.00     0.055 A 
ATOM     84  C   UNL A   1      48.529  25.413  33.472  1.00  0.00     0.041 A 
ATOM     85  F   UNL A   1      47.545  27.056  32.123  1.00  0.00    -0.206 F 
ATOM     86  C   UNL A   1      48.410  24.346  34.358  1.00  0.00     0.022 A 
BRANCH  83  87
ATOM     87  S   UNL A   1      46.948  22.572  35.937  1.00  0.00     0.124 S 
ATOM     88  O   UNL A   1      48.017  21.644  35.581  1.00  0.00    -0.237 OA
ATOM     89  O   UNL A   1      47.135  23.314  37.179  1.00  0.00    -0.237 OA
ATOM     90  O   UNL A   1      45.593  22.071  35.712  1.00  0.00    -0.744 OA
ENDBRANCH  83  87
ENDBRANCH  57  80
ENDBRANCH  31  32
ENDBRANCH  23  26
ENDBRANCH  21  22
ENDBRANCH   1  21
TORSDOF 17
ENDMDL
MODEL 3
REMARK VINA RESULT:     -11.2      5.936     11.670
REMARK SMILES COc1ccc(C(C)(C)C)cc1CC(=O)NCCCCNC(=O)c1ccc(-c2c3nc(c(-c4cc(S(=O)(=O)[O-])ccc4F)c4ccc([nH]4)c(-c4cc(S(=O)(=O)[O-])ccc4F)c4nc(c(-c5cc(S(=O)(=O)[O-])ccc5F)c5ccc2[nH]5)C=C4)C=C3)cc1
REMARK SMILES IDX 19 1 18 2 17 3 16 4 14 5 15 6 13 8 12 9 3 10 4 11 5 12 11 13
REMARK SMILES IDX 6 14 2 15 1 16 7 17 8 18 9 19 10 20 20 21 21 22 22 23 23 25
REMARK SMILES IDX 24 26 25 27 86 28 26 29 85 30 27 31 28 32 29 33 79 34 30 35
REMARK SMILES IDX 84 36 78 37 80 38 31 39 83 40 77 41 76 42 32 44 64 45 44 46
REMARK SMILES IDX 63 47 45 48 48 49 62 50 81 51 46 52 47 53 61 55 82 56 49 57
REMARK SMILES IDX 33 58 34 59 42 60 35 61 41 62 43 63 40 64 36 65 37 66 38 67
REMARK SMILES IDX 39 68 65 69 66 70 74 71 67 72 73 73 75 74 72 75 68 76 69 77
REMARK SMILES IDX 70 78 71 79 50 80 51 81 59 82 52 83 58 84 60 85 57 86 53 87
REMARK SMILES IDX 54 88 55 89 56 90
REMARK H PARENT 16 7 21 24 80 43 48 54
REMARK Flexibility Score: inf
ROOT
ATOM      1  C   UNL A   1      38.275  19.407  25.152  1.00  0.00     0.023 C 
ENDROOT
BRANCH   1   2
ATOM      2  C   UNL A   1      37.090  20.349  24.925  1.00  0.00     0.023 C 
BRANCH   2   3
ATOM      3  C   UNL A   1      37.490  21.794  24.627  1.00  0.00     0.116 C 
BRANCH   3   4
ATOM      4  N   UNL A   1      36.582  22.413  23.681  1.00  0.00    -0.356 N 
ATOM      5  C   UNL A   1      35.690  23.424  23.905  1.00  0.00     0.224 C 
ATOM      6  O   UNL A   1      34.927  23.759  22.998  1.00  0.00    -0.275 OA
ATOM      7  H   UNL A   1      36.612  22.061  22.762  1.00  0.00     0.163 HD
BRANCH   5   8
ATOM      8  C   UNL A   1      35.686  24.142  25.244  1.00  0.00     0.139 C 
BRANCH   8   9
ATOM      9  C   UNL A   1      34.307  24.509  25.742  1.00  0.00     0.004 A 
ATOM     10  C   UNL A   1      33.358  23.559  26.136  1.00  0.00     0.122 A 
ATOM     11  C   UNL A   1      32.062  23.957  26.459  1.00  0.00     0.047 A 
ATOM     12  C   UNL A   1      31.711  25.309  26.433  1.00  0.00     0.008 A 
ATOM     13  C   UNL A   1      33.940  25.873  25.752  1.00  0.00     0.012 A 
ATOM     14  C   UNL A   1      32.643  26.301  26.082  1.00  0.00    -0.042 A 
BRANCH  10  15
ATOM     15  O   UNL A   1      33.569  22.207  26.075  1.00  0.00    -0.496 OA
ATOM     16  C   UNL A   1      33.949  21.638  27.326  1.00  0.00     0.278 C 
ENDBRANCH  10  15
BRANCH  14  17
ATOM     17  C   UNL A   1      32.219  27.780  26.031  1.00  0.00    -0.013 C 
ATOM     18  C   UNL A   1      33.434  28.660  25.663  1.00  0.00     0.016 C 
ATOM     19  C   UNL A   1      31.116  27.965  24.967  1.00  0.00     0.016 C 
ATOM     20  C   UNL A   1      31.658  28.318  27.368  1.00  0.00     0.016 C 
ENDBRANCH  14  17
ENDBRANCH   8   9
ENDBRANCH   5   8
ENDBRANCH   3   4
ENDBRANCH   2   3
ENDBRANCH   1   2
BRANCH   1  21
ATOM     21  C   UNL A   1      39.420  19.999  25.965  1.00  0.00     0.116 C 
BRANCH  21  22
ATOM     22  N   UNL A   1      40.591  19.138  26.010  1.00  0.00    -0.352 N 
ATOM     23  C   UNL A   1      41.907  19.498  26.203  1.00  0.00     0.251 C 
ATOM     24  H   UNL A   1      40.422  18.177  25.888  1.00  0.00     0.163 HD
ATOM     25  O   UNL A   1      42.795  18.666  26.086  1.00  0.00    -0.269 OA
BRANCH  23  26
ATOM     26  C   UNL A   1      42.229  20.910  26.509  1.00  0.00     0.039 A 
ATOM     27  C   UNL A   1      42.556  21.257  27.820  1.00  0.00     0.014 A 
ATOM     28  C   UNL A   1      42.246  21.875  25.497  1.00  0.00     0.014 A 
ATOM     29  C   UNL A   1      42.968  22.560  28.106  1.00  0.00     0.010 A 
ATOM     30  C   UNL A   1      42.724  23.153  25.771  1.00  0.00     0.010 A 
ATOM     31  C   UNL A   1      43.093  23.509  27.077  1.00  0.00    -0.014 A 
BRANCH  31  32
ATOM     32  C   UNL A   1      43.609  24.877  27.349  1.00  0.00     0.031 A 
ATOM     33  C   UNL A   1      42.676  25.949  27.842  1.00  0.00     0.074 A 
ATOM     34  C   UNL A   1      44.899  25.168  27.089  1.00  0.00     0.049 A 
ATOM     35  N   UNL A   1      42.914  27.216  28.064  1.00  0.00    -0.248 NA
ATOM     36  C   UNL A   1      41.283  25.545  28.090  1.00  0.00     0.031 C 
ATOM     37  C   UNL A   1      45.888  24.224  26.564  1.00  0.00     0.029 A 
ATOM     38  N   UNL A   1      45.598  26.341  27.219  1.00  0.00    -0.354 N 
ATOM     39  C   UNL A   1      41.701  27.764  28.468  1.00  0.00     0.074 A 
ATOM     40  C   UNL A   1      40.718  26.704  28.393  1.00  0.00     0.031 C 
ATOM     41  C   UNL A   1      47.070  24.851  26.438  1.00  0.00     0.029 A 
ATOM     42  C   UNL A   1      46.914  26.248  26.827  1.00  0.00     0.049 A 
ATOM     43  H   UNL A   1      45.196  27.172  27.560  1.00  0.00     0.167 HD
ATOM     44  C   UNL A   1      41.436  29.028  28.885  1.00  0.00     0.034 A 
ATOM     45  C   UNL A   1      47.882  27.185  26.776  1.00  0.00     0.034 A 
ATOM     46  C   UNL A   1      42.431  30.071  28.960  1.00  0.00     0.049 A 
ATOM     47  C   UNL A   1      47.562  28.588  27.223  1.00  0.00     0.074 A 
ATOM     48  C   UNL A   1      42.285  31.370  29.413  1.00  0.00     0.029 A 
ATOM     49  N   UNL A   1      43.756  29.938  28.561  1.00  0.00    -0.354 N 
ATOM     50  N   UNL A   1      46.421  29.078  27.652  1.00  0.00    -0.248 NA
ATOM     51  C   UNL A   1      48.661  29.561  27.194  1.00  0.00     0.031 C 
ATOM     52  C   UNL A   1      43.499  32.041  29.228  1.00  0.00     0.029 A 
ATOM     53  C   UNL A   1      44.428  31.139  28.732  1.00  0.00     0.049 A 
ATOM     54  H   UNL A   1      44.158  29.112  28.210  1.00  0.00     0.167 HD
ATOM     55  C   UNL A   1      46.676  30.410  27.969  1.00  0.00     0.074 A 
ATOM     56  C   UNL A   1      48.080  30.639  27.699  1.00  0.00     0.031 C 
ATOM     57  C   UNL A   1      45.828  31.358  28.446  1.00  0.00     0.034 A 
BRANCH  44  58
ATOM     58  C   UNL A   1      40.010  29.346  29.269  1.00  0.00     0.023 A 
ATOM     59  C   UNL A   1      39.611  29.436  30.614  1.00  0.00     0.031 A 
ATOM     60  C   UNL A   1      39.027  29.528  28.280  1.00  0.00     0.131 A 
ATOM     61  C   UNL A   1      38.257  29.615  30.935  1.00  0.00     0.055 A 
ATOM     62  C   UNL A   1      37.695  29.793  28.606  1.00  0.00     0.041 A 
ATOM     63  F   UNL A   1      39.340  29.433  26.979  1.00  0.00    -0.206 F 
ATOM     64  C   UNL A   1      37.299  29.821  29.941  1.00  0.00     0.022 A 
BRANCH  61  65
ATOM     65  S   UNL A   1      37.744  29.421  32.664  1.00  0.00     0.124 S 
ATOM     66  O   UNL A   1      37.648  27.967  32.781  1.00  0.00    -0.237 OA
ATOM     67  O   UNL A   1      38.841  30.049  33.391  1.00  0.00    -0.237 OA
ATOM     68  O   UNL A   1      36.467  30.129  32.725  1.00  0.00    -0.744 OA
ENDBRANCH  61  65
ENDBRANCH  44  58
BRANCH  45  69
ATOM     69  C   UNL A   1      49.243  26.838  26.273  1.00  0.00     0.023 A 
ATOM     70  C   UNL A   1      49.676  27.253  25.004  1.00  0.00     0.031 A 
ATOM     71  C   UNL A   1      50.118  26.051  27.043  1.00  0.00     0.131 A 
ATOM     72  C   UNL A   1      50.927  26.841  24.522  1.00  0.00     0.055 A 
ATOM     73  C   UNL A   1      51.384  25.687  26.581  1.00  0.00     0.041 A 
ATOM     74  F   UNL A   1      49.756  25.630  28.266  1.00  0.00    -0.206 F 
ATOM     75  C   UNL A   1      51.790  26.072  25.307  1.00  0.00     0.022 A 
BRANCH  72  76
ATOM     76  S   UNL A   1      51.381  27.255  22.815  1.00  0.00     0.124 S 
ATOM     77  O   UNL A   1      52.558  26.419  22.609  1.00  0.00    -0.237 OA
ATOM     78  O   UNL A   1      50.181  26.867  22.080  1.00  0.00    -0.237 OA
ATOM     79  O   UNL A   1      51.637  28.692  22.871  1.00  0.00    -0.744 OA
ENDBRANCH  72  76
ENDBRANCH  45  69
BRANCH  57  80
ATOM     80  C   UNL A   1      46.415  32.715  28.747  1.00  0.00     0.023 A 
ATOM     81  C   UNL A   1      46.421  33.749  27.793  1.00  0.00     0.031 A 
ATOM     82  C   UNL A   1      46.990  32.972  30.005  1.00  0.00     0.131 A 
ATOM     83  C   UNL A   1      47.041  34.971  28.093  1.00  0.00     0.055 A 
ATOM     84  C   UNL A   1      47.551  34.211  30.317  1.00  0.00     0.041 A 
ATOM     85  F   UNL A   1      47.015  32.021  30.952  1.00  0.00    -0.206 F 
ATOM     86  C   UNL A   1      47.591  35.215  29.354  1.00  0.00     0.022 A 
BRANCH  83  87
ATOM     87  S   UNL A   1      47.205  36.210  26.777  1.00  0.00     0.124 S 
ATOM     88  O   UNL A   1      48.509  36.795  27.071  1.00  0.00    -0.237 OA
ATOM     89  O   UNL A   1      47.128  35.395  25.570  1.00  0.00    -0.237 OA
ATOM     90  O   UNL A   1      46.064  37.097  26.999  1.00  0.00    -0.744 OA
ENDBRANCH  83  87
ENDBRANCH  57  80
ENDBRANCH  31  32
ENDBRANCH  23  26
ENDBRANCH  21  22
ENDBRANCH   1  21
TORSDOF 17
ENDMDL
