MODEL 1
REMARK VINA RESULT:     -11.8      0.000      0.000
REMARK SMILES CC1(C)CCCC[C@@]1(C(=O)NCCCCNC(=O)c1ccc(-c2c3nc(c(-c4cc(S(=O)(=O)[O-])ccc4F)c4ccc([nH]4)c(-c4cc(S(=O)(=O)[O-])ccc4F)c4nc(c(-c5cc(S(=O)(=O)[O-])ccc5F)c5ccc2[nH]5)C=C4)C=C3)cc1)[NH+]1CC[NH2+]CC1
REMARK SMILES IDX 14 1 13 2 12 3 11 4 9 5 10 6 8 8 1 9 2 10 3 11 4 12 5 13
REMARK SMILES IDX 7 14 6 15 82 16 83 17 87 18 84 20 86 21 85 22 15 25 16 26
REMARK SMILES IDX 17 27 18 29 19 30 20 31 81 32 21 33 80 34 22 35 23 36 24 37
REMARK SMILES IDX 74 38 25 39 79 40 73 41 75 42 26 43 78 44 72 45 71 46 27 48
REMARK SMILES IDX 59 49 39 50 58 51 40 52 43 53 57 54 76 55 41 56 42 57 56 59
REMARK SMILES IDX 77 60 44 61 28 62 29 63 37 64 30 65 36 66 38 67 35 68 31 69
REMARK SMILES IDX 32 70 33 71 34 72 60 73 61 74 69 75 62 76 68 77 70 78 67 79
REMARK SMILES IDX 63 80 64 81 65 82 66 83 45 84 46 85 54 86 47 87 53 88 55 89
REMARK SMILES IDX 52 90 48 91 49 92 50 93 51 94
REMARK H PARENT 11 7 82 19 85 23 85 24 16 28 75 47 43 58
REMARK Flexibility Score: inf
ROOT
ATOM      1  C   UNL A   1      36.522  21.398  24.274  1.00  0.00     0.023 C 
ENDROOT
BRANCH   1   2
ATOM      2  C   UNL A   1      36.687  22.702  23.502  1.00  0.00     0.023 C 
BRANCH   2   3
ATOM      3  C   UNL A   1      35.903  23.893  24.064  1.00  0.00     0.116 C 
BRANCH   3   4
ATOM      4  N   UNL A   1      34.743  24.214  23.253  1.00  0.00    -0.351 N 
ATOM      5  C   UNL A   1      33.443  24.554  23.480  1.00  0.00     0.281 C 
ATOM      6  O   UNL A   1      32.796  24.607  22.426  1.00  0.00    -0.268 OA
ATOM      7  H   UNL A   1      34.949  24.177  22.291  1.00  0.00     0.163 HD
BRANCH   5   8
ATOM      8  C   UNL A   1      32.748  24.806  24.928  1.00  0.00     0.182 C 
ATOM      9  C   UNL A   1      30.455  25.849  25.926  1.00  0.00     0.018 C 
ATOM     10  C   UNL A   1      31.273  25.478  24.649  1.00  0.00     0.029 C 
ATOM     11  C   UNL A   1      30.315  24.558  23.846  1.00  0.00     0.018 C 
ATOM     12  C   UNL A   1      31.468  26.814  23.862  1.00  0.00     0.013 C 
ATOM     13  C   UNL A   1      32.377  27.808  24.586  1.00  0.00     0.001 C 
ATOM     14  C   UNL A   1      33.550  25.875  25.735  1.00  0.00     0.080 C 
ATOM     15  C   UNL A   1      33.716  27.198  24.979  1.00  0.00     0.007 C 
BRANCH   8  16
ATOM     16  N   UNL A   1      32.620  23.461  25.639  1.00  0.00    -0.313 N 
ATOM     17  C   UNL A   1      33.521  23.229  26.785  1.00  0.00     0.325 C 
ATOM     18  C   UNL A   1      32.693  22.287  24.745  1.00  0.00     0.325 C 
ATOM     19  H   UNL A   1      31.676  23.551  26.014  1.00  0.00     0.349 HD
ATOM     20  C   UNL A   1      33.338  21.842  27.453  1.00  0.00     0.322 C 
ATOM     21  C   UNL A   1      32.590  20.899  25.419  1.00  0.00     0.322 C 
ATOM     22  N   UNL A   1      33.549  20.730  26.519  1.00  0.00    -0.337 N 
ATOM     23  H   UNL A   1      33.386  19.841  26.990  1.00  0.00     0.346 HD
ATOM     24  H   UNL A   1      34.507  20.730  26.167  1.00  0.00     0.346 HD
ENDBRANCH   8  16
ENDBRANCH   5   8
ENDBRANCH   3   4
ENDBRANCH   2   3
ENDBRANCH   1   2
BRANCH   1  25
ATOM     25  C   UNL A   1      37.179  21.381  25.648  1.00  0.00     0.116 C 
BRANCH  25  26
ATOM     26  N   UNL A   1      38.241  20.389  25.758  1.00  0.00    -0.352 N 
ATOM     27  C   UNL A   1      39.545  20.549  26.170  1.00  0.00     0.251 C 
ATOM     28  H   UNL A   1      37.990  19.472  25.502  1.00  0.00     0.163 HD
ATOM     29  O   UNL A   1      40.341  19.629  26.063  1.00  0.00    -0.269 OA
BRANCH  27  30
ATOM     30  C   UNL A   1      39.965  21.861  26.703  1.00  0.00     0.039 A 
ATOM     31  C   UNL A   1      40.924  21.905  27.717  1.00  0.00     0.014 A 
ATOM     32  C   UNL A   1      39.463  23.039  26.147  1.00  0.00     0.014 A 
ATOM     33  C   UNL A   1      41.451  23.137  28.108  1.00  0.00     0.010 A 
ATOM     34  C   UNL A   1      40.047  24.255  26.477  1.00  0.00     0.010 A 
ATOM     35  C   UNL A   1      41.055  24.315  27.452  1.00  0.00    -0.014 A 
BRANCH  35  36
ATOM     36  C   UNL A   1      41.693  25.621  27.751  1.00  0.00     0.031 A 
ATOM     37  C   UNL A   1      40.929  26.672  28.506  1.00  0.00     0.074 A 
ATOM     38  C   UNL A   1      42.920  25.888  27.262  1.00  0.00     0.049 A 
ATOM     39  N   UNL A   1      41.260  27.909  28.768  1.00  0.00    -0.248 NA
ATOM     40  C   UNL A   1      39.596  26.288  28.998  1.00  0.00     0.031 C 
ATOM     41  C   UNL A   1      43.735  24.964  26.467  1.00  0.00     0.029 A 
ATOM     42  N   UNL A   1      43.693  27.019  27.344  1.00  0.00    -0.354 N 
ATOM     43  C   UNL A   1      40.173  28.458  29.440  1.00  0.00     0.074 A 
ATOM     44  C   UNL A   1      39.149  27.435  29.487  1.00  0.00     0.031 C 
ATOM     45  C   UNL A   1      44.898  25.558  26.156  1.00  0.00     0.029 A 
ATOM     46  C   UNL A   1      44.897  26.917  26.685  1.00  0.00     0.049 A 
ATOM     47  H   UNL A   1      43.412  27.828  27.830  1.00  0.00     0.167 HD
ATOM     48  C   UNL A   1      40.050  29.693  29.986  1.00  0.00     0.034 A 
ATOM     49  C   UNL A   1      45.880  27.822  26.515  1.00  0.00     0.034 A 
ATOM     50  C   UNL A   1      41.090  30.691  29.944  1.00  0.00     0.049 A 
ATOM     51  C   UNL A   1      45.718  29.190  27.123  1.00  0.00     0.074 A 
ATOM     52  C   UNL A   1      41.102  31.948  30.522  1.00  0.00     0.029 A 
ATOM     53  N   UNL A   1      42.303  30.549  29.280  1.00  0.00    -0.354 N 
ATOM     54  N   UNL A   1      44.706  29.676  27.806  1.00  0.00    -0.248 NA
ATOM     55  C   UNL A   1      46.832  30.129  26.947  1.00  0.00     0.031 C 
ATOM     56  C   UNL A   1      42.293  32.588  30.156  1.00  0.00     0.029 A 
ATOM     57  C   UNL A   1      43.055  31.705  29.409  1.00  0.00     0.049 A 
ATOM     58  H   UNL A   1      42.585  29.743  28.789  1.00  0.00     0.167 HD
ATOM     59  C   UNL A   1      45.074  30.970  28.159  1.00  0.00     0.074 A 
ATOM     60  C   UNL A   1      46.407  31.181  27.631  1.00  0.00     0.031 C 
ATOM     61  C   UNL A   1      44.376  31.902  28.859  1.00  0.00     0.034 A 
BRANCH  48  62
ATOM     62  C   UNL A   1      38.737  30.027  30.653  1.00  0.00     0.023 A 
ATOM     63  C   UNL A   1      37.791  30.867  30.039  1.00  0.00     0.031 A 
ATOM     64  C   UNL A   1      38.442  29.530  31.934  1.00  0.00     0.131 A 
ATOM     65  C   UNL A   1      36.635  31.248  30.735  1.00  0.00     0.055 A 
ATOM     66  C   UNL A   1      37.249  29.846  32.589  1.00  0.00     0.041 A 
ATOM     67  F   UNL A   1      39.315  28.741  32.580  1.00  0.00    -0.206 F 
ATOM     68  C   UNL A   1      36.344  30.722  31.997  1.00  0.00     0.022 A 
BRANCH  65  69
ATOM     69  S   UNL A   1      35.589  32.550  30.030  1.00  0.00     0.124 S 
ATOM     70  O   UNL A   1      35.344  32.034  28.684  1.00  0.00    -0.237 OA
ATOM     71  O   UNL A   1      34.443  32.557  30.930  1.00  0.00    -0.237 OA
ATOM     72  O   UNL A   1      36.436  33.740  30.086  1.00  0.00    -0.744 OA
ENDBRANCH  65  69
ENDBRANCH  48  62
BRANCH  49  73
ATOM     73  C   UNL A   1      47.099  27.477  25.729  1.00  0.00     0.023 A 
ATOM     74  C   UNL A   1      47.201  27.812  24.370  1.00  0.00     0.031 A 
ATOM     75  C   UNL A   1      48.166  26.773  26.317  1.00  0.00     0.131 A 
ATOM     76  C   UNL A   1      48.322  27.406  23.631  1.00  0.00     0.055 A 
ATOM     77  C   UNL A   1      49.301  26.413  25.589  1.00  0.00     0.041 A 
ATOM     78  F   UNL A   1      48.122  26.434  27.616  1.00  0.00    -0.206 F 
ATOM     79  C   UNL A   1      49.379  26.719  24.234  1.00  0.00     0.022 A 
BRANCH  76  80
ATOM     80  S   UNL A   1      48.345  27.721  21.845  1.00  0.00     0.124 S 
ATOM     81  O   UNL A   1      48.584  26.385  21.310  1.00  0.00    -0.237 OA
ATOM     82  O   UNL A   1      47.014  28.274  21.619  1.00  0.00    -0.237 OA
ATOM     83  O   UNL A   1      49.447  28.667  21.680  1.00  0.00    -0.744 OA
ENDBRANCH  76  80
ENDBRANCH  49  73
BRANCH  61  84
ATOM     84  C   UNL A   1      45.068  33.217  29.116  1.00  0.00     0.023 A 
ATOM     85  C   UNL A   1      44.966  34.292  28.215  1.00  0.00     0.031 A 
ATOM     86  C   UNL A   1      45.854  33.390  30.269  1.00  0.00     0.131 A 
ATOM     87  C   UNL A   1      45.684  35.473  28.454  1.00  0.00     0.055 A 
ATOM     88  C   UNL A   1      46.519  34.588  30.531  1.00  0.00     0.041 A 
ATOM     89  F   UNL A   1      45.987  32.394  31.160  1.00  0.00    -0.206 F 
ATOM     90  C   UNL A   1      46.446  35.634  29.614  1.00  0.00     0.022 A 
BRANCH  87  91
ATOM     91  S   UNL A   1      45.678  36.766  27.184  1.00  0.00     0.124 S 
ATOM     92  O   UNL A   1      46.219  36.059  26.028  1.00  0.00    -0.237 OA
ATOM     93  O   UNL A   1      44.265  37.124  27.108  1.00  0.00    -0.237 OA
ATOM     94  O   UNL A   1      46.549  37.799  27.742  1.00  0.00    -0.744 OA
ENDBRANCH  87  91
ENDBRANCH  61  84
ENDBRANCH  35  36
ENDBRANCH  27  30
ENDBRANCH  25  26
ENDBRANCH   1  25
TORSDOF 15
ENDMDL
MODEL 2
REMARK VINA RESULT:     -11.8      5.083      7.878
REMARK SMILES CC1(C)CCCC[C@@]1(C(=O)NCCCCNC(=O)c1ccc(-c2c3nc(c(-c4cc(S(=O)(=O)[O-])ccc4F)c4ccc([nH]4)c(-c4cc(S(=O)(=O)[O-])ccc4F)c4nc(c(-c5cc(S(=O)(=O)[O-])ccc5F)c5ccc2[nH]5)C=C4)C=C3)cc1)[NH+]1CC[NH2+]CC1
REMARK SMILES IDX 14 1 13 2 12 3 11 4 9 5 10 6 8 8 1 9 2 10 3 11 4 12 5 13
REMARK SMILES IDX 7 14 6 15 82 16 83 17 87 18 84 20 86 21 85 22 15 25 16 26
REMARK SMILES IDX 17 27 18 29 19 30 20 31 81 32 21 33 80 34 22 35 23 36 24 37
REMARK SMILES IDX 74 38 25 39 79 40 73 41 75 42 26 43 78 44 72 45 71 46 27 48
REMARK SMILES IDX 59 49 39 50 58 51 40 52 43 53 57 54 76 55 41 56 42 57 56 59
REMARK SMILES IDX 77 60 44 61 28 62 29 63 37 64 30 65 36 66 38 67 35 68 31 69
REMARK SMILES IDX 32 70 33 71 34 72 60 73 61 74 69 75 62 76 68 77 70 78 67 79
REMARK SMILES IDX 63 80 64 81 65 82 66 83 45 84 46 85 54 86 47 87 53 88 55 89
REMARK SMILES IDX 52 90 48 91 49 92 50 93 51 94
REMARK H PARENT 11 7 82 19 85 23 85 24 16 28 75 47 43 58
REMARK Flexibility Score: inf
ROOT
ATOM      1  C   UNL A   1      31.724  29.658  26.405  1.00  0.00     0.023 C 
ENDROOT
BRANCH   1   2
ATOM      2  C   UNL A   1      31.550  28.581  27.470  1.00  0.00     0.023 C 
BRANCH   2   3
ATOM      3  C   UNL A   1      32.345  27.295  27.229  1.00  0.00     0.116 C 
BRANCH   3   4
ATOM      4  N   UNL A   1      31.494  26.200  26.801  1.00  0.00    -0.351 N 
ATOM      5  C   UNL A   1      31.456  25.328  25.754  1.00  0.00     0.281 C 
ATOM      6  O   UNL A   1      30.428  24.639  25.772  1.00  0.00    -0.268 OA
ATOM      7  H   UNL A   1      30.753  26.047  27.431  1.00  0.00     0.163 HD
BRANCH   5   8
ATOM      8  C   UNL A   1      32.553  25.203  24.561  1.00  0.00     0.182 C 
ATOM      9  C   UNL A   1      33.281  23.425  22.649  1.00  0.00     0.018 C 
ATOM     10  C   UNL A   1      32.289  23.765  23.806  1.00  0.00     0.029 C 
ATOM     11  C   UNL A   1      30.890  23.662  23.142  1.00  0.00     0.018 C 
ATOM     12  C   UNL A   1      32.438  22.613  24.851  1.00  0.00     0.013 C 
ATOM     13  C   UNL A   1      33.800  22.606  25.546  1.00  0.00     0.001 C 
ATOM     14  C   UNL A   1      33.993  25.105  25.156  1.00  0.00     0.080 C 
ATOM     15  C   UNL A   1      34.151  23.955  26.158  1.00  0.00     0.007 C 
BRANCH   8  16
ATOM     16  N   UNL A   1      32.358  26.376  23.604  1.00  0.00    -0.313 N 
ATOM     17  C   UNL A   1      33.396  27.426  23.622  1.00  0.00     0.325 C 
ATOM     18  C   UNL A   1      31.034  27.028  23.698  1.00  0.00     0.325 C 
ATOM     19  H   UNL A   1      32.439  25.889  22.712  1.00  0.00     0.349 HD
ATOM     20  C   UNL A   1      33.127  28.586  22.629  1.00  0.00     0.322 C 
ATOM     21  C   UNL A   1      30.794  28.238  22.765  1.00  0.00     0.322 C 
ATOM     22  N   UNL A   1      31.845  29.257  22.874  1.00  0.00    -0.337 N 
ATOM     23  H   UNL A   1      31.694  29.989  22.180  1.00  0.00     0.346 HD
ATOM     24  H   UNL A   1      31.834  29.691  23.798  1.00  0.00     0.346 HD
ENDBRANCH   8  16
ENDBRANCH   5   8
ENDBRANCH   3   4
ENDBRANCH   2   3
ENDBRANCH   1   2
BRANCH   1  25
ATOM     25  C   UNL A   1      33.081  30.351  26.411  1.00  0.00     0.116 C 
BRANCH  25  26
ATOM     26  N   UNL A   1      33.027  31.701  26.957  1.00  0.00    -0.352 N 
ATOM     27  C   UNL A   1      33.899  32.330  27.816  1.00  0.00     0.251 C 
ATOM     28  H   UNL A   1      32.256  32.242  26.669  1.00  0.00     0.163 HD
ATOM     29  O   UNL A   1      33.621  33.423  28.285  1.00  0.00    -0.269 OA
BRANCH  27  30
ATOM     30  C   UNL A   1      35.152  31.640  28.186  1.00  0.00     0.039 A 
ATOM     31  C   UNL A   1      36.349  32.360  28.179  1.00  0.00     0.014 A 
ATOM     32  C   UNL A   1      35.124  30.309  28.607  1.00  0.00     0.014 A 
ATOM     33  C   UNL A   1      37.506  31.767  28.688  1.00  0.00     0.010 A 
ATOM     34  C   UNL A   1      36.254  29.752  29.190  1.00  0.00     0.010 A 
ATOM     35  C   UNL A   1      37.454  30.479  29.247  1.00  0.00    -0.014 A 
BRANCH  35  36
ATOM     36  C   UNL A   1      38.633  29.875  29.916  1.00  0.00     0.031 A 
ATOM     37  C   UNL A   1      39.047  30.352  31.279  1.00  0.00     0.074 A 
ATOM     38  C   UNL A   1      39.379  28.967  29.254  1.00  0.00     0.049 A 
ATOM     39  N   UNL A   1      40.104  30.039  31.981  1.00  0.00    -0.248 NA
ATOM     40  C   UNL A   1      38.172  31.347  31.920  1.00  0.00     0.031 C 
ATOM     41  C   UNL A   1      39.106  28.468  27.903  1.00  0.00     0.029 A 
ATOM     42  N   UNL A   1      40.529  28.314  29.619  1.00  0.00    -0.354 N 
ATOM     43  C   UNL A   1      40.031  30.808  33.138  1.00  0.00     0.074 A 
ATOM     44  C   UNL A   1      38.859  31.648  33.010  1.00  0.00     0.031 C 
ATOM     45  C   UNL A   1      40.047  27.574  27.564  1.00  0.00     0.029 A 
ATOM     46  C   UNL A   1      41.016  27.467  28.649  1.00  0.00     0.049 A 
ATOM     47  H   UNL A   1      40.965  28.438  30.493  1.00  0.00     0.167 HD
ATOM     48  C   UNL A   1      40.854  30.796  34.216  1.00  0.00     0.034 A 
ATOM     49  C   UNL A   1      42.126  26.705  28.632  1.00  0.00     0.034 A 
ATOM     50  C   UNL A   1      42.007  29.938  34.330  1.00  0.00     0.049 A 
ATOM     51  C   UNL A   1      43.030  26.714  29.837  1.00  0.00     0.074 A 
ATOM     52  C   UNL A   1      42.871  29.792  35.401  1.00  0.00     0.029 A 
ATOM     53  N   UNL A   1      42.464  29.082  33.334  1.00  0.00    -0.354 N 
ATOM     54  N   UNL A   1      42.918  27.405  30.948  1.00  0.00    -0.248 NA
ATOM     55  C   UNL A   1      44.206  25.836  29.790  1.00  0.00     0.031 C 
ATOM     56  C   UNL A   1      43.882  28.897  35.031  1.00  0.00     0.029 A 
ATOM     57  C   UNL A   1      43.612  28.430  33.755  1.00  0.00     0.049 A 
ATOM     58  H   UNL A   1      42.033  28.958  32.457  1.00  0.00     0.167 HD
ATOM     59  C   UNL A   1      43.996  27.026  31.741  1.00  0.00     0.074 A 
ATOM     60  C   UNL A   1      44.734  26.033  30.988  1.00  0.00     0.031 C 
ATOM     61  C   UNL A   1      44.344  27.456  32.981  1.00  0.00     0.034 A 
BRANCH  48  62
ATOM     62  C   UNL A   1      40.540  31.757  35.337  1.00  0.00     0.023 A 
ATOM     63  C   UNL A   1      39.513  31.498  36.263  1.00  0.00     0.031 A 
ATOM     64  C   UNL A   1      41.250  32.963  35.464  1.00  0.00     0.131 A 
ATOM     65  C   UNL A   1      39.173  32.465  37.221  1.00  0.00     0.055 A 
ATOM     66  C   UNL A   1      40.962  33.885  36.472  1.00  0.00     0.041 A 
ATOM     67  F   UNL A   1      42.227  33.275  34.597  1.00  0.00    -0.206 F 
ATOM     68  C   UNL A   1      39.908  33.646  37.349  1.00  0.00     0.022 A 
BRANCH  65  69
ATOM     69  S   UNL A   1      37.667  32.219  38.201  1.00  0.00     0.124 S 
ATOM     70  O   UNL A   1      36.759  33.190  37.594  1.00  0.00    -0.237 OA
ATOM     71  O   UNL A   1      37.358  30.815  37.958  1.00  0.00    -0.237 OA
ATOM     72  O   UNL A   1      38.088  32.540  39.564  1.00  0.00    -0.744 OA
ENDBRANCH  65  69
ENDBRANCH  48  62
BRANCH  49  73
ATOM     73  C   UNL A   1      42.458  25.876  27.437  1.00  0.00     0.023 A 
ATOM     74  C   UNL A   1      42.057  24.534  27.356  1.00  0.00     0.031 A 
ATOM     75  C   UNL A   1      43.213  26.405  26.375  1.00  0.00     0.131 A 
ATOM     76  C   UNL A   1      42.451  23.751  26.260  1.00  0.00     0.055 A 
ATOM     77  C   UNL A   1      43.560  25.636  25.263  1.00  0.00     0.041 A 
ATOM     78  F   UNL A   1      43.615  27.686  26.399  1.00  0.00    -0.206 F 
ATOM     79  C   UNL A   1      43.189  24.296  25.207  1.00  0.00     0.022 A 
BRANCH  76  80
ATOM     80  S   UNL A   1      42.047  21.983  26.267  1.00  0.00     0.124 S 
ATOM     81  O   UNL A   1      42.884  21.482  25.182  1.00  0.00    -0.237 OA
ATOM     82  O   UNL A   1      42.441  21.589  27.615  1.00  0.00    -0.237 OA
ATOM     83  O   UNL A   1      40.609  21.960  26.009  1.00  0.00    -0.744 OA
ENDBRANCH  76  80
ENDBRANCH  49  73
BRANCH  61  84
ATOM     84  C   UNL A   1      45.563  26.820  33.602  1.00  0.00     0.023 A 
ATOM     85  C   UNL A   1      45.469  25.656  34.385  1.00  0.00     0.031 A 
ATOM     86  C   UNL A   1      46.832  27.397  33.421  1.00  0.00     0.131 A 
ATOM     87  C   UNL A   1      46.616  25.138  35.005  1.00  0.00     0.055 A 
ATOM     88  C   UNL A   1      47.978  26.844  33.992  1.00  0.00     0.041 A 
ATOM     89  F   UNL A   1      46.977  28.511  32.685  1.00  0.00    -0.206 F 
ATOM     90  C   UNL A   1      47.872  25.714  34.800  1.00  0.00     0.022 A 
BRANCH  87  91
ATOM     91  S   UNL A   1      46.430  23.748  36.155  1.00  0.00     0.124 S 
ATOM     92  O   UNL A   1      47.767  23.164  36.143  1.00  0.00    -0.237 OA
ATOM     93  O   UNL A   1      46.037  24.416  37.392  1.00  0.00    -0.237 OA
ATOM     94  O   UNL A   1      45.390  22.929  35.536  1.00  0.00    -0.744 OA
ENDBRANCH  87  91
ENDBRANCH  61  84
ENDBRANCH  35  36
ENDBRANCH  27  30
ENDBRANCH  25  26
ENDBRANCH   1  25
TORSDOF 15
ENDMDL
MODEL 3
REMARK VINA RESULT:     -11.7      5.036      7.870
REMARK SMILES CC1(C)CCCC[C@@]1(C(=O)NCCCCNC(=O)c1ccc(-c2c3nc(c(-c4cc(S(=O)(=O)[O-])ccc4F)c4ccc([nH]4)c(-c4cc(S(=O)(=O)[O-])ccc4F)c4nc(c(-c5cc(S(=O)(=O)[O-])ccc5F)c5ccc2[nH]5)C=C4)C=C3)cc1)[NH+]1CC[NH2+]CC1
REMARK SMILES IDX 14 1 13 2 12 3 11 4 9 5 10 6 8 8 1 9 2 10 3 11 4 12 5 13
REMARK SMILES IDX 7 14 6 15 82 16 83 17 87 18 84 20 86 21 85 22 15 25 16 26
REMARK SMILES IDX 17 27 18 29 19 30 20 31 81 32 21 33 80 34 22 35 23 36 24 37
REMARK SMILES IDX 74 38 25 39 79 40 73 41 75 42 26 43 78 44 72 45 71 46 27 48
REMARK SMILES IDX 59 49 39 50 58 51 40 52 43 53 57 54 76 55 41 56 42 57 56 59
REMARK SMILES IDX 77 60 44 61 28 62 29 63 37 64 30 65 36 66 38 67 35 68 31 69
REMARK SMILES IDX 32 70 33 71 34 72 60 73 61 74 69 75 62 76 68 77 70 78 67 79
REMARK SMILES IDX 63 80 64 81 65 82 66 83 45 84 46 85 54 86 47 87 53 88 55 89
REMARK SMILES IDX 52 90 48 91 49 92 50 93 51 94
REMARK H PARENT 11 7 82 19 85 23 85 24 16 28 75 47 43 58
REMARK Flexibility Score: inf
ROOT
ATOM      1  C   UNL A   1      31.393  29.255  26.073  1.00  0.00     0.023 C 
ENDROOT
BRANCH   1   2
ATOM      2  C   UNL A   1      31.417  28.238  27.207  1.00  0.00     0.023 C 
BRANCH   2   3
ATOM      3  C   UNL A   1      32.321  27.024  26.972  1.00  0.00     0.116 C 
BRANCH   3   4
ATOM      4  N   UNL A   1      31.563  25.843  26.601  1.00  0.00    -0.351 N 
ATOM      5  C   UNL A   1      31.636  24.887  25.632  1.00  0.00     0.281 C 
ATOM      6  O   UNL A   1      30.652  24.135  25.660  1.00  0.00    -0.268 OA
ATOM      7  H   UNL A   1      30.801  25.694  27.205  1.00  0.00     0.163 HD
BRANCH   5   8
ATOM      8  C   UNL A   1      32.801  24.736  24.508  1.00  0.00     0.182 C 
ATOM      9  C   UNL A   1      33.712  22.872  22.765  1.00  0.00     0.018 C 
ATOM     10  C   UNL A   1      32.644  23.240  23.843  1.00  0.00     0.029 C 
ATOM     11  C   UNL A   1      31.290  23.023  23.117  1.00  0.00     0.018 C 
ATOM     12  C   UNL A   1      32.788  22.169  24.972  1.00  0.00     0.013 C 
ATOM     13  C   UNL A   1      34.109  22.276  25.734  1.00  0.00     0.001 C 
ATOM     14  C   UNL A   1      34.209  24.750  25.182  1.00  0.00     0.080 C 
ATOM     15  C   UNL A   1      34.364  23.679  26.268  1.00  0.00     0.007 C 
BRANCH   8  16
ATOM     16  N   UNL A   1      32.604  25.831  23.463  1.00  0.00    -0.313 N 
ATOM     17  C   UNL A   1      33.550  26.964  23.505  1.00  0.00     0.325 C 
ATOM     18  C   UNL A   1      31.231  26.373  23.396  1.00  0.00     0.325 C 
ATOM     19  H   UNL A   1      32.808  25.302  22.616  1.00  0.00     0.349 HD
ATOM     20  C   UNL A   1      33.285  28.039  22.419  1.00  0.00     0.322 C 
ATOM     21  C   UNL A   1      30.984  27.502  22.367  1.00  0.00     0.322 C 
ATOM     22  N   UNL A   1      31.936  28.611  22.503  1.00  0.00    -0.337 N 
ATOM     23  H   UNL A   1      31.795  29.286  21.752  1.00  0.00     0.346 HD
ATOM     24  H   UNL A   1      31.803  29.095  23.392  1.00  0.00     0.346 HD
ENDBRANCH   8  16
ENDBRANCH   5   8
ENDBRANCH   3   4
ENDBRANCH   2   3
ENDBRANCH   1   2
BRANCH   1  25
ATOM     25  C   UNL A   1      32.651  30.105  25.948  1.00  0.00     0.116 C 
BRANCH  25  26
ATOM     26  N   UNL A   1      32.465  31.469  26.425  1.00  0.00    -0.352 N 
ATOM     27  C   UNL A   1      33.228  32.195  27.312  1.00  0.00     0.251 C 
ATOM     28  H   UNL A   1      31.681  31.940  26.061  1.00  0.00     0.163 HD
ATOM     29  O   UNL A   1      32.841  33.283  27.709  1.00  0.00    -0.269 OA
BRANCH  27  30
ATOM     30  C   UNL A   1      34.496  31.615  27.798  1.00  0.00     0.039 A 
ATOM     31  C   UNL A   1      35.589  32.457  28.014  1.00  0.00     0.014 A 
ATOM     32  C   UNL A   1      34.574  30.255  28.106  1.00  0.00     0.014 A 
ATOM     33  C   UNL A   1      36.732  31.949  28.632  1.00  0.00     0.010 A 
ATOM     34  C   UNL A   1      35.678  29.771  28.796  1.00  0.00     0.010 A 
ATOM     35  C   UNL A   1      36.764  30.616  29.076  1.00  0.00    -0.014 A 
BRANCH  35  36
ATOM     36  C   UNL A   1      37.911  30.085  29.854  1.00  0.00     0.031 A 
ATOM     37  C   UNL A   1      38.161  30.577  31.250  1.00  0.00     0.074 A 
ATOM     38  C   UNL A   1      38.774  29.232  29.265  1.00  0.00     0.049 A 
ATOM     39  N   UNL A   1      39.164  30.328  32.050  1.00  0.00    -0.248 NA
ATOM     40  C   UNL A   1      37.166  31.509  31.806  1.00  0.00     0.031 C 
ATOM     41  C   UNL A   1      38.663  28.726  27.893  1.00  0.00     0.029 A 
ATOM     42  N   UNL A   1      39.924  28.651  29.737  1.00  0.00    -0.354 N 
ATOM     43  C   UNL A   1      38.932  31.081  33.196  1.00  0.00     0.074 A 
ATOM     44  C   UNL A   1      37.725  31.845  32.958  1.00  0.00     0.031 C 
ATOM     45  C   UNL A   1      39.688  27.897  27.645  1.00  0.00     0.029 A 
ATOM     46  C   UNL A   1      40.555  27.845  28.817  1.00  0.00     0.049 A 
ATOM     47  H   UNL A   1      40.265  28.797  30.649  1.00  0.00     0.167 HD
ATOM     48  C   UNL A   1      39.647  31.114  34.347  1.00  0.00     0.034 A 
ATOM     49  C   UNL A   1      41.708  27.155  28.905  1.00  0.00     0.034 A 
ATOM     50  C   UNL A   1      40.837  30.331  34.570  1.00  0.00     0.049 A 
ATOM     51  C   UNL A   1      42.491  27.214  30.191  1.00  0.00     0.074 A 
ATOM     52  C   UNL A   1      41.603  30.233  35.719  1.00  0.00     0.029 A 
ATOM     53  N   UNL A   1      41.441  29.514  33.622  1.00  0.00    -0.354 N 
ATOM     54  N   UNL A   1      42.228  27.888  31.288  1.00  0.00    -0.248 NA
ATOM     55  C   UNL A   1      43.720  26.414  30.255  1.00  0.00     0.031 C 
ATOM     56  C   UNL A   1      42.700  29.407  35.446  1.00  0.00     0.029 A 
ATOM     57  C   UNL A   1      42.584  28.934  34.150  1.00  0.00     0.049 A 
ATOM     58  H   UNL A   1      41.106  29.369  32.707  1.00  0.00     0.167 HD
ATOM     59  C   UNL A   1      43.248  27.573  32.179  1.00  0.00     0.074 A 
ATOM     60  C   UNL A   1      44.118  26.635  31.499  1.00  0.00     0.031 C 
ATOM     61  C   UNL A   1      43.448  28.015  33.448  1.00  0.00     0.034 A 
BRANCH  48  62
ATOM     62  C   UNL A   1      39.165  32.044  35.435  1.00  0.00     0.023 A 
ATOM     63  C   UNL A   1      39.597  33.380  35.508  1.00  0.00     0.031 A 
ATOM     64  C   UNL A   1      38.291  31.580  36.433  1.00  0.00     0.131 A 
ATOM     65  C   UNL A   1      39.220  34.181  36.596  1.00  0.00     0.055 A 
ATOM     66  C   UNL A   1      37.852  32.408  37.469  1.00  0.00     0.041 A 
ATOM     67  F   UNL A   1      37.861  30.309  36.429  1.00  0.00    -0.206 F 
ATOM     68  C   UNL A   1      38.328  33.712  37.564  1.00  0.00     0.022 A 
BRANCH  65  69
ATOM     69  S   UNL A   1      40.023  35.793  36.803  1.00  0.00     0.124 S 
ATOM     70  O   UNL A   1      39.667  36.462  35.553  1.00  0.00    -0.237 OA
ATOM     71  O   UNL A   1      39.386  36.311  38.008  1.00  0.00    -0.237 OA
ATOM     72  O   UNL A   1      41.439  35.457  36.940  1.00  0.00    -0.744 OA
ENDBRANCH  65  69
ENDBRANCH  48  62
BRANCH  49  73
ATOM     73  C   UNL A   1      42.205  26.359  27.746  1.00  0.00     0.023 A 
ATOM     74  C   UNL A   1      41.829  25.018  27.578  1.00  0.00     0.031 A 
ATOM     75  C   UNL A   1      43.095  26.918  26.811  1.00  0.00     0.131 A 
ATOM     76  C   UNL A   1      42.374  24.265  26.527  1.00  0.00     0.055 A 
ATOM     77  C   UNL A   1      43.595  26.178  25.738  1.00  0.00     0.041 A 
ATOM     78  F   UNL A   1      43.480  28.200  26.921  1.00  0.00    -0.206 F 
ATOM     79  C   UNL A   1      43.245  24.840  25.598  1.00  0.00     0.022 A 
BRANCH  76  80
ATOM     80  S   UNL A   1      41.986  22.495  26.435  1.00  0.00     0.124 S 
ATOM     81  O   UNL A   1      40.531  22.504  26.537  1.00  0.00    -0.237 OA
ATOM     82  O   UNL A   1      42.535  22.133  25.133  1.00  0.00    -0.237 OA
ATOM     83  O   UNL A   1      42.690  21.932  27.585  1.00  0.00    -0.744 OA
ENDBRANCH  76  80
ENDBRANCH  49  73
BRANCH  61  84
ATOM     84  C   UNL A   1      44.641  27.454  34.182  1.00  0.00     0.023 A 
ATOM     85  C   UNL A   1      44.545  26.288  34.961  1.00  0.00     0.031 A 
ATOM     86  C   UNL A   1      45.885  28.106  34.112  1.00  0.00     0.131 A 
ATOM     87  C   UNL A   1      45.660  25.841  35.687  1.00  0.00     0.055 A 
ATOM     88  C   UNL A   1      47.005  27.623  34.790  1.00  0.00     0.041 A 
ATOM     89  F   UNL A   1      46.029  29.225  33.384  1.00  0.00    -0.206 F 
ATOM     90  C   UNL A   1      46.892  26.490  35.593  1.00  0.00     0.022 A 
BRANCH  87  91
ATOM     91  S   UNL A   1      45.452  24.444  36.825  1.00  0.00     0.124 S 
ATOM     92  O   UNL A   1      46.835  24.108  37.147  1.00  0.00    -0.237 OA
ATOM     93  O   UNL A   1      44.671  25.035  37.907  1.00  0.00    -0.237 OA
ATOM     94  O   UNL A   1      44.743  23.450  36.021  1.00  0.00    -0.744 OA
ENDBRANCH  87  91
ENDBRANCH  61  84
ENDBRANCH  35  36
ENDBRANCH  27  30
ENDBRANCH  25  26
ENDBRANCH   1  25
TORSDOF 15
ENDMDL
