MODEL 1
REMARK VINA RESULT:     -11.7      0.000      0.000
REMARK SMILES CCn1cccc1C(=O)N(C)c1snc(C)c1C(=O)NCCCCNC(=O)c1ccc(-c2c3nc(c(-c4cc(S(=O)(=O)[O-])ccc4F)c4ccc([nH]4)c(-c4cc(S(=O)(=O)[O-])ccc4F)c4nc(c(-c5cc(S(=O)(=O)[O-])ccc5F)c5ccc2[nH]5)C=C4)C=C3)cc1
REMARK SMILES IDX 22 1 21 2 20 3 18 4 19 5 17 7 12 8 13 9 14 10 15 11 16 12
REMARK SMILES IDX 10 13 11 14 8 15 9 16 7 17 3 18 4 19 5 20 6 21 2 22 1 23
REMARK SMILES IDX 23 24 24 25 25 26 26 27 27 29 28 30 29 31 90 32 30 33 89 34
REMARK SMILES IDX 31 35 32 36 33 37 83 38 34 39 88 40 82 41 84 42 35 43 87 44
REMARK SMILES IDX 81 45 80 46 36 48 68 49 48 50 67 51 49 52 52 53 66 54 85 55
REMARK SMILES IDX 50 56 51 57 65 59 86 60 53 61 37 62 38 63 46 64 39 65 45 66
REMARK SMILES IDX 47 67 44 68 40 69 41 70 42 71 43 72 69 73 70 74 78 75 71 76
REMARK SMILES IDX 77 77 79 78 76 79 72 80 73 81 74 82 75 83 54 84 55 85 63 86
REMARK SMILES IDX 56 87 62 88 64 89 61 90 57 91 58 92 59 93 60 94
REMARK H PARENT 20 6 25 28 84 47 52 58
REMARK Flexibility Score: inf
ROOT
ATOM      1  C   UNL A   1      32.182  29.025  26.677  1.00  0.00     0.023 C 
ENDROOT
BRANCH   1   2
ATOM      2  C   UNL A   1      32.271  30.059  25.560  1.00  0.00     0.116 C 
BRANCH   2   3
ATOM      3  N   UNL A   1      32.921  29.635  24.351  1.00  0.00    -0.352 N 
ATOM      4  C   UNL A   1      32.689  28.610  23.460  1.00  0.00     0.256 C 
ATOM      5  O   UNL A   1      33.408  28.700  22.458  1.00  0.00    -0.269 OA
ATOM      6  H   UNL A   1      33.694  30.193  24.110  1.00  0.00     0.163 HD
BRANCH   4   7
ATOM      7  C   UNL A   1      31.760  27.465  23.605  1.00  0.00     0.097 A 
ATOM      8  C   UNL A   1      31.962  26.115  23.889  1.00  0.00     0.131 A 
ATOM      9  S   UNL A   1      30.476  25.281  24.025  1.00  0.00    -0.017 S 
ATOM     10  N   UNL A   1      29.529  26.552  23.619  1.00  0.00    -0.195 NA
ATOM     11  C   UNL A   1      30.293  27.633  23.442  1.00  0.00     0.066 A 
ATOM     12  C   UNL A   1      29.524  28.854  23.044  1.00  0.00     0.069 C 
BRANCH   8  13
ATOM     13  N   UNL A   1      33.081  25.281  24.006  1.00  0.00    -0.300 N 
ATOM     14  C   UNL A   1      33.719  24.882  22.757  1.00  0.00     0.154 C 
BRANCH  13  15
ATOM     15  C   UNL A   1      33.382  24.881  25.322  1.00  0.00     0.275 C 
ATOM     16  O   UNL A   1      33.162  25.689  26.235  1.00  0.00    -0.267 OA
BRANCH  15  17
ATOM     17  C   UNL A   1      34.090  23.634  25.681  1.00  0.00     0.107 A 
ATOM     18  N   UNL A   1      35.400  23.166  25.698  1.00  0.00    -0.344 N 
ATOM     19  C   UNL A   1      35.433  21.887  26.223  1.00  0.00     0.086 A 
ATOM     20  C   UNL A   1      34.153  21.430  26.352  1.00  0.00     0.020 A 
ATOM     21  C   UNL A   1      33.324  22.521  26.065  1.00  0.00     0.033 A 
BRANCH  18  22
ATOM     22  C   UNL A   1      36.629  23.704  25.144  1.00  0.00     0.119 C 
ATOM     23  C   UNL A   1      37.803  23.687  26.100  1.00  0.00     0.027 C 
ENDBRANCH  18  22
ENDBRANCH  15  17
ENDBRANCH  13  15
ENDBRANCH   8  13
ENDBRANCH   4   7
ENDBRANCH   2   3
ENDBRANCH   1   2
BRANCH   1  24
ATOM     24  C   UNL A   1      33.381  28.929  27.622  1.00  0.00     0.023 C 
BRANCH  24  25
ATOM     25  C   UNL A   1      34.735  29.259  26.987  1.00  0.00     0.116 C 
BRANCH  25  26
ATOM     26  N   UNL A   1      35.234  30.563  27.391  1.00  0.00    -0.352 N 
ATOM     27  C   UNL A   1      36.352  30.890  28.125  1.00  0.00     0.251 C 
ATOM     28  H   UNL A   1      34.692  31.329  27.094  1.00  0.00     0.163 HD
ATOM     29  O   UNL A   1      36.419  32.020  28.608  1.00  0.00    -0.269 OA
BRANCH  27  30
ATOM     30  C   UNL A   1      37.449  29.920  28.378  1.00  0.00     0.039 A 
ATOM     31  C   UNL A   1      38.500  29.857  27.455  1.00  0.00     0.014 A 
ATOM     32  C   UNL A   1      37.422  29.019  29.447  1.00  0.00     0.014 A 
ATOM     33  C   UNL A   1      39.556  28.965  27.655  1.00  0.00     0.010 A 
ATOM     34  C   UNL A   1      38.455  28.097  29.632  1.00  0.00     0.010 A 
ATOM     35  C   UNL A   1      39.554  28.111  28.767  1.00  0.00    -0.014 A 
BRANCH  35  36
ATOM     36  C   UNL A   1      40.838  27.486  29.185  1.00  0.00     0.031 A 
ATOM     37  C   UNL A   1      41.221  26.331  28.225  1.00  0.00     0.074 A 
ATOM     38  C   UNL A   1      41.463  27.940  30.313  1.00  0.00     0.049 A 
ATOM     39  N   UNL A   1      41.807  25.195  28.461  1.00  0.00    -0.248 NA
ATOM     40  C   UNL A   1      40.762  26.402  26.808  1.00  0.00     0.031 C 
ATOM     41  C   UNL A   1      41.008  29.080  31.139  1.00  0.00     0.029 A 
ATOM     42  N   UNL A   1      42.597  27.545  30.998  1.00  0.00    -0.354 N 
ATOM     43  C   UNL A   1      41.969  24.531  27.218  1.00  0.00     0.074 A 
ATOM     44  C   UNL A   1      41.169  25.249  26.278  1.00  0.00     0.031 C 
ATOM     45  C   UNL A   1      41.800  29.240  32.226  1.00  0.00     0.029 A 
ATOM     46  C   UNL A   1      42.848  28.234  32.219  1.00  0.00     0.049 A 
ATOM     47  H   UNL A   1      43.193  26.836  30.663  1.00  0.00     0.167 HD
ATOM     48  C   UNL A   1      42.864  23.521  27.002  1.00  0.00     0.034 A 
ATOM     49  C   UNL A   1      43.800  27.984  33.175  1.00  0.00     0.034 A 
ATOM     50  C   UNL A   1      43.566  23.235  28.207  1.00  0.00     0.049 A 
ATOM     51  C   UNL A   1      44.598  26.873  32.635  1.00  0.00     0.074 A 
ATOM     52  C   UNL A   1      43.226  22.632  29.386  1.00  0.00     0.029 A 
ATOM     53  N   UNL A   1      44.791  23.840  28.356  1.00  0.00    -0.354 N 
ATOM     54  N   UNL A   1      45.488  26.974  31.698  1.00  0.00    -0.248 NA
ATOM     55  C   UNL A   1      44.359  25.524  33.169  1.00  0.00     0.031 C 
ATOM     56  C   UNL A   1      44.049  23.269  30.339  1.00  0.00     0.029 A 
ATOM     57  C   UNL A   1      44.923  24.146  29.684  1.00  0.00     0.049 A 
ATOM     58  H   UNL A   1      45.448  24.020  27.644  1.00  0.00     0.167 HD
ATOM     59  C   UNL A   1      45.700  25.665  31.340  1.00  0.00     0.074 A 
ATOM     60  C   UNL A   1      45.251  24.853  32.446  1.00  0.00     0.031 C 
ATOM     61  C   UNL A   1      45.697  25.321  30.030  1.00  0.00     0.034 A 
BRANCH  48  62
ATOM     62  C   UNL A   1      43.400  22.862  25.747  1.00  0.00     0.023 A 
ATOM     63  C   UNL A   1      43.493  21.444  25.775  1.00  0.00     0.031 A 
ATOM     64  C   UNL A   1      44.069  23.496  24.692  1.00  0.00     0.131 A 
ATOM     65  C   UNL A   1      44.320  20.737  24.892  1.00  0.00     0.055 A 
ATOM     66  C   UNL A   1      44.840  22.778  23.761  1.00  0.00     0.041 A 
ATOM     67  F   UNL A   1      44.081  24.828  24.558  1.00  0.00    -0.206 F 
ATOM     68  C   UNL A   1      45.001  21.399  23.881  1.00  0.00     0.022 A 
BRANCH  65  69
ATOM     69  S   UNL A   1      44.623  18.975  25.220  1.00  0.00     0.124 S 
ATOM     70  O   UNL A   1      45.944  18.997  25.837  1.00  0.00    -0.237 OA
ATOM     71  O   UNL A   1      43.511  18.637  26.104  1.00  0.00    -0.237 OA
ATOM     72  O   UNL A   1      44.566  18.369  23.892  1.00  0.00    -0.744 OA
ENDBRANCH  65  69
ENDBRANCH  48  62
BRANCH  49  73
ATOM     73  C   UNL A   1      44.191  28.432  34.580  1.00  0.00     0.023 A 
ATOM     74  C   UNL A   1      45.134  29.418  34.915  1.00  0.00     0.031 A 
ATOM     75  C   UNL A   1      43.525  27.850  35.711  1.00  0.00     0.131 A 
ATOM     76  C   UNL A   1      45.310  29.815  36.274  1.00  0.00     0.055 A 
ATOM     77  C   UNL A   1      43.639  28.299  37.026  1.00  0.00     0.041 A 
ATOM     78  F   UNL A   1      42.709  26.793  35.597  1.00  0.00    -0.206 F 
ATOM     79  C   UNL A   1      44.529  29.302  37.314  1.00  0.00     0.022 A 
BRANCH  76  80
ATOM     80  S   UNL A   1      46.563  31.036  36.762  1.00  0.00     0.124 S 
ATOM     81  O   UNL A   1      45.981  32.280  36.265  1.00  0.00    -0.237 OA
ATOM     82  O   UNL A   1      46.625  30.891  38.212  1.00  0.00    -0.237 OA
ATOM     83  O   UNL A   1      47.757  30.583  36.048  1.00  0.00    -0.744 OA
ENDBRANCH  76  80
ENDBRANCH  49  73
BRANCH  61  84
ATOM     84  C   UNL A   1      46.093  26.450  29.090  1.00  0.00     0.023 A 
ATOM     85  C   UNL A   1      45.100  27.215  28.452  1.00  0.00     0.031 A 
ATOM     86  C   UNL A   1      47.422  26.709  28.707  1.00  0.00     0.131 A 
ATOM     87  C   UNL A   1      45.445  28.174  27.479  1.00  0.00     0.055 A 
ATOM     88  C   UNL A   1      47.770  27.676  27.759  1.00  0.00     0.041 A 
ATOM     89  F   UNL A   1      48.429  26.007  29.225  1.00  0.00    -0.206 F 
ATOM     90  C   UNL A   1      46.777  28.415  27.135  1.00  0.00     0.022 A 
BRANCH  87  91
ATOM     91  S   UNL A   1      44.130  29.129  26.674  1.00  0.00     0.124 S 
ATOM     92  O   UNL A   1      43.238  29.443  27.792  1.00  0.00    -0.237 OA
ATOM     93  O   UNL A   1      44.849  30.248  26.099  1.00  0.00    -0.237 OA
ATOM     94  O   UNL A   1      43.574  28.185  25.698  1.00  0.00    -0.744 OA
ENDBRANCH  87  91
ENDBRANCH  61  84
ENDBRANCH  35  36
ENDBRANCH  27  30
ENDBRANCH  25  26
ENDBRANCH  24  25
ENDBRANCH   1  24
TORSDOF 18
ENDMDL
MODEL 2
REMARK VINA RESULT:     -11.7      4.389      9.845
REMARK SMILES CCn1cccc1C(=O)N(C)c1snc(C)c1C(=O)NCCCCNC(=O)c1ccc(-c2c3nc(c(-c4cc(S(=O)(=O)[O-])ccc4F)c4ccc([nH]4)c(-c4cc(S(=O)(=O)[O-])ccc4F)c4nc(c(-c5cc(S(=O)(=O)[O-])ccc5F)c5ccc2[nH]5)C=C4)C=C3)cc1
REMARK SMILES IDX 22 1 21 2 20 3 18 4 19 5 17 7 12 8 13 9 14 10 15 11 16 12
REMARK SMILES IDX 10 13 11 14 8 15 9 16 7 17 3 18 4 19 5 20 6 21 2 22 1 23
REMARK SMILES IDX 23 24 24 25 25 26 26 27 27 29 28 30 29 31 90 32 30 33 89 34
REMARK SMILES IDX 31 35 32 36 33 37 83 38 34 39 88 40 82 41 84 42 35 43 87 44
REMARK SMILES IDX 81 45 80 46 36 48 68 49 48 50 67 51 49 52 52 53 66 54 85 55
REMARK SMILES IDX 50 56 51 57 65 59 86 60 53 61 37 62 38 63 46 64 39 65 45 66
REMARK SMILES IDX 47 67 44 68 40 69 41 70 42 71 43 72 69 73 70 74 78 75 71 76
REMARK SMILES IDX 77 77 79 78 76 79 72 80 73 81 74 82 75 83 54 84 55 85 63 86
REMARK SMILES IDX 56 87 62 88 64 89 61 90 57 91 58 92 59 93 60 94
REMARK H PARENT 20 6 25 28 84 47 52 58
REMARK Flexibility Score: inf
ROOT
ATOM      1  C   UNL A   1      35.941  24.041  24.961  1.00  0.00     0.023 C 
ENDROOT
BRANCH   1   2
ATOM      2  C   UNL A   1      34.677  23.187  24.992  1.00  0.00     0.116 C 
BRANCH   2   3
ATOM      3  N   UNL A   1      33.846  23.239  23.821  1.00  0.00    -0.352 N 
ATOM      4  C   UNL A   1      32.670  23.891  23.521  1.00  0.00     0.256 C 
ATOM      5  O   UNL A   1      32.372  23.778  22.327  1.00  0.00    -0.269 OA
ATOM      6  H   UNL A   1      34.189  22.693  23.078  1.00  0.00     0.163 HD
BRANCH   4   7
ATOM      7  C   UNL A   1      31.769  24.620  24.444  1.00  0.00     0.097 A 
ATOM      8  C   UNL A   1      31.369  25.954  24.515  1.00  0.00     0.131 A 
ATOM      9  S   UNL A   1      30.221  26.192  25.759  1.00  0.00    -0.017 S 
ATOM     10  N   UNL A   1      30.267  24.660  26.329  1.00  0.00    -0.195 NA
ATOM     11  C   UNL A   1      31.084  23.928  25.567  1.00  0.00     0.066 A 
ATOM     12  C   UNL A   1      31.217  22.507  26.016  1.00  0.00     0.069 C 
BRANCH   8  13
ATOM     13  N   UNL A   1      31.744  27.140  23.870  1.00  0.00    -0.300 N 
ATOM     14  C   UNL A   1      30.856  27.604  22.810  1.00  0.00     0.154 C 
BRANCH  13  15
ATOM     15  C   UNL A   1      32.978  27.672  24.289  1.00  0.00     0.275 C 
ATOM     16  O   UNL A   1      34.002  27.280  23.713  1.00  0.00    -0.267 OA
BRANCH  15  17
ATOM     17  C   UNL A   1      33.162  28.540  25.472  1.00  0.00     0.107 A 
ATOM     18  N   UNL A   1      32.506  29.613  26.069  1.00  0.00    -0.344 N 
ATOM     19  C   UNL A   1      33.154  29.963  27.240  1.00  0.00     0.086 A 
ATOM     20  C   UNL A   1      34.335  29.282  27.312  1.00  0.00     0.020 A 
ATOM     21  C   UNL A   1      34.319  28.370  26.249  1.00  0.00     0.033 A 
BRANCH  18  22
ATOM     22  C   UNL A   1      31.426  30.466  25.610  1.00  0.00     0.119 C 
ATOM     23  C   UNL A   1      31.276  31.756  26.390  1.00  0.00     0.027 C 
ENDBRANCH  18  22
ENDBRANCH  15  17
ENDBRANCH  13  15
ENDBRANCH   8  13
ENDBRANCH   4   7
ENDBRANCH   2   3
ENDBRANCH   1   2
BRANCH   1  24
ATOM     24  C   UNL A   1      37.259  23.326  25.258  1.00  0.00     0.023 C 
BRANCH  24  25
ATOM     25  C   UNL A   1      37.809  23.538  26.671  1.00  0.00     0.116 C 
BRANCH  25  26
ATOM     26  N   UNL A   1      39.210  23.168  26.784  1.00  0.00    -0.352 N 
ATOM     27  C   UNL A   1      40.318  23.961  26.975  1.00  0.00     0.251 C 
ATOM     28  H   UNL A   1      39.394  22.204  26.714  1.00  0.00     0.163 HD
ATOM     29  O   UNL A   1      41.425  23.479  26.735  1.00  0.00    -0.269 OA
BRANCH  27  30
ATOM     30  C   UNL A   1      40.218  25.374  27.423  1.00  0.00     0.039 A 
ATOM     31  C   UNL A   1      39.938  25.621  28.772  1.00  0.00     0.014 A 
ATOM     32  C   UNL A   1      40.305  26.451  26.534  1.00  0.00     0.014 A 
ATOM     33  C   UNL A   1      39.841  26.934  29.240  1.00  0.00     0.010 A 
ATOM     34  C   UNL A   1      40.170  27.765  26.987  1.00  0.00     0.010 A 
ATOM     35  C   UNL A   1      39.996  28.009  28.353  1.00  0.00    -0.014 A 
BRANCH  35  36
ATOM     36  C   UNL A   1      40.300  29.353  28.914  1.00  0.00     0.031 A 
ATOM     37  C   UNL A   1      39.001  30.055  29.384  1.00  0.00     0.074 A 
ATOM     38  C   UNL A   1      41.592  29.800  28.908  1.00  0.00     0.049 A 
ATOM     39  N   UNL A   1      38.658  31.308  29.349  1.00  0.00    -0.248 NA
ATOM     40  C   UNL A   1      37.861  29.210  29.843  1.00  0.00     0.031 C 
ATOM     41  C   UNL A   1      42.763  29.018  28.453  1.00  0.00     0.029 A 
ATOM     42  N   UNL A   1      42.190  30.991  29.276  1.00  0.00    -0.354 N 
ATOM     43  C   UNL A   1      37.382  31.419  29.960  1.00  0.00     0.074 A 
ATOM     44  C   UNL A   1      36.889  30.085  30.092  1.00  0.00     0.031 C 
ATOM     45  C   UNL A   1      43.895  29.760  28.506  1.00  0.00     0.029 A 
ATOM     46  C   UNL A   1      43.584  31.088  29.003  1.00  0.00     0.049 A 
ATOM     47  H   UNL A   1      41.685  31.723  29.700  1.00  0.00     0.167 HD
ATOM     48  C   UNL A   1      36.870  32.586  30.454  1.00  0.00     0.034 A 
ATOM     49  C   UNL A   1      44.417  32.172  29.126  1.00  0.00     0.034 A 
ATOM     50  C   UNL A   1      37.793  33.647  30.235  1.00  0.00     0.049 A 
ATOM     51  C   UNL A   1      43.576  33.236  29.694  1.00  0.00     0.074 A 
ATOM     52  C   UNL A   1      38.201  34.339  29.128  1.00  0.00     0.029 A 
ATOM     53  N   UNL A   1      38.626  33.956  31.283  1.00  0.00    -0.354 N 
ATOM     54  N   UNL A   1      43.202  33.316  30.933  1.00  0.00    -0.248 NA
ATOM     55  C   UNL A   1      43.085  34.288  28.793  1.00  0.00     0.031 C 
ATOM     56  C   UNL A   1      39.532  34.698  29.429  1.00  0.00     0.029 A 
ATOM     57  C   UNL A   1      39.833  34.307  30.740  1.00  0.00     0.049 A 
ATOM     58  H   UNL A   1      38.399  33.931  32.241  1.00  0.00     0.167 HD
ATOM     59  C   UNL A   1      42.206  34.259  30.888  1.00  0.00     0.074 A 
ATOM     60  C   UNL A   1      42.402  35.014  29.673  1.00  0.00     0.031 C 
ATOM     61  C   UNL A   1      41.026  34.017  31.509  1.00  0.00     0.034 A 
BRANCH  48  62
ATOM     62  C   UNL A   1      35.697  32.901  31.361  1.00  0.00     0.023 A 
ATOM     63  C   UNL A   1      34.806  33.911  30.906  1.00  0.00     0.031 A 
ATOM     64  C   UNL A   1      35.554  32.522  32.703  1.00  0.00     0.131 A 
ATOM     65  C   UNL A   1      33.942  34.585  31.776  1.00  0.00     0.055 A 
ATOM     66  C   UNL A   1      34.632  33.150  33.559  1.00  0.00     0.041 A 
ATOM     67  F   UNL A   1      36.341  31.598  33.267  1.00  0.00    -0.206 F 
ATOM     68  C   UNL A   1      33.850  34.212  33.109  1.00  0.00     0.022 A 
BRANCH  65  69
ATOM     69  S   UNL A   1      33.090  36.070  31.165  1.00  0.00     0.124 S 
ATOM     70  O   UNL A   1      33.212  35.925  29.719  1.00  0.00    -0.237 OA
ATOM     71  O   UNL A   1      31.748  35.896  31.713  1.00  0.00    -0.237 OA
ATOM     72  O   UNL A   1      33.860  37.166  31.748  1.00  0.00    -0.744 OA
ENDBRANCH  65  69
ENDBRANCH  48  62
BRANCH  49  73
ATOM     73  C   UNL A   1      45.843  32.595  28.783  1.00  0.00     0.023 A 
ATOM     74  C   UNL A   1      46.249  33.354  27.673  1.00  0.00     0.031 A 
ATOM     75  C   UNL A   1      46.911  32.244  29.677  1.00  0.00     0.131 A 
ATOM     76  C   UNL A   1      47.607  33.774  27.546  1.00  0.00     0.055 A 
ATOM     77  C   UNL A   1      48.216  32.727  29.592  1.00  0.00     0.041 A 
ATOM     78  F   UNL A   1      46.739  31.399  30.702  1.00  0.00    -0.206 F 
ATOM     79  C   UNL A   1      48.570  33.512  28.525  1.00  0.00     0.022 A 
BRANCH  76  80
ATOM     80  S   UNL A   1      48.193  34.699  26.096  1.00  0.00     0.124 S 
ATOM     81  O   UNL A   1      49.448  34.019  25.791  1.00  0.00    -0.237 OA
ATOM     82  O   UNL A   1      47.116  34.521  25.129  1.00  0.00    -0.237 OA
ATOM     83  O   UNL A   1      48.336  36.061  26.612  1.00  0.00    -0.744 OA
ENDBRANCH  76  80
ENDBRANCH  49  73
BRANCH  61  84
ATOM     84  C   UNL A   1      41.130  33.062  32.689  1.00  0.00     0.023 A 
ATOM     85  C   UNL A   1      40.740  31.719  32.543  1.00  0.00     0.031 A 
ATOM     86  C   UNL A   1      41.482  33.472  33.988  1.00  0.00     0.131 A 
ATOM     87  C   UNL A   1      40.703  30.856  33.657  1.00  0.00     0.055 A 
ATOM     88  C   UNL A   1      41.469  32.613  35.091  1.00  0.00     0.041 A 
ATOM     89  F   UNL A   1      41.826  34.736  34.234  1.00  0.00    -0.206 F 
ATOM     90  C   UNL A   1      41.074  31.294  34.929  1.00  0.00     0.022 A 
BRANCH  87  91
ATOM     91  S   UNL A   1      40.181  29.135  33.424  1.00  0.00     0.124 S 
ATOM     92  O   UNL A   1      40.839  28.774  32.166  1.00  0.00    -0.237 OA
ATOM     93  O   UNL A   1      40.683  28.480  34.615  1.00  0.00    -0.237 OA
ATOM     94  O   UNL A   1      38.719  29.231  33.341  1.00  0.00    -0.744 OA
ENDBRANCH  87  91
ENDBRANCH  61  84
ENDBRANCH  35  36
ENDBRANCH  27  30
ENDBRANCH  25  26
ENDBRANCH  24  25
ENDBRANCH   1  24
TORSDOF 18
ENDMDL
MODEL 3
REMARK VINA RESULT:     -11.5      4.426      9.896
REMARK SMILES CCn1cccc1C(=O)N(C)c1snc(C)c1C(=O)NCCCCNC(=O)c1ccc(-c2c3nc(c(-c4cc(S(=O)(=O)[O-])ccc4F)c4ccc([nH]4)c(-c4cc(S(=O)(=O)[O-])ccc4F)c4nc(c(-c5cc(S(=O)(=O)[O-])ccc5F)c5ccc2[nH]5)C=C4)C=C3)cc1
REMARK SMILES IDX 22 1 21 2 20 3 18 4 19 5 17 7 12 8 13 9 14 10 15 11 16 12
REMARK SMILES IDX 10 13 11 14 8 15 9 16 7 17 3 18 4 19 5 20 6 21 2 22 1 23
REMARK SMILES IDX 23 24 24 25 25 26 26 27 27 29 28 30 29 31 90 32 30 33 89 34
REMARK SMILES IDX 31 35 32 36 33 37 83 38 34 39 88 40 82 41 84 42 35 43 87 44
REMARK SMILES IDX 81 45 80 46 36 48 68 49 48 50 67 51 49 52 52 53 66 54 85 55
REMARK SMILES IDX 50 56 51 57 65 59 86 60 53 61 37 62 38 63 46 64 39 65 45 66
REMARK SMILES IDX 47 67 44 68 40 69 41 70 42 71 43 72 69 73 70 74 78 75 71 76
REMARK SMILES IDX 77 77 79 78 76 79 72 80 73 81 74 82 75 83 54 84 55 85 63 86
REMARK SMILES IDX 56 87 62 88 64 89 61 90 57 91 58 92 59 93 60 94
REMARK H PARENT 20 6 25 28 84 47 52 58
REMARK Flexibility Score: inf
ROOT
ATOM      1  C   UNL A   1      35.914  23.400  24.966  1.00  0.00     0.023 C 
ENDROOT
BRANCH   1   2
ATOM      2  C   UNL A   1      34.788  22.380  24.828  1.00  0.00     0.116 C 
BRANCH   2   3
ATOM      3  N   UNL A   1      33.478  22.822  25.217  1.00  0.00    -0.352 N 
ATOM      4  C   UNL A   1      32.620  23.785  24.733  1.00  0.00     0.256 C 
ATOM      5  O   UNL A   1      31.512  23.730  25.278  1.00  0.00    -0.269 OA
ATOM      6  H   UNL A   1      33.120  22.336  25.993  1.00  0.00     0.163 HD
BRANCH   4   7
ATOM      7  C   UNL A   1      32.899  24.836  23.726  1.00  0.00     0.097 A 
ATOM      8  C   UNL A   1      33.018  26.222  23.817  1.00  0.00     0.131 A 
ATOM      9  S   UNL A   1      33.450  26.907  22.312  1.00  0.00    -0.017 S 
ATOM     10  N   UNL A   1      33.392  25.509  21.465  1.00  0.00    -0.195 NA
ATOM     11  C   UNL A   1      33.116  24.500  22.296  1.00  0.00     0.066 A 
ATOM     12  C   UNL A   1      33.017  23.170  21.616  1.00  0.00     0.069 C 
BRANCH   8  13
ATOM     13  N   UNL A   1      32.790  27.176  24.818  1.00  0.00    -0.300 N 
ATOM     14  C   UNL A   1      33.464  26.946  26.091  1.00  0.00     0.154 C 
BRANCH  13  15
ATOM     15  C   UNL A   1      31.869  28.183  24.470  1.00  0.00     0.275 C 
ATOM     16  O   UNL A   1      32.190  29.359  24.693  1.00  0.00    -0.267 OA
BRANCH  15  17
ATOM     17  C   UNL A   1      30.486  27.937  24.012  1.00  0.00     0.107 A 
ATOM     18  N   UNL A   1      29.519  28.602  23.265  1.00  0.00    -0.344 N 
ATOM     19  C   UNL A   1      28.405  27.795  23.118  1.00  0.00     0.086 A 
ATOM     20  C   UNL A   1      28.540  26.704  23.928  1.00  0.00     0.020 A 
ATOM     21  C   UNL A   1      29.841  26.765  24.442  1.00  0.00     0.033 A 
BRANCH  18  22
ATOM     22  C   UNL A   1      29.433  29.970  22.787  1.00  0.00     0.119 C 
ATOM     23  C   UNL A   1      28.218  30.727  23.280  1.00  0.00     0.027 C 
ENDBRANCH  18  22
ENDBRANCH  15  17
ENDBRANCH  13  15
ENDBRANCH   8  13
ENDBRANCH   4   7
ENDBRANCH   2   3
ENDBRANCH   1   2
BRANCH   1  24
ATOM     24  C   UNL A   1      37.250  22.880  25.499  1.00  0.00     0.023 C 
BRANCH  24  25
ATOM     25  C   UNL A   1      38.079  23.902  26.281  1.00  0.00     0.116 C 
BRANCH  25  26
ATOM     26  N   UNL A   1      39.480  23.527  26.373  1.00  0.00    -0.352 N 
ATOM     27  C   UNL A   1      40.584  24.303  26.648  1.00  0.00     0.251 C 
ATOM     28  H   UNL A   1      39.669  22.574  26.216  1.00  0.00     0.163 HD
ATOM     29  O   UNL A   1      41.695  23.848  26.375  1.00  0.00    -0.269 OA
BRANCH  27  30
ATOM     30  C   UNL A   1      40.473  25.668  27.224  1.00  0.00     0.039 A 
ATOM     31  C   UNL A   1      40.365  25.792  28.614  1.00  0.00     0.014 A 
ATOM     32  C   UNL A   1      40.385  26.814  26.426  1.00  0.00     0.014 A 
ATOM     33  C   UNL A   1      40.265  27.056  29.200  1.00  0.00     0.010 A 
ATOM     34  C   UNL A   1      40.246  28.078  27.003  1.00  0.00     0.010 A 
ATOM     35  C   UNL A   1      40.246  28.204  28.395  1.00  0.00    -0.014 A 
BRANCH  35  36
ATOM     36  C   UNL A   1      40.554  29.517  29.025  1.00  0.00     0.031 A 
ATOM     37  C   UNL A   1      39.258  30.195  29.536  1.00  0.00     0.074 A 
ATOM     38  C   UNL A   1      41.846  29.962  29.036  1.00  0.00     0.049 A 
ATOM     39  N   UNL A   1      38.916  31.449  29.568  1.00  0.00    -0.248 NA
ATOM     40  C   UNL A   1      38.119  29.329  29.955  1.00  0.00     0.031 C 
ATOM     41  C   UNL A   1      43.014  29.203  28.536  1.00  0.00     0.029 A 
ATOM     42  N   UNL A   1      42.447  31.131  29.463  1.00  0.00    -0.354 N 
ATOM     43  C   UNL A   1      37.643  31.529  30.189  1.00  0.00     0.074 A 
ATOM     44  C   UNL A   1      37.148  30.191  30.254  1.00  0.00     0.031 C 
ATOM     45  C   UNL A   1      44.147  29.940  28.623  1.00  0.00     0.029 A 
ATOM     46  C   UNL A   1      43.841  31.241  29.190  1.00  0.00     0.049 A 
ATOM     47  H   UNL A   1      41.946  31.841  29.927  1.00  0.00     0.167 HD
ATOM     48  C   UNL A   1      37.135  32.669  30.746  1.00  0.00     0.034 A 
ATOM     49  C   UNL A   1      44.676  32.316  29.365  1.00  0.00     0.034 A 
ATOM     50  C   UNL A   1      38.059  33.739  30.578  1.00  0.00     0.049 A 
ATOM     51  C   UNL A   1      43.839  33.349  29.992  1.00  0.00     0.074 A 
ATOM     52  C   UNL A   1      38.463  34.488  29.508  1.00  0.00     0.029 A 
ATOM     53  N   UNL A   1      38.897  33.992  31.638  1.00  0.00    -0.354 N 
ATOM     54  N   UNL A   1      43.471  33.365  31.235  1.00  0.00    -0.248 NA
ATOM     55  C   UNL A   1      43.345  34.448  29.149  1.00  0.00     0.031 C 
ATOM     56  C   UNL A   1      39.796  34.829  29.821  1.00  0.00     0.029 A 
ATOM     57  C   UNL A   1      40.102  34.369  31.109  1.00  0.00     0.049 A 
ATOM     58  H   UNL A   1      38.674  33.917  32.594  1.00  0.00     0.167 HD
ATOM     59  C   UNL A   1      42.475  34.310  31.244  1.00  0.00     0.074 A 
ATOM     60  C   UNL A   1      42.668  35.128  30.069  1.00  0.00     0.031 C 
ATOM     61  C   UNL A   1      41.298  34.038  31.856  1.00  0.00     0.034 A 
BRANCH  48  62
ATOM     62  C   UNL A   1      35.967  32.938  31.674  1.00  0.00     0.023 A 
ATOM     63  C   UNL A   1      34.907  33.719  31.136  1.00  0.00     0.031 A 
ATOM     64  C   UNL A   1      35.943  32.752  33.062  1.00  0.00     0.131 A 
ATOM     65  C   UNL A   1      33.984  34.380  31.956  1.00  0.00     0.055 A 
ATOM     66  C   UNL A   1      34.970  33.357  33.877  1.00  0.00     0.041 A 
ATOM     67  F   UNL A   1      36.891  32.056  33.701  1.00  0.00    -0.206 F 
ATOM     68  C   UNL A   1      34.010  34.206  33.332  1.00  0.00     0.022 A 
BRANCH  65  69
ATOM     69  S   UNL A   1      32.880  35.607  31.193  1.00  0.00     0.124 S 
ATOM     70  O   UNL A   1      32.635  35.028  29.877  1.00  0.00    -0.237 OA
ATOM     71  O   UNL A   1      31.746  35.605  32.113  1.00  0.00    -0.237 OA
ATOM     72  O   UNL A   1      33.679  36.829  31.197  1.00  0.00    -0.744 OA
ENDBRANCH  65  69
ENDBRANCH  48  62
BRANCH  49  73
ATOM     73  C   UNL A   1      46.101  32.754  29.039  1.00  0.00     0.023 A 
ATOM     74  C   UNL A   1      46.536  33.383  27.860  1.00  0.00     0.031 A 
ATOM     75  C   UNL A   1      47.132  32.568  30.020  1.00  0.00     0.131 A 
ATOM     76  C   UNL A   1      47.882  33.843  27.745  1.00  0.00     0.055 A 
ATOM     77  C   UNL A   1      48.421  33.093  29.936  1.00  0.00     0.041 A 
ATOM     78  F   UNL A   1      46.939  31.854  31.137  1.00  0.00    -0.206 F 
ATOM     79  C   UNL A   1      48.802  33.751  28.794  1.00  0.00     0.022 A 
BRANCH  76  80
ATOM     80  S   UNL A   1      48.508  34.601  26.216  1.00  0.00     0.124 S 
ATOM     81  O   UNL A   1      47.373  34.437  25.313  1.00  0.00    -0.237 OA
ATOM     82  O   UNL A   1      48.813  35.968  26.622  1.00  0.00    -0.237 OA
ATOM     83  O   UNL A   1      49.677  33.779  25.898  1.00  0.00    -0.744 OA
ENDBRANCH  76  80
ENDBRANCH  49  73
BRANCH  61  84
ATOM     84  C   UNL A   1      41.405  33.023  32.984  1.00  0.00     0.023 A 
ATOM     85  C   UNL A   1      41.036  31.684  32.763  1.00  0.00     0.031 A 
ATOM     86  C   UNL A   1      41.741  33.367  34.306  1.00  0.00     0.131 A 
ATOM     87  C   UNL A   1      41.001  30.762  33.829  1.00  0.00     0.055 A 
ATOM     88  C   UNL A   1      41.731  32.449  35.362  1.00  0.00     0.041 A 
ATOM     89  F   UNL A   1      42.064  34.620  34.624  1.00  0.00    -0.206 F 
ATOM     90  C   UNL A   1      41.356  31.136  35.126  1.00  0.00     0.022 A 
BRANCH  87  91
ATOM     91  S   UNL A   1      40.507  29.048  33.499  1.00  0.00     0.124 S 
ATOM     92  O   UNL A   1      41.036  28.338  34.666  1.00  0.00    -0.237 OA
ATOM     93  O   UNL A   1      39.064  29.139  33.409  1.00  0.00    -0.237 OA
ATOM     94  O   UNL A   1      41.186  28.736  32.237  1.00  0.00    -0.744 OA
ENDBRANCH  87  91
ENDBRANCH  61  84
ENDBRANCH  35  36
ENDBRANCH  27  30
ENDBRANCH  25  26
ENDBRANCH  24  25
ENDBRANCH   1  24
TORSDOF 18
ENDMDL
