MODEL 1
REMARK VINA RESULT:     -12.9      0.000      0.000
REMARK SMILES CC(C)(C)c1cc2c(cc1Cl)C=C(C(=O)NCCCCNC(=O)c1ccc(-c3c4nc(c(-c5cc(S(=O)(=O)[O-])ccc5F)c5ccc([nH]5)c(-c5cc(S(=O)(=O)[O-])ccc5F)c5nc(c(-c6cc(S(=O)(=O)[O-])ccc6F)c6ccc3[nH]6)C=C5)C=C4)cc1)[C@H](C(F)(F)F)O2
REMARK SMILES IDX 19 1 18 2 17 3 16 4 14 5 15 6 13 8 5 9 6 10 10 11 7 12 9 13
REMARK SMILES IDX 11 14 8 15 92 16 12 17 87 18 2 19 1 20 3 21 4 22 88 23 89 24
REMARK SMILES IDX 90 25 91 26 20 27 21 28 22 29 23 31 24 32 25 33 86 34 26 35
REMARK SMILES IDX 85 36 27 37 28 38 29 39 79 40 30 41 84 42 78 43 80 44 31 45
REMARK SMILES IDX 83 46 77 47 76 48 32 50 64 51 44 52 63 53 45 54 48 55 62 56
REMARK SMILES IDX 81 57 46 58 47 59 61 61 82 62 49 63 33 64 34 65 42 66 35 67
REMARK SMILES IDX 41 68 43 69 40 70 36 71 37 72 38 73 39 74 65 75 66 76 74 77
REMARK SMILES IDX 67 78 73 79 75 80 72 81 68 82 69 83 70 84 71 85 50 86 51 87
REMARK SMILES IDX 59 88 52 89 58 90 60 91 57 92 53 93 54 94 55 95 56 96
REMARK H PARENT 16 7 21 30 80 49 48 60
REMARK Flexibility Score: inf
ROOT
ATOM      1  C   UNL A   1      36.586  22.265  23.836  1.00  0.00     0.023 C 
ENDROOT
BRANCH   1   2
ATOM      2  C   UNL A   1      35.603  23.426  23.680  1.00  0.00     0.023 C 
BRANCH   2   3
ATOM      3  C   UNL A   1      34.242  23.030  23.107  1.00  0.00     0.116 C 
BRANCH   3   4
ATOM      4  N   UNL A   1      33.269  22.786  24.157  1.00  0.00    -0.352 N 
ATOM      5  C   UNL A   1      32.197  23.436  24.664  1.00  0.00     0.251 C 
ATOM      6  O   UNL A   1      31.552  22.817  25.516  1.00  0.00    -0.270 OA
ATOM      7  H   UNL A   1      33.431  21.929  24.615  1.00  0.00     0.163 HD
BRANCH   5   8
ATOM      8  C   UNL A   1      31.762  24.809  24.275  1.00  0.00     0.067 C 
ATOM      9  C   UNL A   1      28.979  28.879  23.017  1.00  0.00    -0.020 A 
ATOM     10  C   UNL A   1      30.355  28.549  23.028  1.00  0.00     0.053 A 
ATOM     11  C   UNL A   1      28.098  27.853  23.435  1.00  0.00     0.045 A 
ATOM     12  C   UNL A   1      30.818  27.285  23.394  1.00  0.00     0.128 A 
ATOM     13  C   UNL A   1      28.569  26.564  23.752  1.00  0.00     0.032 A 
ATOM     14  Cl  UNL A   1      26.397  28.062  23.667  1.00  0.00    -0.084 Cl
ATOM     15  C   UNL A   1      29.929  26.273  23.724  1.00  0.00     0.019 A 
ATOM     16  O   UNL A   1      32.173  27.094  23.391  1.00  0.00    -0.475 OA
ATOM     17  C   UNL A   1      30.444  24.945  24.027  1.00  0.00     0.025 C 
ATOM     18  C   UNL A   1      32.647  26.027  24.265  1.00  0.00     0.314 C 
BRANCH   9  19
ATOM     19  C   UNL A   1      28.566  30.321  22.625  1.00  0.00    -0.012 C 
ATOM     20  C   UNL A   1      27.572  30.992  23.601  1.00  0.00     0.016 C 
ATOM     21  C   UNL A   1      27.858  30.382  21.241  1.00  0.00     0.016 C 
ATOM     22  C   UNL A   1      29.844  31.179  22.528  1.00  0.00     0.016 C 
ENDBRANCH   9  19
BRANCH  18  23
ATOM     23  C   UNL A   1      32.948  26.576  25.671  1.00  0.00     0.429 C 
ATOM     24  F   UNL A   1      32.074  26.139  26.605  1.00  0.00    -0.167 F 
ATOM     25  F   UNL A   1      34.185  26.247  26.105  1.00  0.00    -0.167 F 
ATOM     26  F   UNL A   1      32.881  27.933  25.664  1.00  0.00    -0.167 F 
ENDBRANCH  18  23
ENDBRANCH   5   8
ENDBRANCH   3   4
ENDBRANCH   2   3
ENDBRANCH   1   2
BRANCH   1  27
ATOM     27  C   UNL A   1      37.085  22.032  25.256  1.00  0.00     0.116 C 
BRANCH  27  28
ATOM     28  N   UNL A   1      38.068  20.964  25.372  1.00  0.00    -0.352 N 
ATOM     29  C   UNL A   1      39.296  21.017  26.002  1.00  0.00     0.251 C 
ATOM     30  H   UNL A   1      37.831  20.106  24.954  1.00  0.00     0.163 HD
ATOM     31  O   UNL A   1      40.060  20.066  25.968  1.00  0.00    -0.269 OA
BRANCH  29  32
ATOM     32  C   UNL A   1      39.675  22.283  26.664  1.00  0.00     0.039 A 
ATOM     33  C   UNL A   1      39.167  23.491  26.185  1.00  0.00     0.014 A 
ATOM     34  C   UNL A   1      40.651  22.264  27.662  1.00  0.00     0.014 A 
ATOM     35  C   UNL A   1      39.778  24.678  26.560  1.00  0.00     0.010 A 
ATOM     36  C   UNL A   1      41.197  23.470  28.110  1.00  0.00     0.010 A 
ATOM     37  C   UNL A   1      40.809  24.681  27.516  1.00  0.00    -0.014 A 
BRANCH  37  38
ATOM     38  C   UNL A   1      41.463  25.971  27.864  1.00  0.00     0.031 A 
ATOM     39  C   UNL A   1      42.829  26.318  27.335  1.00  0.00     0.074 A 
ATOM     40  C   UNL A   1      40.776  26.865  28.601  1.00  0.00     0.049 A 
ATOM     41  N   UNL A   1      43.515  27.421  27.494  1.00  0.00    -0.248 NA
ATOM     42  C   UNL A   1      43.519  25.301  26.525  1.00  0.00     0.031 C 
ATOM     43  C   UNL A   1      39.442  26.630  29.157  1.00  0.00     0.029 A 
ATOM     44  N   UNL A   1      41.072  28.150  28.975  1.00  0.00    -0.354 N 
ATOM     45  C   UNL A   1      44.720  27.225  26.830  1.00  0.00     0.074 A 
ATOM     46  C   UNL A   1      44.686  25.886  26.287  1.00  0.00     0.031 C 
ATOM     47  C   UNL A   1      39.004  27.757  29.731  1.00  0.00     0.029 A 
ATOM     48  C   UNL A   1      40.053  28.771  29.660  1.00  0.00     0.049 A 
ATOM     49  H   UNL A   1      41.932  28.587  28.772  1.00  0.00     0.167 HD
ATOM     50  C   UNL A   1      45.752  28.089  26.679  1.00  0.00     0.034 A 
ATOM     51  C   UNL A   1      39.970  30.011  30.180  1.00  0.00     0.034 A 
ATOM     52  C   UNL A   1      45.760  29.431  27.205  1.00  0.00     0.049 A 
ATOM     53  C   UNL A   1      41.134  30.948  30.005  1.00  0.00     0.074 A 
ATOM     54  C   UNL A   1      46.752  30.389  27.093  1.00  0.00     0.029 A 
ATOM     55  N   UNL A   1      44.728  30.011  27.932  1.00  0.00    -0.354 N 
ATOM     56  N   UNL A   1      42.258  30.751  29.356  1.00  0.00    -0.248 NA
ATOM     57  C   UNL A   1      41.027  32.271  30.633  1.00  0.00     0.031 C 
ATOM     58  C   UNL A   1      46.343  31.528  27.789  1.00  0.00     0.029 A 
ATOM     59  C   UNL A   1      45.070  31.306  28.288  1.00  0.00     0.049 A 
ATOM     60  H   UNL A   1      43.880  29.567  28.159  1.00  0.00     0.167 HD
ATOM     61  C   UNL A   1      42.990  31.925  29.495  1.00  0.00     0.074 A 
ATOM     62  C   UNL A   1      42.165  32.840  30.256  1.00  0.00     0.031 C 
ATOM     63  C   UNL A   1      44.239  32.210  29.046  1.00  0.00     0.034 A 
BRANCH  50  64
ATOM     64  C   UNL A   1      46.970  27.636  25.910  1.00  0.00     0.023 A 
ATOM     65  C   UNL A   1      47.096  27.948  24.542  1.00  0.00     0.031 A 
ATOM     66  C   UNL A   1      47.934  26.796  26.491  1.00  0.00     0.131 A 
ATOM     67  C   UNL A   1      48.147  27.400  23.796  1.00  0.00     0.055 A 
ATOM     68  C   UNL A   1      49.000  26.279  25.751  1.00  0.00     0.041 A 
ATOM     69  F   UNL A   1      47.860  26.470  27.792  1.00  0.00    -0.206 F 
ATOM     70  C   UNL A   1      49.102  26.572  24.394  1.00  0.00     0.022 A 
BRANCH  67  71
ATOM     71  S   UNL A   1      48.285  27.690  22.011  1.00  0.00     0.124 S 
ATOM     72  O   UNL A   1      47.005  28.330  21.713  1.00  0.00    -0.237 OA
ATOM     73  O   UNL A   1      49.452  28.564  21.932  1.00  0.00    -0.237 OA
ATOM     74  O   UNL A   1      48.457  26.355  21.450  1.00  0.00    -0.744 OA
ENDBRANCH  67  71
ENDBRANCH  50  64
BRANCH  51  75
ATOM     75  C   UNL A   1      38.711  30.423  30.867  1.00  0.00     0.023 A 
ATOM     76  C   UNL A   1      37.648  30.994  30.142  1.00  0.00     0.031 A 
ATOM     77  C   UNL A   1      38.608  30.379  32.266  1.00  0.00     0.131 A 
ATOM     78  C   UNL A   1      36.574  31.578  30.824  1.00  0.00     0.055 A 
ATOM     79  C   UNL A   1      37.496  30.891  32.939  1.00  0.00     0.041 A 
ATOM     80  F   UNL A   1      39.601  29.854  33.002  1.00  0.00    -0.206 F 
ATOM     81  C   UNL A   1      36.483  31.516  32.218  1.00  0.00     0.022 A 
BRANCH  78  82
ATOM     82  S   UNL A   1      35.352  32.585  29.936  1.00  0.00     0.124 S 
ATOM     83  O   UNL A   1      36.133  33.765  29.579  1.00  0.00    -0.237 OA
ATOM     84  O   UNL A   1      34.992  31.707  28.825  1.00  0.00    -0.237 OA
ATOM     85  O   UNL A   1      34.299  32.797  30.922  1.00  0.00    -0.744 OA
ENDBRANCH  78  82
ENDBRANCH  51  75
BRANCH  63  86
ATOM     86  C   UNL A   1      44.819  33.565  29.370  1.00  0.00     0.023 A 
ATOM     87  C   UNL A   1      44.664  34.636  28.470  1.00  0.00     0.031 A 
ATOM     88  C   UNL A   1      45.637  33.753  30.498  1.00  0.00     0.131 A 
ATOM     89  C   UNL A   1      45.342  35.839  28.698  1.00  0.00     0.055 A 
ATOM     90  C   UNL A   1      46.279  34.968  30.742  1.00  0.00     0.041 A 
ATOM     91  F   UNL A   1      45.822  32.757  31.379  1.00  0.00    -0.206 F 
ATOM     92  C   UNL A   1      46.144  36.013  29.833  1.00  0.00     0.022 A 
BRANCH  89  93
ATOM     93  S   UNL A   1      45.279  37.193  27.492  1.00  0.00     0.124 S 
ATOM     94  O   UNL A   1      43.866  37.202  27.125  1.00  0.00    -0.237 OA
ATOM     95  O   UNL A   1      45.724  38.335  28.287  1.00  0.00    -0.237 OA
ATOM     96  O   UNL A   1      46.195  36.769  26.439  1.00  0.00    -0.744 OA
ENDBRANCH  89  93
ENDBRANCH  63  86
ENDBRANCH  37  38
ENDBRANCH  29  32
ENDBRANCH  27  28
ENDBRANCH   1  27
TORSDOF 16
ENDMDL
MODEL 2
REMARK VINA RESULT:     -12.9      1.529      2.135
REMARK SMILES CC(C)(C)c1cc2c(cc1Cl)C=C(C(=O)NCCCCNC(=O)c1ccc(-c3c4nc(c(-c5cc(S(=O)(=O)[O-])ccc5F)c5ccc([nH]5)c(-c5cc(S(=O)(=O)[O-])ccc5F)c5nc(c(-c6cc(S(=O)(=O)[O-])ccc6F)c6ccc3[nH]6)C=C5)C=C4)cc1)[C@H](C(F)(F)F)O2
REMARK SMILES IDX 19 1 18 2 17 3 16 4 14 5 15 6 13 8 5 9 6 10 10 11 7 12 9 13
REMARK SMILES IDX 11 14 8 15 92 16 12 17 87 18 2 19 1 20 3 21 4 22 88 23 89 24
REMARK SMILES IDX 90 25 91 26 20 27 21 28 22 29 23 31 24 32 25 33 86 34 26 35
REMARK SMILES IDX 85 36 27 37 28 38 29 39 79 40 30 41 84 42 78 43 80 44 31 45
REMARK SMILES IDX 83 46 77 47 76 48 32 50 64 51 44 52 63 53 45 54 48 55 62 56
REMARK SMILES IDX 81 57 46 58 47 59 61 61 82 62 49 63 33 64 34 65 42 66 35 67
REMARK SMILES IDX 41 68 43 69 40 70 36 71 37 72 38 73 39 74 65 75 66 76 74 77
REMARK SMILES IDX 67 78 73 79 75 80 72 81 68 82 69 83 70 84 71 85 50 86 51 87
REMARK SMILES IDX 59 88 52 89 58 90 60 91 57 92 53 93 54 94 55 95 56 96
REMARK H PARENT 16 7 21 30 80 49 48 60
REMARK Flexibility Score: inf
ROOT
ATOM      1  C   UNL A   1      36.671  20.283  24.911  1.00  0.00     0.023 C 
ENDROOT
BRANCH   1   2
ATOM      2  C   UNL A   1      35.398  21.130  24.933  1.00  0.00     0.023 C 
BRANCH   2   3
ATOM      3  C   UNL A   1      35.454  22.331  25.877  1.00  0.00     0.116 C 
BRANCH   3   4
ATOM      4  N   UNL A   1      34.533  22.183  26.989  1.00  0.00    -0.352 N 
ATOM      5  C   UNL A   1      33.299  22.641  27.302  1.00  0.00     0.251 C 
ATOM      6  O   UNL A   1      32.804  22.180  28.335  1.00  0.00    -0.270 OA
ATOM      7  H   UNL A   1      34.898  21.600  27.694  1.00  0.00     0.163 HD
BRANCH   5   8
ATOM      8  C   UNL A   1      32.526  23.638  26.505  1.00  0.00     0.067 C 
ATOM      9  C   UNL A   1      30.937  27.915  24.253  1.00  0.00    -0.020 A 
ATOM     10  C   UNL A   1      30.412  26.618  24.462  1.00  0.00     0.053 A 
ATOM     11  C   UNL A   1      32.221  28.154  24.799  1.00  0.00     0.045 A 
ATOM     12  C   UNL A   1      31.096  25.642  25.188  1.00  0.00     0.128 A 
ATOM     13  C   UNL A   1      32.881  27.183  25.576  1.00  0.00     0.032 A 
ATOM     14  Cl  UNL A   1      33.140  29.595  24.538  1.00  0.00    -0.084 Cl
ATOM     15  C   UNL A   1      32.317  25.927  25.780  1.00  0.00     0.019 A 
ATOM     16  O   UNL A   1      30.498  24.417  25.300  1.00  0.00    -0.475 OA
ATOM     17  C   UNL A   1      32.966  24.909  26.595  1.00  0.00     0.025 C 
ATOM     18  C   UNL A   1      31.411  23.307  25.550  1.00  0.00     0.314 C 
BRANCH   9  19
ATOM     19  C   UNL A   1      30.114  28.920  23.405  1.00  0.00    -0.012 C 
ATOM     20  C   UNL A   1      29.870  30.286  24.087  1.00  0.00     0.016 C 
ATOM     21  C   UNL A   1      28.691  28.390  23.069  1.00  0.00     0.016 C 
ATOM     22  C   UNL A   1      30.853  29.141  22.070  1.00  0.00     0.016 C 
ENDBRANCH   9  19
BRANCH  18  23
ATOM     23  C   UNL A   1      31.901  22.703  24.222  1.00  0.00     0.429 C 
ATOM     24  F   UNL A   1      33.091  23.206  23.823  1.00  0.00    -0.167 F 
ATOM     25  F   UNL A   1      32.041  21.359  24.281  1.00  0.00    -0.167 F 
ATOM     26  F   UNL A   1      31.005  22.963  23.234  1.00  0.00    -0.167 F 
ENDBRANCH  18  23
ENDBRANCH   5   8
ENDBRANCH   3   4
ENDBRANCH   2   3
ENDBRANCH   1   2
BRANCH   1  27
ATOM     27  C   UNL A   1      37.877  20.918  25.590  1.00  0.00     0.116 C 
BRANCH  27  28
ATOM     28  N   UNL A   1      39.031  20.035  25.698  1.00  0.00    -0.352 N 
ATOM     29  C   UNL A   1      40.261  20.325  26.253  1.00  0.00     0.251 C 
ATOM     30  H   UNL A   1      38.921  19.128  25.333  1.00  0.00     0.163 HD
ATOM     31  O   UNL A   1      41.172  19.513  26.218  1.00  0.00    -0.269 OA
BRANCH  29  32
ATOM     32  C   UNL A   1      40.453  21.670  26.835  1.00  0.00     0.039 A 
ATOM     33  C   UNL A   1      40.017  22.794  26.133  1.00  0.00     0.014 A 
ATOM     34  C   UNL A   1      41.201  21.805  28.006  1.00  0.00     0.014 A 
ATOM     35  C   UNL A   1      40.498  24.044  26.492  1.00  0.00     0.010 A 
ATOM     36  C   UNL A   1      41.602  23.078  28.421  1.00  0.00     0.010 A 
ATOM     37  C   UNL A   1      41.307  24.200  27.631  1.00  0.00    -0.014 A 
BRANCH  37  38
ATOM     38  C   UNL A   1      41.833  25.551  27.961  1.00  0.00     0.031 A 
ATOM     39  C   UNL A   1      43.188  25.997  27.481  1.00  0.00     0.074 A 
ATOM     40  C   UNL A   1      41.037  26.407  28.632  1.00  0.00     0.049 A 
ATOM     41  N   UNL A   1      43.770  27.160  27.631  1.00  0.00    -0.248 NA
ATOM     42  C   UNL A   1      44.000  25.018  26.742  1.00  0.00     0.031 C 
ATOM     43  C   UNL A   1      39.703  26.077  29.135  1.00  0.00     0.029 A 
ATOM     44  N   UNL A   1      41.206  27.724  28.972  1.00  0.00    -0.354 N 
ATOM     45  C   UNL A   1      45.018  27.047  27.030  1.00  0.00     0.074 A 
ATOM     46  C   UNL A   1      45.123  25.692  26.535  1.00  0.00     0.031 C 
ATOM     47  C   UNL A   1      39.144  27.180  29.647  1.00  0.00     0.029 A 
ATOM     48  C   UNL A   1      40.106  28.277  29.587  1.00  0.00     0.049 A 
ATOM     49  H   UNL A   1      42.034  28.226  28.793  1.00  0.00     0.167 HD
ATOM     50  C   UNL A   1      45.980  27.991  26.894  1.00  0.00     0.034 A 
ATOM     51  C   UNL A   1      39.894  29.522  30.057  1.00  0.00     0.034 A 
ATOM     52  C   UNL A   1      45.849  29.345  27.371  1.00  0.00     0.049 A 
ATOM     53  C   UNL A   1      40.982  30.550  29.900  1.00  0.00     0.074 A 
ATOM     54  C   UNL A   1      46.761  30.381  27.268  1.00  0.00     0.029 A 
ATOM     55  N   UNL A   1      44.738  29.857  28.028  1.00  0.00    -0.354 N 
ATOM     56  N   UNL A   1      42.148  30.428  29.311  1.00  0.00    -0.248 NA
ATOM     57  C   UNL A   1      40.734  31.879  30.474  1.00  0.00     0.031 C 
ATOM     58  C   UNL A   1      46.224  31.502  27.902  1.00  0.00     0.029 A 
ATOM     59  C   UNL A   1      44.952  31.188  28.352  1.00  0.00     0.049 A 
ATOM     60  H   UNL A   1      43.920  29.350  28.233  1.00  0.00     0.167 HD
ATOM     61  C   UNL A   1      42.772  31.665  29.440  1.00  0.00     0.074 A 
ATOM     62  C   UNL A   1      41.836  32.530  30.128  1.00  0.00     0.031 C 
ATOM     63  C   UNL A   1      44.012  32.042  29.037  1.00  0.00     0.034 A 
BRANCH  50  64
ATOM     64  C   UNL A   1      47.267  27.619  26.198  1.00  0.00     0.023 A 
ATOM     65  C   UNL A   1      47.409  27.840  24.814  1.00  0.00     0.031 A 
ATOM     66  C   UNL A   1      48.295  26.938  26.871  1.00  0.00     0.131 A 
ATOM     67  C   UNL A   1      48.540  27.357  24.144  1.00  0.00     0.055 A 
ATOM     68  C   UNL A   1      49.437  26.488  26.204  1.00  0.00     0.041 A 
ATOM     69  F   UNL A   1      48.208  26.704  28.191  1.00  0.00    -0.206 F 
ATOM     70  C   UNL A   1      49.557  26.687  24.832  1.00  0.00     0.022 A 
BRANCH  67  71
ATOM     71  S   UNL A   1      48.712  27.526  22.346  1.00  0.00     0.124 S 
ATOM     72  O   UNL A   1      48.695  26.130  21.912  1.00  0.00    -0.237 OA
ATOM     73  O   UNL A   1      47.525  28.302  21.997  1.00  0.00    -0.237 OA
ATOM     74  O   UNL A   1      49.987  28.214  22.178  1.00  0.00    -0.744 OA
ENDBRANCH  67  71
ENDBRANCH  50  64
BRANCH  51  75
ATOM     75  C   UNL A   1      38.573  29.846  30.671  1.00  0.00     0.023 A 
ATOM     76  C   UNL A   1      37.601  30.566  29.951  1.00  0.00     0.031 A 
ATOM     77  C   UNL A   1      38.319  29.564  32.022  1.00  0.00     0.131 A 
ATOM     78  C   UNL A   1      36.467  31.055  30.609  1.00  0.00     0.055 A 
ATOM     79  C   UNL A   1      37.148  29.985  32.655  1.00  0.00     0.041 A 
ATOM     80  F   UNL A   1      39.221  28.890  32.754  1.00  0.00    -0.206 F 
ATOM     81  C   UNL A   1      36.225  30.755  31.953  1.00  0.00     0.022 A 
BRANCH  78  82
ATOM     82  S   UNL A   1      35.359  32.237  29.788  1.00  0.00     0.124 S 
ATOM     83  O   UNL A   1      34.850  31.449  28.671  1.00  0.00    -0.237 OA
ATOM     84  O   UNL A   1      34.395  32.528  30.847  1.00  0.00    -0.237 OA
ATOM     85  O   UNL A   1      36.240  33.345  29.434  1.00  0.00    -0.744 OA
ENDBRANCH  78  82
ENDBRANCH  51  75
BRANCH  63  86
ATOM     86  C   UNL A   1      44.459  33.452  29.337  1.00  0.00     0.023 A 
ATOM     87  C   UNL A   1      44.371  34.449  28.348  1.00  0.00     0.031 A 
ATOM     88  C   UNL A   1      45.096  33.768  30.550  1.00  0.00     0.131 A 
ATOM     89  C   UNL A   1      44.938  35.708  28.578  1.00  0.00     0.055 A 
ATOM     90  C   UNL A   1      45.624  35.037  30.790  1.00  0.00     0.041 A 
ATOM     91  F   UNL A   1      45.212  32.846  31.520  1.00  0.00    -0.206 F 
ATOM     92  C   UNL A   1      45.559  36.010  29.796  1.00  0.00     0.022 A 
BRANCH  89  93
ATOM     93  S   UNL A   1      44.969  36.973  27.278  1.00  0.00     0.124 S 
ATOM     94  O   UNL A   1      45.891  36.385  26.309  1.00  0.00    -0.237 OA
ATOM     95  O   UNL A   1      43.570  37.018  26.859  1.00  0.00    -0.237 OA
ATOM     96  O   UNL A   1      45.457  38.166  27.959  1.00  0.00    -0.744 OA
ENDBRANCH  89  93
ENDBRANCH  63  86
ENDBRANCH  37  38
ENDBRANCH  29  32
ENDBRANCH  27  28
ENDBRANCH   1  27
TORSDOF 16
ENDMDL
MODEL 3
REMARK VINA RESULT:     -12.8      5.239     10.468
REMARK SMILES CC(C)(C)c1cc2c(cc1Cl)C=C(C(=O)NCCCCNC(=O)c1ccc(-c3c4nc(c(-c5cc(S(=O)(=O)[O-])ccc5F)c5ccc([nH]5)c(-c5cc(S(=O)(=O)[O-])ccc5F)c5nc(c(-c6cc(S(=O)(=O)[O-])ccc6F)c6ccc3[nH]6)C=C5)C=C4)cc1)[C@H](C(F)(F)F)O2
REMARK SMILES IDX 19 1 18 2 17 3 16 4 14 5 15 6 13 8 5 9 6 10 10 11 7 12 9 13
REMARK SMILES IDX 11 14 8 15 92 16 12 17 87 18 2 19 1 20 3 21 4 22 88 23 89 24
REMARK SMILES IDX 90 25 91 26 20 27 21 28 22 29 23 31 24 32 25 33 86 34 26 35
REMARK SMILES IDX 85 36 27 37 28 38 29 39 79 40 30 41 84 42 78 43 80 44 31 45
REMARK SMILES IDX 83 46 77 47 76 48 32 50 64 51 44 52 63 53 45 54 48 55 62 56
REMARK SMILES IDX 81 57 46 58 47 59 61 61 82 62 49 63 33 64 34 65 42 66 35 67
REMARK SMILES IDX 41 68 43 69 40 70 36 71 37 72 38 73 39 74 65 75 66 76 74 77
REMARK SMILES IDX 67 78 73 79 75 80 72 81 68 82 69 83 70 84 71 85 50 86 51 87
REMARK SMILES IDX 59 88 52 89 58 90 60 91 57 92 53 93 54 94 55 95 56 96
REMARK H PARENT 16 7 21 30 80 49 48 60
REMARK Flexibility Score: inf
ROOT
ATOM      1  C   UNL A   1      31.726  29.302  27.100  1.00  0.00     0.023 C 
ENDROOT
BRANCH   1   2
ATOM      2  C   UNL A   1      32.170  27.840  27.040  1.00  0.00     0.023 C 
BRANCH   2   3
ATOM      3  C   UNL A   1      31.157  26.898  26.390  1.00  0.00     0.116 C 
BRANCH   3   4
ATOM      4  N   UNL A   1      31.299  26.873  24.945  1.00  0.00    -0.352 N 
ATOM      5  C   UNL A   1      31.609  25.945  24.011  1.00  0.00     0.251 C 
ATOM      6  O   UNL A   1      31.517  26.317  22.838  1.00  0.00    -0.270 OA
ATOM      7  H   UNL A   1      31.123  27.754  24.543  1.00  0.00     0.163 HD
BRANCH   5   8
ATOM      8  C   UNL A   1      32.048  24.548  24.301  1.00  0.00     0.067 C 
ATOM      9  C   UNL A   1      32.900  19.540  24.025  1.00  0.00    -0.020 A 
ATOM     10  C   UNL A   1      33.045  20.545  25.010  1.00  0.00     0.053 A 
ATOM     11  C   UNL A   1      32.371  19.967  22.783  1.00  0.00     0.045 A 
ATOM     12  C   UNL A   1      32.664  21.869  24.788  1.00  0.00     0.128 A 
ATOM     13  C   UNL A   1      31.938  21.292  22.587  1.00  0.00     0.032 A 
ATOM     14  Cl  UNL A   1      32.254  18.968  21.377  1.00  0.00    -0.084 Cl
ATOM     15  C   UNL A   1      32.076  22.246  23.591  1.00  0.00     0.019 A 
ATOM     16  O   UNL A   1      32.879  22.756  25.808  1.00  0.00    -0.475 OA
ATOM     17  C   UNL A   1      31.619  23.619  23.424  1.00  0.00     0.025 C 
ATOM     18  C   UNL A   1      33.002  24.150  25.395  1.00  0.00     0.314 C 
BRANCH   9  19
ATOM     19  C   UNL A   1      33.383  18.103  24.355  1.00  0.00    -0.012 C 
ATOM     20  C   UNL A   1      33.089  17.059  23.254  1.00  0.00     0.016 C 
ATOM     21  C   UNL A   1      32.708  17.527  25.633  1.00  0.00     0.016 C 
ATOM     22  C   UNL A   1      34.901  18.155  24.617  1.00  0.00     0.016 C 
ENDBRANCH   9  19
BRANCH  18  23
ATOM     23  C   UNL A   1      34.469  24.491  25.082  1.00  0.00     0.429 C 
ATOM     24  F   UNL A   1      34.806  25.750  25.443  1.00  0.00    -0.167 F 
ATOM     25  F   UNL A   1      35.341  23.660  25.696  1.00  0.00    -0.167 F 
ATOM     26  F   UNL A   1      34.697  24.384  23.747  1.00  0.00    -0.167 F 
ENDBRANCH  18  23
ENDBRANCH   5   8
ENDBRANCH   3   4
ENDBRANCH   2   3
ENDBRANCH   1   2
BRANCH   1  27
ATOM     27  C   UNL A   1      32.712  30.298  26.504  1.00  0.00     0.116 C 
BRANCH  27  28
ATOM     28  N   UNL A   1      32.496  31.675  26.928  1.00  0.00    -0.352 N 
ATOM     29  C   UNL A   1      33.383  32.498  27.593  1.00  0.00     0.251 C 
ATOM     30  H   UNL A   1      31.617  32.063  26.716  1.00  0.00     0.163 HD
ATOM     31  O   UNL A   1      33.051  33.615  27.955  1.00  0.00    -0.269 OA
BRANCH  29  32
ATOM     32  C   UNL A   1      34.722  31.956  27.904  1.00  0.00     0.039 A 
ATOM     33  C   UNL A   1      34.859  30.613  28.256  1.00  0.00     0.014 A 
ATOM     34  C   UNL A   1      35.808  32.831  27.988  1.00  0.00     0.014 A 
ATOM     35  C   UNL A   1      36.025  30.193  28.879  1.00  0.00     0.010 A 
ATOM     36  C   UNL A   1      37.014  32.376  28.526  1.00  0.00     0.010 A 
ATOM     37  C   UNL A   1      37.111  31.071  29.035  1.00  0.00    -0.014 A 
BRANCH  37  38
ATOM     38  C   UNL A   1      38.328  30.592  29.740  1.00  0.00     0.031 A 
ATOM     39  C   UNL A   1      38.609  30.989  31.165  1.00  0.00     0.074 A 
ATOM     40  C   UNL A   1      39.142  29.724  29.108  1.00  0.00     0.049 A 
ATOM     41  N   UNL A   1      39.592  30.614  31.944  1.00  0.00    -0.248 NA
ATOM     42  C   UNL A   1      37.673  31.930  31.802  1.00  0.00     0.031 C 
ATOM     43  C   UNL A   1      38.956  29.268  27.729  1.00  0.00     0.029 A 
ATOM     44  N   UNL A   1      40.251  29.043  29.538  1.00  0.00    -0.354 N 
ATOM     45  C   UNL A   1      39.409  31.287  33.146  1.00  0.00     0.074 A 
ATOM     46  C   UNL A   1      38.235  32.115  32.989  1.00  0.00     0.031 C 
ATOM     47  C   UNL A   1      39.867  28.328  27.454  1.00  0.00     0.029 A 
ATOM     48  C   UNL A   1      40.755  28.169  28.603  1.00  0.00     0.049 A 
ATOM     49  H   UNL A   1      40.648  29.167  30.431  1.00  0.00     0.167 HD
ATOM     50  C   UNL A   1      40.147  31.207  34.280  1.00  0.00     0.034 A 
ATOM     51  C   UNL A   1      41.814  27.338  28.655  1.00  0.00     0.034 A 
ATOM     52  C   UNL A   1      41.300  30.355  34.429  1.00  0.00     0.049 A 
ATOM     53  C   UNL A   1      42.622  27.275  29.923  1.00  0.00     0.074 A 
ATOM     54  C   UNL A   1      42.105  30.193  35.543  1.00  0.00     0.029 A 
ATOM     55  N   UNL A   1      41.807  29.517  33.446  1.00  0.00    -0.354 N 
ATOM     56  N   UNL A   1      42.420  27.904  31.058  1.00  0.00    -0.248 NA
ATOM     57  C   UNL A   1      43.800  26.399  29.923  1.00  0.00     0.031 C 
ATOM     58  C   UNL A   1      43.125  29.295  35.220  1.00  0.00     0.029 A 
ATOM     59  C   UNL A   1      42.925  28.850  33.922  1.00  0.00     0.049 A 
ATOM     60  H   UNL A   1      41.429  29.412  32.544  1.00  0.00     0.167 HD
ATOM     61  C   UNL A   1      43.445  27.498  31.906  1.00  0.00     0.074 A 
ATOM     62  C   UNL A   1      44.240  26.539  31.167  1.00  0.00     0.031 C 
ATOM     63  C   UNL A   1      43.709  27.895  33.177  1.00  0.00     0.034 A 
BRANCH  50  64
ATOM     64  C   UNL A   1      39.744  32.049  35.467  1.00  0.00     0.023 A 
ATOM     65  C   UNL A   1      38.895  31.513  36.455  1.00  0.00     0.031 A 
ATOM     66  C   UNL A   1      40.094  33.407  35.555  1.00  0.00     0.131 A 
ATOM     67  C   UNL A   1      38.401  32.341  37.472  1.00  0.00     0.055 A 
ATOM     68  C   UNL A   1      39.626  34.219  36.591  1.00  0.00     0.041 A 
ATOM     69  F   UNL A   1      40.902  33.964  34.639  1.00  0.00    -0.206 F 
ATOM     70  C   UNL A   1      38.767  33.688  37.548  1.00  0.00     0.022 A 
BRANCH  67  71
ATOM     71  S   UNL A   1      37.222  31.718  38.701  1.00  0.00     0.124 S 
ATOM     72  O   UNL A   1      36.110  32.655  38.550  1.00  0.00    -0.237 OA
ATOM     73  O   UNL A   1      36.966  30.363  38.221  1.00  0.00    -0.237 OA
ATOM     74  O   UNL A   1      37.946  31.813  39.964  1.00  0.00    -0.744 OA
ENDBRANCH  67  71
ENDBRANCH  50  64
BRANCH  51  75
ATOM     75  C   UNL A   1      42.118  26.479  27.473  1.00  0.00     0.023 A 
ATOM     76  C   UNL A   1      41.632  25.160  27.398  1.00  0.00     0.031 A 
ATOM     77  C   UNL A   1      43.004  26.915  26.476  1.00  0.00     0.131 A 
ATOM     78  C   UNL A   1      42.108  24.299  26.402  1.00  0.00     0.055 A 
ATOM     79  C   UNL A   1      43.413  26.076  25.437  1.00  0.00     0.041 A 
ATOM     80  F   UNL A   1      43.503  28.161  26.511  1.00  0.00    -0.206 F 
ATOM     81  C   UNL A   1      42.982  24.753  25.410  1.00  0.00     0.022 A 
BRANCH  78  82
ATOM     82  S   UNL A   1      41.739  22.522  26.463  1.00  0.00     0.124 S 
ATOM     83  O   UNL A   1      42.484  22.019  25.314  1.00  0.00    -0.237 OA
ATOM     84  O   UNL A   1      42.272  22.151  27.772  1.00  0.00    -0.237 OA
ATOM     85  O   UNL A   1      40.286  22.468  26.350  1.00  0.00    -0.744 OA
ENDBRANCH  78  82
ENDBRANCH  51  75
BRANCH  63  86
ATOM     86  C   UNL A   1      44.920  27.316  33.866  1.00  0.00     0.023 A 
ATOM     87  C   UNL A   1      44.798  26.161  34.662  1.00  0.00     0.031 A 
ATOM     88  C   UNL A   1      46.157  27.985  33.845  1.00  0.00     0.131 A 
ATOM     89  C   UNL A   1      45.886  25.727  35.428  1.00  0.00     0.055 A 
ATOM     90  C   UNL A   1      47.250  27.524  34.579  1.00  0.00     0.041 A 
ATOM     91  F   UNL A   1      46.317  29.096  33.108  1.00  0.00    -0.206 F 
ATOM     92  C   UNL A   1      47.114  26.398  35.386  1.00  0.00     0.022 A 
BRANCH  89  93
ATOM     93  S   UNL A   1      45.727  24.327  36.571  1.00  0.00     0.124 S 
ATOM     94  O   UNL A   1      47.040  23.696  36.457  1.00  0.00    -0.237 OA
ATOM     95  O   UNL A   1      45.465  24.996  37.843  1.00  0.00    -0.237 OA
ATOM     96  O   UNL A   1      44.615  23.555  36.029  1.00  0.00    -0.744 OA
ENDBRANCH  89  93
ENDBRANCH  63  86
ENDBRANCH  37  38
ENDBRANCH  29  32
ENDBRANCH  27  28
ENDBRANCH   1  27
TORSDOF 16
ENDMDL
