MODEL 1
REMARK VINA RESULT:     -12.7      0.000      0.000
REMARK SMILES O=C(NCCCCNC(=O)c1ccc(-c2c3nc(c(-c4cc(S(=O)(=O)[O-])ccc4F)c4ccc([nH]4)c(-c4cc(S(=O)(=O)[O-])ccc4F)c4nc(c(-c5cc(S(=O)(=O)[O-])ccc5F)c5ccc2[nH]5)C=C4)C=C3)cc1)C1=Cc2c(Cl)cc(Cl)cc2O[C@@H]1C(F)(F)F
REMARK SMILES IDX 6 1 5 2 4 3 3 4 1 5 2 6 74 8 75 9 85 10 76 11 84 12 77 13
REMARK SMILES IDX 83 14 78 15 79 16 82 17 80 18 81 19 86 20 87 21 88 22 89 23
REMARK SMILES IDX 7 24 8 25 9 26 10 28 11 29 12 30 73 31 13 32 72 33 14 34
REMARK SMILES IDX 15 35 16 36 66 37 17 38 71 39 65 40 67 41 18 42 70 43 64 44
REMARK SMILES IDX 63 45 19 47 51 48 31 49 50 50 32 51 35 52 49 53 68 54 33 55
REMARK SMILES IDX 34 56 48 58 69 59 36 60 20 61 21 62 29 63 22 64 28 65 30 66
REMARK SMILES IDX 27 67 23 68 24 69 25 70 26 71 52 72 53 73 61 74 54 75 60 76
REMARK SMILES IDX 62 77 59 78 55 79 56 80 57 81 58 82 37 83 38 84 46 85 39 86
REMARK SMILES IDX 45 87 47 88 44 89 40 90 41 91 42 92 43 93
REMARK H PARENT 3 7 8 27 67 46 35 57
REMARK Flexibility Score: inf
ROOT
ATOM      1  C   UNL A   1      31.282  31.683  26.720  1.00  0.00     0.023 C 
ENDROOT
BRANCH   1   2
ATOM      2  C   UNL A   1      31.022  30.681  25.598  1.00  0.00     0.023 C 
BRANCH   2   3
ATOM      3  C   UNL A   1      32.051  29.552  25.523  1.00  0.00     0.116 C 
BRANCH   3   4
ATOM      4  N   UNL A   1      31.688  28.352  26.279  1.00  0.00    -0.352 N 
ATOM      5  O   UNL A   1      31.203  26.139  26.514  1.00  0.00    -0.270 OA
ATOM      6  C   UNL A   1      31.225  27.141  25.814  1.00  0.00     0.251 C 
ATOM      7  H   UNL A   1      31.790  28.420  27.256  1.00  0.00     0.163 HD
BRANCH   6   8
ATOM      8  C   UNL A   1      30.808  27.085  24.398  1.00  0.00     0.067 C 
ATOM      9  C   UNL A   1      29.495  27.191  24.159  1.00  0.00     0.027 C 
ATOM     10  C   UNL A   1      31.852  27.323  23.357  1.00  0.00     0.314 C 
ATOM     11  C   UNL A   1      29.151  28.149  23.091  1.00  0.00     0.036 A 
ATOM     12  O   UNL A   1      31.530  28.465  22.525  1.00  0.00    -0.475 OA
ATOM     13  C   UNL A   1      27.857  28.700  23.023  1.00  0.00     0.053 A 
ATOM     14  C   UNL A   1      30.205  28.823  22.436  1.00  0.00     0.130 A 
ATOM     15  Cl  UNL A   1      26.496  27.972  23.809  1.00  0.00    -0.083 Cl
ATOM     16  C   UNL A   1      27.648  29.940  22.413  1.00  0.00     0.042 A 
ATOM     17  C   UNL A   1      29.985  30.046  21.802  1.00  0.00     0.067 A 
ATOM     18  C   UNL A   1      28.717  30.615  21.830  1.00  0.00     0.046 A 
ATOM     19  Cl  UNL A   1      28.482  32.199  21.206  1.00  0.00    -0.084 Cl
BRANCH  10  20
ATOM     20  C   UNL A   1      32.095  26.077  22.490  1.00  0.00     0.429 C 
ATOM     21  F   UNL A   1      31.698  24.952  23.132  1.00  0.00    -0.167 F 
ATOM     22  F   UNL A   1      31.411  26.123  21.324  1.00  0.00    -0.167 F 
ATOM     23  F   UNL A   1      33.405  25.915  22.180  1.00  0.00    -0.167 F 
ENDBRANCH  10  20
ENDBRANCH   6   8
ENDBRANCH   3   4
ENDBRANCH   2   3
ENDBRANCH   1   2
BRANCH   1  24
ATOM     24  C   UNL A   1      32.448  32.648  26.504  1.00  0.00     0.116 C 
BRANCH  24  25
ATOM     25  N   UNL A   1      32.429  33.823  27.364  1.00  0.00    -0.352 N 
ATOM     26  C   UNL A   1      33.345  34.180  28.337  1.00  0.00     0.251 C 
ATOM     27  H   UNL A   1      31.673  34.439  27.238  1.00  0.00     0.163 HD
ATOM     28  O   UNL A   1      33.165  35.180  29.026  1.00  0.00    -0.269 OA
BRANCH  26  29
ATOM     29  C   UNL A   1      34.510  33.302  28.569  1.00  0.00     0.039 A 
ATOM     30  C   UNL A   1      35.788  33.866  28.602  1.00  0.00     0.014 A 
ATOM     31  C   UNL A   1      34.318  31.958  28.892  1.00  0.00     0.014 A 
ATOM     32  C   UNL A   1      36.862  33.108  29.080  1.00  0.00     0.010 A 
ATOM     33  C   UNL A   1      35.372  31.234  29.442  1.00  0.00     0.010 A 
ATOM     34  C   UNL A   1      36.648  31.809  29.567  1.00  0.00    -0.014 A 
BRANCH  34  35
ATOM     35  C   UNL A   1      37.723  31.027  30.236  1.00  0.00     0.031 A 
ATOM     36  C   UNL A   1      38.023  31.280  31.689  1.00  0.00     0.074 A 
ATOM     37  C   UNL A   1      38.503  30.193  29.515  1.00  0.00     0.049 A 
ATOM     38  N   UNL A   1      39.038  30.880  32.407  1.00  0.00    -0.248 NA
ATOM     39  C   UNL A   1      37.074  32.139  32.413  1.00  0.00     0.031 C 
ATOM     40  C   UNL A   1      38.336  29.894  28.090  1.00  0.00     0.029 A 
ATOM     41  N   UNL A   1      39.610  29.462  29.874  1.00  0.00    -0.354 N 
ATOM     42  C   UNL A   1      38.876  31.475  33.655  1.00  0.00     0.074 A 
ATOM     43  C   UNL A   1      37.683  32.291  33.579  1.00  0.00     0.031 C 
ATOM     44  C   UNL A   1      39.297  29.038  27.702  1.00  0.00     0.029 A 
ATOM     45  C   UNL A   1      40.182  28.767  28.829  1.00  0.00     0.049 A 
ATOM     46  H   UNL A   1      39.962  29.437  30.793  1.00  0.00     0.167 HD
ATOM     47  C   UNL A   1      39.647  31.342  34.761  1.00  0.00     0.034 A 
ATOM     48  C   UNL A   1      41.305  28.020  28.782  1.00  0.00     0.034 A 
ATOM     49  C   UNL A   1      40.801  30.482  34.834  1.00  0.00     0.049 A 
ATOM     50  C   UNL A   1      42.126  27.863  30.040  1.00  0.00     0.074 A 
ATOM     51  C   UNL A   1      41.607  30.213  35.926  1.00  0.00     0.029 A 
ATOM     52  N   UNL A   1      41.307  29.744  33.774  1.00  0.00    -0.354 N 
ATOM     53  N   UNL A   1      41.931  28.401  31.223  1.00  0.00    -0.248 NA
ATOM     54  C   UNL A   1      43.309  26.997  29.962  1.00  0.00     0.031 C 
ATOM     55  C   UNL A   1      42.629  29.352  35.514  1.00  0.00     0.029 A 
ATOM     56  C   UNL A   1      42.424  29.034  34.181  1.00  0.00     0.049 A 
ATOM     57  H   UNL A   1      40.929  29.728  32.864  1.00  0.00     0.167 HD
ATOM     58  C   UNL A   1      42.943  27.898  32.037  1.00  0.00     0.074 A 
ATOM     59  C   UNL A   1      43.742  27.016  31.214  1.00  0.00     0.031 C 
ATOM     60  C   UNL A   1      43.189  28.140  33.348  1.00  0.00     0.034 A 
BRANCH  47  61
ATOM     61  C   UNL A   1      39.280  32.163  35.971  1.00  0.00     0.023 A 
ATOM     62  C   UNL A   1      38.457  31.655  36.990  1.00  0.00     0.031 A 
ATOM     63  C   UNL A   1      39.758  33.478  36.104  1.00  0.00     0.131 A 
ATOM     64  C   UNL A   1      38.080  32.479  38.061  1.00  0.00     0.055 A 
ATOM     65  C   UNL A   1      39.443  34.268  37.211  1.00  0.00     0.041 A 
ATOM     66  F   UNL A   1      40.533  34.023  35.153  1.00  0.00    -0.206 F 
ATOM     67  C   UNL A   1      38.589  33.774  38.192  1.00  0.00     0.022 A 
BRANCH  64  68
ATOM     68  S   UNL A   1      36.826  31.873  39.220  1.00  0.00     0.124 S 
ATOM     69  O   UNL A   1      36.763  30.456  38.869  1.00  0.00    -0.237 OA
ATOM     70  O   UNL A   1      37.415  32.184  40.517  1.00  0.00    -0.237 OA
ATOM     71  O   UNL A   1      35.636  32.648  38.874  1.00  0.00    -0.744 OA
ENDBRANCH  64  68
ENDBRANCH  47  61
BRANCH  48  72
ATOM     72  C   UNL A   1      41.746  27.374  27.510  1.00  0.00     0.023 A 
ATOM     73  C   UNL A   1      41.713  25.978  27.361  1.00  0.00     0.031 A 
ATOM     74  C   UNL A   1      42.278  28.133  26.453  1.00  0.00     0.131 A 
ATOM     75  C   UNL A   1      42.262  25.380  26.216  1.00  0.00     0.055 A 
ATOM     76  C   UNL A   1      42.769  27.538  25.289  1.00  0.00     0.041 A 
ATOM     77  F   UNL A   1      42.329  29.473  26.536  1.00  0.00    -0.206 F 
ATOM     78  C   UNL A   1      42.781  26.151  25.174  1.00  0.00     0.022 A 
BRANCH  75  79
ATOM     79  S   UNL A   1      42.400  23.572  26.164  1.00  0.00     0.124 S 
ATOM     80  O   UNL A   1      41.011  23.163  26.338  1.00  0.00    -0.237 OA
ATOM     81  O   UNL A   1      42.974  23.353  24.840  1.00  0.00    -0.237 OA
ATOM     82  O   UNL A   1      43.288  23.266  27.285  1.00  0.00    -0.744 OA
ENDBRANCH  75  79
ENDBRANCH  48  72
BRANCH  60  83
ATOM     83  C   UNL A   1      44.317  27.376  33.990  1.00  0.00     0.023 A 
ATOM     84  C   UNL A   1      44.116  26.126  34.598  1.00  0.00     0.031 A 
ATOM     85  C   UNL A   1      45.619  27.907  33.973  1.00  0.00     0.131 A 
ATOM     86  C   UNL A   1      45.196  25.464  35.200  1.00  0.00     0.055 A 
ATOM     87  C   UNL A   1      46.697  27.222  34.530  1.00  0.00     0.041 A 
ATOM     88  F   UNL A   1      45.861  29.098  33.402  1.00  0.00    -0.206 F 
ATOM     89  C   UNL A   1      46.488  25.997  35.156  1.00  0.00     0.022 A 
BRANCH  86  90
ATOM     90  S   UNL A   1      44.884  23.916  36.091  1.00  0.00     0.124 S 
ATOM     91  O   UNL A   1      44.676  24.388  37.456  1.00  0.00    -0.237 OA
ATOM     92  O   UNL A   1      43.703  23.395  35.411  1.00  0.00    -0.237 OA
ATOM     93  O   UNL A   1      46.108  23.145  35.882  1.00  0.00    -0.744 OA
ENDBRANCH  86  90
ENDBRANCH  60  83
ENDBRANCH  34  35
ENDBRANCH  26  29
ENDBRANCH  24  25
ENDBRANCH   1  24
TORSDOF 15
ENDMDL
MODEL 2
REMARK VINA RESULT:     -12.6      1.788      7.840
REMARK SMILES O=C(NCCCCNC(=O)c1ccc(-c2c3nc(c(-c4cc(S(=O)(=O)[O-])ccc4F)c4ccc([nH]4)c(-c4cc(S(=O)(=O)[O-])ccc4F)c4nc(c(-c5cc(S(=O)(=O)[O-])ccc5F)c5ccc2[nH]5)C=C4)C=C3)cc1)C1=Cc2c(Cl)cc(Cl)cc2O[C@@H]1C(F)(F)F
REMARK SMILES IDX 6 1 5 2 4 3 3 4 1 5 2 6 74 8 75 9 85 10 76 11 84 12 77 13
REMARK SMILES IDX 83 14 78 15 79 16 82 17 80 18 81 19 86 20 87 21 88 22 89 23
REMARK SMILES IDX 7 24 8 25 9 26 10 28 11 29 12 30 73 31 13 32 72 33 14 34
REMARK SMILES IDX 15 35 16 36 66 37 17 38 71 39 65 40 67 41 18 42 70 43 64 44
REMARK SMILES IDX 63 45 19 47 51 48 31 49 50 50 32 51 35 52 49 53 68 54 33 55
REMARK SMILES IDX 34 56 48 58 69 59 36 60 20 61 21 62 29 63 22 64 28 65 30 66
REMARK SMILES IDX 27 67 23 68 24 69 25 70 26 71 52 72 53 73 61 74 54 75 60 76
REMARK SMILES IDX 62 77 59 78 55 79 56 80 57 81 58 82 37 83 38 84 46 85 39 86
REMARK SMILES IDX 45 87 47 88 44 89 40 90 41 91 42 92 43 93
REMARK H PARENT 3 7 8 27 67 46 35 57
REMARK Flexibility Score: inf
ROOT
ATOM      1  C   UNL A   1      32.813  30.639  26.559  1.00  0.00     0.023 C 
ENDROOT
BRANCH   1   2
ATOM      2  C   UNL A   1      32.465  29.245  27.073  1.00  0.00     0.023 C 
BRANCH   2   3
ATOM      3  C   UNL A   1      31.449  28.500  26.206  1.00  0.00     0.116 C 
BRANCH   3   4
ATOM      4  N   UNL A   1      31.083  27.174  26.708  1.00  0.00    -0.352 N 
ATOM      5  O   UNL A   1      30.674  24.942  26.510  1.00  0.00    -0.270 OA
ATOM      6  C   UNL A   1      30.706  26.053  26.001  1.00  0.00     0.251 C 
ATOM      7  H   UNL A   1      31.111  27.068  27.686  1.00  0.00     0.163 HD
BRANCH   6   8
ATOM      8  C   UNL A   1      30.394  26.240  24.570  1.00  0.00     0.067 C 
ATOM      9  C   UNL A   1      29.127  26.554  24.271  1.00  0.00     0.027 C 
ATOM     10  C   UNL A   1      31.536  26.467  23.634  1.00  0.00     0.314 C 
ATOM     11  C   UNL A   1      28.990  27.682  23.329  1.00  0.00     0.036 A 
ATOM     12  O   UNL A   1      31.426  27.741  22.953  1.00  0.00    -0.475 OA
ATOM     13  C   UNL A   1      27.786  28.409  23.263  1.00  0.00     0.053 A 
ATOM     14  C   UNL A   1      30.169  28.285  22.837  1.00  0.00     0.130 A 
ATOM     15  Cl  UNL A   1      26.288  27.777  23.860  1.00  0.00    -0.083 Cl
ATOM     16  C   UNL A   1      27.784  29.735  22.822  1.00  0.00     0.042 A 
ATOM     17  C   UNL A   1      30.155  29.599  22.368  1.00  0.00     0.067 A 
ATOM     18  C   UNL A   1      28.971  30.327  22.401  1.00  0.00     0.046 A 
ATOM     19  Cl  UNL A   1      28.989  31.996  21.992  1.00  0.00    -0.084 Cl
BRANCH  10  20
ATOM     20  C   UNL A   1      31.684  25.324  22.618  1.00  0.00     0.429 C 
ATOM     21  F   UNL A   1      31.494  25.770  21.351  1.00  0.00    -0.167 F 
ATOM     22  F   UNL A   1      32.914  24.763  22.653  1.00  0.00    -0.167 F 
ATOM     23  F   UNL A   1      30.784  24.332  22.828  1.00  0.00    -0.167 F 
ENDBRANCH  10  20
ENDBRANCH   6   8
ENDBRANCH   3   4
ENDBRANCH   2   3
ENDBRANCH   1   2
BRANCH   1  24
ATOM     24  C   UNL A   1      33.463  31.587  27.567  1.00  0.00     0.116 C 
BRANCH  24  25
ATOM     25  N   UNL A   1      32.867  32.915  27.623  1.00  0.00    -0.352 N 
ATOM     26  C   UNL A   1      33.241  33.982  28.418  1.00  0.00     0.251 C 
ATOM     27  H   UNL A   1      32.105  33.072  27.021  1.00  0.00     0.163 HD
ATOM     28  O   UNL A   1      32.604  35.031  28.394  1.00  0.00    -0.269 OA
BRANCH  26  29
ATOM     29  C   UNL A   1      34.386  33.814  29.337  1.00  0.00     0.039 A 
ATOM     30  C   UNL A   1      34.215  33.065  30.503  1.00  0.00     0.014 A 
ATOM     31  C   UNL A   1      35.650  34.278  28.968  1.00  0.00     0.014 A 
ATOM     32  C   UNL A   1      35.337  32.674  31.241  1.00  0.00     0.010 A 
ATOM     33  C   UNL A   1      36.769  33.820  29.658  1.00  0.00     0.010 A 
ATOM     34  C   UNL A   1      36.627  32.992  30.785  1.00  0.00    -0.014 A 
BRANCH  34  35
ATOM     35  C   UNL A   1      37.852  32.459  31.441  1.00  0.00     0.031 A 
ATOM     36  C   UNL A   1      38.617  31.346  30.780  1.00  0.00     0.074 A 
ATOM     37  C   UNL A   1      38.199  32.885  32.675  1.00  0.00     0.049 A 
ATOM     38  N   UNL A   1      39.571  30.594  31.263  1.00  0.00    -0.248 NA
ATOM     39  C   UNL A   1      38.219  31.004  29.406  1.00  0.00     0.031 C 
ATOM     40  C   UNL A   1      37.512  33.933  33.437  1.00  0.00     0.029 A 
ATOM     41  N   UNL A   1      39.200  32.471  33.520  1.00  0.00    -0.354 N 
ATOM     42  C   UNL A   1      39.856  29.661  30.271  1.00  0.00     0.074 A 
ATOM     43  C   UNL A   1      38.947  29.922  29.175  1.00  0.00     0.031 C 
ATOM     44  C   UNL A   1      38.117  34.084  34.627  1.00  0.00     0.029 A 
ATOM     45  C   UNL A   1      39.199  33.111  34.742  1.00  0.00     0.049 A 
ATOM     46  H   UNL A   1      39.858  31.781  33.277  1.00  0.00     0.167 HD
ATOM     47  C   UNL A   1      40.796  28.685  30.274  1.00  0.00     0.034 A 
ATOM     48  C   UNL A   1      39.965  32.917  35.836  1.00  0.00     0.034 A 
ATOM     49  C   UNL A   1      41.729  28.475  31.352  1.00  0.00     0.049 A 
ATOM     50  C   UNL A   1      41.027  31.844  35.797  1.00  0.00     0.074 A 
ATOM     51  C   UNL A   1      42.770  27.567  31.425  1.00  0.00     0.029 A 
ATOM     52  N   UNL A   1      41.737  29.188  32.542  1.00  0.00    -0.354 N 
ATOM     53  N   UNL A   1      41.309  30.999  34.831  1.00  0.00    -0.248 NA
ATOM     54  C   UNL A   1      41.877  31.702  36.986  1.00  0.00     0.031 C 
ATOM     55  C   UNL A   1      43.377  27.698  32.678  1.00  0.00     0.029 A 
ATOM     56  C   UNL A   1      42.754  28.730  33.363  1.00  0.00     0.049 A 
ATOM     57  H   UNL A   1      41.111  29.914  32.771  1.00  0.00     0.167 HD
ATOM     58  C   UNL A   1      42.399  30.259  35.284  1.00  0.00     0.074 A 
ATOM     59  C   UNL A   1      42.723  30.756  36.603  1.00  0.00     0.031 C 
ATOM     60  C   UNL A   1      43.075  29.260  34.664  1.00  0.00     0.034 A 
BRANCH  47  61
ATOM     61  C   UNL A   1      40.845  27.758  29.086  1.00  0.00     0.023 A 
ATOM     62  C   UNL A   1      41.775  27.933  28.047  1.00  0.00     0.031 A 
ATOM     63  C   UNL A   1      39.941  26.686  28.988  1.00  0.00     0.131 A 
ATOM     64  C   UNL A   1      41.736  27.092  26.925  1.00  0.00     0.055 A 
ATOM     65  C   UNL A   1      39.957  25.805  27.905  1.00  0.00     0.041 A 
ATOM     66  F   UNL A   1      39.017  26.482  29.941  1.00  0.00    -0.206 F 
ATOM     67  C   UNL A   1      40.850  26.013  26.859  1.00  0.00     0.022 A 
BRANCH  64  68
ATOM     68  S   UNL A   1      42.782  27.498  25.502  1.00  0.00     0.124 S 
ATOM     69  O   UNL A   1      42.110  28.682  24.972  1.00  0.00    -0.237 OA
ATOM     70  O   UNL A   1      44.084  27.725  26.119  1.00  0.00    -0.237 OA
ATOM     71  O   UNL A   1      42.692  26.307  24.659  1.00  0.00    -0.744 OA
ENDBRANCH  64  68
ENDBRANCH  47  61
BRANCH  48  72
ATOM     72  C   UNL A   1      39.759  33.729  37.072  1.00  0.00     0.023 A 
ATOM     73  C   UNL A   1      39.065  33.202  38.173  1.00  0.00     0.031 A 
ATOM     74  C   UNL A   1      40.185  35.067  37.144  1.00  0.00     0.131 A 
ATOM     75  C   UNL A   1      38.758  34.024  39.269  1.00  0.00     0.055 A 
ATOM     76  C   UNL A   1      39.929  35.865  38.262  1.00  0.00     0.041 A 
ATOM     77  F   UNL A   1      40.859  35.623  36.124  1.00  0.00    -0.206 F 
ATOM     78  C   UNL A   1      39.195  35.349  39.326  1.00  0.00     0.022 A 
BRANCH  75  79
ATOM     79  S   UNL A   1      37.673  33.369  40.567  1.00  0.00     0.124 S 
ATOM     80  O   UNL A   1      37.462  34.547  41.401  1.00  0.00    -0.237 OA
ATOM     81  O   UNL A   1      36.523  32.914  39.794  1.00  0.00    -0.237 OA
ATOM     82  O   UNL A   1      38.473  32.307  41.175  1.00  0.00    -0.744 OA
ENDBRANCH  75  79
ENDBRANCH  48  72
BRANCH  60  83
ATOM     83  C   UNL A   1      44.280  28.701  35.372  1.00  0.00     0.023 A 
ATOM     84  C   UNL A   1      44.169  27.694  36.346  1.00  0.00     0.031 A 
ATOM     85  C   UNL A   1      45.563  29.176  35.047  1.00  0.00     0.131 A 
ATOM     86  C   UNL A   1      45.322  27.222  36.990  1.00  0.00     0.055 A 
ATOM     87  C   UNL A   1      46.709  28.667  35.656  1.00  0.00     0.041 A 
ATOM     88  F   UNL A   1      45.720  30.135  34.121  1.00  0.00    -0.206 F 
ATOM     89  C   UNL A   1      46.592  27.691  36.640  1.00  0.00     0.022 A 
BRANCH  86  90
ATOM     90  S   UNL A   1      45.138  26.019  38.335  1.00  0.00     0.124 S 
ATOM     91  O   UNL A   1      43.942  26.505  39.015  1.00  0.00    -0.237 OA
ATOM     92  O   UNL A   1      44.992  24.760  37.612  1.00  0.00    -0.237 OA
ATOM     93  O   UNL A   1      46.380  26.157  39.092  1.00  0.00    -0.744 OA
ENDBRANCH  86  90
ENDBRANCH  60  83
ENDBRANCH  34  35
ENDBRANCH  26  29
ENDBRANCH  24  25
ENDBRANCH   1  24
TORSDOF 15
ENDMDL
MODEL 3
REMARK VINA RESULT:     -12.6      5.160     10.521
REMARK SMILES O=C(NCCCCNC(=O)c1ccc(-c2c3nc(c(-c4cc(S(=O)(=O)[O-])ccc4F)c4ccc([nH]4)c(-c4cc(S(=O)(=O)[O-])ccc4F)c4nc(c(-c5cc(S(=O)(=O)[O-])ccc5F)c5ccc2[nH]5)C=C4)C=C3)cc1)C1=Cc2c(Cl)cc(Cl)cc2O[C@@H]1C(F)(F)F
REMARK SMILES IDX 6 1 5 2 4 3 3 4 1 5 2 6 74 8 75 9 85 10 76 11 84 12 77 13
REMARK SMILES IDX 83 14 78 15 79 16 82 17 80 18 81 19 86 20 87 21 88 22 89 23
REMARK SMILES IDX 7 24 8 25 9 26 10 28 11 29 12 30 73 31 13 32 72 33 14 34
REMARK SMILES IDX 15 35 16 36 66 37 17 38 71 39 65 40 67 41 18 42 70 43 64 44
REMARK SMILES IDX 63 45 19 47 51 48 31 49 50 50 32 51 35 52 49 53 68 54 33 55
REMARK SMILES IDX 34 56 48 58 69 59 36 60 20 61 21 62 29 63 22 64 28 65 30 66
REMARK SMILES IDX 27 67 23 68 24 69 25 70 26 71 52 72 53 73 61 74 54 75 60 76
REMARK SMILES IDX 62 77 59 78 55 79 56 80 57 81 58 82 37 83 38 84 46 85 39 86
REMARK SMILES IDX 45 87 47 88 44 89 40 90 41 91 42 92 43 93
REMARK H PARENT 3 7 8 27 67 46 35 57
REMARK Flexibility Score: inf
ROOT
ATOM      1  C   UNL A   1      36.127  21.197  25.028  1.00  0.00     0.023 C 
ENDROOT
BRANCH   1   2
ATOM      2  C   UNL A   1      35.312  21.918  26.099  1.00  0.00     0.023 C 
BRANCH   2   3
ATOM      3  C   UNL A   1      34.976  23.369  25.751  1.00  0.00     0.116 C 
BRANCH   3   4
ATOM      4  N   UNL A   1      34.753  23.612  24.325  1.00  0.00    -0.352 N 
ATOM      5  O   UNL A   1      33.947  24.774  22.539  1.00  0.00    -0.270 OA
ATOM      6  C   UNL A   1      33.861  24.471  23.720  1.00  0.00     0.251 C 
ATOM      7  H   UNL A   1      35.320  23.091  23.712  1.00  0.00     0.163 HD
BRANCH   6   8
ATOM      8  C   UNL A   1      32.820  25.066  24.582  1.00  0.00     0.067 C 
ATOM      9  C   UNL A   1      32.928  26.378  24.830  1.00  0.00     0.027 C 
ATOM     10  C   UNL A   1      31.551  24.299  24.769  1.00  0.00     0.314 C 
ATOM     11  C   UNL A   1      31.673  27.132  24.651  1.00  0.00     0.036 A 
ATOM     12  O   UNL A   1      30.400  25.048  24.308  1.00  0.00    -0.475 OA
ATOM     13  C   UNL A   1      31.705  28.523  24.433  1.00  0.00     0.053 A 
ATOM     14  C   UNL A   1      30.516  26.417  24.268  1.00  0.00     0.130 A 
ATOM     15  Cl  UNL A   1      33.082  29.492  24.840  1.00  0.00    -0.083 Cl
ATOM     16  C   UNL A   1      30.661  29.156  23.755  1.00  0.00     0.042 A 
ATOM     17  C   UNL A   1      29.462  27.061  23.619  1.00  0.00     0.067 A 
ATOM     18  C   UNL A   1      29.560  28.418  23.332  1.00  0.00     0.046 A 
ATOM     19  Cl  UNL A   1      28.346  29.175  22.379  1.00  0.00    -0.084 Cl
BRANCH  10  20
ATOM     20  C   UNL A   1      31.357  23.855  26.227  1.00  0.00     0.429 C 
ATOM     21  F   UNL A   1      31.526  22.516  26.356  1.00  0.00    -0.167 F 
ATOM     22  F   UNL A   1      32.244  24.442  27.064  1.00  0.00    -0.167 F 
ATOM     23  F   UNL A   1      30.117  24.144  26.690  1.00  0.00    -0.167 F 
ENDBRANCH  10  20
ENDBRANCH   6   8
ENDBRANCH   3   4
ENDBRANCH   2   3
ENDBRANCH   1   2
BRANCH   1  24
ATOM     24  C   UNL A   1      37.593  21.610  24.906  1.00  0.00     0.116 C 
BRANCH  24  25
ATOM     25  N   UNL A   1      38.546  20.600  25.347  1.00  0.00    -0.352 N 
ATOM     26  C   UNL A   1      39.624  20.761  26.198  1.00  0.00     0.251 C 
ATOM     27  H   UNL A   1      38.406  19.692  24.996  1.00  0.00     0.163 HD
ATOM     28  O   UNL A   1      40.377  19.822  26.436  1.00  0.00    -0.269 OA
BRANCH  26  29
ATOM     29  C   UNL A   1      39.882  22.100  26.768  1.00  0.00     0.039 A 
ATOM     30  C   UNL A   1      40.990  22.281  27.599  1.00  0.00     0.014 A 
ATOM     31  C   UNL A   1      39.112  23.191  26.363  1.00  0.00     0.014 A 
ATOM     32  C   UNL A   1      41.401  23.577  27.927  1.00  0.00     0.010 A 
ATOM     33  C   UNL A   1      39.569  24.480  26.624  1.00  0.00     0.010 A 
ATOM     34  C   UNL A   1      40.732  24.687  27.385  1.00  0.00    -0.014 A 
BRANCH  34  35
ATOM     35  C   UNL A   1      41.230  26.078  27.569  1.00  0.00     0.031 A 
ATOM     36  C   UNL A   1      42.590  26.450  27.044  1.00  0.00     0.074 A 
ATOM     37  C   UNL A   1      40.522  26.958  28.309  1.00  0.00     0.049 A 
ATOM     38  N   UNL A   1      43.303  27.519  27.273  1.00  0.00    -0.248 NA
ATOM     39  C   UNL A   1      43.252  25.458  26.182  1.00  0.00     0.031 C 
ATOM     40  C   UNL A   1      39.207  26.703  28.905  1.00  0.00     0.029 A 
ATOM     41  N   UNL A   1      40.819  28.238  28.710  1.00  0.00    -0.354 N 
ATOM     42  C   UNL A   1      44.516  27.312  26.624  1.00  0.00     0.074 A 
ATOM     43  C   UNL A   1      44.451  25.997  26.022  1.00  0.00     0.031 C 
ATOM     44  C   UNL A   1      38.811  27.792  29.585  1.00  0.00     0.029 A 
ATOM     45  C   UNL A   1      39.859  28.804  29.523  1.00  0.00     0.049 A 
ATOM     46  H   UNL A   1      41.641  28.708  28.443  1.00  0.00     0.167 HD
ATOM     47  C   UNL A   1      45.579  28.147  26.531  1.00  0.00     0.034 A 
ATOM     48  C   UNL A   1      39.841  29.991  30.164  1.00  0.00     0.034 A 
ATOM     49  C   UNL A   1      45.605  29.474  27.091  1.00  0.00     0.049 A 
ATOM     50  C   UNL A   1      41.026  30.915  30.016  1.00  0.00     0.074 A 
ATOM     51  C   UNL A   1      46.599  30.432  26.991  1.00  0.00     0.029 A 
ATOM     52  N   UNL A   1      44.587  30.034  27.850  1.00  0.00    -0.354 N 
ATOM     53  N   UNL A   1      42.147  30.718  29.360  1.00  0.00    -0.248 NA
ATOM     54  C   UNL A   1      40.943  32.221  30.683  1.00  0.00     0.031 C 
ATOM     55  C   UNL A   1      46.203  31.552  27.729  1.00  0.00     0.029 A 
ATOM     56  C   UNL A   1      44.936  31.317  28.238  1.00  0.00     0.049 A 
ATOM     57  H   UNL A   1      43.741  29.586  28.079  1.00  0.00     0.167 HD
ATOM     58  C   UNL A   1      42.879  31.894  29.501  1.00  0.00     0.074 A 
ATOM     59  C   UNL A   1      42.076  32.793  30.299  1.00  0.00     0.031 C 
ATOM     60  C   UNL A   1      44.105  32.205  29.012  1.00  0.00     0.034 A 
BRANCH  47  61
ATOM     61  C   UNL A   1      46.807  27.639  25.819  1.00  0.00     0.023 A 
ATOM     62  C   UNL A   1      47.067  27.952  24.475  1.00  0.00     0.031 A 
ATOM     63  C   UNL A   1      47.730  26.823  26.497  1.00  0.00     0.131 A 
ATOM     64  C   UNL A   1      48.183  27.396  23.830  1.00  0.00     0.055 A 
ATOM     65  C   UNL A   1      48.880  26.336  25.872  1.00  0.00     0.041 A 
ATOM     66  F   UNL A   1      47.524  26.475  27.777  1.00  0.00    -0.206 F 
ATOM     67  C   UNL A   1      49.105  26.612  24.527  1.00  0.00     0.022 A 
BRANCH  64  68
ATOM     68  S   UNL A   1      48.349  27.621  22.040  1.00  0.00     0.124 S 
ATOM     69  O   UNL A   1      49.520  28.492  21.962  1.00  0.00    -0.237 OA
ATOM     70  O   UNL A   1      48.537  26.256  21.563  1.00  0.00    -0.237 OA
ATOM     71  O   UNL A   1      47.087  28.249  21.654  1.00  0.00    -0.744 OA
ENDBRANCH  64  68
ENDBRANCH  47  61
BRANCH  48  72
ATOM     72  C   UNL A   1      38.684  30.384  31.023  1.00  0.00     0.023 A 
ATOM     73  C   UNL A   1      37.582  31.066  30.481  1.00  0.00     0.031 A 
ATOM     74  C   UNL A   1      38.694  30.153  32.410  1.00  0.00     0.131 A 
ATOM     75  C   UNL A   1      36.571  31.551  31.326  1.00  0.00     0.055 A 
ATOM     76  C   UNL A   1      37.657  30.585  33.240  1.00  0.00     0.041 A 
ATOM     77  F   UNL A   1      39.718  29.500  32.984  1.00  0.00    -0.206 F 
ATOM     78  C   UNL A   1      36.595  31.306  32.700  1.00  0.00     0.022 A 
BRANCH  75  79
ATOM     79  S   UNL A   1      35.284  32.614  30.615  1.00  0.00     0.124 S 
ATOM     80  O   UNL A   1      36.035  33.827  30.312  1.00  0.00    -0.237 OA
ATOM     81  O   UNL A   1      34.844  31.826  29.469  1.00  0.00    -0.237 OA
ATOM     82  O   UNL A   1      34.309  32.736  31.697  1.00  0.00    -0.744 OA
ENDBRANCH  75  79
ENDBRANCH  48  72
BRANCH  60  83
ATOM     83  C   UNL A   1      44.610  33.603  29.257  1.00  0.00     0.023 A 
ATOM     84  C   UNL A   1      44.181  34.694  28.483  1.00  0.00     0.031 A 
ATOM     85  C   UNL A   1      45.524  33.842  30.298  1.00  0.00     0.131 A 
ATOM     86  C   UNL A   1      44.698  35.972  28.739  1.00  0.00     0.055 A 
ATOM     87  C   UNL A   1      45.996  35.124  30.579  1.00  0.00     0.041 A 
ATOM     88  F   UNL A   1      45.961  32.832  31.067  1.00  0.00    -0.206 F 
ATOM     89  C   UNL A   1      45.590  36.197  29.792  1.00  0.00     0.022 A 
BRANCH  86  90
ATOM     90  S   UNL A   1      44.228  37.338  27.642  1.00  0.00     0.124 S 
ATOM     91  O   UNL A   1      43.419  36.656  26.637  1.00  0.00    -0.237 OA
ATOM     92  O   UNL A   1      43.506  38.230  28.542  1.00  0.00    -0.237 OA
ATOM     93  O   UNL A   1      45.510  37.850  27.162  1.00  0.00    -0.744 OA
ENDBRANCH  86  90
ENDBRANCH  60  83
ENDBRANCH  34  35
ENDBRANCH  26  29
ENDBRANCH  24  25
ENDBRANCH   1  24
TORSDOF 15
ENDMDL
