MODEL 1
REMARK VINA RESULT:     -12.9      0.000      0.000
REMARK SMILES CC[C@@H]1CC[C@](C[C@@H]2CCCc3ccccc32)(C(=O)NCCCCNC(=O)c2ccc(-c3c4nc(c(-c5cc(S(=O)(=O)[O-])ccc5F)c5ccc([nH]5)c(-c5cc(S(=O)(=O)[O-])ccc5F)c5nc(c(-c6cc(S(=O)(=O)[O-])ccc6F)c6ccc3[nH]6)C=C5)C=C4)cc2)C1
REMARK SMILES IDX 23 1 22 2 21 3 20 4 18 5 19 6 6 8 3 9 4 10 91 11 5 12 2 13
REMARK SMILES IDX 1 14 7 15 8 16 9 17 17 18 10 19 12 20 16 21 11 22 13 23
REMARK SMILES IDX 15 24 14 25 24 26 25 27 26 28 27 30 28 31 29 32 90 33 30 34
REMARK SMILES IDX 89 35 31 36 32 37 33 38 83 39 34 40 88 41 82 42 84 43 35 44
REMARK SMILES IDX 87 45 81 46 80 47 36 49 68 50 48 51 67 52 49 53 52 54 66 55
REMARK SMILES IDX 85 56 50 57 51 58 65 60 86 61 53 62 37 63 38 64 46 65 39 66
REMARK SMILES IDX 45 67 47 68 44 69 40 70 41 71 42 72 43 73 69 74 70 75 78 76
REMARK SMILES IDX 71 77 77 78 79 79 76 80 72 81 73 82 74 83 75 84 54 85 55 86
REMARK SMILES IDX 63 87 56 88 62 89 64 90 61 91 57 92 58 93 59 94 60 95
REMARK H PARENT 20 7 25 29 84 48 52 59
REMARK Flexibility Score: inf
ROOT
ATOM      1  C   UNL A   1      36.111  20.385  25.043  1.00  0.00     0.023 C 
ENDROOT
BRANCH   1   2
ATOM      2  C   UNL A   1      34.928  21.348  25.095  1.00  0.00     0.023 C 
BRANCH   2   3
ATOM      3  C   UNL A   1      35.108  22.573  25.981  1.00  0.00     0.116 C 
BRANCH   3   4
ATOM      4  N   UNL A   1      34.078  22.753  26.984  1.00  0.00    -0.356 N 
ATOM      5  C   UNL A   1      32.797  23.218  26.908  1.00  0.00     0.226 C 
ATOM      6  O   UNL A   1      32.107  22.985  27.910  1.00  0.00    -0.274 OA
ATOM      7  H   UNL A   1      34.355  22.491  27.892  1.00  0.00     0.163 HD
BRANCH   5   8
ATOM      8  C   UNL A   1      32.221  24.059  25.709  1.00  0.00     0.050 C 
ATOM      9  C   UNL A   1      32.527  23.819  23.291  1.00  0.00    -0.010 C 
ATOM     10  C   UNL A   1      33.730  24.585  23.829  1.00  0.00     0.005 C 
ATOM     11  C   UNL A   1      31.872  23.163  24.506  1.00  0.00     0.020 C 
ATOM     12  C   UNL A   1      33.315  25.034  25.227  1.00  0.00     0.017 C 
BRANCH   9  13
ATOM     13  C   UNL A   1      32.832  22.891  22.121  1.00  0.00     0.000 C 
ATOM     14  C   UNL A   1      32.343  21.476  22.400  1.00  0.00     0.004 C 
ENDBRANCH   9  13
BRANCH   8  15
ATOM     15  C   UNL A   1      30.945  24.823  26.246  1.00  0.00     0.025 C 
BRANCH  15  16
ATOM     16  C   UNL A   1      30.320  26.159  25.686  1.00  0.00     0.020 C 
ATOM     17  C   UNL A   1      29.652  26.109  24.298  1.00  0.00     0.009 C 
ATOM     18  C   UNL A   1      31.082  27.468  25.935  1.00  0.00    -0.042 A 
ATOM     19  C   UNL A   1      30.410  26.881  23.222  1.00  0.00     0.005 C 
ATOM     20  C   UNL A   1      31.172  28.481  24.953  1.00  0.00    -0.045 A 
ATOM     21  C   UNL A   1      31.600  27.748  27.212  1.00  0.00     0.004 A 
ATOM     22  C   UNL A   1      30.525  28.339  23.601  1.00  0.00     0.036 C 
ATOM     23  C   UNL A   1      31.806  29.701  25.245  1.00  0.00     0.004 A 
ATOM     24  C   UNL A   1      32.220  28.969  27.494  1.00  0.00     0.000 A 
ATOM     25  C   UNL A   1      32.333  29.940  26.508  1.00  0.00     0.000 A 
ENDBRANCH  15  16
ENDBRANCH   8  15
ENDBRANCH   5   8
ENDBRANCH   3   4
ENDBRANCH   2   3
ENDBRANCH   1   2
BRANCH   1  26
ATOM     26  C   UNL A   1      37.495  21.026  25.098  1.00  0.00     0.116 C 
BRANCH  26  27
ATOM     27  N   UNL A   1      38.551  20.095  25.470  1.00  0.00    -0.352 N 
ATOM     28  C   UNL A   1      39.763  20.328  26.083  1.00  0.00     0.251 C 
ATOM     29  H   UNL A   1      38.371  19.152  25.251  1.00  0.00     0.163 HD
ATOM     30  O   UNL A   1      40.568  19.414  26.201  1.00  0.00    -0.269 OA
BRANCH  28  31
ATOM     31  C   UNL A   1      40.104  21.691  26.553  1.00  0.00     0.039 A 
ATOM     32  C   UNL A   1      41.162  21.853  27.449  1.00  0.00     0.014 A 
ATOM     33  C   UNL A   1      39.402  22.807  26.091  1.00  0.00     0.014 A 
ATOM     34  C   UNL A   1      41.581  23.139  27.802  1.00  0.00     0.010 A 
ATOM     35  C   UNL A   1      39.875  24.086  26.374  1.00  0.00     0.010 A 
ATOM     36  C   UNL A   1      40.976  24.268  27.225  1.00  0.00    -0.014 A 
BRANCH  36  37
ATOM     37  C   UNL A   1      41.480  25.644  27.492  1.00  0.00     0.031 A 
ATOM     38  C   UNL A   1      42.848  26.049  27.012  1.00  0.00     0.074 A 
ATOM     39  C   UNL A   1      40.738  26.501  28.223  1.00  0.00     0.049 A 
ATOM     40  N   UNL A   1      43.509  27.156  27.236  1.00  0.00    -0.248 NA
ATOM     41  C   UNL A   1      43.582  25.067  26.199  1.00  0.00     0.031 C 
ATOM     42  C   UNL A   1      39.411  26.214  28.777  1.00  0.00     0.029 A 
ATOM     43  N   UNL A   1      40.994  27.785  28.637  1.00  0.00    -0.354 N 
ATOM     44  C   UNL A   1      44.738  27.000  26.602  1.00  0.00     0.074 A 
ATOM     45  C   UNL A   1      44.753  25.666  26.040  1.00  0.00     0.031 C 
ATOM     46  C   UNL A   1      38.964  27.295  29.435  1.00  0.00     0.029 A 
ATOM     47  C   UNL A   1      39.986  28.336  29.399  1.00  0.00     0.049 A 
ATOM     48  H   UNL A   1      41.822  28.268  28.412  1.00  0.00     0.167 HD
ATOM     49  C   UNL A   1      45.749  27.895  26.475  1.00  0.00     0.034 A 
ATOM     50  C   UNL A   1      39.904  29.534  30.013  1.00  0.00     0.034 A 
ATOM     51  C   UNL A   1      45.716  29.228  27.025  1.00  0.00     0.049 A 
ATOM     52  C   UNL A   1      41.056  30.500  29.881  1.00  0.00     0.074 A 
ATOM     53  C   UNL A   1      46.670  30.225  26.924  1.00  0.00     0.029 A 
ATOM     54  N   UNL A   1      44.674  29.751  27.780  1.00  0.00    -0.354 N 
ATOM     55  N   UNL A   1      42.194  30.347  29.242  1.00  0.00    -0.248 NA
ATOM     56  C   UNL A   1      40.909  31.803  30.541  1.00  0.00     0.031 C 
ATOM     57  C   UNL A   1      46.234  31.328  27.665  1.00  0.00     0.029 A 
ATOM     58  C   UNL A   1      44.974  31.048  28.167  1.00  0.00     0.049 A 
ATOM     59  H   UNL A   1      43.845  29.272  28.007  1.00  0.00     0.167 HD
ATOM     60  C   UNL A   1      42.877  31.551  29.394  1.00  0.00     0.074 A 
ATOM     61  C   UNL A   1      42.018  32.423  30.168  1.00  0.00     0.031 C 
ATOM     62  C   UNL A   1      44.104  31.908  28.935  1.00  0.00     0.034 A 
BRANCH  49  63
ATOM     63  C   UNL A   1      46.979  27.454  25.720  1.00  0.00     0.023 A 
ATOM     64  C   UNL A   1      47.197  27.835  24.384  1.00  0.00     0.031 A 
ATOM     65  C   UNL A   1      47.944  26.640  26.339  1.00  0.00     0.131 A 
ATOM     66  C   UNL A   1      48.318  27.353  23.693  1.00  0.00     0.055 A 
ATOM     67  C   UNL A   1      49.097  26.227  25.669  1.00  0.00     0.041 A 
ATOM     68  F   UNL A   1      47.779  26.227  27.606  1.00  0.00    -0.206 F 
ATOM     69  C   UNL A   1      49.283  26.574  24.334  1.00  0.00     0.022 A 
BRANCH  66  70
ATOM     70  S   UNL A   1      48.433  27.659  21.909  1.00  0.00     0.124 S 
ATOM     71  O   UNL A   1      48.657  26.311  21.393  1.00  0.00    -0.237 OA
ATOM     72  O   UNL A   1      47.135  28.253  21.606  1.00  0.00    -0.237 OA
ATOM     73  O   UNL A   1      49.574  28.564  21.790  1.00  0.00    -0.744 OA
ENDBRANCH  66  70
ENDBRANCH  49  63
BRANCH  50  74
ATOM     74  C   UNL A   1      38.705  29.899  30.824  1.00  0.00     0.023 A 
ATOM     75  C   UNL A   1      37.665  30.666  30.273  1.00  0.00     0.031 A 
ATOM     76  C   UNL A   1      38.614  29.554  32.185  1.00  0.00     0.131 A 
ATOM     77  C   UNL A   1      36.620  31.122  31.090  1.00  0.00     0.055 A 
ATOM     78  C   UNL A   1      37.538  29.956  32.979  1.00  0.00     0.041 A 
ATOM     79  F   UNL A   1      39.576  28.819  32.766  1.00  0.00    -0.206 F 
ATOM     80  C   UNL A   1      36.542  30.761  32.437  1.00  0.00     0.022 A 
BRANCH  77  81
ATOM     81  S   UNL A   1      35.428  32.300  30.396  1.00  0.00     0.124 S 
ATOM     82  O   UNL A   1      36.271  33.463  30.145  1.00  0.00    -0.237 OA
ATOM     83  O   UNL A   1      34.951  31.586  29.216  1.00  0.00    -0.237 OA
ATOM     84  O   UNL A   1      34.445  32.460  31.466  1.00  0.00    -0.744 OA
ENDBRANCH  77  81
ENDBRANCH  50  74
BRANCH  62  85
ATOM     85  C   UNL A   1      44.557  33.321  29.206  1.00  0.00     0.023 A 
ATOM     86  C   UNL A   1      44.225  34.385  28.348  1.00  0.00     0.031 A 
ATOM     87  C   UNL A   1      45.342  33.604  30.339  1.00  0.00     0.131 A 
ATOM     88  C   UNL A   1      44.725  35.670  28.606  1.00  0.00     0.055 A 
ATOM     89  C   UNL A   1      45.784  34.895  30.622  1.00  0.00     0.041 A 
ATOM     90  F   UNL A   1      45.689  32.626  31.191  1.00  0.00    -0.206 F 
ATOM     91  C   UNL A   1      45.487  35.935  29.747  1.00  0.00     0.022 A 
BRANCH  88  92
ATOM     92  S   UNL A   1      44.439  36.977  27.381  1.00  0.00     0.124 S 
ATOM     93  O   UNL A   1      45.709  37.003  26.662  1.00  0.00    -0.237 OA
ATOM     94  O   UNL A   1      43.296  36.460  26.634  1.00  0.00    -0.237 OA
ATOM     95  O   UNL A   1      44.162  38.157  28.197  1.00  0.00    -0.744 OA
ENDBRANCH  88  92
ENDBRANCH  62  85
ENDBRANCH  36  37
ENDBRANCH  28  31
ENDBRANCH  26  27
ENDBRANCH   1  26
TORSDOF 17
ENDMDL
MODEL 2
REMARK VINA RESULT:     -12.8      5.057      8.227
REMARK SMILES CC[C@@H]1CC[C@](C[C@@H]2CCCc3ccccc32)(C(=O)NCCCCNC(=O)c2ccc(-c3c4nc(c(-c5cc(S(=O)(=O)[O-])ccc5F)c5ccc([nH]5)c(-c5cc(S(=O)(=O)[O-])ccc5F)c5nc(c(-c6cc(S(=O)(=O)[O-])ccc6F)c6ccc3[nH]6)C=C5)C=C4)cc2)C1
REMARK SMILES IDX 23 1 22 2 21 3 20 4 18 5 19 6 6 8 3 9 4 10 91 11 5 12 2 13
REMARK SMILES IDX 1 14 7 15 8 16 9 17 17 18 10 19 12 20 16 21 11 22 13 23
REMARK SMILES IDX 15 24 14 25 24 26 25 27 26 28 27 30 28 31 29 32 90 33 30 34
REMARK SMILES IDX 89 35 31 36 32 37 33 38 83 39 34 40 88 41 82 42 84 43 35 44
REMARK SMILES IDX 87 45 81 46 80 47 36 49 68 50 48 51 67 52 49 53 52 54 66 55
REMARK SMILES IDX 85 56 50 57 51 58 65 60 86 61 53 62 37 63 38 64 46 65 39 66
REMARK SMILES IDX 45 67 47 68 44 69 40 70 41 71 42 72 43 73 69 74 70 75 78 76
REMARK SMILES IDX 71 77 77 78 79 79 76 80 72 81 73 82 74 83 75 84 54 85 55 86
REMARK SMILES IDX 63 87 56 88 62 89 64 90 61 91 57 92 58 93 59 94 60 95
REMARK H PARENT 20 7 25 29 84 48 52 59
REMARK Flexibility Score: inf
ROOT
ATOM      1  C   UNL A   1      31.569  29.953  25.076  1.00  0.00     0.023 C 
ENDROOT
BRANCH   1   2
ATOM      2  C   UNL A   1      32.398  29.037  24.179  1.00  0.00     0.023 C 
BRANCH   2   3
ATOM      3  C   UNL A   1      31.615  28.225  23.156  1.00  0.00     0.116 C 
BRANCH   3   4
ATOM      4  N   UNL A   1      32.424  27.614  22.119  1.00  0.00    -0.356 N 
ATOM      5  C   UNL A   1      32.817  26.325  21.906  1.00  0.00     0.226 C 
ATOM      6  O   UNL A   1      33.278  26.111  20.776  1.00  0.00    -0.274 OA
ATOM      7  H   UNL A   1      32.750  28.250  21.442  1.00  0.00     0.163 HD
BRANCH   5   8
ATOM      8  C   UNL A   1      32.791  25.190  22.996  1.00  0.00     0.050 C 
ATOM      9  C   UNL A   1      31.749  25.120  25.211  1.00  0.00    -0.010 C 
ATOM     10  C   UNL A   1      33.084  25.841  25.357  1.00  0.00     0.005 C 
ATOM     11  C   UNL A   1      31.432  25.130  23.716  1.00  0.00     0.020 C 
ATOM     12  C   UNL A   1      33.844  25.523  24.073  1.00  0.00     0.017 C 
BRANCH   9  13
ATOM     13  C   UNL A   1      30.644  25.632  26.127  1.00  0.00     0.000 C 
ATOM     14  C   UNL A   1      31.088  26.883  26.875  1.00  0.00     0.004 C 
ENDBRANCH   9  13
BRANCH   8  15
ATOM     15  C   UNL A   1      33.112  23.828  22.258  1.00  0.00     0.025 C 
BRANCH  15  16
ATOM     16  C   UNL A   1      33.389  22.422  22.918  1.00  0.00     0.020 C 
ATOM     17  C   UNL A   1      32.176  21.627  23.440  1.00  0.00     0.009 C 
ATOM     18  C   UNL A   1      34.627  22.280  23.814  1.00  0.00    -0.042 A 
ATOM     19  C   UNL A   1      32.128  21.505  24.960  1.00  0.00     0.005 C 
ATOM     20  C   UNL A   1      34.605  21.522  25.007  1.00  0.00    -0.045 A 
ATOM     21  C   UNL A   1      35.864  22.798  23.391  1.00  0.00     0.004 A 
ATOM     22  C   UNL A   1      33.366  20.805  25.473  1.00  0.00     0.036 C 
ATOM     23  C   UNL A   1      35.779  21.344  25.759  1.00  0.00     0.004 A 
ATOM     24  C   UNL A   1      37.027  22.608  24.142  1.00  0.00     0.000 A 
ATOM     25  C   UNL A   1      36.983  21.891  25.331  1.00  0.00     0.000 A 
ENDBRANCH  15  16
ENDBRANCH   8  15
ENDBRANCH   5   8
ENDBRANCH   3   4
ENDBRANCH   2   3
ENDBRANCH   1   2
BRANCH   1  26
ATOM     26  C   UNL A   1      32.224  30.367  26.391  1.00  0.00     0.116 C 
BRANCH  26  27
ATOM     27  N   UNL A   1      32.098  31.789  26.678  1.00  0.00    -0.352 N 
ATOM     28  C   UNL A   1      32.925  32.623  27.400  1.00  0.00     0.251 C 
ATOM     29  H   UNL A   1      31.300  32.222  26.298  1.00  0.00     0.163 HD
ATOM     30  O   UNL A   1      32.574  33.774  27.627  1.00  0.00    -0.269 OA
BRANCH  28  31
ATOM     31  C   UNL A   1      34.206  32.111  27.937  1.00  0.00     0.039 A 
ATOM     32  C   UNL A   1      35.254  33.008  28.155  1.00  0.00     0.014 A 
ATOM     33  C   UNL A   1      34.366  30.760  28.250  1.00  0.00     0.014 A 
ATOM     34  C   UNL A   1      36.425  32.567  28.780  1.00  0.00     0.010 A 
ATOM     35  C   UNL A   1      35.495  30.341  28.950  1.00  0.00     0.010 A 
ATOM     36  C   UNL A   1      36.534  31.242  29.232  1.00  0.00    -0.014 A 
BRANCH  36  37
ATOM     37  C   UNL A   1      37.719  30.778  30.006  1.00  0.00     0.031 A 
ATOM     38  C   UNL A   1      38.695  29.816  29.383  1.00  0.00     0.074 A 
ATOM     39  C   UNL A   1      37.878  31.167  31.289  1.00  0.00     0.049 A 
ATOM     40  N   UNL A   1      39.721  29.212  29.924  1.00  0.00    -0.248 NA
ATOM     41  C   UNL A   1      38.465  29.462  27.973  1.00  0.00     0.031 C 
ATOM     42  C   UNL A   1      36.981  32.068  32.018  1.00  0.00     0.029 A 
ATOM     43  N   UNL A   1      38.844  30.848  32.212  1.00  0.00    -0.354 N 
ATOM     44  C   UNL A   1      40.254  28.401  28.927  1.00  0.00     0.074 A 
ATOM     45  C   UNL A   1      39.396  28.543  27.769  1.00  0.00     0.031 C 
ATOM     46  C   UNL A   1      37.451  32.246  33.263  1.00  0.00     0.029 A 
ATOM     47  C   UNL A   1      38.651  31.435  33.444  1.00  0.00     0.049 A 
ATOM     48  H   UNL A   1      39.603  30.255  32.013  1.00  0.00     0.167 HD
ATOM     49  C   UNL A   1      41.370  27.631  28.963  1.00  0.00     0.034 A 
ATOM     50  C   UNL A   1      39.351  31.319  34.591  1.00  0.00     0.034 A 
ATOM     51  C   UNL A   1      42.226  27.510  30.116  1.00  0.00     0.049 A 
ATOM     52  C   UNL A   1      40.571  30.432  34.612  1.00  0.00     0.074 A 
ATOM     53  C   UNL A   1      43.399  26.787  30.247  1.00  0.00     0.029 A 
ATOM     54  N   UNL A   1      42.004  28.128  31.340  1.00  0.00    -0.354 N 
ATOM     55  N   UNL A   1      41.081  29.703  33.645  1.00  0.00    -0.248 NA
ATOM     56  C   UNL A   1      41.318  30.360  35.875  1.00  0.00     0.031 C 
ATOM     57  C   UNL A   1      43.853  26.919  31.563  1.00  0.00     0.029 A 
ATOM     58  C   UNL A   1      43.006  27.785  32.234  1.00  0.00     0.049 A 
ATOM     59  H   UNL A   1      41.246  28.723  31.543  1.00  0.00     0.167 HD
ATOM     60  C   UNL A   1      42.229  29.120  34.175  1.00  0.00     0.074 A 
ATOM     61  C   UNL A   1      42.345  29.594  35.538  1.00  0.00     0.031 C 
ATOM     62  C   UNL A   1      43.111  28.270  33.590  1.00  0.00     0.034 A 
BRANCH  49  63
ATOM     63  C   UNL A   1      41.719  26.852  27.717  1.00  0.00     0.023 A 
ATOM     64  C   UNL A   1      41.445  25.477  27.610  1.00  0.00     0.031 A 
ATOM     65  C   UNL A   1      42.334  27.489  26.625  1.00  0.00     0.131 A 
ATOM     66  C   UNL A   1      41.842  24.771  26.465  1.00  0.00     0.055 A 
ATOM     67  C   UNL A   1      42.656  26.796  25.456  1.00  0.00     0.041 A 
ATOM     68  F   UNL A   1      42.639  28.795  26.678  1.00  0.00    -0.206 F 
ATOM     69  C   UNL A   1      42.421  25.427  25.376  1.00  0.00     0.022 A 
BRANCH  66  70
ATOM     70  S   UNL A   1      41.699  22.964  26.469  1.00  0.00     0.124 S 
ATOM     71  O   UNL A   1      40.250  22.784  26.501  1.00  0.00    -0.237 OA
ATOM     72  O   UNL A   1      42.363  22.591  25.224  1.00  0.00    -0.237 OA
ATOM     73  O   UNL A   1      42.398  22.568  27.690  1.00  0.00    -0.744 OA
ENDBRANCH  66  70
ENDBRANCH  49  63
BRANCH  50  74
ATOM     74  C   UNL A   1      38.921  32.039  35.827  1.00  0.00     0.023 A 
ATOM     75  C   UNL A   1      38.269  31.361  36.869  1.00  0.00     0.031 A 
ATOM     76  C   UNL A   1      39.085  33.431  35.952  1.00  0.00     0.131 A 
ATOM     77  C   UNL A   1      37.744  32.079  37.954  1.00  0.00     0.055 A 
ATOM     78  C   UNL A   1      38.617  34.132  37.065  1.00  0.00     0.041 A 
ATOM     79  F   UNL A   1      39.703  34.132  34.988  1.00  0.00    -0.206 F 
ATOM     80  C   UNL A   1      37.925  33.459  38.066  1.00  0.00     0.022 A 
BRANCH  77  81
ATOM     81  S   UNL A   1      36.710  31.199  39.157  1.00  0.00     0.124 S 
ATOM     82  O   UNL A   1      36.524  29.910  38.501  1.00  0.00    -0.237 OA
ATOM     83  O   UNL A   1      37.559  31.199  40.343  1.00  0.00    -0.237 OA
ATOM     84  O   UNL A   1      35.512  32.032  39.249  1.00  0.00    -0.744 OA
ENDBRANCH  77  81
ENDBRANCH  50  74
BRANCH  62  85
ATOM     85  C   UNL A   1      44.309  27.852  34.406  1.00  0.00     0.023 A 
ATOM     86  C   UNL A   1      44.297  26.694  35.203  1.00  0.00     0.031 A 
ATOM     87  C   UNL A   1      45.479  28.633  34.391  1.00  0.00     0.131 A 
ATOM     88  C   UNL A   1      45.411  26.382  35.997  1.00  0.00     0.055 A 
ATOM     89  C   UNL A   1      46.605  28.284  35.134  1.00  0.00     0.041 A 
ATOM     90  F   UNL A   1      45.544  29.750  33.648  1.00  0.00    -0.206 F 
ATOM     91  C   UNL A   1      46.571  27.160  35.954  1.00  0.00     0.022 A 
BRANCH  88  92
ATOM     92  S   UNL A   1      45.292  24.992  37.156  1.00  0.00     0.124 S 
ATOM     93  O   UNL A   1      46.661  24.892  37.653  1.00  0.00    -0.237 OA
ATOM     94  O   UNL A   1      44.300  25.468  38.115  1.00  0.00    -0.237 OA
ATOM     95  O   UNL A   1      44.855  23.880  36.313  1.00  0.00    -0.744 OA
ENDBRANCH  88  92
ENDBRANCH  62  85
ENDBRANCH  36  37
ENDBRANCH  28  31
ENDBRANCH  26  27
ENDBRANCH   1  26
TORSDOF 17
ENDMDL
MODEL 3
REMARK VINA RESULT:     -12.8      0.481      7.401
REMARK SMILES CC[C@@H]1CC[C@](C[C@@H]2CCCc3ccccc32)(C(=O)NCCCCNC(=O)c2ccc(-c3c4nc(c(-c5cc(S(=O)(=O)[O-])ccc5F)c5ccc([nH]5)c(-c5cc(S(=O)(=O)[O-])ccc5F)c5nc(c(-c6cc(S(=O)(=O)[O-])ccc6F)c6ccc3[nH]6)C=C5)C=C4)cc2)C1
REMARK SMILES IDX 23 1 22 2 21 3 20 4 18 5 19 6 6 8 3 9 4 10 91 11 5 12 2 13
REMARK SMILES IDX 1 14 7 15 8 16 9 17 17 18 10 19 12 20 16 21 11 22 13 23
REMARK SMILES IDX 15 24 14 25 24 26 25 27 26 28 27 30 28 31 29 32 90 33 30 34
REMARK SMILES IDX 89 35 31 36 32 37 33 38 83 39 34 40 88 41 82 42 84 43 35 44
REMARK SMILES IDX 87 45 81 46 80 47 36 49 68 50 48 51 67 52 49 53 52 54 66 55
REMARK SMILES IDX 85 56 50 57 51 58 65 60 86 61 53 62 37 63 38 64 46 65 39 66
REMARK SMILES IDX 45 67 47 68 44 69 40 70 41 71 42 72 43 73 69 74 70 75 78 76
REMARK SMILES IDX 71 77 77 78 79 79 76 80 72 81 73 82 74 83 75 84 54 85 55 86
REMARK SMILES IDX 63 87 56 88 62 89 64 90 61 91 57 92 58 93 59 94 60 95
REMARK H PARENT 20 7 25 29 84 48 52 59
REMARK Flexibility Score: inf
ROOT
ATOM      1  C   UNL A   1      36.254  20.569  24.756  1.00  0.00     0.023 C 
ENDROOT
BRANCH   1   2
ATOM      2  C   UNL A   1      34.977  21.197  25.310  1.00  0.00     0.023 C 
BRANCH   2   3
ATOM      3  C   UNL A   1      35.173  22.346  26.289  1.00  0.00     0.116 C 
BRANCH   3   4
ATOM      4  N   UNL A   1      34.090  22.528  27.236  1.00  0.00    -0.356 N 
ATOM      5  C   UNL A   1      32.871  23.131  27.126  1.00  0.00     0.226 C 
ATOM      6  O   UNL A   1      32.086  22.869  28.047  1.00  0.00    -0.274 OA
ATOM      7  H   UNL A   1      34.269  22.146  28.125  1.00  0.00     0.163 HD
BRANCH   5   8
ATOM      8  C   UNL A   1      32.475  24.148  25.992  1.00  0.00     0.050 C 
ATOM      9  C   UNL A   1      33.065  24.209  23.616  1.00  0.00    -0.010 C 
ATOM     10  C   UNL A   1      34.219  24.837  24.390  1.00  0.00     0.005 C 
ATOM     11  C   UNL A   1      32.245  23.434  24.647  1.00  0.00     0.020 C 
ATOM     12  C   UNL A   1      33.651  25.122  25.777  1.00  0.00     0.017 C 
BRANCH   9  13
ATOM     13  C   UNL A   1      33.480  23.427  22.376  1.00  0.00     0.000 C 
ATOM     14  C   UNL A   1      32.626  22.177  22.203  1.00  0.00     0.004 C 
ENDBRANCH   9  13
BRANCH   8  15
ATOM     15  C   UNL A   1      31.169  24.898  26.475  1.00  0.00     0.025 C 
BRANCH  15  16
ATOM     16  C   UNL A   1      30.477  26.148  25.804  1.00  0.00     0.020 C 
ATOM     17  C   UNL A   1      29.801  25.940  24.434  1.00  0.00     0.009 C 
ATOM     18  C   UNL A   1      31.177  27.508  25.925  1.00  0.00    -0.042 A 
ATOM     19  C   UNL A   1      30.513  26.646  23.284  1.00  0.00     0.005 C 
ATOM     20  C   UNL A   1      31.211  28.431  24.855  1.00  0.00    -0.045 A 
ATOM     21  C   UNL A   1      31.691  27.926  27.165  1.00  0.00     0.004 A 
ATOM     22  C   UNL A   1      30.562  28.137  23.529  1.00  0.00     0.036 C 
ATOM     23  C   UNL A   1      31.788  29.700  25.028  1.00  0.00     0.004 A 
ATOM     24  C   UNL A   1      32.255  29.195  27.328  1.00  0.00     0.000 A 
ATOM     25  C   UNL A   1      32.313  30.077  26.258  1.00  0.00     0.000 A 
ENDBRANCH  15  16
ENDBRANCH   8  15
ENDBRANCH   5   8
ENDBRANCH   3   4
ENDBRANCH   2   3
ENDBRANCH   1   2
BRANCH   1  26
ATOM     26  C   UNL A   1      37.563  21.192  25.233  1.00  0.00     0.116 C 
BRANCH  26  27
ATOM     27  N   UNL A   1      38.564  20.208  25.623  1.00  0.00    -0.352 N 
ATOM     28  C   UNL A   1      39.781  20.382  26.246  1.00  0.00     0.251 C 
ATOM     29  H   UNL A   1      38.336  19.275  25.408  1.00  0.00     0.163 HD
ATOM     30  O   UNL A   1      40.534  19.426  26.379  1.00  0.00    -0.269 OA
BRANCH  28  31
ATOM     31  C   UNL A   1      40.189  21.728  26.710  1.00  0.00     0.039 A 
ATOM     32  C   UNL A   1      41.107  21.833  27.757  1.00  0.00     0.014 A 
ATOM     33  C   UNL A   1      39.692  22.880  26.097  1.00  0.00     0.014 A 
ATOM     34  C   UNL A   1      41.602  23.089  28.121  1.00  0.00     0.010 A 
ATOM     35  C   UNL A   1      40.250  24.120  26.402  1.00  0.00     0.010 A 
ATOM     36  C   UNL A   1      41.218  24.238  27.410  1.00  0.00    -0.014 A 
BRANCH  36  37
ATOM     37  C   UNL A   1      41.820  25.569  27.699  1.00  0.00     0.031 A 
ATOM     38  C   UNL A   1      41.022  26.612  28.435  1.00  0.00     0.074 A 
ATOM     39  C   UNL A   1      43.055  25.863  27.239  1.00  0.00     0.049 A 
ATOM     40  N   UNL A   1      41.323  27.860  28.686  1.00  0.00    -0.248 NA
ATOM     41  C   UNL A   1      39.697  26.204  28.927  1.00  0.00     0.031 C 
ATOM     42  C   UNL A   1      43.915  24.950  26.479  1.00  0.00     0.029 A 
ATOM     43  N   UNL A   1      43.799  27.014  27.331  1.00  0.00    -0.354 N 
ATOM     44  C   UNL A   1      40.223  28.389  29.355  1.00  0.00     0.074 A 
ATOM     45  C   UNL A   1      39.224  27.342  29.411  1.00  0.00     0.031 C 
ATOM     46  C   UNL A   1      45.073  25.568  26.198  1.00  0.00     0.029 A 
ATOM     47  C   UNL A   1      45.024  26.935  26.706  1.00  0.00     0.049 A 
ATOM     48  H   UNL A   1      43.486  27.820  27.800  1.00  0.00     0.167 HD
ATOM     49  C   UNL A   1      40.070  29.623  29.896  1.00  0.00     0.034 A 
ATOM     50  C   UNL A   1      45.990  27.863  26.546  1.00  0.00     0.034 A 
ATOM     51  C   UNL A   1      41.079  30.652  29.848  1.00  0.00     0.049 A 
ATOM     52  C   UNL A   1      45.781  29.238  27.133  1.00  0.00     0.074 A 
ATOM     53  C   UNL A   1      41.039  31.923  30.395  1.00  0.00     0.029 A 
ATOM     54  N   UNL A   1      42.310  30.531  29.217  1.00  0.00    -0.354 N 
ATOM     55  N   UNL A   1      44.748  29.706  27.796  1.00  0.00    -0.248 NA
ATOM     56  C   UNL A   1      46.871  30.207  26.959  1.00  0.00     0.031 C 
ATOM     57  C   UNL A   1      42.218  32.589  30.045  1.00  0.00     0.029 A 
ATOM     58  C   UNL A   1      43.027  31.710  29.343  1.00  0.00     0.049 A 
ATOM     59  H   UNL A   1      42.627  29.725  28.748  1.00  0.00     0.167 HD
ATOM     60  C   UNL A   1      45.086  31.010  28.151  1.00  0.00     0.074 A 
ATOM     61  C   UNL A   1      46.421  31.247  27.644  1.00  0.00     0.031 C 
ATOM     62  C   UNL A   1      44.360  31.930  28.836  1.00  0.00     0.034 A 
BRANCH  49  63
ATOM     63  C   UNL A   1      38.757  29.927  30.577  1.00  0.00     0.023 A 
ATOM     64  C   UNL A   1      37.747  30.660  29.930  1.00  0.00     0.031 A 
ATOM     65  C   UNL A   1      38.512  29.481  31.888  1.00  0.00     0.131 A 
ATOM     66  C   UNL A   1      36.566  30.980  30.616  1.00  0.00     0.055 A 
ATOM     67  C   UNL A   1      37.303  29.736  32.537  1.00  0.00     0.041 A 
ATOM     68  F   UNL A   1      39.448  28.794  32.562  1.00  0.00    -0.206 F 
ATOM     69  C   UNL A   1      36.326  30.500  31.905  1.00  0.00     0.022 A 
BRANCH  66  70
ATOM     70  S   UNL A   1      35.401  32.134  29.843  1.00  0.00     0.124 S 
ATOM     71  O   UNL A   1      36.288  33.225  29.446  1.00  0.00    -0.237 OA
ATOM     72  O   UNL A   1      34.841  31.338  28.756  1.00  0.00    -0.237 OA
ATOM     73  O   UNL A   1      34.470  32.456  30.923  1.00  0.00    -0.744 OA
ENDBRANCH  66  70
ENDBRANCH  49  63
BRANCH  50  74
ATOM     74  C   UNL A   1      47.238  27.549  25.790  1.00  0.00     0.023 A 
ATOM     75  C   UNL A   1      47.356  27.864  24.426  1.00  0.00     0.031 A 
ATOM     76  C   UNL A   1      48.302  26.857  26.397  1.00  0.00     0.131 A 
ATOM     77  C   UNL A   1      48.474  27.429  23.699  1.00  0.00     0.055 A 
ATOM     78  C   UNL A   1      49.442  26.483  25.683  1.00  0.00     0.041 A 
ATOM     79  F   UNL A   1      48.247  26.531  27.698  1.00  0.00    -0.206 F 
ATOM     80  C   UNL A   1      49.525  26.752  24.321  1.00  0.00     0.022 A 
BRANCH  77  81
ATOM     81  S   UNL A   1      48.478  27.652  21.899  1.00  0.00     0.124 S 
ATOM     82  O   UNL A   1      49.613  28.548  21.713  1.00  0.00    -0.237 OA
ATOM     83  O   UNL A   1      48.655  26.283  21.426  1.00  0.00    -0.237 OA
ATOM     84  O   UNL A   1      47.167  28.239  21.626  1.00  0.00    -0.744 OA
ENDBRANCH  77  81
ENDBRANCH  50  74
BRANCH  62  85
ATOM     85  C   UNL A   1      45.025  33.252  29.128  1.00  0.00     0.023 A 
ATOM     86  C   UNL A   1      44.923  34.345  28.247  1.00  0.00     0.031 A 
ATOM     87  C   UNL A   1      45.781  33.418  30.302  1.00  0.00     0.131 A 
ATOM     88  C   UNL A   1      45.614  35.533  28.528  1.00  0.00     0.055 A 
ATOM     89  C   UNL A   1      46.414  34.622  30.605  1.00  0.00     0.041 A 
ATOM     90  F   UNL A   1      45.913  32.407  31.177  1.00  0.00    -0.206 F 
ATOM     91  C   UNL A   1      46.344  35.684  29.710  1.00  0.00     0.022 A 
BRANCH  88  92
ATOM     92  S   UNL A   1      45.618  36.852  27.283  1.00  0.00     0.124 S 
ATOM     93  O   UNL A   1      46.157  36.164  26.114  1.00  0.00    -0.237 OA
ATOM     94  O   UNL A   1      44.208  37.219  27.211  1.00  0.00    -0.237 OA
ATOM     95  O   UNL A   1      46.493  37.869  27.864  1.00  0.00    -0.744 OA
ENDBRANCH  88  92
ENDBRANCH  62  85
ENDBRANCH  36  37
ENDBRANCH  28  31
ENDBRANCH  26  27
ENDBRANCH   1  26
TORSDOF 17
ENDMDL
