MODEL 1
REMARK VINA RESULT:     -12.0      0.000      0.000
REMARK SMILES CC1=C[C@@H]([C@@H]2N=N[C@H](S)N2/N=C/c2ccc(C(=O)NCCCCNC(=O)c3ccc(-c4c5nc(c(-c6cc(S(=O)(=O)[O-])ccc6F)c6ccc([nH]6)c(-c6cc(S(=O)(=O)[O-])ccc6F)c6nc(c(-c7cc(S(=O)(=O)[O-])ccc7F)c7ccc4[nH]7)C=C6)C=C5)cc3)cc2)N=N1
REMARK SMILES IDX 21 1 20 2 19 3 17 4 18 5 16 7 13 8 14 9 91 10 15 11 90 12
REMARK SMILES IDX 12 13 11 14 10 15 5 16 6 17 7 18 8 19 4 20 1 21 2 22 3 23
REMARK SMILES IDX 93 24 92 25 9 26 22 28 23 29 24 30 25 31 26 33 27 34 28 35
REMARK SMILES IDX 89 36 29 37 88 38 30 39 31 40 32 41 82 42 33 43 87 44 81 45
REMARK SMILES IDX 83 46 34 47 86 48 80 49 79 50 35 52 67 53 47 54 66 55 48 56
REMARK SMILES IDX 51 57 65 58 84 59 49 60 50 61 64 63 85 64 52 65 36 66 37 67
REMARK SMILES IDX 45 68 38 69 44 70 46 71 43 72 39 73 40 74 41 75 42 76 68 77
REMARK SMILES IDX 69 78 77 79 70 80 76 81 78 82 75 83 71 84 72 85 73 86 74 87
REMARK SMILES IDX 53 88 54 89 62 90 55 91 61 92 63 93 60 94 56 95 57 96 58 97
REMARK SMILES IDX 59 98
REMARK H PARENT 19 6 9 27 24 32 83 51 51 62
REMARK Flexibility Score: inf
ROOT
ATOM      1  C   UNL A   1      35.554  31.521  27.694  1.00  0.00     0.023 C 
ENDROOT
BRANCH   1   2
ATOM      2  C   UNL A   1      34.355  30.569  27.594  1.00  0.00     0.116 C 
BRANCH   2   3
ATOM      3  N   UNL A   1      33.134  31.296  27.297  1.00  0.00    -0.352 N 
ATOM      4  C   UNL A   1      31.964  30.955  26.665  1.00  0.00     0.251 C 
ATOM      5  O   UNL A   1      31.096  31.825  26.577  1.00  0.00    -0.269 OA
ATOM      6  H   UNL A   1      33.147  32.228  27.615  1.00  0.00     0.163 HD
BRANCH   4   7
ATOM      7  C   UNL A   1      31.666  29.597  26.121  1.00  0.00     0.039 A 
ATOM      8  C   UNL A   1      31.264  26.949  25.264  1.00  0.00    -0.005 A 
ATOM      9  C   UNL A   1      31.472  27.207  26.617  1.00  0.00     0.010 A 
ATOM     10  C   UNL A   1      31.188  28.002  24.354  1.00  0.00     0.010 A 
ATOM     11  C   UNL A   1      31.683  28.526  27.037  1.00  0.00     0.014 A 
ATOM     12  C   UNL A   1      31.357  29.320  24.788  1.00  0.00     0.014 A 
BRANCH   8  13
ATOM     13  C   UNL A   1      31.204  25.553  24.792  1.00  0.00     0.141 C 
ATOM     14  N   UNL A   1      32.031  24.664  25.249  1.00  0.00    -0.180 NA
BRANCH  14  15
ATOM     15  N   UNL A   1      31.815  23.399  24.835  1.00  0.00    -0.233 NA
ATOM     16  C   UNL A   1      32.080  22.245  25.695  1.00  0.00     0.274 C 
ATOM     17  N   UNL A   1      32.233  21.058  24.815  1.00  0.00    -0.161 NA
ATOM     18  N   UNL A   1      32.131  21.391  23.608  1.00  0.00    -0.153 NA
ATOM     19  C   UNL A   1      31.935  22.854  23.485  1.00  0.00     0.298 C 
BRANCH  16  20
ATOM     20  C   UNL A   1      33.291  22.381  26.653  1.00  0.00     0.201 C 
ATOM     21  C   UNL A   1      36.702  23.616  25.868  1.00  0.00     0.068 C 
ATOM     22  C   UNL A   1      35.422  22.931  26.178  1.00  0.00     0.058 C 
ATOM     23  C   UNL A   1      34.239  23.502  26.400  1.00  0.00     0.031 C 
ATOM     24  N   UNL A   1      35.365  21.562  26.248  1.00  0.00    -0.160 NA
ATOM     25  N   UNL A   1      34.188  21.188  26.516  1.00  0.00    -0.177 NA
ENDBRANCH  16  20
BRANCH  19  26
ATOM     26  S   UNL A   1      33.201  23.689  22.467  1.00  0.00    -0.128 SA
ATOM     27  H   UNL A   1      34.419  23.550  23.056  1.00  0.00     0.106 HD
ENDBRANCH  19  26
ENDBRANCH  14  15
ENDBRANCH   8  13
ENDBRANCH   4   7
ENDBRANCH   2   3
ENDBRANCH   1   2
BRANCH   1  28
ATOM     28  C   UNL A   1      35.193  32.993  27.947  1.00  0.00     0.023 C 
BRANCH  28  29
ATOM     29  C   UNL A   1      36.113  33.721  28.925  1.00  0.00     0.116 C 
BRANCH  29  30
ATOM     30  N   UNL A   1      35.736  33.504  30.319  1.00  0.00    -0.352 N 
ATOM     31  C   UNL A   1      36.076  32.442  31.139  1.00  0.00     0.251 C 
ATOM     32  H   UNL A   1      35.170  34.199  30.726  1.00  0.00     0.163 HD
ATOM     33  O   UNL A   1      35.380  32.156  32.100  1.00  0.00    -0.269 OA
BRANCH  31  34
ATOM     34  C   UNL A   1      37.302  31.677  30.835  1.00  0.00     0.039 A 
ATOM     35  C   UNL A   1      38.552  32.299  30.776  1.00  0.00     0.014 A 
ATOM     36  C   UNL A   1      37.179  30.304  30.631  1.00  0.00     0.014 A 
ATOM     37  C   UNL A   1      39.689  31.510  30.599  1.00  0.00     0.010 A 
ATOM     38  C   UNL A   1      38.304  29.517  30.570  1.00  0.00     0.010 A 
ATOM     39  C   UNL A   1      39.561  30.113  30.519  1.00  0.00    -0.014 A 
BRANCH  39  40
ATOM     40  C   UNL A   1      40.740  29.244  30.567  1.00  0.00     0.031 A 
ATOM     41  C   UNL A   1      41.181  28.910  31.952  1.00  0.00     0.074 A 
ATOM     42  C   UNL A   1      41.214  28.579  29.490  1.00  0.00     0.049 A 
ATOM     43  N   UNL A   1      42.258  29.285  32.557  1.00  0.00    -0.248 NA
ATOM     44  C   UNL A   1      40.221  28.226  32.836  1.00  0.00     0.031 C 
ATOM     45  C   UNL A   1      40.661  28.573  28.129  1.00  0.00     0.029 A 
ATOM     46  N   UNL A   1      42.218  27.661  29.400  1.00  0.00    -0.354 N 
ATOM     47  C   UNL A   1      42.239  28.650  33.799  1.00  0.00     0.074 A 
ATOM     48  C   UNL A   1      40.876  28.243  33.998  1.00  0.00     0.031 C 
ATOM     49  C   UNL A   1      41.174  27.535  27.432  1.00  0.00     0.029 A 
ATOM     50  C   UNL A   1      42.211  26.900  28.228  1.00  0.00     0.049 A 
ATOM     51  H   UNL A   1      42.896  27.544  30.105  1.00  0.00     0.167 HD
ATOM     52  C   UNL A   1      43.398  28.260  34.404  1.00  0.00     0.034 A 
ATOM     53  C   UNL A   1      42.977  25.814  27.932  1.00  0.00     0.034 A 
ATOM     54  C   UNL A   1      44.534  28.918  33.787  1.00  0.00     0.049 A 
ATOM     55  C   UNL A   1      44.151  25.865  28.835  1.00  0.00     0.074 A 
ATOM     56  C   UNL A   1      44.898  30.235  33.575  1.00  0.00     0.029 A 
ATOM     57  N   UNL A   1      45.313  28.181  32.919  1.00  0.00    -0.354 N 
ATOM     58  N   UNL A   1      45.053  26.806  28.783  1.00  0.00    -0.248 NA
ATOM     59  C   UNL A   1      44.062  25.167  30.109  1.00  0.00     0.031 C 
ATOM     60  C   UNL A   1      45.475  30.251  32.270  1.00  0.00     0.029 A 
ATOM     61  C   UNL A   1      45.528  28.939  31.796  1.00  0.00     0.049 A 
ATOM     62  H   UNL A   1      45.654  27.271  33.077  1.00  0.00     0.167 HD
ATOM     63  C   UNL A   1      45.319  27.122  30.106  1.00  0.00     0.074 A 
ATOM     64  C   UNL A   1      44.761  26.010  30.876  1.00  0.00     0.031 C 
ATOM     65  C   UNL A   1      45.700  28.384  30.466  1.00  0.00     0.034 A 
BRANCH  52  66
ATOM     66  C   UNL A   1      43.568  26.985  35.224  1.00  0.00     0.023 A 
ATOM     67  C   UNL A   1      44.371  25.980  34.648  1.00  0.00     0.031 A 
ATOM     68  C   UNL A   1      42.784  26.571  36.323  1.00  0.00     0.131 A 
ATOM     69  C   UNL A   1      44.225  24.633  35.016  1.00  0.00     0.055 A 
ATOM     70  C   UNL A   1      42.693  25.235  36.733  1.00  0.00     0.041 A 
ATOM     71  F   UNL A   1      42.011  27.400  37.028  1.00  0.00    -0.206 F 
ATOM     72  C   UNL A   1      43.378  24.248  36.047  1.00  0.00     0.022 A 
BRANCH  69  73
ATOM     73  S   UNL A   1      44.996  23.382  33.959  1.00  0.00     0.124 S 
ATOM     74  O   UNL A   1      46.175  24.101  33.488  1.00  0.00    -0.237 OA
ATOM     75  O   UNL A   1      45.235  22.299  34.907  1.00  0.00    -0.237 OA
ATOM     76  O   UNL A   1      43.975  23.118  32.950  1.00  0.00    -0.744 OA
ENDBRANCH  69  73
ENDBRANCH  52  66
BRANCH  53  77
ATOM     77  C   UNL A   1      42.600  24.603  27.143  1.00  0.00     0.023 A 
ATOM     78  C   UNL A   1      43.496  23.906  26.300  1.00  0.00     0.031 A 
ATOM     79  C   UNL A   1      41.370  23.962  27.417  1.00  0.00     0.131 A 
ATOM     80  C   UNL A   1      43.147  22.634  25.776  1.00  0.00     0.055 A 
ATOM     81  C   UNL A   1      41.031  22.709  26.900  1.00  0.00     0.041 A 
ATOM     82  F   UNL A   1      40.485  24.500  28.272  1.00  0.00    -0.206 F 
ATOM     83  C   UNL A   1      41.924  22.035  26.083  1.00  0.00     0.022 A 
BRANCH  80  84
ATOM     84  S   UNL A   1      44.316  21.691  24.735  1.00  0.00     0.124 S 
ATOM     85  O   UNL A   1      45.578  21.866  25.444  1.00  0.00    -0.237 OA
ATOM     86  O   UNL A   1      43.739  20.352  24.751  1.00  0.00    -0.237 OA
ATOM     87  O   UNL A   1      44.244  22.369  23.439  1.00  0.00    -0.744 OA
ENDBRANCH  80  84
ENDBRANCH  53  77
BRANCH  65  88
ATOM     88  C   UNL A   1      46.158  29.340  29.383  1.00  0.00     0.023 A 
ATOM     89  C   UNL A   1      45.312  30.162  28.602  1.00  0.00     0.031 A 
ATOM     90  C   UNL A   1      47.546  29.501  29.228  1.00  0.00     0.131 A 
ATOM     91  C   UNL A   1      45.872  31.094  27.704  1.00  0.00     0.055 A 
ATOM     92  C   UNL A   1      48.095  30.438  28.358  1.00  0.00     0.041 A 
ATOM     93  F   UNL A   1      48.402  28.767  29.959  1.00  0.00    -0.206 F 
ATOM     94  C   UNL A   1      47.259  31.236  27.586  1.00  0.00     0.022 A 
BRANCH  91  95
ATOM     95  S   UNL A   1      44.808  32.135  26.650  1.00  0.00     0.124 S 
ATOM     96  O   UNL A   1      45.736  32.699  25.677  1.00  0.00    -0.237 OA
ATOM     97  O   UNL A   1      43.841  31.173  26.128  1.00  0.00    -0.237 OA
ATOM     98  O   UNL A   1      44.247  33.108  27.591  1.00  0.00    -0.744 OA
ENDBRANCH  91  95
ENDBRANCH  65  88
ENDBRANCH  39  40
ENDBRANCH  31  34
ENDBRANCH  29  30
ENDBRANCH  28  29
ENDBRANCH   1  28
TORSDOF 18
ENDMDL
MODEL 2
REMARK VINA RESULT:     -11.9      1.924      2.579
REMARK SMILES CC1=C[C@@H]([C@@H]2N=N[C@H](S)N2/N=C/c2ccc(C(=O)NCCCCNC(=O)c3ccc(-c4c5nc(c(-c6cc(S(=O)(=O)[O-])ccc6F)c6ccc([nH]6)c(-c6cc(S(=O)(=O)[O-])ccc6F)c6nc(c(-c7cc(S(=O)(=O)[O-])ccc7F)c7ccc4[nH]7)C=C6)C=C5)cc3)cc2)N=N1
REMARK SMILES IDX 21 1 20 2 19 3 17 4 18 5 16 7 13 8 14 9 91 10 15 11 90 12
REMARK SMILES IDX 12 13 11 14 10 15 5 16 6 17 7 18 8 19 4 20 1 21 2 22 3 23
REMARK SMILES IDX 93 24 92 25 9 26 22 28 23 29 24 30 25 31 26 33 27 34 28 35
REMARK SMILES IDX 89 36 29 37 88 38 30 39 31 40 32 41 82 42 33 43 87 44 81 45
REMARK SMILES IDX 83 46 34 47 86 48 80 49 79 50 35 52 67 53 47 54 66 55 48 56
REMARK SMILES IDX 51 57 65 58 84 59 49 60 50 61 64 63 85 64 52 65 36 66 37 67
REMARK SMILES IDX 45 68 38 69 44 70 46 71 43 72 39 73 40 74 41 75 42 76 68 77
REMARK SMILES IDX 69 78 77 79 70 80 76 81 78 82 75 83 71 84 72 85 73 86 74 87
REMARK SMILES IDX 53 88 54 89 62 90 55 91 61 92 63 93 60 94 56 95 57 96 58 97
REMARK SMILES IDX 59 98
REMARK H PARENT 19 6 9 27 24 32 83 51 51 62
REMARK Flexibility Score: inf
ROOT
ATOM      1  C   UNL A   1      33.217  29.803  26.911  1.00  0.00     0.023 C 
ENDROOT
BRANCH   1   2
ATOM      2  C   UNL A   1      33.962  29.532  25.598  1.00  0.00     0.116 C 
BRANCH   2   3
ATOM      3  N   UNL A   1      33.071  29.646  24.457  1.00  0.00    -0.352 N 
ATOM      4  C   UNL A   1      32.660  28.762  23.490  1.00  0.00     0.251 C 
ATOM      5  O   UNL A   1      31.872  29.183  22.640  1.00  0.00    -0.269 OA
ATOM      6  H   UNL A   1      32.679  30.543  24.356  1.00  0.00     0.163 HD
BRANCH   4   7
ATOM      7  C   UNL A   1      33.072  27.329  23.430  1.00  0.00     0.039 A 
ATOM      8  C   UNL A   1      34.036  24.687  23.468  1.00  0.00    -0.005 A 
ATOM      9  C   UNL A   1      34.118  25.463  24.623  1.00  0.00     0.010 A 
ATOM     10  C   UNL A   1      33.419  25.194  22.326  1.00  0.00     0.010 A 
ATOM     11  C   UNL A   1      33.647  26.782  24.594  1.00  0.00     0.014 A 
ATOM     12  C   UNL A   1      32.913  26.497  22.320  1.00  0.00     0.014 A 
BRANCH   8  13
ATOM     13  C   UNL A   1      34.673  23.357  23.441  1.00  0.00     0.141 C 
ATOM     14  N   UNL A   1      35.269  22.889  24.495  1.00  0.00    -0.180 NA
BRANCH  14  15
ATOM     15  N   UNL A   1      35.719  21.622  24.393  1.00  0.00    -0.233 NA
ATOM     16  C   UNL A   1      34.896  20.473  24.777  1.00  0.00     0.274 C 
ATOM     17  N   UNL A   1      35.813  19.332  25.030  1.00  0.00    -0.161 NA
ATOM     18  N   UNL A   1      37.008  19.689  24.881  1.00  0.00    -0.153 NA
ATOM     19  C   UNL A   1      37.086  21.129  24.546  1.00  0.00     0.298 C 
BRANCH  16  20
ATOM     20  C   UNL A   1      33.947  20.695  25.981  1.00  0.00     0.201 C 
ATOM     21  C   UNL A   1      31.656  23.550  26.594  1.00  0.00     0.068 C 
ATOM     22  C   UNL A   1      32.697  22.497  26.491  1.00  0.00     0.058 C 
ATOM     23  C   UNL A   1      32.667  21.412  25.719  1.00  0.00     0.031 C 
ATOM     24  N   UNL A   1      33.850  22.585  27.228  1.00  0.00    -0.160 NA
ATOM     25  N   UNL A   1      34.599  21.595  26.987  1.00  0.00    -0.177 NA
ENDBRANCH  16  20
BRANCH  19  26
ATOM     26  S   UNL A   1      38.091  22.110  25.716  1.00  0.00    -0.128 SA
ATOM     27  H   UNL A   1      38.571  21.296  26.694  1.00  0.00     0.106 HD
ENDBRANCH  19  26
ENDBRANCH  14  15
ENDBRANCH   8  13
ENDBRANCH   4   7
ENDBRANCH   2   3
ENDBRANCH   1   2
BRANCH   1  28
ATOM     28  C   UNL A   1      33.185  31.277  27.345  1.00  0.00     0.023 C 
BRANCH  28  29
ATOM     29  C   UNL A   1      34.527  31.838  27.810  1.00  0.00     0.116 C 
BRANCH  29  30
ATOM     30  N   UNL A   1      34.483  32.340  29.181  1.00  0.00    -0.352 N 
ATOM     31  C   UNL A   1      35.209  31.902  30.274  1.00  0.00     0.251 C 
ATOM     32  H   UNL A   1      33.858  33.082  29.348  1.00  0.00     0.163 HD
ATOM     33  O   UNL A   1      34.794  32.087  31.406  1.00  0.00    -0.269 OA
BRANCH  31  34
ATOM     34  C   UNL A   1      36.499  31.222  30.041  1.00  0.00     0.039 A 
ATOM     35  C   UNL A   1      37.679  31.946  29.846  1.00  0.00     0.014 A 
ATOM     36  C   UNL A   1      36.511  29.829  30.043  1.00  0.00     0.014 A 
ATOM     37  C   UNL A   1      38.886  31.254  29.744  1.00  0.00     0.010 A 
ATOM     38  C   UNL A   1      37.709  29.154  30.057  1.00  0.00     0.010 A 
ATOM     39  C   UNL A   1      38.898  29.855  29.873  1.00  0.00    -0.014 A 
BRANCH  39  40
ATOM     40  C   UNL A   1      40.159  29.120  30.005  1.00  0.00     0.031 A 
ATOM     41  C   UNL A   1      40.513  28.786  31.414  1.00  0.00     0.074 A 
ATOM     42  C   UNL A   1      40.798  28.553  28.957  1.00  0.00     0.049 A 
ATOM     43  N   UNL A   1      41.483  29.255  32.125  1.00  0.00    -0.248 NA
ATOM     44  C   UNL A   1      39.564  27.967  32.189  1.00  0.00     0.031 C 
ATOM     45  C   UNL A   1      40.370  28.536  27.553  1.00  0.00     0.029 A 
ATOM     46  N   UNL A   1      41.904  27.756  28.934  1.00  0.00    -0.354 N 
ATOM     47  C   UNL A   1      41.428  28.576  33.342  1.00  0.00     0.074 A 
ATOM     48  C   UNL A   1      40.109  28.013  33.405  1.00  0.00     0.031 C 
ATOM     49  C   UNL A   1      41.057  27.589  26.876  1.00  0.00     0.029 A 
ATOM     50  C   UNL A   1      42.086  27.044  27.746  1.00  0.00     0.049 A 
ATOM     51  H   UNL A   1      42.527  27.689  29.694  1.00  0.00     0.167 HD
ATOM     52  C   UNL A   1      42.567  28.295  34.039  1.00  0.00     0.034 A 
ATOM     53  C   UNL A   1      42.994  26.061  27.491  1.00  0.00     0.034 A 
ATOM     54  C   UNL A   1      43.671  29.097  33.546  1.00  0.00     0.049 A 
ATOM     55  C   UNL A   1      44.071  26.208  28.499  1.00  0.00     0.074 A 
ATOM     56  C   UNL A   1      43.899  30.454  33.404  1.00  0.00     0.029 A 
ATOM     57  N   UNL A   1      44.600  28.485  32.732  1.00  0.00    -0.354 N 
ATOM     58  N   UNL A   1      44.861  27.245  28.554  1.00  0.00    -0.248 NA
ATOM     59  C   UNL A   1      43.951  25.457  29.739  1.00  0.00     0.031 C 
ATOM     60  C   UNL A   1      44.582  30.583  32.158  1.00  0.00     0.029 A 
ATOM     61  C   UNL A   1      44.825  29.303  31.655  1.00  0.00     0.049 A 
ATOM     62  H   UNL A   1      45.028  27.613  32.896  1.00  0.00     0.167 HD
ATOM     63  C   UNL A   1      44.973  27.539  29.903  1.00  0.00     0.074 A 
ATOM     64  C   UNL A   1      44.480  26.344  30.589  1.00  0.00     0.031 C 
ATOM     65  C   UNL A   1      45.174  28.821  30.332  1.00  0.00     0.034 A 
BRANCH  52  66
ATOM     66  C   UNL A   1      42.809  27.017  34.836  1.00  0.00     0.023 A 
ATOM     67  C   UNL A   1      43.700  26.088  34.262  1.00  0.00     0.031 A 
ATOM     68  C   UNL A   1      42.029  26.521  35.903  1.00  0.00     0.131 A 
ATOM     69  C   UNL A   1      43.644  24.725  34.597  1.00  0.00     0.055 A 
ATOM     70  C   UNL A   1      42.026  25.173  36.281  1.00  0.00     0.041 A 
ATOM     71  F   UNL A   1      41.177  27.274  36.603  1.00  0.00    -0.206 F 
ATOM     72  C   UNL A   1      42.800  24.255  35.594  1.00  0.00     0.022 A 
BRANCH  69  73
ATOM     73  S   UNL A   1      44.535  23.560  33.536  1.00  0.00     0.124 S 
ATOM     74  O   UNL A   1      43.591  23.404  32.435  1.00  0.00    -0.237 OA
ATOM     75  O   UNL A   1      45.756  24.301  33.242  1.00  0.00    -0.237 OA
ATOM     76  O   UNL A   1      44.704  22.388  34.391  1.00  0.00    -0.744 OA
ENDBRANCH  69  73
ENDBRANCH  52  66
BRANCH  53  77
ATOM     77  C   UNL A   1      42.827  24.845  26.638  1.00  0.00     0.023 A 
ATOM     78  C   UNL A   1      43.795  24.403  25.707  1.00  0.00     0.031 A 
ATOM     79  C   UNL A   1      41.775  23.946  26.925  1.00  0.00     0.131 A 
ATOM     80  C   UNL A   1      43.684  23.119  25.112  1.00  0.00     0.055 A 
ATOM     81  C   UNL A   1      41.671  22.682  26.339  1.00  0.00     0.041 A 
ATOM     82  F   UNL A   1      40.852  24.236  27.857  1.00  0.00    -0.206 F 
ATOM     83  C   UNL A   1      42.633  22.260  25.435  1.00  0.00     0.022 A 
BRANCH  80  84
ATOM     84  S   UNL A   1      44.957  22.505  23.954  1.00  0.00     0.124 S 
ATOM     85  O   UNL A   1      45.465  21.325  24.643  1.00  0.00    -0.237 OA
ATOM     86  O   UNL A   1      44.186  22.269  22.739  1.00  0.00    -0.237 OA
ATOM     87  O   UNL A   1      45.905  23.617  23.866  1.00  0.00    -0.744 OA
ENDBRANCH  80  84
ENDBRANCH  53  77
BRANCH  65  88
ATOM     88  C   UNL A   1      45.614  29.862  29.321  1.00  0.00     0.023 A 
ATOM     89  C   UNL A   1      46.942  30.069  28.882  1.00  0.00     0.031 A 
ATOM     90  C   UNL A   1      44.596  30.598  28.689  1.00  0.00     0.131 A 
ATOM     91  C   UNL A   1      47.204  30.995  27.850  1.00  0.00     0.055 A 
ATOM     92  C   UNL A   1      44.857  31.493  27.655  1.00  0.00     0.041 A 
ATOM     93  F   UNL A   1      43.312  30.427  29.044  1.00  0.00    -0.206 F 
ATOM     94  C   UNL A   1      46.165  31.700  27.235  1.00  0.00     0.022 A 
BRANCH  91  95
ATOM     95  S   UNL A   1      48.911  31.319  27.294  1.00  0.00     0.124 S 
ATOM     96  O   UNL A   1      49.635  31.563  28.536  1.00  0.00    -0.237 OA
ATOM     97  O   UNL A   1      49.251  30.088  26.586  1.00  0.00    -0.237 OA
ATOM     98  O   UNL A   1      48.769  32.494  26.431  1.00  0.00    -0.744 OA
ENDBRANCH  91  95
ENDBRANCH  65  88
ENDBRANCH  39  40
ENDBRANCH  31  34
ENDBRANCH  29  30
ENDBRANCH  28  29
ENDBRANCH   1  28
TORSDOF 18
ENDMDL
MODEL 3
REMARK VINA RESULT:     -11.8      1.577      2.386
REMARK SMILES CC1=C[C@@H]([C@@H]2N=N[C@H](S)N2/N=C/c2ccc(C(=O)NCCCCNC(=O)c3ccc(-c4c5nc(c(-c6cc(S(=O)(=O)[O-])ccc6F)c6ccc([nH]6)c(-c6cc(S(=O)(=O)[O-])ccc6F)c6nc(c(-c7cc(S(=O)(=O)[O-])ccc7F)c7ccc4[nH]7)C=C6)C=C5)cc3)cc2)N=N1
REMARK SMILES IDX 21 1 20 2 19 3 17 4 18 5 16 7 13 8 14 9 91 10 15 11 90 12
REMARK SMILES IDX 12 13 11 14 10 15 5 16 6 17 7 18 8 19 4 20 1 21 2 22 3 23
REMARK SMILES IDX 93 24 92 25 9 26 22 28 23 29 24 30 25 31 26 33 27 34 28 35
REMARK SMILES IDX 89 36 29 37 88 38 30 39 31 40 32 41 82 42 33 43 87 44 81 45
REMARK SMILES IDX 83 46 34 47 86 48 80 49 79 50 35 52 67 53 47 54 66 55 48 56
REMARK SMILES IDX 51 57 65 58 84 59 49 60 50 61 64 63 85 64 52 65 36 66 37 67
REMARK SMILES IDX 45 68 38 69 44 70 46 71 43 72 39 73 40 74 41 75 42 76 68 77
REMARK SMILES IDX 69 78 77 79 70 80 76 81 78 82 75 83 71 84 72 85 73 86 74 87
REMARK SMILES IDX 53 88 54 89 62 90 55 91 61 92 63 93 60 94 56 95 57 96 58 97
REMARK SMILES IDX 59 98
REMARK H PARENT 19 6 9 27 24 32 83 51 51 62
REMARK Flexibility Score: inf
ROOT
ATOM      1  C   UNL A   1      32.625  31.836  26.578  1.00  0.00     0.023 C 
ENDROOT
BRANCH   1   2
ATOM      2  C   UNL A   1      31.154  31.402  26.646  1.00  0.00     0.116 C 
BRANCH   2   3
ATOM      3  N   UNL A   1      30.638  31.094  25.324  1.00  0.00    -0.352 N 
ATOM      4  C   UNL A   1      30.839  30.052  24.454  1.00  0.00     0.251 C 
ATOM      5  O   UNL A   1      30.231  30.086  23.382  1.00  0.00    -0.269 OA
ATOM      6  H   UNL A   1      30.013  31.772  24.982  1.00  0.00     0.163 HD
BRANCH   4   7
ATOM      7  C   UNL A   1      31.708  28.872  24.740  1.00  0.00     0.039 A 
ATOM      8  C   UNL A   1      33.428  26.667  25.046  1.00  0.00    -0.005 A 
ATOM      9  C   UNL A   1      33.825  27.742  24.254  1.00  0.00     0.010 A 
ATOM     10  C   UNL A   1      32.217  26.716  25.736  1.00  0.00     0.010 A 
ATOM     11  C   UNL A   1      32.960  28.832  24.095  1.00  0.00     0.014 A 
ATOM     12  C   UNL A   1      31.379  27.828  25.606  1.00  0.00     0.014 A 
BRANCH   8  13
ATOM     13  C   UNL A   1      34.258  25.450  25.088  1.00  0.00     0.141 C 
ATOM     14  N   UNL A   1      33.754  24.318  25.474  1.00  0.00    -0.180 NA
BRANCH  14  15
ATOM     15  N   UNL A   1      34.570  23.250  25.367  1.00  0.00    -0.233 NA
ATOM     16  C   UNL A   1      34.573  22.391  24.182  1.00  0.00     0.274 C 
ATOM     17  N   UNL A   1      35.163  21.087  24.578  1.00  0.00    -0.161 NA
ATOM     18  N   UNL A   1      35.448  21.087  25.801  1.00  0.00    -0.153 NA
ATOM     19  C   UNL A   1      35.058  22.371  26.428  1.00  0.00     0.298 C 
BRANCH  16  20
ATOM     20  C   UNL A   1      33.200  22.188  23.492  1.00  0.00     0.201 C 
ATOM     21  C   UNL A   1      30.400  24.609  23.211  1.00  0.00     0.068 C 
ATOM     22  C   UNL A   1      31.406  23.549  23.473  1.00  0.00     0.058 C 
ATOM     23  C   UNL A   1      32.574  23.380  22.854  1.00  0.00     0.031 C 
ATOM     24  N   UNL A   1      31.190  22.612  24.450  1.00  0.00    -0.160 NA
ATOM     25  N   UNL A   1      32.167  21.811  24.511  1.00  0.00    -0.177 NA
ENDBRANCH  16  20
BRANCH  19  26
ATOM     26  S   UNL A   1      33.893  22.193  27.824  1.00  0.00    -0.128 SA
ATOM     27  H   UNL A   1      32.859  23.060  27.665  1.00  0.00     0.106 HD
ENDBRANCH  19  26
ENDBRANCH  14  15
ENDBRANCH   8  13
ENDBRANCH   4   7
ENDBRANCH   2   3
ENDBRANCH   1   2
BRANCH   1  28
ATOM     28  C   UNL A   1      33.617  30.866  27.237  1.00  0.00     0.023 C 
BRANCH  28  29
ATOM     29  C   UNL A   1      34.937  31.497  27.675  1.00  0.00     0.116 C 
BRANCH  29  30
ATOM     30  N   UNL A   1      34.870  32.067  29.018  1.00  0.00    -0.352 N 
ATOM     31  C   UNL A   1      35.584  31.689  30.142  1.00  0.00     0.251 C 
ATOM     32  H   UNL A   1      34.238  32.812  29.139  1.00  0.00     0.163 HD
ATOM     33  O   UNL A   1      35.152  31.927  31.257  1.00  0.00    -0.269 OA
BRANCH  31  34
ATOM     34  C   UNL A   1      36.882  31.008  29.960  1.00  0.00     0.039 A 
ATOM     35  C   UNL A   1      38.067  31.731  29.800  1.00  0.00     0.014 A 
ATOM     36  C   UNL A   1      36.894  29.615  29.975  1.00  0.00     0.014 A 
ATOM     37  C   UNL A   1      39.277  31.038  29.747  1.00  0.00     0.010 A 
ATOM     38  C   UNL A   1      38.090  28.941  30.037  1.00  0.00     0.010 A 
ATOM     39  C   UNL A   1      39.285  29.640  29.889  1.00  0.00    -0.014 A 
BRANCH  39  40
ATOM     40  C   UNL A   1      40.541  28.908  30.072  1.00  0.00     0.031 A 
ATOM     41  C   UNL A   1      40.869  28.629  31.499  1.00  0.00     0.074 A 
ATOM     42  C   UNL A   1      41.195  28.296  29.059  1.00  0.00     0.049 A 
ATOM     43  N   UNL A   1      41.829  29.124  32.207  1.00  0.00    -0.248 NA
ATOM     44  C   UNL A   1      39.904  27.845  32.290  1.00  0.00     0.031 C 
ATOM     45  C   UNL A   1      40.791  28.225  27.649  1.00  0.00     0.029 A 
ATOM     46  N   UNL A   1      42.298  27.496  29.086  1.00  0.00    -0.354 N 
ATOM     47  C   UNL A   1      41.751  28.494  33.449  1.00  0.00     0.074 A 
ATOM     48  C   UNL A   1      40.428  27.939  33.513  1.00  0.00     0.031 C 
ATOM     49  C   UNL A   1      41.486  27.249  27.023  1.00  0.00     0.029 A 
ATOM     50  C   UNL A   1      42.497  26.736  27.932  1.00  0.00     0.049 A 
ATOM     51  H   UNL A   1      42.908  27.458  29.860  1.00  0.00     0.167 HD
ATOM     52  C   UNL A   1      42.877  28.238  34.177  1.00  0.00     0.034 A 
ATOM     53  C   UNL A   1      43.406  25.741  27.732  1.00  0.00     0.034 A 
ATOM     54  C   UNL A   1      43.991  29.016  33.670  1.00  0.00     0.049 A 
ATOM     55  C   UNL A   1      44.467  25.925  28.751  1.00  0.00     0.074 A 
ATOM     56  C   UNL A   1      44.227  30.365  33.479  1.00  0.00     0.029 A 
ATOM     57  N   UNL A   1      44.932  28.368  32.899  1.00  0.00    -0.354 N 
ATOM     58  N   UNL A   1      45.259  26.961  28.778  1.00  0.00    -0.248 NA
ATOM     59  C   UNL A   1      44.322  25.225  30.019  1.00  0.00     0.031 C 
ATOM     60  C   UNL A   1      44.932  30.442  32.240  1.00  0.00     0.029 A 
ATOM     61  C   UNL A   1      45.179  29.142  31.793  1.00  0.00     0.049 A 
ATOM     62  H   UNL A   1      45.354  27.502  33.105  1.00  0.00     0.167 HD
ATOM     63  C   UNL A   1      45.349  27.308  30.117  1.00  0.00     0.074 A 
ATOM     64  C   UNL A   1      44.840  26.143  30.841  1.00  0.00     0.031 C 
ATOM     65  C   UNL A   1      45.548  28.605  30.497  1.00  0.00     0.034 A 
BRANCH  52  66
ATOM     66  C   UNL A   1      43.100  26.992  35.028  1.00  0.00     0.023 A 
ATOM     67  C   UNL A   1      43.880  25.974  34.445  1.00  0.00     0.031 A 
ATOM     68  C   UNL A   1      42.378  26.610  36.180  1.00  0.00     0.131 A 
ATOM     69  C   UNL A   1      43.765  24.639  34.864  1.00  0.00     0.055 A 
ATOM     70  C   UNL A   1      42.320  25.288  36.638  1.00  0.00     0.041 A 
ATOM     71  F   UNL A   1      41.636  27.457  36.897  1.00  0.00    -0.206 F 
ATOM     72  C   UNL A   1      42.976  24.283  35.950  1.00  0.00     0.022 A 
BRANCH  69  73
ATOM     73  S   UNL A   1      44.491  23.358  33.810  1.00  0.00     0.124 S 
ATOM     74  O   UNL A   1      45.828  23.900  33.591  1.00  0.00    -0.237 OA
ATOM     75  O   UNL A   1      44.402  22.182  34.668  1.00  0.00    -0.237 OA
ATOM     76  O   UNL A   1      43.616  23.349  32.641  1.00  0.00    -0.744 OA
ENDBRANCH  69  73
ENDBRANCH  52  66
BRANCH  53  77
ATOM     77  C   UNL A   1      43.249  24.492  26.926  1.00  0.00     0.023 A 
ATOM     78  C   UNL A   1      42.290  23.492  27.210  1.00  0.00     0.031 A 
ATOM     79  C   UNL A   1      43.909  24.393  25.681  1.00  0.00     0.131 A 
ATOM     80  C   UNL A   1      42.031  22.460  26.271  1.00  0.00     0.055 A 
ATOM     81  C   UNL A   1      43.649  23.376  24.758  1.00  0.00     0.041 A 
ATOM     82  F   UNL A   1      44.775  25.338  25.280  1.00  0.00    -0.206 F 
ATOM     83  C   UNL A   1      42.701  22.409  25.047  1.00  0.00     0.022 A 
BRANCH  80  84
ATOM     84  S   UNL A   1      40.753  21.193  26.592  1.00  0.00     0.124 S 
ATOM     85  O   UNL A   1      39.580  21.759  25.938  1.00  0.00    -0.237 OA
ATOM     86  O   UNL A   1      41.331  20.003  25.980  1.00  0.00    -0.237 OA
ATOM     87  O   UNL A   1      40.676  21.149  28.054  1.00  0.00    -0.744 OA
ENDBRANCH  80  84
ENDBRANCH  53  77
BRANCH  65  88
ATOM     88  C   UNL A   1      46.009  29.604  29.452  1.00  0.00     0.023 A 
ATOM     89  C   UNL A   1      45.161  30.357  28.608  1.00  0.00     0.031 A 
ATOM     90  C   UNL A   1      47.387  29.881  29.408  1.00  0.00     0.131 A 
ATOM     91  C   UNL A   1      45.710  31.338  27.756  1.00  0.00     0.055 A 
ATOM     92  C   UNL A   1      47.922  30.866  28.583  1.00  0.00     0.041 A 
ATOM     93  F   UNL A   1      48.241  29.216  30.204  1.00  0.00    -0.206 F 
ATOM     94  C   UNL A   1      47.084  31.596  27.748  1.00  0.00     0.022 A 
BRANCH  91  95
ATOM     95  S   UNL A   1      44.649  32.294  26.622  1.00  0.00     0.124 S 
ATOM     96  O   UNL A   1      44.014  33.276  27.492  1.00  0.00    -0.237 OA
ATOM     97  O   UNL A   1      45.611  32.821  25.657  1.00  0.00    -0.237 OA
ATOM     98  O   UNL A   1      43.738  31.284  26.077  1.00  0.00    -0.744 OA
ENDBRANCH  91  95
ENDBRANCH  65  88
ENDBRANCH  39  40
ENDBRANCH  31  34
ENDBRANCH  29  30
ENDBRANCH  28  29
ENDBRANCH   1  28
TORSDOF 18
ENDMDL
