MODEL 1
REMARK VINA RESULT:     -11.9      0.000      0.000
REMARK SMILES C[C@@H]1[C@@H](C(=O)NCCCCNC(=O)c2ccc(-c3c4nc(c(-c5cc(S(=O)(=O)[O-])ccc5F)c5ccc([nH]5)c(-c5cc(S(=O)(=O)[O-])ccc5F)c5nc(c(-c6cc(S(=O)(=O)[O-])ccc6F)c6ccc3[nH]6)C=C5)C=C4)cc2)CCN1C(=O)[C@@H]1CCCN(C(N)=O)C1
REMARK SMILES IDX 8 1 7 2 6 3 4 4 5 5 3 7 1 8 2 9 79 10 77 11 78 12 80 13
REMARK SMILES IDX 81 14 82 15 83 16 90 17 84 18 86 19 85 20 87 21 88 22 89 23
REMARK SMILES IDX 9 26 10 27 11 28 12 29 13 31 14 32 15 33 76 34 16 35 75 36
REMARK SMILES IDX 17 37 18 38 19 39 69 40 20 41 74 42 68 43 70 44 21 45 73 46
REMARK SMILES IDX 67 47 66 48 22 50 54 51 34 52 53 53 35 54 38 55 52 56 71 57
REMARK SMILES IDX 36 58 37 59 51 61 72 62 39 63 23 64 24 65 32 66 25 67 31 68
REMARK SMILES IDX 33 69 30 70 26 71 27 72 28 73 29 74 55 75 56 76 64 77 57 78
REMARK SMILES IDX 63 79 65 80 62 81 58 82 59 83 60 84 61 85 40 86 41 87 49 88
REMARK SMILES IDX 42 89 48 90 50 91 47 92 43 93 44 94 45 95 46 96
REMARK H PARENT 6 6 88 24 88 25 11 30 70 49 38 60
REMARK Flexibility Score: inf
ROOT
ATOM      1  C   UNL A   1      33.848  28.372  24.125  1.00  0.00     0.023 C 
ENDROOT
BRANCH   1   2
ATOM      2  C   UNL A   1      33.309  27.876  22.788  1.00  0.00     0.116 C 
BRANCH   2   3
ATOM      3  N   UNL A   1      33.650  26.492  22.511  1.00  0.00    -0.356 N 
ATOM      4  C   UNL A   1      32.861  25.382  22.622  1.00  0.00     0.225 C 
ATOM      5  O   UNL A   1      33.267  24.326  22.142  1.00  0.00    -0.275 OA
ATOM      6  H   UNL A   1      34.572  26.333  22.203  1.00  0.00     0.163 HD
BRANCH   4   7
ATOM      7  C   UNL A   1      31.511  25.523  23.305  1.00  0.00     0.102 C 
ATOM      8  C   UNL A   1      30.335  26.362  25.344  1.00  0.00     0.032 C 
ATOM      9  C   UNL A   1      31.599  25.644  24.842  1.00  0.00     0.094 C 
ATOM     10  N   UNL A   1      31.641  24.254  25.312  1.00  0.00    -0.339 N 
ATOM     11  C   UNL A   1      30.692  24.241  23.127  1.00  0.00     0.037 C 
ATOM     12  C   UNL A   1      31.196  23.354  24.254  1.00  0.00     0.120 C 
BRANCH  10  13
ATOM     13  C   UNL A   1      32.168  23.687  26.448  1.00  0.00     0.227 C 
ATOM     14  O   UNL A   1      31.486  23.697  27.487  1.00  0.00    -0.275 OA
BRANCH  13  15
ATOM     15  C   UNL A   1      33.534  22.991  26.535  1.00  0.00     0.098 C 
ATOM     16  C   UNL A   1      34.617  23.360  25.525  1.00  0.00     0.017 C 
ATOM     17  C   UNL A   1      33.453  21.502  26.853  1.00  0.00     0.134 C 
ATOM     18  C   UNL A   1      34.864  22.344  24.414  1.00  0.00     0.022 C 
ATOM     19  N   UNL A   1      33.570  20.647  25.679  1.00  0.00    -0.324 N 
ATOM     20  C   UNL A   1      34.730  20.887  24.833  1.00  0.00     0.121 C 
BRANCH  19  21
ATOM     21  C   UNL A   1      32.862  19.478  25.492  1.00  0.00     0.314 C 
ATOM     22  N   UNL A   1      32.903  18.580  26.500  1.00  0.00    -0.351 N 
ATOM     23  O   UNL A   1      32.223  19.216  24.478  1.00  0.00    -0.249 OA
ATOM     24  H   UNL A   1      33.413  18.781  27.318  1.00  0.00     0.161 HD
ATOM     25  H   UNL A   1      32.425  17.723  26.416  1.00  0.00     0.161 HD
ENDBRANCH  19  21
ENDBRANCH  13  15
ENDBRANCH  10  13
ENDBRANCH   4   7
ENDBRANCH   2   3
ENDBRANCH   1   2
BRANCH   1  26
ATOM     26  C   UNL A   1      32.912  29.291  24.910  1.00  0.00     0.023 C 
BRANCH  26  27
ATOM     27  C   UNL A   1      33.253  29.474  26.385  1.00  0.00     0.116 C 
BRANCH  27  28
ATOM     28  N   UNL A   1      33.229  30.866  26.806  1.00  0.00    -0.352 N 
ATOM     29  C   UNL A   1      34.105  31.541  27.619  1.00  0.00     0.251 C 
ATOM     30  H   UNL A   1      32.479  31.399  26.458  1.00  0.00     0.163 HD
ATOM     31  O   UNL A   1      33.847  32.691  27.969  1.00  0.00    -0.269 OA
BRANCH  29  32
ATOM     32  C   UNL A   1      35.327  30.866  28.098  1.00  0.00     0.039 A 
ATOM     33  C   UNL A   1      36.571  31.351  27.688  1.00  0.00     0.014 A 
ATOM     34  C   UNL A   1      35.245  29.782  28.978  1.00  0.00     0.014 A 
ATOM     35  C   UNL A   1      37.735  30.790  28.217  1.00  0.00     0.010 A 
ATOM     36  C   UNL A   1      36.403  29.283  29.566  1.00  0.00     0.010 A 
ATOM     37  C   UNL A   1      37.661  29.778  29.186  1.00  0.00    -0.014 A 
BRANCH  37  38
ATOM     38  C   UNL A   1      38.888  29.202  29.796  1.00  0.00     0.031 A 
ATOM     39  C   UNL A   1      39.433  29.789  31.071  1.00  0.00     0.074 A 
ATOM     40  C   UNL A   1      39.539  28.198  29.178  1.00  0.00     0.049 A 
ATOM     41  N   UNL A   1      40.527  29.491  31.720  1.00  0.00    -0.248 NA
ATOM     42  C   UNL A   1      38.656  30.884  31.671  1.00  0.00     0.031 C 
ATOM     43  C   UNL A   1      39.130  27.574  27.917  1.00  0.00     0.029 A 
ATOM     44  N   UNL A   1      40.686  27.527  29.520  1.00  0.00    -0.354 N 
ATOM     45  C   UNL A   1      40.580  30.371  32.796  1.00  0.00     0.074 A 
ATOM     46  C   UNL A   1      39.445  31.259  32.666  1.00  0.00     0.031 C 
ATOM     47  C   UNL A   1      39.995  26.595  27.609  1.00  0.00     0.029 A 
ATOM     48  C   UNL A   1      41.046  26.549  28.622  1.00  0.00     0.049 A 
ATOM     49  H   UNL A   1      41.205  27.729  30.333  1.00  0.00     0.167 HD
ATOM     50  C   UNL A   1      41.476  30.416  33.814  1.00  0.00     0.034 A 
ATOM     51  C   UNL A   1      42.105  25.717  28.612  1.00  0.00     0.034 A 
ATOM     52  C   UNL A   1      42.594  29.511  33.933  1.00  0.00     0.049 A 
ATOM     53  C   UNL A   1      43.099  25.794  29.744  1.00  0.00     0.074 A 
ATOM     54  C   UNL A   1      43.539  29.436  34.941  1.00  0.00     0.029 A 
ATOM     55  N   UNL A   1      42.920  28.527  33.008  1.00  0.00    -0.354 N 
ATOM     56  N   UNL A   1      43.113  26.604  30.779  1.00  0.00    -0.248 NA
ATOM     57  C   UNL A   1      44.212  24.837  29.714  1.00  0.00     0.031 C 
ATOM     58  C   UNL A   1      44.471  28.451  34.594  1.00  0.00     0.029 A 
ATOM     59  C   UNL A   1      44.065  27.856  33.410  1.00  0.00     0.049 A 
ATOM     60  H   UNL A   1      42.413  28.333  32.187  1.00  0.00     0.167 HD
ATOM     61  C   UNL A   1      44.215  26.226  31.541  1.00  0.00     0.074 A 
ATOM     62  C   UNL A   1      44.832  25.111  30.852  1.00  0.00     0.031 C 
ATOM     63  C   UNL A   1      44.671  26.747  32.709  1.00  0.00     0.034 A 
BRANCH  50  64
ATOM     64  C   UNL A   1      41.286  31.495  34.854  1.00  0.00     0.023 A 
ATOM     65  C   UNL A   1      40.309  31.386  35.861  1.00  0.00     0.031 A 
ATOM     66  C   UNL A   1      42.056  32.670  34.816  1.00  0.00     0.131 A 
ATOM     67  C   UNL A   1      40.064  32.465  36.724  1.00  0.00     0.055 A 
ATOM     68  C   UNL A   1      41.870  33.704  35.736  1.00  0.00     0.041 A 
ATOM     69  F   UNL A   1      42.990  32.845  33.867  1.00  0.00    -0.206 F 
ATOM     70  C   UNL A   1      40.857  33.613  36.685  1.00  0.00     0.022 A 
BRANCH  67  71
ATOM     71  S   UNL A   1      38.591  32.410  37.780  1.00  0.00     0.124 S 
ATOM     72  O   UNL A   1      37.927  31.201  37.295  1.00  0.00    -0.237 OA
ATOM     73  O   UNL A   1      39.164  32.331  39.118  1.00  0.00    -0.237 OA
ATOM     74  O   UNL A   1      37.899  33.659  37.468  1.00  0.00    -0.744 OA
ENDBRANCH  67  71
ENDBRANCH  50  64
BRANCH  51  75
ATOM     75  C   UNL A   1      42.288  24.736  27.503  1.00  0.00     0.023 A 
ATOM     76  C   UNL A   1      41.572  23.530  27.480  1.00  0.00     0.031 A 
ATOM     77  C   UNL A   1      43.211  24.974  26.469  1.00  0.00     0.131 A 
ATOM     78  C   UNL A   1      41.822  22.585  26.473  1.00  0.00     0.055 A 
ATOM     79  C   UNL A   1      43.418  24.054  25.440  1.00  0.00     0.041 A 
ATOM     80  F   UNL A   1      43.918  26.116  26.439  1.00  0.00    -0.206 F 
ATOM     81  C   UNL A   1      42.731  22.845  25.445  1.00  0.00     0.022 A 
BRANCH  78  82
ATOM     82  S   UNL A   1      40.997  20.972  26.570  1.00  0.00     0.124 S 
ATOM     83  O   UNL A   1      42.000  20.091  25.983  1.00  0.00    -0.237 OA
ATOM     84  O   UNL A   1      40.780  20.830  28.006  1.00  0.00    -0.237 OA
ATOM     85  O   UNL A   1      39.786  21.160  25.774  1.00  0.00    -0.744 OA
ENDBRANCH  78  82
ENDBRANCH  51  75
BRANCH  63  86
ATOM     86  C   UNL A   1      45.864  26.072  33.342  1.00  0.00     0.023 A 
ATOM     87  C   UNL A   1      45.727  24.962  34.193  1.00  0.00     0.031 A 
ATOM     88  C   UNL A   1      47.160  26.559  33.093  1.00  0.00     0.131 A 
ATOM     89  C   UNL A   1      46.861  24.414  34.813  1.00  0.00     0.055 A 
ATOM     90  C   UNL A   1      48.289  25.970  33.662  1.00  0.00     0.041 A 
ATOM     91  F   UNL A   1      47.349  27.618  32.289  1.00  0.00    -0.206 F 
ATOM     92  C   UNL A   1      48.142  24.899  34.538  1.00  0.00     0.022 A 
BRANCH  89  93
ATOM     93  S   UNL A   1      46.631  23.116  36.060  1.00  0.00     0.124 S 
ATOM     94  O   UNL A   1      45.175  23.033  36.145  1.00  0.00    -0.237 OA
ATOM     95  O   UNL A   1      47.300  21.973  35.448  1.00  0.00    -0.237 OA
ATOM     96  O   UNL A   1      47.291  23.659  37.245  1.00  0.00    -0.744 OA
ENDBRANCH  89  93
ENDBRANCH  63  86
ENDBRANCH  37  38
ENDBRANCH  29  32
ENDBRANCH  27  28
ENDBRANCH  26  27
ENDBRANCH   1  26
TORSDOF 17
ENDMDL
MODEL 2
REMARK VINA RESULT:     -11.8      1.721      7.769
REMARK SMILES C[C@@H]1[C@@H](C(=O)NCCCCNC(=O)c2ccc(-c3c4nc(c(-c5cc(S(=O)(=O)[O-])ccc5F)c5ccc([nH]5)c(-c5cc(S(=O)(=O)[O-])ccc5F)c5nc(c(-c6cc(S(=O)(=O)[O-])ccc6F)c6ccc3[nH]6)C=C5)C=C4)cc2)CCN1C(=O)[C@@H]1CCCN(C(N)=O)C1
REMARK SMILES IDX 8 1 7 2 6 3 4 4 5 5 3 7 1 8 2 9 79 10 77 11 78 12 80 13
REMARK SMILES IDX 81 14 82 15 83 16 90 17 84 18 86 19 85 20 87 21 88 22 89 23
REMARK SMILES IDX 9 26 10 27 11 28 12 29 13 31 14 32 15 33 76 34 16 35 75 36
REMARK SMILES IDX 17 37 18 38 19 39 69 40 20 41 74 42 68 43 70 44 21 45 73 46
REMARK SMILES IDX 67 47 66 48 22 50 54 51 34 52 53 53 35 54 38 55 52 56 71 57
REMARK SMILES IDX 36 58 37 59 51 61 72 62 39 63 23 64 24 65 32 66 25 67 31 68
REMARK SMILES IDX 33 69 30 70 26 71 27 72 28 73 29 74 55 75 56 76 64 77 57 78
REMARK SMILES IDX 63 79 65 80 62 81 58 82 59 83 60 84 61 85 40 86 41 87 49 88
REMARK SMILES IDX 42 89 48 90 50 91 47 92 43 93 44 94 45 95 46 96
REMARK H PARENT 6 6 88 24 88 25 11 30 70 49 38 60
REMARK Flexibility Score: inf
ROOT
ATOM      1  C   UNL A   1      33.504  28.487  23.688  1.00  0.00     0.023 C 
ENDROOT
BRANCH   1   2
ATOM      2  C   UNL A   1      33.124  27.740  22.416  1.00  0.00     0.116 C 
BRANCH   2   3
ATOM      3  N   UNL A   1      33.613  26.373  22.385  1.00  0.00    -0.356 N 
ATOM      4  C   UNL A   1      32.940  25.221  22.677  1.00  0.00     0.225 C 
ATOM      5  O   UNL A   1      33.465  24.148  22.391  1.00  0.00    -0.275 OA
ATOM      6  H   UNL A   1      34.556  26.263  22.119  1.00  0.00     0.163 HD
BRANCH   4   7
ATOM      7  C   UNL A   1      31.563  25.331  23.310  1.00  0.00     0.102 C 
ATOM      8  C   UNL A   1      30.287  26.194  25.277  1.00  0.00     0.032 C 
ATOM      9  C   UNL A   1      31.594  25.510  24.843  1.00  0.00     0.094 C 
ATOM     10  N   UNL A   1      31.673  24.140  25.365  1.00  0.00    -0.339 N 
ATOM     11  C   UNL A   1      30.801  24.013  23.152  1.00  0.00     0.037 C 
ATOM     12  C   UNL A   1      31.299  23.187  24.326  1.00  0.00     0.120 C 
BRANCH  10  13
ATOM     13  C   UNL A   1      32.182  23.634  26.537  1.00  0.00     0.227 C 
ATOM     14  O   UNL A   1      31.488  23.706  27.565  1.00  0.00    -0.275 OA
BRANCH  13  15
ATOM     15  C   UNL A   1      33.542  22.935  26.679  1.00  0.00     0.098 C 
ATOM     16  C   UNL A   1      34.679  23.331  25.741  1.00  0.00     0.017 C 
ATOM     17  C   UNL A   1      33.446  21.439  26.953  1.00  0.00     0.134 C 
ATOM     18  C   UNL A   1      34.988  22.345  24.617  1.00  0.00     0.022 C 
ATOM     19  N   UNL A   1      33.628  20.615  25.764  1.00  0.00    -0.324 N 
ATOM     20  C   UNL A   1      34.832  20.878  24.989  1.00  0.00     0.121 C 
BRANCH  19  21
ATOM     21  C   UNL A   1      32.932  19.452  25.507  1.00  0.00     0.314 C 
ATOM     22  N   UNL A   1      32.904  18.535  26.498  1.00  0.00    -0.351 N 
ATOM     23  O   UNL A   1      32.364  19.211  24.446  1.00  0.00    -0.249 OA
ATOM     24  H   UNL A   1      33.357  18.719  27.352  1.00  0.00     0.161 HD
ATOM     25  H   UNL A   1      32.430  17.682  26.365  1.00  0.00     0.161 HD
ENDBRANCH  19  21
ENDBRANCH  13  15
ENDBRANCH  10  13
ENDBRANCH   4   7
ENDBRANCH   2   3
ENDBRANCH   1   2
BRANCH   1  26
ATOM     26  C   UNL A   1      32.346  29.148  24.434  1.00  0.00     0.023 C 
BRANCH  26  27
ATOM     27  C   UNL A   1      32.619  29.512  25.888  1.00  0.00     0.116 C 
BRANCH  27  28
ATOM     28  N   UNL A   1      32.289  30.894  26.201  1.00  0.00    -0.352 N 
ATOM     29  C   UNL A   1      32.939  31.776  27.028  1.00  0.00     0.251 C 
ATOM     30  H   UNL A   1      31.485  31.246  25.756  1.00  0.00     0.163 HD
ATOM     31  O   UNL A   1      32.432  32.869  27.270  1.00  0.00    -0.269 OA
BRANCH  29  32
ATOM     32  C   UNL A   1      34.219  31.386  27.651  1.00  0.00     0.039 A 
ATOM     33  C   UNL A   1      35.166  32.375  27.925  1.00  0.00     0.014 A 
ATOM     34  C   UNL A   1      34.467  30.054  27.997  1.00  0.00     0.014 A 
ATOM     35  C   UNL A   1      36.334  32.038  28.610  1.00  0.00     0.010 A 
ATOM     36  C   UNL A   1      35.591  29.737  28.752  1.00  0.00     0.010 A 
ATOM     37  C   UNL A   1      36.540  30.725  29.062  1.00  0.00    -0.014 A 
BRANCH  37  38
ATOM     38  C   UNL A   1      37.755  30.357  29.834  1.00  0.00     0.031 A 
ATOM     39  C   UNL A   1      38.755  29.400  29.241  1.00  0.00     0.074 A 
ATOM     40  C   UNL A   1      37.929  30.833  31.083  1.00  0.00     0.049 A 
ATOM     41  N   UNL A   1      39.832  28.889  29.776  1.00  0.00    -0.248 NA
ATOM     42  C   UNL A   1      38.480  28.931  27.875  1.00  0.00     0.031 C 
ATOM     43  C   UNL A   1      37.008  31.734  31.780  1.00  0.00     0.029 A 
ATOM     44  N   UNL A   1      38.935  30.622  31.992  1.00  0.00    -0.354 N 
ATOM     45  C   UNL A   1      40.356  28.026  28.819  1.00  0.00     0.074 A 
ATOM     46  C   UNL A   1      39.435  28.030  27.703  1.00  0.00     0.031 C 
ATOM     47  C   UNL A   1      37.507  32.021  32.993  1.00  0.00     0.029 A 
ATOM     48  C   UNL A   1      38.756  31.291  33.181  1.00  0.00     0.049 A 
ATOM     49  H   UNL A   1      39.712  30.045  31.810  1.00  0.00     0.167 HD
ATOM     50  C   UNL A   1      41.512  27.317  28.855  1.00  0.00     0.034 A 
ATOM     51  C   UNL A   1      39.510  31.306  34.298  1.00  0.00     0.034 A 
ATOM     52  C   UNL A   1      42.425  27.337  29.973  1.00  0.00     0.049 A 
ATOM     53  C   UNL A   1      40.783  30.498  34.325  1.00  0.00     0.074 A 
ATOM     54  C   UNL A   1      43.643  26.694  30.104  1.00  0.00     0.029 A 
ATOM     55  N   UNL A   1      42.215  28.034  31.157  1.00  0.00    -0.354 N 
ATOM     56  N   UNL A   1      41.289  29.719  33.395  1.00  0.00    -0.248 NA
ATOM     57  C   UNL A   1      41.595  30.581  35.545  1.00  0.00     0.031 C 
ATOM     58  C   UNL A   1      44.138  26.950  31.388  1.00  0.00     0.029 A 
ATOM     59  C   UNL A   1      43.269  27.817  32.031  1.00  0.00     0.049 A 
ATOM     60  H   UNL A   1      41.432  28.599  31.348  1.00  0.00     0.167 HD
ATOM     61  C   UNL A   1      42.496  29.251  33.907  1.00  0.00     0.074 A 
ATOM     62  C   UNL A   1      42.645  29.843  35.220  1.00  0.00     0.031 C 
ATOM     63  C   UNL A   1      43.403  28.414  33.340  1.00  0.00     0.034 A 
BRANCH  50  64
ATOM     64  C   UNL A   1      41.828  26.448  27.660  1.00  0.00     0.023 A 
ATOM     65  C   UNL A   1      41.450  25.094  27.612  1.00  0.00     0.031 A 
ATOM     66  C   UNL A   1      42.557  26.962  26.574  1.00  0.00     0.131 A 
ATOM     67  C   UNL A   1      41.881  24.281  26.553  1.00  0.00     0.055 A 
ATOM     68  C   UNL A   1      42.904  26.170  25.477  1.00  0.00     0.041 A 
ATOM     69  F   UNL A   1      42.965  28.241  26.569  1.00  0.00    -0.206 F 
ATOM     70  C   UNL A   1      42.582  24.816  25.471  1.00  0.00     0.022 A 
BRANCH  67  71
ATOM     71  S   UNL A   1      41.656  22.486  26.694  1.00  0.00     0.124 S 
ATOM     72  O   UNL A   1      40.225  22.392  26.979  1.00  0.00    -0.237 OA
ATOM     73  O   UNL A   1      42.078  22.012  25.381  1.00  0.00    -0.237 OA
ATOM     74  O   UNL A   1      42.531  22.117  27.804  1.00  0.00    -0.744 OA
ENDBRANCH  67  71
ENDBRANCH  50  64
BRANCH  51  75
ATOM     75  C   UNL A   1      39.093  32.110  35.483  1.00  0.00     0.023 A 
ATOM     76  C   UNL A   1      39.556  33.422  35.664  1.00  0.00     0.031 A 
ATOM     77  C   UNL A   1      38.255  31.565  36.471  1.00  0.00     0.131 A 
ATOM     78  C   UNL A   1      39.218  34.130  36.828  1.00  0.00     0.055 A 
ATOM     79  C   UNL A   1      37.879  32.291  37.602  1.00  0.00     0.041 A 
ATOM     80  F   UNL A   1      37.778  30.315  36.344  1.00  0.00    -0.206 F 
ATOM     81  C   UNL A   1      38.372  33.578  37.792  1.00  0.00     0.022 A 
BRANCH  78  82
ATOM     82  S   UNL A   1      39.969  35.758  37.104  1.00  0.00     0.124 S 
ATOM     83  O   UNL A   1      39.267  36.210  38.299  1.00  0.00    -0.237 OA
ATOM     84  O   UNL A   1      41.377  35.417  37.277  1.00  0.00    -0.237 OA
ATOM     85  O   UNL A   1      39.653  36.490  35.879  1.00  0.00    -0.744 OA
ENDBRANCH  78  82
ENDBRANCH  51  75
BRANCH  63  86
ATOM     86  C   UNL A   1      44.666  28.141  34.121  1.00  0.00     0.023 A 
ATOM     87  C   UNL A   1      44.772  27.058  35.011  1.00  0.00     0.031 A 
ATOM     88  C   UNL A   1      45.778  28.989  33.975  1.00  0.00     0.131 A 
ATOM     89  C   UNL A   1      45.943  26.888  35.767  1.00  0.00     0.055 A 
ATOM     90  C   UNL A   1      46.962  28.778  34.682  1.00  0.00     0.041 A 
ATOM     91  F   UNL A   1      45.731  30.040  33.140  1.00  0.00    -0.206 F 
ATOM     92  C   UNL A   1      47.044  27.730  35.594  1.00  0.00     0.022 A 
BRANCH  89  93
ATOM     93  S   UNL A   1      45.973  25.607  37.050  1.00  0.00     0.124 S 
ATOM     94  O   UNL A   1      45.320  26.283  38.168  1.00  0.00    -0.237 OA
ATOM     95  O   UNL A   1      45.216  24.525  36.429  1.00  0.00    -0.237 OA
ATOM     96  O   UNL A   1      47.398  25.340  37.235  1.00  0.00    -0.744 OA
ENDBRANCH  89  93
ENDBRANCH  63  86
ENDBRANCH  37  38
ENDBRANCH  29  32
ENDBRANCH  27  28
ENDBRANCH  26  27
ENDBRANCH   1  26
TORSDOF 17
ENDMDL
MODEL 3
REMARK VINA RESULT:     -11.7      1.677      2.135
REMARK SMILES C[C@@H]1[C@@H](C(=O)NCCCCNC(=O)c2ccc(-c3c4nc(c(-c5cc(S(=O)(=O)[O-])ccc5F)c5ccc([nH]5)c(-c5cc(S(=O)(=O)[O-])ccc5F)c5nc(c(-c6cc(S(=O)(=O)[O-])ccc6F)c6ccc3[nH]6)C=C5)C=C4)cc2)CCN1C(=O)[C@@H]1CCCN(C(N)=O)C1
REMARK SMILES IDX 8 1 7 2 6 3 4 4 5 5 3 7 1 8 2 9 79 10 77 11 78 12 80 13
REMARK SMILES IDX 81 14 82 15 83 16 90 17 84 18 86 19 85 20 87 21 88 22 89 23
REMARK SMILES IDX 9 26 10 27 11 28 12 29 13 31 14 32 15 33 76 34 16 35 75 36
REMARK SMILES IDX 17 37 18 38 19 39 69 40 20 41 74 42 68 43 70 44 21 45 73 46
REMARK SMILES IDX 67 47 66 48 22 50 54 51 34 52 53 53 35 54 38 55 52 56 71 57
REMARK SMILES IDX 36 58 37 59 51 61 72 62 39 63 23 64 24 65 32 66 25 67 31 68
REMARK SMILES IDX 33 69 30 70 26 71 27 72 28 73 29 74 55 75 56 76 64 77 57 78
REMARK SMILES IDX 63 79 65 80 62 81 58 82 59 83 60 84 61 85 40 86 41 87 49 88
REMARK SMILES IDX 42 89 48 90 50 91 47 92 43 93 44 94 45 95 46 96
REMARK H PARENT 6 6 88 24 88 25 11 30 70 49 38 60
REMARK Flexibility Score: inf
ROOT
ATOM      1  C   UNL A   1      33.099  28.494  24.258  1.00  0.00     0.023 C 
ENDROOT
BRANCH   1   2
ATOM      2  C   UNL A   1      32.728  27.933  22.890  1.00  0.00     0.116 C 
BRANCH   2   3
ATOM      3  N   UNL A   1      33.309  26.628  22.630  1.00  0.00    -0.356 N 
ATOM      4  C   UNL A   1      32.712  25.401  22.698  1.00  0.00     0.225 C 
ATOM      5  O   UNL A   1      33.311  24.432  22.239  1.00  0.00    -0.275 OA
ATOM      6  H   UNL A   1      34.259  26.627  22.370  1.00  0.00     0.163 HD
BRANCH   4   7
ATOM      7  C   UNL A   1      31.324  25.308  23.310  1.00  0.00     0.102 C 
ATOM      8  C   UNL A   1      29.910  25.959  25.264  1.00  0.00     0.032 C 
ATOM      9  C   UNL A   1      31.306  25.472  24.845  1.00  0.00     0.094 C 
ATOM     10  N   UNL A   1      31.572  24.121  25.355  1.00  0.00    -0.339 N 
ATOM     11  C   UNL A   1      30.758  23.897  23.127  1.00  0.00     0.037 C 
ATOM     12  C   UNL A   1      31.352  23.136  24.302  1.00  0.00     0.120 C 
BRANCH  10  13
ATOM     13  C   UNL A   1      32.130  23.679  26.531  1.00  0.00     0.227 C 
ATOM     14  O   UNL A   1      31.435  23.695  27.561  1.00  0.00    -0.275 OA
BRANCH  13  15
ATOM     15  C   UNL A   1      33.552  23.116  26.675  1.00  0.00     0.098 C 
ATOM     16  C   UNL A   1      34.670  23.703  25.819  1.00  0.00     0.017 C 
ATOM     17  C   UNL A   1      33.607  21.601  26.827  1.00  0.00     0.134 C 
ATOM     18  C   UNL A   1      35.120  22.851  24.636  1.00  0.00     0.022 C 
ATOM     19  N   UNL A   1      33.916  20.901  25.586  1.00  0.00    -0.324 N 
ATOM     20  C   UNL A   1      35.110  21.349  24.885  1.00  0.00     0.121 C 
BRANCH  19  21
ATOM     21  C   UNL A   1      33.357  19.696  25.211  1.00  0.00     0.314 C 
ATOM     22  N   UNL A   1      34.214  18.674  24.999  1.00  0.00    -0.351 N 
ATOM     23  O   UNL A   1      32.154  19.517  25.052  1.00  0.00    -0.249 OA
ATOM     24  H   UNL A   1      35.181  18.808  25.124  1.00  0.00     0.161 HD
ATOM     25  H   UNL A   1      33.870  17.795  24.719  1.00  0.00     0.161 HD
ENDBRANCH  19  21
ENDBRANCH  13  15
ENDBRANCH  10  13
ENDBRANCH   4   7
ENDBRANCH   2   3
ENDBRANCH   1   2
BRANCH   1  26
ATOM     26  C   UNL A   1      32.046  29.392  24.908  1.00  0.00     0.023 C 
BRANCH  26  27
ATOM     27  C   UNL A   1      32.332  29.811  26.345  1.00  0.00     0.116 C 
BRANCH  27  28
ATOM     28  N   UNL A   1      32.219  31.246  26.552  1.00  0.00    -0.352 N 
ATOM     29  C   UNL A   1      33.047  32.090  27.251  1.00  0.00     0.251 C 
ATOM     30  H   UNL A   1      31.438  31.672  26.132  1.00  0.00     0.163 HD
ATOM     31  O   UNL A   1      32.715  33.260  27.426  1.00  0.00    -0.269 OA
BRANCH  29  32
ATOM     32  C   UNL A   1      34.308  31.573  27.819  1.00  0.00     0.039 A 
ATOM     33  C   UNL A   1      35.374  32.454  28.011  1.00  0.00     0.014 A 
ATOM     34  C   UNL A   1      34.421  30.231  28.196  1.00  0.00     0.014 A 
ATOM     35  C   UNL A   1      36.532  32.003  28.645  1.00  0.00     0.010 A 
ATOM     36  C   UNL A   1      35.543  29.808  28.902  1.00  0.00     0.010 A 
ATOM     37  C   UNL A   1      36.613  30.688  29.129  1.00  0.00    -0.014 A 
BRANCH  37  38
ATOM     38  C   UNL A   1      37.819  30.204  29.849  1.00  0.00     0.031 A 
ATOM     39  C   UNL A   1      38.084  30.668  31.256  1.00  0.00     0.074 A 
ATOM     40  C   UNL A   1      38.700  29.399  29.222  1.00  0.00     0.049 A 
ATOM     41  N   UNL A   1      39.111  30.432  32.029  1.00  0.00    -0.248 NA
ATOM     42  C   UNL A   1      37.069  31.547  31.857  1.00  0.00     0.031 C 
ATOM     43  C   UNL A   1      38.572  28.915  27.846  1.00  0.00     0.029 A 
ATOM     44  N   UNL A   1      39.880  28.850  29.656  1.00  0.00    -0.354 N 
ATOM     45  C   UNL A   1      38.876  31.144  33.200  1.00  0.00     0.074 A 
ATOM     46  C   UNL A   1      37.644  31.877  33.002  1.00  0.00     0.031 C 
ATOM     47  C   UNL A   1      39.615  28.119  27.560  1.00  0.00     0.029 A 
ATOM     48  C   UNL A   1      40.509  28.071  28.713  1.00  0.00     0.049 A 
ATOM     49  H   UNL A   1      40.243  29.000  30.559  1.00  0.00     0.167 HD
ATOM     50  C   UNL A   1      39.604  31.164  34.344  1.00  0.00     0.034 A 
ATOM     51  C   UNL A   1      41.678  27.403  28.768  1.00  0.00     0.034 A 
ATOM     52  C   UNL A   1      40.824  30.413  34.526  1.00  0.00     0.049 A 
ATOM     53  C   UNL A   1      42.481  27.450  30.044  1.00  0.00     0.074 A 
ATOM     54  C   UNL A   1      41.621  30.322  35.653  1.00  0.00     0.029 A 
ATOM     55  N   UNL A   1      41.425  29.628  33.550  1.00  0.00    -0.354 N 
ATOM     56  N   UNL A   1      42.225  28.094  31.159  1.00  0.00    -0.248 NA
ATOM     57  C   UNL A   1      43.724  26.670  30.072  1.00  0.00     0.031 C 
ATOM     58  C   UNL A   1      42.735  29.535  35.340  1.00  0.00     0.029 A 
ATOM     59  C   UNL A   1      42.595  29.069  34.042  1.00  0.00     0.049 A 
ATOM     60  H   UNL A   1      41.073  29.488  32.642  1.00  0.00     0.167 HD
ATOM     61  C   UNL A   1      43.256  27.764  32.034  1.00  0.00     0.074 A 
ATOM     62  C   UNL A   1      44.130  26.858  31.319  1.00  0.00     0.031 C 
ATOM     63  C   UNL A   1      43.459  28.168  33.315  1.00  0.00     0.034 A 
BRANCH  50  64
ATOM     64  C   UNL A   1      39.105  32.043  35.467  1.00  0.00     0.023 A 
ATOM     65  C   UNL A   1      39.540  33.373  35.610  1.00  0.00     0.031 A 
ATOM     66  C   UNL A   1      38.220  31.537  36.434  1.00  0.00     0.131 A 
ATOM     67  C   UNL A   1      39.168  34.117  36.740  1.00  0.00     0.055 A 
ATOM     68  C   UNL A   1      37.779  32.313  37.508  1.00  0.00     0.041 A 
ATOM     69  F   UNL A   1      37.784  30.269  36.364  1.00  0.00    -0.206 F 
ATOM     70  C   UNL A   1      38.268  33.604  37.676  1.00  0.00     0.022 A 
BRANCH  67  71
ATOM     71  S   UNL A   1      40.007  35.694  37.053  1.00  0.00     0.124 S 
ATOM     72  O   UNL A   1      39.653  36.456  35.857  1.00  0.00    -0.237 OA
ATOM     73  O   UNL A   1      39.392  36.138  38.298  1.00  0.00    -0.237 OA
ATOM     74  O   UNL A   1      41.416  35.319  37.149  1.00  0.00    -0.744 OA
ENDBRANCH  67  71
ENDBRANCH  50  64
BRANCH  51  75
ATOM     75  C   UNL A   1      42.164  26.629  27.589  1.00  0.00     0.023 A 
ATOM     76  C   UNL A   1      41.870  25.264  27.450  1.00  0.00     0.031 A 
ATOM     77  C   UNL A   1      42.963  27.234  26.603  1.00  0.00     0.131 A 
ATOM     78  C   UNL A   1      42.409  24.536  26.378  1.00  0.00     0.055 A 
ATOM     79  C   UNL A   1      43.453  26.518  25.509  1.00  0.00     0.041 A 
ATOM     80  F   UNL A   1      43.269  28.539  26.684  1.00  0.00    -0.206 F 
ATOM     81  C   UNL A   1      43.188  25.157  25.399  1.00  0.00     0.022 A 
BRANCH  78  82
ATOM     82  S   UNL A   1      42.142  22.742  26.323  1.00  0.00     0.124 S 
ATOM     83  O   UNL A   1      40.697  22.652  26.494  1.00  0.00    -0.237 OA
ATOM     84  O   UNL A   1      42.656  22.401  25.001  1.00  0.00    -0.237 OA
ATOM     85  O   UNL A   1      42.937  22.246  27.445  1.00  0.00    -0.744 OA
ENDBRANCH  78  82
ENDBRANCH  51  75
BRANCH  63  86
ATOM     86  C   UNL A   1      44.645  27.578  34.040  1.00  0.00     0.023 A 
ATOM     87  C   UNL A   1      44.546  26.391  34.787  1.00  0.00     0.031 A 
ATOM     88  C   UNL A   1      45.892  28.226  33.988  1.00  0.00     0.131 A 
ATOM     89  C   UNL A   1      45.660  25.922  35.501  1.00  0.00     0.055 A 
ATOM     90  C   UNL A   1      47.012  27.719  34.648  1.00  0.00     0.041 A 
ATOM     91  F   UNL A   1      46.043  29.364  33.291  1.00  0.00    -0.206 F 
ATOM     92  C   UNL A   1      46.896  26.569  35.421  1.00  0.00     0.022 A 
BRANCH  89  93
ATOM     93  S   UNL A   1      45.446  24.505  36.614  1.00  0.00     0.124 S 
ATOM     94  O   UNL A   1      44.078  24.696  37.088  1.00  0.00    -0.237 OA
ATOM     95  O   UNL A   1      45.659  23.371  35.721  1.00  0.00    -0.237 OA
ATOM     96  O   UNL A   1      46.485  24.703  37.623  1.00  0.00    -0.744 OA
ENDBRANCH  89  93
ENDBRANCH  63  86
ENDBRANCH  37  38
ENDBRANCH  29  32
ENDBRANCH  27  28
ENDBRANCH  26  27
ENDBRANCH   1  26
TORSDOF 17
ENDMDL
