MODEL 1
REMARK VINA RESULT:     -12.4      0.000      0.000
REMARK SMILES O=C(NCCCCNC(=O)C1CCN(c2ccnnc2)CC1)c1ccc(-c2c3nc(c(-c4cc(S(=O)(=O)[O-])ccc4F)c4ccc([nH]4)c(-c4cc(S(=O)(=O)[O-])ccc4F)c4nc(c(-c5cc(S(=O)(=O)[O-])ccc5F)c5ccc2[nH]5)C=C4)C=C3)cc1
REMARK SMILES IDX 4 1 3 2 1 3 2 4 23 6 24 7 85 8 25 9 84 10 26 11 27 12 28 13
REMARK SMILES IDX 78 14 29 15 83 16 77 17 79 18 30 19 82 20 76 21 75 22 31 24
REMARK SMILES IDX 63 25 43 26 62 27 44 28 47 29 61 30 80 31 45 32 46 33 60 35
REMARK SMILES IDX 81 36 48 37 32 38 33 39 41 40 34 41 40 42 42 43 39 44 35 45
REMARK SMILES IDX 36 46 37 47 38 48 64 49 65 50 73 51 66 52 72 53 74 54 71 55
REMARK SMILES IDX 67 56 68 57 69 58 70 59 49 60 50 61 58 62 51 63 57 64 59 65
REMARK SMILES IDX 56 66 52 67 53 68 54 69 55 70 5 71 6 72 7 73 8 74 9 75 10 77
REMARK SMILES IDX 11 78 12 79 22 80 13 81 21 82 14 83 15 84 16 85 20 86 17 87
REMARK SMILES IDX 19 88 18 89
REMARK H PARENT 3 5 79 23 47 34 8 76
REMARK Flexibility Score: inf
ROOT
ATOM      1  C   UNL A   1      32.939  32.664  27.235  1.00  0.00     0.116 C 
ENDROOT
BRANCH   1   2
ATOM      2  N   UNL A   1      32.560  33.986  27.712  1.00  0.00    -0.352 N 
ATOM      3  O   UNL A   1      32.681  35.774  29.095  1.00  0.00    -0.269 OA
ATOM      4  C   UNL A   1      33.140  34.701  28.737  1.00  0.00     0.251 C 
ATOM      5  H   UNL A   1      31.805  34.418  27.250  1.00  0.00     0.163 HD
BRANCH   4   6
ATOM      6  C   UNL A   1      34.312  34.108  29.409  1.00  0.00     0.039 A 
ATOM      7  C   UNL A   1      35.597  34.424  28.964  1.00  0.00     0.014 A 
ATOM      8  C   UNL A   1      34.115  33.171  30.427  1.00  0.00     0.014 A 
ATOM      9  C   UNL A   1      36.682  33.711  29.447  1.00  0.00     0.010 A 
ATOM     10  C   UNL A   1      35.219  32.519  30.975  1.00  0.00     0.010 A 
ATOM     11  C   UNL A   1      36.506  32.774  30.478  1.00  0.00    -0.014 A 
BRANCH  11  12
ATOM     12  C   UNL A   1      37.705  32.171  31.108  1.00  0.00     0.031 A 
ATOM     13  C   UNL A   1      38.462  31.058  30.446  1.00  0.00     0.074 A 
ATOM     14  C   UNL A   1      38.090  32.663  32.302  1.00  0.00     0.049 A 
ATOM     15  N   UNL A   1      39.499  30.398  30.890  1.00  0.00    -0.248 NA
ATOM     16  C   UNL A   1      37.996  30.621  29.121  1.00  0.00     0.031 C 
ATOM     17  C   UNL A   1      37.407  33.743  33.024  1.00  0.00     0.029 A 
ATOM     18  N   UNL A   1      39.137  32.333  33.120  1.00  0.00    -0.354 N 
ATOM     19  C   UNL A   1      39.796  29.449  29.918  1.00  0.00     0.074 A 
ATOM     20  C   UNL A   1      38.825  29.618  28.858  1.00  0.00     0.031 C 
ATOM     21  C   UNL A   1      38.068  34.004  34.158  1.00  0.00     0.029 A 
ATOM     22  C   UNL A   1      39.164  33.056  34.289  1.00  0.00     0.049 A 
ATOM     23  H   UNL A   1      39.803  31.645  32.894  1.00  0.00     0.167 HD
ATOM     24  C   UNL A   1      40.789  28.525  29.926  1.00  0.00     0.034 A 
ATOM     25  C   UNL A   1      39.955  32.939  35.373  1.00  0.00     0.034 A 
ATOM     26  C   UNL A   1      41.753  28.397  30.993  1.00  0.00     0.049 A 
ATOM     27  C   UNL A   1      41.016  31.877  35.364  1.00  0.00     0.074 A 
ATOM     28  C   UNL A   1      42.851  27.558  31.064  1.00  0.00     0.029 A 
ATOM     29  N   UNL A   1      41.724  29.113  32.183  1.00  0.00    -0.354 N 
ATOM     30  N   UNL A   1      41.313  31.020  34.413  1.00  0.00    -0.248 NA
ATOM     31  C   UNL A   1      41.842  31.758  36.569  1.00  0.00     0.031 C 
ATOM     32  C   UNL A   1      43.442  27.715  32.322  1.00  0.00     0.029 A 
ATOM     33  C   UNL A   1      42.753  28.697  33.014  1.00  0.00     0.049 A 
ATOM     34  H   UNL A   1      41.068  29.812  32.404  1.00  0.00     0.167 HD
ATOM     35  C   UNL A   1      42.361  30.257  34.910  1.00  0.00     0.074 A 
ATOM     36  C   UNL A   1      42.668  30.781  36.227  1.00  0.00     0.031 C 
ATOM     37  C   UNL A   1      43.011  29.214  34.336  1.00  0.00     0.034 A 
BRANCH  24  38
ATOM     38  C   UNL A   1      40.857  27.544  28.782  1.00  0.00     0.023 A 
ATOM     39  C   UNL A   1      41.807  27.657  27.753  1.00  0.00     0.031 A 
ATOM     40  C   UNL A   1      39.972  26.451  28.749  1.00  0.00     0.131 A 
ATOM     41  C   UNL A   1      41.829  26.708  26.717  1.00  0.00     0.055 A 
ATOM     42  C   UNL A   1      40.034  25.482  27.747  1.00  0.00     0.041 A 
ATOM     43  F   UNL A   1      39.033  26.305  29.697  1.00  0.00    -0.206 F 
ATOM     44  C   UNL A   1      40.963  25.610  26.719  1.00  0.00     0.022 A 
BRANCH  41  45
ATOM     45  S   UNL A   1      42.957  26.965  25.320  1.00  0.00     0.124 S 
ATOM     46  O   UNL A   1      44.218  27.241  26.005  1.00  0.00    -0.237 OA
ATOM     47  O   UNL A   1      42.881  25.693  24.613  1.00  0.00    -0.237 OA
ATOM     48  O   UNL A   1      42.378  28.106  24.614  1.00  0.00    -0.744 OA
ENDBRANCH  41  45
ENDBRANCH  24  38
BRANCH  25  49
ATOM     49  C   UNL A   1      39.714  33.789  36.571  1.00  0.00     0.023 A 
ATOM     50  C   UNL A   1      39.146  33.258  37.738  1.00  0.00     0.031 A 
ATOM     51  C   UNL A   1      40.028  35.162  36.556  1.00  0.00     0.131 A 
ATOM     52  C   UNL A   1      38.874  34.099  38.827  1.00  0.00     0.055 A 
ATOM     53  C   UNL A   1      39.810  35.983  37.661  1.00  0.00     0.041 A 
ATOM     54  F   UNL A   1      40.576  35.721  35.465  1.00  0.00    -0.206 F 
ATOM     55  C   UNL A   1      39.216  35.454  38.802  1.00  0.00     0.022 A 
BRANCH  52  56
ATOM     56  S   UNL A   1      37.976  33.417  40.246  1.00  0.00     0.124 S 
ATOM     57  O   UNL A   1      38.848  32.320  40.653  1.00  0.00    -0.237 OA
ATOM     58  O   UNL A   1      37.924  34.562  41.148  1.00  0.00    -0.237 OA
ATOM     59  O   UNL A   1      36.693  33.015  39.674  1.00  0.00    -0.744 OA
ENDBRANCH  52  56
ENDBRANCH  25  49
BRANCH  37  60
ATOM     60  C   UNL A   1      44.112  28.588  35.150  1.00  0.00     0.023 A 
ATOM     61  C   UNL A   1      43.850  27.517  36.021  1.00  0.00     0.031 A 
ATOM     62  C   UNL A   1      45.422  29.090  35.083  1.00  0.00     0.131 A 
ATOM     63  C   UNL A   1      44.875  27.018  36.836  1.00  0.00     0.055 A 
ATOM     64  C   UNL A   1      46.451  28.552  35.856  1.00  0.00     0.041 A 
ATOM     65  F   UNL A   1      45.721  30.116  34.270  1.00  0.00    -0.206 F 
ATOM     66  C   UNL A   1      46.177  27.518  36.748  1.00  0.00     0.022 A 
BRANCH  63  67
ATOM     67  S   UNL A   1      44.464  25.759  38.075  1.00  0.00     0.124 S 
ATOM     68  O   UNL A   1      45.777  25.199  38.382  1.00  0.00    -0.237 OA
ATOM     69  O   UNL A   1      43.846  26.551  39.134  1.00  0.00    -0.237 OA
ATOM     70  O   UNL A   1      43.557  24.861  37.364  1.00  0.00    -0.744 OA
ENDBRANCH  63  67
ENDBRANCH  37  60
ENDBRANCH  11  12
ENDBRANCH   4   6
ENDBRANCH   1   2
BRANCH   1  71
ATOM     71  C   UNL A   1      31.777  31.852  26.682  1.00  0.00     0.023 C 
BRANCH  71  72
ATOM     72  C   UNL A   1      32.010  30.344  26.665  1.00  0.00     0.023 C 
BRANCH  72  73
ATOM     73  C   UNL A   1      31.502  29.632  25.410  1.00  0.00     0.116 C 
BRANCH  73  74
ATOM     74  N   UNL A   1      31.258  28.231  25.666  1.00  0.00    -0.356 N 
ATOM     75  C   UNL A   1      30.749  27.210  24.948  1.00  0.00     0.223 C 
ATOM     76  H   UNL A   1      31.524  27.959  26.574  1.00  0.00     0.163 HD
ATOM     77  O   UNL A   1      30.601  26.154  25.581  1.00  0.00    -0.275 OA
BRANCH  75  78
ATOM     78  C   UNL A   1      30.361  27.218  23.464  1.00  0.00     0.082 C 
ATOM     79  C   UNL A   1      31.085  28.027  22.397  1.00  0.00     0.035 C 
ATOM     80  C   UNL A   1      28.848  27.433  23.329  1.00  0.00     0.035 C 
ATOM     81  C   UNL A   1      30.648  29.486  22.272  1.00  0.00     0.117 C 
ATOM     82  C   UNL A   1      28.490  28.911  23.404  1.00  0.00     0.117 C 
ATOM     83  N   UNL A   1      29.193  29.654  22.353  1.00  0.00    -0.370 N 
BRANCH  83  84
ATOM     84  C   UNL A   1      28.723  30.926  21.995  1.00  0.00     0.059 A 
ATOM     85  C   UNL A   1      28.170  31.215  20.750  1.00  0.00     0.049 A 
ATOM     86  C   UNL A   1      28.773  32.006  22.877  1.00  0.00     0.161 A 
ATOM     87  C   UNL A   1      27.703  32.494  20.495  1.00  0.00     0.138 A 
ATOM     88  N   UNL A   1      28.314  33.253  22.602  1.00  0.00    -0.157 NA
ATOM     89  N   UNL A   1      27.767  33.496  21.393  1.00  0.00    -0.159 NA
ENDBRANCH  83  84
ENDBRANCH  75  78
ENDBRANCH  73  74
ENDBRANCH  72  73
ENDBRANCH  71  72
ENDBRANCH   1  71
TORSDOF 15
ENDMDL
MODEL 2
REMARK VINA RESULT:     -12.1      3.645      8.974
REMARK SMILES O=C(NCCCCNC(=O)C1CCN(c2ccnnc2)CC1)c1ccc(-c2c3nc(c(-c4cc(S(=O)(=O)[O-])ccc4F)c4ccc([nH]4)c(-c4cc(S(=O)(=O)[O-])ccc4F)c4nc(c(-c5cc(S(=O)(=O)[O-])ccc5F)c5ccc2[nH]5)C=C4)C=C3)cc1
REMARK SMILES IDX 4 1 3 2 1 3 2 4 23 6 24 7 85 8 25 9 84 10 26 11 27 12 28 13
REMARK SMILES IDX 78 14 29 15 83 16 77 17 79 18 30 19 82 20 76 21 75 22 31 24
REMARK SMILES IDX 63 25 43 26 62 27 44 28 47 29 61 30 80 31 45 32 46 33 60 35
REMARK SMILES IDX 81 36 48 37 32 38 33 39 41 40 34 41 40 42 42 43 39 44 35 45
REMARK SMILES IDX 36 46 37 47 38 48 64 49 65 50 73 51 66 52 72 53 74 54 71 55
REMARK SMILES IDX 67 56 68 57 69 58 70 59 49 60 50 61 58 62 51 63 57 64 59 65
REMARK SMILES IDX 56 66 52 67 53 68 54 69 55 70 5 71 6 72 7 73 8 74 9 75 10 77
REMARK SMILES IDX 11 78 12 79 22 80 13 81 21 82 14 83 15 84 16 85 20 86 17 87
REMARK SMILES IDX 19 88 18 89
REMARK H PARENT 3 5 79 23 47 34 8 76
REMARK Flexibility Score: inf
ROOT
ATOM      1  C   UNL A   1      34.449  28.608  26.112  1.00  0.00     0.116 C 
ENDROOT
BRANCH   1   2
ATOM      2  N   UNL A   1      33.961  29.888  26.604  1.00  0.00    -0.352 N 
ATOM      3  O   UNL A   1      33.993  31.709  27.948  1.00  0.00    -0.269 OA
ATOM      4  C   UNL A   1      34.541  30.688  27.564  1.00  0.00     0.251 C 
ATOM      5  H   UNL A   1      33.123  30.220  26.206  1.00  0.00     0.163 HD
BRANCH   4   6
ATOM      6  C   UNL A   1      35.828  30.249  28.137  1.00  0.00     0.039 A 
ATOM      7  C   UNL A   1      36.992  30.344  27.372  1.00  0.00     0.014 A 
ATOM      8  C   UNL A   1      35.847  29.665  29.405  1.00  0.00     0.014 A 
ATOM      9  C   UNL A   1      38.155  29.740  27.822  1.00  0.00     0.010 A 
ATOM     10  C   UNL A   1      37.042  29.136  29.894  1.00  0.00     0.010 A 
ATOM     11  C   UNL A   1      38.198  29.158  29.099  1.00  0.00    -0.014 A 
BRANCH  11  12
ATOM     12  C   UNL A   1      39.502  28.696  29.630  1.00  0.00     0.031 A 
ATOM     13  C   UNL A   1      40.197  29.424  30.743  1.00  0.00     0.074 A 
ATOM     14  C   UNL A   1      40.042  27.593  29.075  1.00  0.00     0.049 A 
ATOM     15  N   UNL A   1      41.360  29.171  31.284  1.00  0.00    -0.248 NA
ATOM     16  C   UNL A   1      39.507  30.588  31.320  1.00  0.00     0.031 C 
ATOM     17  C   UNL A   1      39.437  26.823  27.981  1.00  0.00     0.029 A 
ATOM     18  N   UNL A   1      41.205  26.923  29.343  1.00  0.00    -0.354 N 
ATOM     19  C   UNL A   1      41.559  30.157  32.244  1.00  0.00     0.074 A 
ATOM     20  C   UNL A   1      40.395  31.016  32.210  1.00  0.00     0.031 C 
ATOM     21  C   UNL A   1      40.218  25.775  27.693  1.00  0.00     0.029 A 
ATOM     22  C   UNL A   1      41.417  25.845  28.515  1.00  0.00     0.049 A 
ATOM     23  H   UNL A   1      41.830  27.187  30.056  1.00  0.00     0.167 HD
ATOM     24  C   UNL A   1      42.624  30.320  33.068  1.00  0.00     0.034 A 
ATOM     25  C   UNL A   1      42.482  25.030  28.394  1.00  0.00     0.034 A 
ATOM     26  C   UNL A   1      43.761  29.431  33.089  1.00  0.00     0.049 A 
ATOM     27  C   UNL A   1      43.660  25.266  29.295  1.00  0.00     0.074 A 
ATOM     28  C   UNL A   1      44.852  29.450  33.941  1.00  0.00     0.029 A 
ATOM     29  N   UNL A   1      43.966  28.378  32.207  1.00  0.00    -0.354 N 
ATOM     30  N   UNL A   1      43.809  26.175  30.231  1.00  0.00    -0.248 NA
ATOM     31  C   UNL A   1      44.813  24.377  29.120  1.00  0.00     0.031 C 
ATOM     32  C   UNL A   1      45.747  28.456  33.530  1.00  0.00     0.029 A 
ATOM     33  C   UNL A   1      45.188  27.774  32.461  1.00  0.00     0.049 A 
ATOM     34  H   UNL A   1      43.335  28.102  31.503  1.00  0.00     0.167 HD
ATOM     35  C   UNL A   1      45.078  25.968  30.757  1.00  0.00     0.074 A 
ATOM     36  C   UNL A   1      45.635  24.825  30.058  1.00  0.00     0.031 C 
ATOM     37  C   UNL A   1      45.731  26.659  31.724  1.00  0.00     0.034 A 
BRANCH  24  38
ATOM     38  C   UNL A   1      42.644  31.524  33.976  1.00  0.00     0.023 A 
ATOM     39  C   UNL A   1      42.184  31.472  35.303  1.00  0.00     0.031 A 
ATOM     40  C   UNL A   1      43.174  32.740  33.508  1.00  0.00     0.131 A 
ATOM     41  C   UNL A   1      42.234  32.624  36.105  1.00  0.00     0.055 A 
ATOM     42  C   UNL A   1      43.271  33.866  34.326  1.00  0.00     0.041 A 
ATOM     43  F   UNL A   1      43.610  32.851  32.243  1.00  0.00    -0.206 F 
ATOM     44  C   UNL A   1      42.796  33.814  35.632  1.00  0.00     0.022 A 
BRANCH  41  45
ATOM     45  S   UNL A   1      41.489  32.571  37.758  1.00  0.00     0.124 S 
ATOM     46  O   UNL A   1      41.729  33.932  38.234  1.00  0.00    -0.237 OA
ATOM     47  O   UNL A   1      40.101  32.234  37.468  1.00  0.00    -0.237 OA
ATOM     48  O   UNL A   1      42.252  31.533  38.448  1.00  0.00    -0.744 OA
ENDBRANCH  41  45
ENDBRANCH  24  38
BRANCH  25  49
ATOM     49  C   UNL A   1      42.508  23.983  27.336  1.00  0.00     0.023 A 
ATOM     50  C   UNL A   1      41.939  22.720  27.549  1.00  0.00     0.031 A 
ATOM     51  C   UNL A   1      43.131  24.226  26.097  1.00  0.00     0.131 A 
ATOM     52  C   UNL A   1      42.037  21.734  26.554  1.00  0.00     0.055 A 
ATOM     53  C   UNL A   1      43.175  23.264  25.089  1.00  0.00     0.041 A 
ATOM     54  F   UNL A   1      43.690  25.420  25.840  1.00  0.00    -0.206 F 
ATOM     55  C   UNL A   1      42.637  22.003  25.321  1.00  0.00     0.022 A 
BRANCH  52  56
ATOM     56  S   UNL A   1      41.450  20.061  26.933  1.00  0.00     0.124 S 
ATOM     57  O   UNL A   1      40.517  19.816  25.839  1.00  0.00    -0.237 OA
ATOM     58  O   UNL A   1      42.691  19.294  26.901  1.00  0.00    -0.237 OA
ATOM     59  O   UNL A   1      40.841  20.206  28.253  1.00  0.00    -0.744 OA
ENDBRANCH  52  56
ENDBRANCH  25  49
BRANCH  37  60
ATOM     60  C   UNL A   1      47.117  26.179  32.064  1.00  0.00     0.023 A 
ATOM     61  C   UNL A   1      48.220  26.529  31.268  1.00  0.00     0.031 A 
ATOM     62  C   UNL A   1      47.328  25.336  33.167  1.00  0.00     0.131 A 
ATOM     63  C   UNL A   1      49.482  25.990  31.554  1.00  0.00     0.055 A 
ATOM     64  C   UNL A   1      48.597  24.848  33.480  1.00  0.00     0.041 A 
ATOM     65  F   UNL A   1      46.304  24.969  33.954  1.00  0.00    -0.206 F 
ATOM     66  C   UNL A   1      49.680  25.164  32.663  1.00  0.00     0.022 A 
BRANCH  63  67
ATOM     67  S   UNL A   1      50.847  26.317  30.406  1.00  0.00     0.124 S 
ATOM     68  O   UNL A   1      50.453  25.533  29.239  1.00  0.00    -0.237 OA
ATOM     69  O   UNL A   1      50.786  27.767  30.250  1.00  0.00    -0.237 OA
ATOM     70  O   UNL A   1      52.021  25.820  31.119  1.00  0.00    -0.744 OA
ENDBRANCH  63  67
ENDBRANCH  37  60
ENDBRANCH  11  12
ENDBRANCH   4   6
ENDBRANCH   1   2
BRANCH   1  71
ATOM     71  C   UNL A   1      33.428  27.484  26.203  1.00  0.00     0.023 C 
BRANCH  71  72
ATOM     72  C   UNL A   1      33.790  26.232  25.409  1.00  0.00     0.023 C 
BRANCH  72  73
ATOM     73  C   UNL A   1      32.594  25.447  24.869  1.00  0.00     0.116 C 
BRANCH  73  74
ATOM     74  N   UNL A   1      32.187  25.941  23.573  1.00  0.00    -0.356 N 
ATOM     75  C   UNL A   1      31.153  26.678  23.122  1.00  0.00     0.223 C 
ATOM     76  H   UNL A   1      32.807  25.679  22.856  1.00  0.00     0.163 HD
ATOM     77  O   UNL A   1      31.102  26.799  21.889  1.00  0.00    -0.275 OA
BRANCH  75  78
ATOM     78  C   UNL A   1      30.073  27.377  23.957  1.00  0.00     0.082 C 
ATOM     79  C   UNL A   1      28.623  27.533  23.520  1.00  0.00     0.035 C 
ATOM     80  C   UNL A   1      30.603  28.729  24.456  1.00  0.00     0.035 C 
ATOM     81  C   UNL A   1      28.339  28.718  22.599  1.00  0.00     0.117 C 
ATOM     82  C   UNL A   1      30.447  29.810  23.394  1.00  0.00     0.117 C 
ATOM     83  N   UNL A   1      29.038  29.941  23.011  1.00  0.00    -0.370 N 
BRANCH  83  84
ATOM     84  C   UNL A   1      28.621  31.110  22.358  1.00  0.00     0.059 A 
ATOM     85  C   UNL A   1      28.198  31.136  21.031  1.00  0.00     0.049 A 
ATOM     86  C   UNL A   1      28.598  32.347  23.002  1.00  0.00     0.161 A 
ATOM     87  C   UNL A   1      27.775  32.332  20.477  1.00  0.00     0.138 A 
ATOM     88  N   UNL A   1      28.184  33.508  22.436  1.00  0.00    -0.157 NA
ATOM     89  N   UNL A   1      27.762  33.497  21.155  1.00  0.00    -0.159 NA
ENDBRANCH  83  84
ENDBRANCH  75  78
ENDBRANCH  73  74
ENDBRANCH  72  73
ENDBRANCH  71  72
ENDBRANCH   1  71
TORSDOF 15
ENDMDL
MODEL 3
REMARK VINA RESULT:     -12.0      2.188      3.943
REMARK SMILES O=C(NCCCCNC(=O)C1CCN(c2ccnnc2)CC1)c1ccc(-c2c3nc(c(-c4cc(S(=O)(=O)[O-])ccc4F)c4ccc([nH]4)c(-c4cc(S(=O)(=O)[O-])ccc4F)c4nc(c(-c5cc(S(=O)(=O)[O-])ccc5F)c5ccc2[nH]5)C=C4)C=C3)cc1
REMARK SMILES IDX 4 1 3 2 1 3 2 4 23 6 24 7 85 8 25 9 84 10 26 11 27 12 28 13
REMARK SMILES IDX 78 14 29 15 83 16 77 17 79 18 30 19 82 20 76 21 75 22 31 24
REMARK SMILES IDX 63 25 43 26 62 27 44 28 47 29 61 30 80 31 45 32 46 33 60 35
REMARK SMILES IDX 81 36 48 37 32 38 33 39 41 40 34 41 40 42 42 43 39 44 35 45
REMARK SMILES IDX 36 46 37 47 38 48 64 49 65 50 73 51 66 52 72 53 74 54 71 55
REMARK SMILES IDX 67 56 68 57 69 58 70 59 49 60 50 61 58 62 51 63 57 64 59 65
REMARK SMILES IDX 56 66 52 67 53 68 54 69 55 70 5 71 6 72 7 73 8 74 9 75 10 77
REMARK SMILES IDX 11 78 12 79 22 80 13 81 21 82 14 83 15 84 16 85 20 86 17 87
REMARK SMILES IDX 19 88 18 89
REMARK H PARENT 3 5 79 23 47 34 8 76
REMARK Flexibility Score: inf
ROOT
ATOM      1  C   UNL A   1      32.902  32.345  27.140  1.00  0.00     0.116 C 
ENDROOT
BRANCH   1   2
ATOM      2  N   UNL A   1      32.562  33.663  27.655  1.00  0.00    -0.352 N 
ATOM      3  O   UNL A   1      32.782  35.433  29.049  1.00  0.00    -0.269 OA
ATOM      4  C   UNL A   1      33.210  34.362  28.651  1.00  0.00     0.251 C 
ATOM      5  H   UNL A   1      31.783  34.106  27.246  1.00  0.00     0.163 HD
BRANCH   4   6
ATOM      6  C   UNL A   1      34.416  33.752  29.243  1.00  0.00     0.039 A 
ATOM      7  C   UNL A   1      34.282  32.753  30.208  1.00  0.00     0.014 A 
ATOM      8  C   UNL A   1      35.674  34.245  28.889  1.00  0.00     0.014 A 
ATOM      9  C   UNL A   1      35.398  32.333  30.915  1.00  0.00     0.010 A 
ATOM     10  C   UNL A   1      36.806  33.755  29.540  1.00  0.00     0.010 A 
ATOM     11  C   UNL A   1      36.672  32.808  30.567  1.00  0.00    -0.014 A 
BRANCH  11  12
ATOM     12  C   UNL A   1      37.862  32.197  31.206  1.00  0.00     0.031 A 
ATOM     13  C   UNL A   1      38.640  31.106  30.531  1.00  0.00     0.074 A 
ATOM     14  C   UNL A   1      38.220  32.660  32.420  1.00  0.00     0.049 A 
ATOM     15  N   UNL A   1      39.672  30.441  30.979  1.00  0.00    -0.248 NA
ATOM     16  C   UNL A   1      38.203  30.701  29.186  1.00  0.00     0.031 C 
ATOM     17  C   UNL A   1      37.515  33.717  33.155  1.00  0.00     0.029 A 
ATOM     18  N   UNL A   1      39.252  32.316  33.250  1.00  0.00    -0.354 N 
ATOM     19  C   UNL A   1      39.996  29.520  29.989  1.00  0.00     0.074 A 
ATOM     20  C   UNL A   1      39.045  29.710  28.914  1.00  0.00     0.031 C 
ATOM     21  C   UNL A   1      38.151  33.952  34.309  1.00  0.00     0.029 A 
ATOM     22  C   UNL A   1      39.252  33.009  34.438  1.00  0.00     0.049 A 
ATOM     23  H   UNL A   1      39.928  31.639  33.020  1.00  0.00     0.167 HD
ATOM     24  C   UNL A   1      40.994  28.603  29.993  1.00  0.00     0.034 A 
ATOM     25  C   UNL A   1      40.021  32.868  35.534  1.00  0.00     0.034 A 
ATOM     26  C   UNL A   1      41.938  28.453  31.075  1.00  0.00     0.049 A 
ATOM     27  C   UNL A   1      41.090  31.814  35.518  1.00  0.00     0.074 A 
ATOM     28  C   UNL A   1      43.040  27.620  31.146  1.00  0.00     0.029 A 
ATOM     29  N   UNL A   1      41.880  29.138  32.282  1.00  0.00    -0.354 N 
ATOM     30  N   UNL A   1      41.411  30.984  34.552  1.00  0.00    -0.248 NA
ATOM     31  C   UNL A   1      41.892  31.669  36.737  1.00  0.00     0.031 C 
ATOM     32  C   UNL A   1      43.605  27.748  32.420  1.00  0.00     0.029 A 
ATOM     33  C   UNL A   1      42.896  28.708  33.123  1.00  0.00     0.049 A 
ATOM     34  H   UNL A   1      41.215  29.827  32.507  1.00  0.00     0.167 HD
ATOM     35  C   UNL A   1      42.455  30.215  35.050  1.00  0.00     0.074 A 
ATOM     36  C   UNL A   1      42.732  30.706  36.386  1.00  0.00     0.031 C 
ATOM     37  C   UNL A   1      43.124  29.191  34.463  1.00  0.00     0.034 A 
BRANCH  24  38
ATOM     38  C   UNL A   1      41.092  27.652  28.825  1.00  0.00     0.023 A 
ATOM     39  C   UNL A   1      42.053  27.805  27.812  1.00  0.00     0.031 A 
ATOM     40  C   UNL A   1      40.225  26.547  28.753  1.00  0.00     0.131 A 
ATOM     41  C   UNL A   1      42.103  26.884  26.752  1.00  0.00     0.055 A 
ATOM     42  C   UNL A   1      40.315  25.605  27.727  1.00  0.00     0.041 A 
ATOM     43  F   UNL A   1      39.276  26.363  29.685  1.00  0.00    -0.206 F 
ATOM     44  C   UNL A   1      41.255  25.773  26.716  1.00  0.00     0.022 A 
BRANCH  41  45
ATOM     45  S   UNL A   1      43.245  27.194  25.377  1.00  0.00     0.124 S 
ATOM     46  O   UNL A   1      42.422  28.009  24.487  1.00  0.00    -0.237 OA
ATOM     47  O   UNL A   1      44.350  27.883  26.033  1.00  0.00    -0.237 OA
ATOM     48  O   UNL A   1      43.554  25.855  24.878  1.00  0.00    -0.744 OA
ENDBRANCH  41  45
ENDBRANCH  24  38
BRANCH  25  49
ATOM     49  C   UNL A   1      39.750  33.685  36.749  1.00  0.00     0.023 A 
ATOM     50  C   UNL A   1      39.134  33.128  37.878  1.00  0.00     0.031 A 
ATOM     51  C   UNL A   1      40.084  35.053  36.787  1.00  0.00     0.131 A 
ATOM     52  C   UNL A   1      38.836  33.940  38.982  1.00  0.00     0.055 A 
ATOM     53  C   UNL A   1      39.839  35.843  37.908  1.00  0.00     0.041 A 
ATOM     54  F   UNL A   1      40.677  35.636  35.733  1.00  0.00    -0.206 F 
ATOM     55  C   UNL A   1      39.198  35.290  39.011  1.00  0.00     0.022 A 
BRANCH  52  56
ATOM     56  S   UNL A   1      37.880  33.228  40.348  1.00  0.00     0.124 S 
ATOM     57  O   UNL A   1      36.570  33.045  39.733  1.00  0.00    -0.237 OA
ATOM     58  O   UNL A   1      38.629  32.010  40.636  1.00  0.00    -0.237 OA
ATOM     59  O   UNL A   1      37.945  34.259  41.381  1.00  0.00    -0.744 OA
ENDBRANCH  52  56
ENDBRANCH  25  49
BRANCH  37  60
ATOM     60  C   UNL A   1      44.212  28.552  35.282  1.00  0.00     0.023 A 
ATOM     61  C   UNL A   1      43.928  27.502  36.172  1.00  0.00     0.031 A 
ATOM     62  C   UNL A   1      45.534  29.020  35.202  1.00  0.00     0.131 A 
ATOM     63  C   UNL A   1      44.944  26.990  36.990  1.00  0.00     0.055 A 
ATOM     64  C   UNL A   1      46.553  28.469  35.979  1.00  0.00     0.041 A 
ATOM     65  F   UNL A   1      45.854  30.025  34.371  1.00  0.00    -0.206 F 
ATOM     66  C   UNL A   1      46.257  27.457  36.889  1.00  0.00     0.022 A 
BRANCH  63  67
ATOM     67  S   UNL A   1      44.508  25.763  38.252  1.00  0.00     0.124 S 
ATOM     68  O   UNL A   1      43.684  26.550  39.166  1.00  0.00    -0.237 OA
ATOM     69  O   UNL A   1      43.805  24.748  37.473  1.00  0.00    -0.237 OA
ATOM     70  O   UNL A   1      45.803  25.346  38.786  1.00  0.00    -0.744 OA
ENDBRANCH  63  67
ENDBRANCH  37  60
ENDBRANCH  11  12
ENDBRANCH   4   6
ENDBRANCH   1   2
BRANCH   1  71
ATOM     71  C   UNL A   1      31.701  31.545  26.657  1.00  0.00     0.023 C 
BRANCH  71  72
ATOM     72  C   UNL A   1      32.040  30.161  26.111  1.00  0.00     0.023 C 
BRANCH  72  73
ATOM     73  C   UNL A   1      32.554  29.168  27.155  1.00  0.00     0.116 C 
BRANCH  73  74
ATOM     74  N   UNL A   1      31.699  28.005  27.235  1.00  0.00    -0.356 N 
ATOM     75  C   UNL A   1      31.511  26.912  26.469  1.00  0.00     0.223 C 
ATOM     76  H   UNL A   1      31.123  28.012  28.032  1.00  0.00     0.163 HD
ATOM     77  O   UNL A   1      30.581  26.177  26.834  1.00  0.00    -0.275 OA
BRANCH  75  78
ATOM     78  C   UNL A   1      32.319  26.489  25.236  1.00  0.00     0.082 C 
ATOM     79  C   UNL A   1      31.758  25.656  24.091  1.00  0.00     0.035 C 
ATOM     80  C   UNL A   1      33.666  25.901  25.680  1.00  0.00     0.035 C 
ATOM     81  C   UNL A   1      31.761  24.146  24.316  1.00  0.00     0.117 C 
ATOM     82  C   UNL A   1      33.529  24.434  26.064  1.00  0.00     0.117 C 
ATOM     83  N   UNL A   1      33.001  23.663  24.934  1.00  0.00    -0.370 N 
BRANCH  83  84
ATOM     84  C   UNL A   1      33.162  22.270  24.932  1.00  0.00     0.059 A 
ATOM     85  C   UNL A   1      34.405  21.644  24.946  1.00  0.00     0.049 A 
ATOM     86  C   UNL A   1      32.070  21.401  24.920  1.00  0.00     0.161 A 
ATOM     87  C   UNL A   1      34.468  20.260  24.974  1.00  0.00     0.138 A 
ATOM     88  N   UNL A   1      32.158  20.048  24.943  1.00  0.00    -0.157 NA
ATOM     89  N   UNL A   1      33.376  19.471  24.974  1.00  0.00    -0.159 NA
ENDBRANCH  83  84
ENDBRANCH  75  78
ENDBRANCH  73  74
ENDBRANCH  72  73
ENDBRANCH  71  72
ENDBRANCH   1  71
TORSDOF 15
ENDMDL
