MODEL 1
REMARK VINA RESULT:     -10.2      0.000      0.000
REMARK SMILES O=C(CCC(=O)c1ccc(Br)s1)NCCCCNC(=O)c1ccc(-c2c3nc(c(-c4cc(S(=O)(=O)[O-])ccc4F)c4ccc([nH]4)c(-c4cc(S(=O)(=O)[O-])ccc4F)c4nc(c(-c5cc(S(=O)(=O)[O-])ccc5F)c5ccc2[nH]5)C=C4)C=C3)cc1
REMARK SMILES IDX 15 1 14 2 13 3 1 4 2 5 3 7 4 8 5 9 6 10 7 11 8 12 12 13 9 14
REMARK SMILES IDX 10 15 11 16 16 17 17 18 18 19 19 20 20 22 21 23 22 24 83 25
REMARK SMILES IDX 23 26 82 27 24 28 25 29 26 30 76 31 27 32 81 33 75 34 77 35
REMARK SMILES IDX 28 36 80 37 74 38 73 39 29 41 61 42 41 43 60 44 42 45 45 46
REMARK SMILES IDX 59 47 78 48 43 49 44 50 58 52 79 53 46 54 30 55 31 56 39 57
REMARK SMILES IDX 32 58 38 59 40 60 37 61 33 62 34 63 35 64 36 65 62 66 63 67
REMARK SMILES IDX 71 68 64 69 70 70 72 71 69 72 65 73 66 74 67 75 68 76 47 77
REMARK SMILES IDX 48 78 56 79 49 80 55 81 57 82 54 83 50 84 51 85 52 86 53 87
REMARK H PARENT 13 6 18 21 77 40 45 51
REMARK Flexibility Score: inf
ROOT
ATOM      1  C   UNL A   1      33.919  35.578  28.448  1.00  0.00     0.023 C 
ENDROOT
BRANCH   1   2
ATOM      2  C   UNL A   1      33.313  36.505  29.500  1.00  0.00     0.116 C 
BRANCH   2   3
ATOM      3  N   UNL A   1      33.903  36.377  30.818  1.00  0.00    -0.356 N 
ATOM      4  O   UNL A   1      32.084  35.327  31.753  1.00  0.00    -0.275 OA
ATOM      5  C   UNL A   1      33.236  35.739  31.841  1.00  0.00     0.220 C 
ATOM      6  H   UNL A   1      34.797  36.754  30.986  1.00  0.00     0.163 HD
BRANCH   5   7
ATOM      7  C   UNL A   1      34.086  35.456  33.059  1.00  0.00     0.108 C 
BRANCH   7   8
ATOM      8  C   UNL A   1      34.098  33.955  33.331  1.00  0.00     0.092 C 
BRANCH   8   9
ATOM      9  C   UNL A   1      34.886  33.219  32.260  1.00  0.00     0.173 C 
ATOM     10  O   UNL A   1      34.322  32.310  31.647  1.00  0.00    -0.293 OA
BRANCH   9  11
ATOM     11  C   UNL A   1      36.287  33.577  32.061  1.00  0.00     0.071 A 
ATOM     12  C   UNL A   1      36.987  33.848  30.896  1.00  0.00     0.025 A 
ATOM     13  S   UNL A   1      37.312  33.738  33.435  1.00  0.00    -0.125 S 
ATOM     14  C   UNL A   1      38.336  34.247  31.142  1.00  0.00     0.028 A 
ATOM     15  C   UNL A   1      38.630  34.198  32.479  1.00  0.00     0.071 A 
ATOM     16  Br  UNL A   1      40.319  34.611  33.174  1.00  0.00    -0.039 Br
ENDBRANCH   9  11
ENDBRANCH   8   9
ENDBRANCH   7   8
ENDBRANCH   5   7
ENDBRANCH   2   3
ENDBRANCH   1   2
BRANCH   1  17
ATOM     17  C   UNL A   1      33.340  34.162  28.371  1.00  0.00     0.023 C 
BRANCH  17  18
ATOM     18  C   UNL A   1      34.346  33.018  28.265  1.00  0.00     0.116 C 
BRANCH  18  19
ATOM     19  N   UNL A   1      33.799  31.826  27.642  1.00  0.00    -0.352 N 
ATOM     20  C   UNL A   1      34.340  30.566  27.498  1.00  0.00     0.251 C 
ATOM     21  H   UNL A   1      32.898  31.935  27.261  1.00  0.00     0.163 HD
ATOM     22  O   UNL A   1      33.731  29.736  26.832  1.00  0.00    -0.269 OA
BRANCH  20  23
ATOM     23  C   UNL A   1      35.654  30.213  28.096  1.00  0.00     0.039 A 
ATOM     24  C   UNL A   1      35.681  29.719  29.405  1.00  0.00     0.014 A 
ATOM     25  C   UNL A   1      36.856  30.383  27.404  1.00  0.00     0.014 A 
ATOM     26  C   UNL A   1      36.893  29.319  29.982  1.00  0.00     0.010 A 
ATOM     27  C   UNL A   1      38.058  29.943  27.961  1.00  0.00     0.010 A 
ATOM     28  C   UNL A   1      38.087  29.390  29.249  1.00  0.00    -0.014 A 
BRANCH  28  29
ATOM     29  C   UNL A   1      39.356  28.829  29.788  1.00  0.00     0.031 A 
ATOM     30  C   UNL A   1      40.055  29.476  30.951  1.00  0.00     0.074 A 
ATOM     31  C   UNL A   1      39.918  27.771  29.170  1.00  0.00     0.049 A 
ATOM     32  N   UNL A   1      41.189  29.152  31.518  1.00  0.00    -0.248 NA
ATOM     33  C   UNL A   1      39.402  30.653  31.540  1.00  0.00     0.031 C 
ATOM     34  C   UNL A   1      39.357  27.081  28.005  1.00  0.00     0.029 A 
ATOM     35  N   UNL A   1      41.087  27.095  29.420  1.00  0.00    -0.354 N 
ATOM     36  C   UNL A   1      41.390  30.084  32.531  1.00  0.00     0.074 A 
ATOM     37  C   UNL A   1      40.282  31.014  32.463  1.00  0.00     0.031 C 
ATOM     38  C   UNL A   1      40.174  26.077  27.652  1.00  0.00     0.029 A 
ATOM     39  C   UNL A   1      41.336  26.071  28.535  1.00  0.00     0.049 A 
ATOM     40  H   UNL A   1      41.692  27.323  30.162  1.00  0.00     0.167 HD
ATOM     41  C   UNL A   1      42.397  30.147  33.439  1.00  0.00     0.034 A 
ATOM     42  C   UNL A   1      42.384  25.230  28.436  1.00  0.00     0.034 A 
ATOM     43  C   UNL A   1      43.501  29.215  33.486  1.00  0.00     0.049 A 
ATOM     44  C   UNL A   1      43.509  25.345  29.433  1.00  0.00     0.074 A 
ATOM     45  C   UNL A   1      44.537  29.152  34.402  1.00  0.00     0.029 A 
ATOM     46  N   UNL A   1      43.725  28.194  32.570  1.00  0.00    -0.354 N 
ATOM     47  N   UNL A   1      43.649  26.188  30.429  1.00  0.00    -0.248 NA
ATOM     48  C   UNL A   1      44.613  24.385  29.298  1.00  0.00     0.031 C 
ATOM     49  C   UNL A   1      45.425  28.148  33.998  1.00  0.00     0.029 A 
ATOM     50  C   UNL A   1      44.902  27.525  32.877  1.00  0.00     0.049 A 
ATOM     51  H   UNL A   1      43.134  27.977  31.813  1.00  0.00     0.167 HD
ATOM     52  C   UNL A   1      44.838  25.836  31.062  1.00  0.00     0.074 A 
ATOM     53  C   UNL A   1      45.369  24.696  30.341  1.00  0.00     0.031 C 
ATOM     54  C   UNL A   1      45.432  26.398  32.145  1.00  0.00     0.034 A 
BRANCH  41  55
ATOM     55  C   UNL A   1      42.367  31.281  34.438  1.00  0.00     0.023 A 
ATOM     56  C   UNL A   1      41.385  31.357  35.441  1.00  0.00     0.031 A 
ATOM     57  C   UNL A   1      43.329  32.305  34.384  1.00  0.00     0.131 A 
ATOM     58  C   UNL A   1      41.346  32.465  36.303  1.00  0.00     0.055 A 
ATOM     59  C   UNL A   1      43.333  33.365  35.294  1.00  0.00     0.041 A 
ATOM     60  F   UNL A   1      44.284  32.298  33.438  1.00  0.00    -0.206 F 
ATOM     61  C   UNL A   1      42.327  33.457  36.252  1.00  0.00     0.022 A 
BRANCH  58  62
ATOM     62  S   UNL A   1      39.915  32.659  37.401  1.00  0.00     0.124 S 
ATOM     63  O   UNL A   1      39.396  33.959  36.985  1.00  0.00    -0.237 OA
ATOM     64  O   UNL A   1      39.095  31.504  37.057  1.00  0.00    -0.237 OA
ATOM     65  O   UNL A   1      40.503  32.630  38.739  1.00  0.00    -0.744 OA
ENDBRANCH  58  62
ENDBRANCH  41  55
BRANCH  42  66
ATOM     66  C   UNL A   1      42.432  24.205  27.353  1.00  0.00     0.023 A 
ATOM     67  C   UNL A   1      41.743  22.989  27.480  1.00  0.00     0.031 A 
ATOM     68  C   UNL A   1      43.203  24.410  26.195  1.00  0.00     0.131 A 
ATOM     69  C   UNL A   1      41.878  22.002  26.491  1.00  0.00     0.055 A 
ATOM     70  C   UNL A   1      43.289  23.447  25.187  1.00  0.00     0.041 A 
ATOM     71  F   UNL A   1      43.878  25.557  26.020  1.00  0.00    -0.206 F 
ATOM     72  C   UNL A   1      42.635  22.228  25.340  1.00  0.00     0.022 A 
BRANCH  69  73
ATOM     73  S   UNL A   1      41.116  20.381  26.774  1.00  0.00     0.124 S 
ATOM     74  O   UNL A   1      42.159  19.477  26.304  1.00  0.00    -0.237 OA
ATOM     75  O   UNL A   1      40.886  20.401  28.214  1.00  0.00    -0.237 OA
ATOM     76  O   UNL A   1      39.908  20.424  25.952  1.00  0.00    -0.744 OA
ENDBRANCH  69  73
ENDBRANCH  42  66
BRANCH  54  77
ATOM     77  C   UNL A   1      46.704  25.751  32.643  1.00  0.00     0.023 A 
ATOM     78  C   UNL A   1      47.945  25.972  32.017  1.00  0.00     0.031 A 
ATOM     79  C   UNL A   1      46.668  24.885  33.751  1.00  0.00     0.131 A 
ATOM     80  C   UNL A   1      49.086  25.290  32.468  1.00  0.00     0.055 A 
ATOM     81  C   UNL A   1      47.818  24.259  34.233  1.00  0.00     0.041 A 
ATOM     82  F   UNL A   1      45.511  24.634  34.384  1.00  0.00    -0.206 F 
ATOM     83  C   UNL A   1      49.033  24.448  33.582  1.00  0.00     0.022 A 
BRANCH  80  84
ATOM     84  S   UNL A   1      50.624  25.441  31.519  1.00  0.00     0.124 S 
ATOM     85  O   UNL A   1      51.486  24.465  32.178  1.00  0.00    -0.237 OA
ATOM     86  O   UNL A   1      50.192  25.100  30.167  1.00  0.00    -0.237 OA
ATOM     87  O   UNL A   1      51.010  26.838  31.710  1.00  0.00    -0.744 OA
ENDBRANCH  80  84
ENDBRANCH  54  77
ENDBRANCH  28  29
ENDBRANCH  20  23
ENDBRANCH  18  19
ENDBRANCH  17  18
ENDBRANCH   1  17
TORSDOF 17
ENDMDL
MODEL 2
REMARK VINA RESULT:      -9.9      4.782     10.456
REMARK SMILES O=C(CCC(=O)c1ccc(Br)s1)NCCCCNC(=O)c1ccc(-c2c3nc(c(-c4cc(S(=O)(=O)[O-])ccc4F)c4ccc([nH]4)c(-c4cc(S(=O)(=O)[O-])ccc4F)c4nc(c(-c5cc(S(=O)(=O)[O-])ccc5F)c5ccc2[nH]5)C=C4)C=C3)cc1
REMARK SMILES IDX 15 1 14 2 13 3 1 4 2 5 3 7 4 8 5 9 6 10 7 11 8 12 12 13 9 14
REMARK SMILES IDX 10 15 11 16 16 17 17 18 18 19 19 20 20 22 21 23 22 24 83 25
REMARK SMILES IDX 23 26 82 27 24 28 25 29 26 30 76 31 27 32 81 33 75 34 77 35
REMARK SMILES IDX 28 36 80 37 74 38 73 39 29 41 61 42 41 43 60 44 42 45 45 46
REMARK SMILES IDX 59 47 78 48 43 49 44 50 58 52 79 53 46 54 30 55 31 56 39 57
REMARK SMILES IDX 32 58 38 59 40 60 37 61 33 62 34 63 35 64 36 65 62 66 63 67
REMARK SMILES IDX 71 68 64 69 70 70 72 71 69 72 65 73 66 74 67 75 68 76 47 77
REMARK SMILES IDX 48 78 56 79 49 80 55 81 57 82 54 83 50 84 51 85 52 86 53 87
REMARK H PARENT 13 6 18 21 77 40 45 51
REMARK Flexibility Score: inf
ROOT
ATOM      1  C   UNL A   1      31.955  30.218  25.984  1.00  0.00     0.023 C 
ENDROOT
BRANCH   1   2
ATOM      2  C   UNL A   1      32.752  29.241  26.845  1.00  0.00     0.116 C 
BRANCH   2   3
ATOM      3  N   UNL A   1      32.966  27.943  26.233  1.00  0.00    -0.356 N 
ATOM      4  O   UNL A   1      31.038  27.008  27.067  1.00  0.00    -0.275 OA
ATOM      5  C   UNL A   1      32.040  26.931  26.363  1.00  0.00     0.220 C 
ATOM      6  H   UNL A   1      33.788  27.782  25.717  1.00  0.00     0.163 HD
BRANCH   5   7
ATOM      7  C   UNL A   1      32.280  25.747  25.454  1.00  0.00     0.108 C 
BRANCH   7   8
ATOM      8  C   UNL A   1      33.102  24.698  26.196  1.00  0.00     0.092 C 
BRANCH   8   9
ATOM      9  C   UNL A   1      32.256  23.476  26.515  1.00  0.00     0.173 C 
ATOM     10  O   UNL A   1      31.481  23.541  27.472  1.00  0.00    -0.293 OA
BRANCH   9  11
ATOM     11  C   UNL A   1      32.454  22.268  25.720  1.00  0.00     0.071 A 
ATOM     12  C   UNL A   1      31.856  21.865  24.536  1.00  0.00     0.025 A 
ATOM     13  S   UNL A   1      33.614  21.106  26.240  1.00  0.00    -0.125 S 
ATOM     14  C   UNL A   1      32.398  20.643  24.032  1.00  0.00     0.028 A 
ATOM     15  C   UNL A   1      33.337  20.130  24.886  1.00  0.00     0.071 A 
ATOM     16  Br  UNL A   1      34.231  18.513  24.576  1.00  0.00    -0.039 Br
ENDBRANCH   9  11
ENDBRANCH   8   9
ENDBRANCH   7   8
ENDBRANCH   5   7
ENDBRANCH   2   3
ENDBRANCH   1   2
BRANCH   1  17
ATOM     17  C   UNL A   1      31.687  31.599  26.589  1.00  0.00     0.023 C 
BRANCH  17  18
ATOM     18  C   UNL A   1      32.882  32.313  27.216  1.00  0.00     0.116 C 
BRANCH  18  19
ATOM     19  N   UNL A   1      32.607  33.694  27.572  1.00  0.00    -0.352 N 
ATOM     20  C   UNL A   1      33.209  34.513  28.504  1.00  0.00     0.251 C 
ATOM     21  H   UNL A   1      31.873  34.112  27.068  1.00  0.00     0.163 HD
ATOM     22  O   UNL A   1      32.731  35.623  28.709  1.00  0.00    -0.269 OA
BRANCH  20  23
ATOM     23  C   UNL A   1      34.390  34.061  29.285  1.00  0.00     0.039 A 
ATOM     24  C   UNL A   1      34.175  33.306  30.444  1.00  0.00     0.014 A 
ATOM     25  C   UNL A   1      35.696  34.388  28.914  1.00  0.00     0.014 A 
ATOM     26  C   UNL A   1      35.263  32.811  31.174  1.00  0.00     0.010 A 
ATOM     27  C   UNL A   1      36.782  33.858  29.615  1.00  0.00     0.010 A 
ATOM     28  C   UNL A   1      36.577  33.049  30.741  1.00  0.00    -0.014 A 
BRANCH  28  29
ATOM     29  C   UNL A   1      37.738  32.406  31.415  1.00  0.00     0.031 A 
ATOM     30  C   UNL A   1      38.460  31.251  30.778  1.00  0.00     0.074 A 
ATOM     31  C   UNL A   1      38.093  32.824  32.646  1.00  0.00     0.049 A 
ATOM     32  N   UNL A   1      39.458  30.543  31.241  1.00  0.00    -0.248 NA
ATOM     33  C   UNL A   1      37.982  30.826  29.455  1.00  0.00     0.031 C 
ATOM     34  C   UNL A   1      37.443  33.908  33.387  1.00  0.00     0.029 A 
ATOM     35  N   UNL A   1      39.074  32.384  33.501  1.00  0.00    -0.354 N 
ATOM     36  C   UNL A   1      39.730  29.585  30.270  1.00  0.00     0.074 A 
ATOM     37  C   UNL A   1      38.756  29.776  29.216  1.00  0.00     0.031 C 
ATOM     38  C   UNL A   1      38.050  34.055  34.575  1.00  0.00     0.029 A 
ATOM     39  C   UNL A   1      39.105  33.054  34.702  1.00  0.00     0.049 A 
ATOM     40  H   UNL A   1      39.697  31.656  33.276  1.00  0.00     0.167 HD
ATOM     41  C   UNL A   1      40.710  28.645  30.256  1.00  0.00     0.034 A 
ATOM     42  C   UNL A   1      39.883  32.879  35.788  1.00  0.00     0.034 A 
ATOM     43  C   UNL A   1      41.669  28.462  31.323  1.00  0.00     0.049 A 
ATOM     44  C   UNL A   1      40.939  31.803  35.763  1.00  0.00     0.074 A 
ATOM     45  C   UNL A   1      42.738  27.584  31.379  1.00  0.00     0.029 A 
ATOM     46  N   UNL A   1      41.665  29.155  32.527  1.00  0.00    -0.354 N 
ATOM     47  N   UNL A   1      41.230  30.952  34.806  1.00  0.00    -0.248 NA
ATOM     48  C   UNL A   1      41.779  31.673  36.960  1.00  0.00     0.031 C 
ATOM     49  C   UNL A   1      43.331  27.691  32.643  1.00  0.00     0.029 A 
ATOM     50  C   UNL A   1      42.687  28.695  33.347  1.00  0.00     0.049 A 
ATOM     51  H   UNL A   1      41.030  29.868  32.765  1.00  0.00     0.167 HD
ATOM     52  C   UNL A   1      42.311  30.210  35.274  1.00  0.00     0.074 A 
ATOM     53  C   UNL A   1      42.627  30.724  36.592  1.00  0.00     0.031 C 
ATOM     54  C   UNL A   1      42.987  29.202  34.666  1.00  0.00     0.034 A 
BRANCH  41  55
ATOM     55  C   UNL A   1      40.775  27.722  29.061  1.00  0.00     0.023 A 
ATOM     56  C   UNL A   1      41.717  27.907  28.033  1.00  0.00     0.031 A 
ATOM     57  C   UNL A   1      39.879  26.645  28.942  1.00  0.00     0.131 A 
ATOM     58  C   UNL A   1      41.697  27.074  26.904  1.00  0.00     0.055 A 
ATOM     59  C   UNL A   1      39.915  25.771  27.853  1.00  0.00     0.041 A 
ATOM     60  F   UNL A   1      38.945  26.425  29.882  1.00  0.00    -0.206 F 
ATOM     61  C   UNL A   1      40.819  25.992  26.818  1.00  0.00     0.022 A 
BRANCH  58  62
ATOM     62  S   UNL A   1      42.745  27.508  25.488  1.00  0.00     0.124 S 
ATOM     63  O   UNL A   1      42.009  28.627  24.907  1.00  0.00    -0.237 OA
ATOM     64  O   UNL A   1      44.014  27.839  26.124  1.00  0.00    -0.237 OA
ATOM     65  O   UNL A   1      42.751  26.289  24.680  1.00  0.00    -0.744 OA
ENDBRANCH  58  62
ENDBRANCH  41  55
BRANCH  42  66
ATOM     66  C   UNL A   1      39.698  33.732  36.997  1.00  0.00     0.023 A 
ATOM     67  C   UNL A   1      39.042  33.238  38.135  1.00  0.00     0.031 A 
ATOM     68  C   UNL A   1      40.135  35.069  37.016  1.00  0.00     0.131 A 
ATOM     69  C   UNL A   1      38.796  34.087  39.225  1.00  0.00     0.055 A 
ATOM     70  C   UNL A   1      39.938  35.894  38.124  1.00  0.00     0.041 A 
ATOM     71  F   UNL A   1      40.773  35.591  35.955  1.00  0.00    -0.206 F 
ATOM     72  C   UNL A   1      39.252  35.407  39.233  1.00  0.00     0.022 A 
BRANCH  69  73
ATOM     73  S   UNL A   1      37.794  33.463  40.602  1.00  0.00     0.124 S 
ATOM     74  O   UNL A   1      37.578  34.675  41.385  1.00  0.00    -0.237 OA
ATOM     75  O   UNL A   1      36.626  32.930  39.909  1.00  0.00    -0.237 OA
ATOM     76  O   UNL A   1      38.657  32.462  41.225  1.00  0.00    -0.744 OA
ENDBRANCH  69  73
ENDBRANCH  42  66
BRANCH  54  77
ATOM     77  C   UNL A   1      44.169  28.623  35.408  1.00  0.00     0.023 A 
ATOM     78  C   UNL A   1      44.025  27.571  36.331  1.00  0.00     0.031 A 
ATOM     79  C   UNL A   1      45.458  29.146  35.200  1.00  0.00     0.131 A 
ATOM     80  C   UNL A   1      45.140  27.116  37.053  1.00  0.00     0.055 A 
ATOM     81  C   UNL A   1      46.573  28.647  35.874  1.00  0.00     0.041 A 
ATOM     82  F   UNL A   1      45.655  30.154  34.334  1.00  0.00    -0.206 F 
ATOM     83  C   UNL A   1      46.415  27.636  36.818  1.00  0.00     0.022 A 
BRANCH  80  84
ATOM     84  S   UNL A   1      44.887  25.901  38.375  1.00  0.00     0.124 S 
ATOM     85  O   UNL A   1      44.386  24.747  37.636  1.00  0.00    -0.237 OA
ATOM     86  O   UNL A   1      46.227  25.766  38.936  1.00  0.00    -0.237 OA
ATOM     87  O   UNL A   1      43.911  26.546  39.252  1.00  0.00    -0.744 OA
ENDBRANCH  80  84
ENDBRANCH  54  77
ENDBRANCH  28  29
ENDBRANCH  20  23
ENDBRANCH  18  19
ENDBRANCH  17  18
ENDBRANCH   1  17
TORSDOF 17
ENDMDL
MODEL 3
REMARK VINA RESULT:      -9.7      5.857      9.423
REMARK SMILES O=C(CCC(=O)c1ccc(Br)s1)NCCCCNC(=O)c1ccc(-c2c3nc(c(-c4cc(S(=O)(=O)[O-])ccc4F)c4ccc([nH]4)c(-c4cc(S(=O)(=O)[O-])ccc4F)c4nc(c(-c5cc(S(=O)(=O)[O-])ccc5F)c5ccc2[nH]5)C=C4)C=C3)cc1
REMARK SMILES IDX 15 1 14 2 13 3 1 4 2 5 3 7 4 8 5 9 6 10 7 11 8 12 12 13 9 14
REMARK SMILES IDX 10 15 11 16 16 17 17 18 18 19 19 20 20 22 21 23 22 24 83 25
REMARK SMILES IDX 23 26 82 27 24 28 25 29 26 30 76 31 27 32 81 33 75 34 77 35
REMARK SMILES IDX 28 36 80 37 74 38 73 39 29 41 61 42 41 43 60 44 42 45 45 46
REMARK SMILES IDX 59 47 78 48 43 49 44 50 58 52 79 53 46 54 30 55 31 56 39 57
REMARK SMILES IDX 32 58 38 59 40 60 37 61 33 62 34 63 35 64 36 65 62 66 63 67
REMARK SMILES IDX 71 68 64 69 70 70 72 71 69 72 65 73 66 74 67 75 68 76 47 77
REMARK SMILES IDX 48 78 56 79 49 80 55 81 57 82 54 83 50 84 51 85 52 86 53 87
REMARK H PARENT 13 6 18 21 77 40 45 51
REMARK Flexibility Score: inf
ROOT
ATOM      1  C   UNL A   1      34.890  20.796  25.262  1.00  0.00     0.023 C 
ENDROOT
BRANCH   1   2
ATOM      2  C   UNL A   1      33.874  21.593  24.449  1.00  0.00     0.116 C 
BRANCH   2   3
ATOM      3  N   UNL A   1      33.885  23.019  24.713  1.00  0.00    -0.356 N 
ATOM      4  O   UNL A   1      34.169  23.628  22.514  1.00  0.00    -0.275 OA
ATOM      5  C   UNL A   1      33.986  23.934  23.687  1.00  0.00     0.220 C 
ATOM      6  H   UNL A   1      33.820  23.340  25.641  1.00  0.00     0.163 HD
BRANCH   5   7
ATOM      7  C   UNL A   1      33.715  25.364  24.098  1.00  0.00     0.108 C 
BRANCH   7   8
ATOM      8  C   UNL A   1      33.499  25.425  25.607  1.00  0.00     0.092 C 
BRANCH   8   9
ATOM      9  C   UNL A   1      32.020  25.539  25.936  1.00  0.00     0.173 C 
ATOM     10  O   UNL A   1      31.594  24.921  26.915  1.00  0.00    -0.293 OA
BRANCH   9  11
ATOM     11  C   UNL A   1      31.167  26.314  25.040  1.00  0.00     0.071 A 
ATOM     12  C   UNL A   1      30.115  25.914  24.231  1.00  0.00     0.025 A 
ATOM     13  S   UNL A   1      31.414  28.015  24.916  1.00  0.00    -0.125 S 
ATOM     14  C   UNL A   1      29.480  27.008  23.569  1.00  0.00     0.028 A 
ATOM     15  C   UNL A   1      30.116  28.189  23.845  1.00  0.00     0.071 A 
ATOM     16  Br  UNL A   1      29.590  29.832  23.116  1.00  0.00    -0.039 Br
ENDBRANCH   9  11
ENDBRANCH   8   9
ENDBRANCH   7   8
ENDBRANCH   5   7
ENDBRANCH   2   3
ENDBRANCH   1   2
BRANCH   1  17
ATOM     17  C   UNL A   1      36.126  21.561  25.748  1.00  0.00     0.023 C 
BRANCH  17  18
ATOM     18  C   UNL A   1      37.381  21.447  24.885  1.00  0.00     0.116 C 
BRANCH  18  19
ATOM     19  N   UNL A   1      38.322  20.451  25.366  1.00  0.00    -0.352 N 
ATOM     20  C   UNL A   1      39.496  20.599  26.073  1.00  0.00     0.251 C 
ATOM     21  H   UNL A   1      38.083  19.520  25.152  1.00  0.00     0.163 HD
ATOM     22  O   UNL A   1      40.189  19.609  26.278  1.00  0.00    -0.269 OA
BRANCH  20  23
ATOM     23  C   UNL A   1      39.951  21.931  26.549  1.00  0.00     0.039 A 
ATOM     24  C   UNL A   1      40.964  21.986  27.514  1.00  0.00     0.014 A 
ATOM     25  C   UNL A   1      39.383  23.121  26.086  1.00  0.00     0.014 A 
ATOM     26  C   UNL A   1      41.462  23.222  27.944  1.00  0.00     0.010 A 
ATOM     27  C   UNL A   1      39.908  24.353  26.481  1.00  0.00     0.010 A 
ATOM     28  C   UNL A   1      40.966  24.417  27.400  1.00  0.00    -0.014 A 
BRANCH  28  29
ATOM     29  C   UNL A   1      41.584  25.729  27.730  1.00  0.00     0.031 A 
ATOM     30  C   UNL A   1      40.807  26.789  28.459  1.00  0.00     0.074 A 
ATOM     31  C   UNL A   1      42.835  25.989  27.300  1.00  0.00     0.049 A 
ATOM     32  N   UNL A   1      41.170  28.003  28.786  1.00  0.00    -0.248 NA
ATOM     33  C   UNL A   1      39.434  26.445  28.853  1.00  0.00     0.031 C 
ATOM     34  C   UNL A   1      43.677  25.056  26.546  1.00  0.00     0.029 A 
ATOM     35  N   UNL A   1      43.615  27.113  27.419  1.00  0.00    -0.354 N 
ATOM     36  C   UNL A   1      40.073  28.572  29.425  1.00  0.00     0.074 A 
ATOM     37  C   UNL A   1      39.016  27.583  29.391  1.00  0.00     0.031 C 
ATOM     38  C   UNL A   1      44.856  25.641  26.283  1.00  0.00     0.029 A 
ATOM     39  C   UNL A   1      44.845  27.002  26.811  1.00  0.00     0.049 A 
ATOM     40  H   UNL A   1      43.322  27.924  27.894  1.00  0.00     0.167 HD
ATOM     41  C   UNL A   1      39.965  29.799  29.996  1.00  0.00     0.034 A 
ATOM     42  C   UNL A   1      45.846  27.894  26.680  1.00  0.00     0.034 A 
ATOM     43  C   UNL A   1      41.028  30.778  30.012  1.00  0.00     0.049 A 
ATOM     44  C   UNL A   1      45.686  29.264  27.290  1.00  0.00     0.074 A 
ATOM     45  C   UNL A   1      41.043  32.023  30.618  1.00  0.00     0.029 A 
ATOM     46  N   UNL A   1      42.257  30.634  29.380  1.00  0.00    -0.354 N 
ATOM     47  N   UNL A   1      44.668  29.761  27.953  1.00  0.00    -0.248 NA
ATOM     48  C   UNL A   1      46.819  30.188  27.145  1.00  0.00     0.031 C 
ATOM     49  C   UNL A   1      42.246  32.660  30.289  1.00  0.00     0.029 A 
ATOM     50  C   UNL A   1      43.019  31.782  29.548  1.00  0.00     0.049 A 
ATOM     51  H   UNL A   1      42.545  29.833  28.885  1.00  0.00     0.167 HD
ATOM     52  C   UNL A   1      45.052  31.043  28.334  1.00  0.00     0.074 A 
ATOM     53  C   UNL A   1      46.400  31.237  27.839  1.00  0.00     0.031 C 
ATOM     54  C   UNL A   1      44.357  31.973  29.038  1.00  0.00     0.034 A 
BRANCH  41  55
ATOM     55  C   UNL A   1      38.639  30.162  30.625  1.00  0.00     0.023 A 
ATOM     56  C   UNL A   1      37.637  30.834  29.903  1.00  0.00     0.031 A 
ATOM     57  C   UNL A   1      38.374  29.837  31.967  1.00  0.00     0.131 A 
ATOM     58  C   UNL A   1      36.449  31.220  30.544  1.00  0.00     0.055 A 
ATOM     59  C   UNL A   1      37.158  30.154  32.578  1.00  0.00     0.041 A 
ATOM     60  F   UNL A   1      39.297  29.210  32.715  1.00  0.00    -0.206 F 
ATOM     61  C   UNL A   1      36.193  30.863  31.869  1.00  0.00     0.022 A 
BRANCH  58  62
ATOM     62  S   UNL A   1      35.303  32.312  29.660  1.00  0.00     0.124 S 
ATOM     63  O   UNL A   1      36.203  33.353  29.170  1.00  0.00    -0.237 OA
ATOM     64  O   UNL A   1      34.740  31.427  28.648  1.00  0.00    -0.237 OA
ATOM     65  O   UNL A   1      34.370  32.744  30.699  1.00  0.00    -0.744 OA
ENDBRANCH  58  62
ENDBRANCH  41  55
BRANCH  42  66
ATOM     66  C   UNL A   1      47.089  27.534  25.939  1.00  0.00     0.023 A 
ATOM     67  C   UNL A   1      47.224  27.826  24.573  1.00  0.00     0.031 A 
ATOM     68  C   UNL A   1      48.141  26.851  26.575  1.00  0.00     0.131 A 
ATOM     69  C   UNL A   1      48.362  27.395  23.875  1.00  0.00     0.055 A 
ATOM     70  C   UNL A   1      49.296  26.473  25.889  1.00  0.00     0.041 A 
ATOM     71  F   UNL A   1      48.066  26.550  27.882  1.00  0.00    -0.206 F 
ATOM     72  C   UNL A   1      49.405  26.733  24.526  1.00  0.00     0.022 A 
BRANCH  69  73
ATOM     73  S   UNL A   1      48.422  27.638  22.078  1.00  0.00     0.124 S 
ATOM     74  O   UNL A   1      48.651  26.278  21.603  1.00  0.00    -0.237 OA
ATOM     75  O   UNL A   1      47.103  28.199  21.805  1.00  0.00    -0.237 OA
ATOM     76  O   UNL A   1      49.540  28.561  21.896  1.00  0.00    -0.744 OA
ENDBRANCH  69  73
ENDBRANCH  42  66
BRANCH  54  77
ATOM     77  C   UNL A   1      45.069  33.269  29.353  1.00  0.00     0.023 A 
ATOM     78  C   UNL A   1      45.065  34.355  28.460  1.00  0.00     0.031 A 
ATOM     79  C   UNL A   1      45.778  33.408  30.560  1.00  0.00     0.131 A 
ATOM     80  C   UNL A   1      45.803  35.511  28.762  1.00  0.00     0.055 A 
ATOM     81  C   UNL A   1      46.458  34.583  30.882  1.00  0.00     0.041 A 
ATOM     82  F   UNL A   1      45.820  32.402  31.448  1.00  0.00    -0.206 F 
ATOM     83  C   UNL A   1      46.485  35.638  29.974  1.00  0.00     0.022 A 
BRANCH  80  84
ATOM     84  S   UNL A   1      45.941  36.811  27.504  1.00  0.00     0.124 S 
ATOM     85  O   UNL A   1      45.908  36.040  26.265  1.00  0.00    -0.237 OA
ATOM     86  O   UNL A   1      44.765  37.633  27.775  1.00  0.00    -0.237 OA
ATOM     87  O   UNL A   1      47.222  37.446  27.805  1.00  0.00    -0.744 OA
ENDBRANCH  80  84
ENDBRANCH  54  77
ENDBRANCH  28  29
ENDBRANCH  20  23
ENDBRANCH  18  19
ENDBRANCH  17  18
ENDBRANCH   1  17
TORSDOF 17
ENDMDL
