MODEL 1
REMARK VINA RESULT:     -12.7      0.000      0.000
REMARK SMILES CCCCOC(=O)[C@@H]1[C@H]2c3ccccc3[C@H](c3ccccc32)[C@@H]1C(=O)NCCCCNC(=O)c1ccc(-c2c3nc(c(-c4cc(S(=O)(=O)[O-])ccc4F)c4ccc([nH]4)c(-c4cc(S(=O)(=O)[O-])ccc4F)c4nc(c(-c5cc(S(=O)(=O)[O-])ccc5F)c5ccc2[nH]5)C=C4)C=C3)cc1
REMARK SMILES IDX 27 1 26 2 24 3 25 4 23 6 8 7 9 8 22 9 10 10 16 11 21 12
REMARK SMILES IDX 17 13 15 14 11 15 20 16 18 17 14 18 12 19 19 20 13 21 6 22
REMARK SMILES IDX 7 23 5 24 4 25 3 26 2 27 1 28 28 29 29 30 30 31 31 32 32 33
REMARK SMILES IDX 33 35 34 36 35 37 96 38 36 39 95 40 37 41 38 42 39 43 89 44
REMARK SMILES IDX 40 45 94 46 88 47 90 48 41 49 93 50 87 51 86 52 42 54 74 55
REMARK SMILES IDX 54 56 73 57 55 58 58 59 72 60 91 61 56 62 57 63 71 65 92 66
REMARK SMILES IDX 59 67 43 68 44 69 52 70 45 71 51 72 53 73 50 74 46 75 47 76
REMARK SMILES IDX 48 77 49 78 75 79 76 80 84 81 77 82 83 83 85 84 82 85 78 86
REMARK SMILES IDX 79 87 80 88 81 89 60 90 61 91 69 92 62 93 68 94 70 95 67 96
REMARK SMILES IDX 63 97 64 98 65 99 66 100
REMARK H PARENT 26 5 31 34 90 53 58 64
REMARK Flexibility Score: inf
ROOT
ATOM      1  C   UNL A   1      34.534  23.048  23.452  1.00  0.00     0.116 C 
ENDROOT
BRANCH   1   2
ATOM      2  N   UNL A   1      34.007  23.962  22.460  1.00  0.00    -0.356 N 
ATOM      3  C   UNL A   1      33.596  25.246  22.551  1.00  0.00     0.224 C 
ATOM      4  O   UNL A   1      33.591  25.879  21.485  1.00  0.00    -0.275 OA
ATOM      5  H   UNL A   1      33.935  23.578  21.557  1.00  0.00     0.163 HD
BRANCH   3   6
ATOM      6  C   UNL A   1      33.098  25.948  23.812  1.00  0.00     0.105 C 
ATOM      7  C   UNL A   1      31.893  25.399  24.646  1.00  0.00     0.124 C 
ATOM      8  C   UNL A   1      31.016  26.586  25.139  1.00  0.00     0.065 C 
ATOM      9  C   UNL A   1      30.623  27.443  23.935  1.00  0.00    -0.036 A 
ATOM     10  C   UNL A   1      31.964  27.460  25.979  1.00  0.00    -0.036 A 
ATOM     11  C   UNL A   1      33.081  27.515  23.774  1.00  0.00     0.063 C 
ATOM     12  C   UNL A   1      29.329  27.794  23.577  1.00  0.00     0.004 A 
ATOM     13  C   UNL A   1      31.736  28.003  23.253  1.00  0.00    -0.036 A 
ATOM     14  C   UNL A   1      33.085  27.950  25.249  1.00  0.00    -0.036 A 
ATOM     15  C   UNL A   1      31.766  27.828  27.302  1.00  0.00     0.004 A 
ATOM     16  C   UNL A   1      29.147  28.744  22.568  1.00  0.00     0.000 A 
ATOM     17  C   UNL A   1      31.552  28.999  22.303  1.00  0.00     0.004 A 
ATOM     18  C   UNL A   1      34.007  28.797  25.845  1.00  0.00     0.004 A 
ATOM     19  C   UNL A   1      32.695  28.684  27.897  1.00  0.00     0.000 A 
ATOM     20  C   UNL A   1      30.248  29.362  21.957  1.00  0.00     0.000 A 
ATOM     21  C   UNL A   1      33.804  29.161  27.178  1.00  0.00     0.000 A 
BRANCH   7  22
ATOM     22  C   UNL A   1      31.000  24.263  24.205  1.00  0.00     0.310 C 
ATOM     23  O   UNL A   1      30.258  24.378  23.235  1.00  0.00    -0.252 OA
BRANCH  22  24
ATOM     24  O   UNL A   1      31.132  23.140  24.930  1.00  0.00    -0.465 OA
BRANCH  24  25
ATOM     25  C   UNL A   1      30.630  23.148  26.279  1.00  0.00     0.233 C 
BRANCH  25  26
ATOM     26  C   UNL A   1      31.741  22.721  27.235  1.00  0.00     0.041 C 
BRANCH  26  27
ATOM     27  C   UNL A   1      33.004  22.212  26.535  1.00  0.00     0.000 C 
ATOM     28  C   UNL A   1      34.275  22.499  27.319  1.00  0.00     0.004 C 
ENDBRANCH  26  27
ENDBRANCH  25  26
ENDBRANCH  24  25
ENDBRANCH  22  24
ENDBRANCH   7  22
ENDBRANCH   3   6
ENDBRANCH   1   2
BRANCH   1  29
ATOM     29  C   UNL A   1      36.005  23.298  23.762  1.00  0.00     0.023 C 
BRANCH  29  30
ATOM     30  C   UNL A   1      36.859  22.041  23.863  1.00  0.00     0.023 C 
BRANCH  30  31
ATOM     31  C   UNL A   1      37.453  21.756  25.238  1.00  0.00     0.116 C 
BRANCH  31  32
ATOM     32  N   UNL A   1      38.565  20.808  25.267  1.00  0.00    -0.352 N 
ATOM     33  C   UNL A   1      39.718  20.906  26.027  1.00  0.00     0.251 C 
ATOM     34  H   UNL A   1      38.485  20.017  24.687  1.00  0.00     0.163 HD
ATOM     35  O   UNL A   1      40.595  20.053  25.972  1.00  0.00    -0.269 OA
BRANCH  33  36
ATOM     36  C   UNL A   1      39.875  22.118  26.860  1.00  0.00     0.039 A 
ATOM     37  C   UNL A   1      39.286  23.307  26.432  1.00  0.00     0.014 A 
ATOM     38  C   UNL A   1      40.810  22.112  27.898  1.00  0.00     0.014 A 
ATOM     39  C   UNL A   1      39.827  24.509  26.865  1.00  0.00     0.010 A 
ATOM     40  C   UNL A   1      41.265  23.329  28.413  1.00  0.00     0.010 A 
ATOM     41  C   UNL A   1      40.847  24.538  27.837  1.00  0.00    -0.014 A 
BRANCH  41  42
ATOM     42  C   UNL A   1      41.473  25.845  28.186  1.00  0.00     0.031 A 
ATOM     43  C   UNL A   1      42.835  26.234  27.666  1.00  0.00     0.074 A 
ATOM     44  C   UNL A   1      40.754  26.736  28.896  1.00  0.00     0.049 A 
ATOM     45  N   UNL A   1      43.469  27.372  27.801  1.00  0.00    -0.248 NA
ATOM     46  C   UNL A   1      43.588  25.222  26.909  1.00  0.00     0.031 C 
ATOM     47  C   UNL A   1      39.428  26.470  29.453  1.00  0.00     0.029 A 
ATOM     48  N   UNL A   1      40.999  28.044  29.226  1.00  0.00    -0.354 N 
ATOM     49  C   UNL A   1      44.706  27.201  27.187  1.00  0.00     0.074 A 
ATOM     50  C   UNL A   1      44.741  25.842  26.692  1.00  0.00     0.031 C 
ATOM     51  C   UNL A   1      38.935  27.602  29.965  1.00  0.00     0.029 A 
ATOM     52  C   UNL A   1      39.942  28.655  29.859  1.00  0.00     0.049 A 
ATOM     53  H   UNL A   1      41.849  28.501  29.029  1.00  0.00     0.167 HD
ATOM     54  C   UNL A   1      45.713  28.096  27.040  1.00  0.00     0.034 A 
ATOM     55  C   UNL A   1      39.792  29.916  30.312  1.00  0.00     0.034 A 
ATOM     56  C   UNL A   1      45.647  29.464  27.491  1.00  0.00     0.049 A 
ATOM     57  C   UNL A   1      40.914  30.897  30.123  1.00  0.00     0.074 A 
ATOM     58  C   UNL A   1      46.590  30.465  27.324  1.00  0.00     0.029 A 
ATOM     59  N   UNL A   1      44.589  30.029  28.187  1.00  0.00    -0.354 N 
ATOM     60  N   UNL A   1      42.059  30.726  29.504  1.00  0.00    -0.248 NA
ATOM     61  C   UNL A   1      40.737  32.234  30.703  1.00  0.00     0.031 C 
ATOM     62  C   UNL A   1      46.125  31.617  27.963  1.00  0.00     0.029 A 
ATOM     63  C   UNL A   1      44.869  31.353  28.486  1.00  0.00     0.049 A 
ATOM     64  H   UNL A   1      43.759  29.557  28.434  1.00  0.00     0.167 HD
ATOM     65  C   UNL A   1      42.748  31.926  29.638  1.00  0.00     0.074 A 
ATOM     66  C   UNL A   1      41.870  32.832  30.352  1.00  0.00     0.031 C 
ATOM     67  C   UNL A   1      44.001  32.241  29.223  1.00  0.00     0.034 A 
BRANCH  54  68
ATOM     68  C   UNL A   1      46.985  27.648  26.362  1.00  0.00     0.023 A 
ATOM     69  C   UNL A   1      47.169  27.891  24.988  1.00  0.00     0.031 A 
ATOM     70  C   UNL A   1      47.955  26.891  27.039  1.00  0.00     0.131 A 
ATOM     71  C   UNL A   1      48.291  27.366  24.331  1.00  0.00     0.055 A 
ATOM     72  C   UNL A   1      49.086  26.394  26.387  1.00  0.00     0.041 A 
ATOM     73  F   UNL A   1      47.825  26.633  28.351  1.00  0.00    -0.206 F 
ATOM     74  C   UNL A   1      49.251  26.623  25.025  1.00  0.00     0.022 A 
BRANCH  71  75
ATOM     75  S   UNL A   1      48.520  27.579  22.544  1.00  0.00     0.124 S 
ATOM     76  O   UNL A   1      47.308  28.307  22.174  1.00  0.00    -0.237 OA
ATOM     77  O   UNL A   1      49.756  28.354  22.483  1.00  0.00    -0.237 OA
ATOM     78  O   UNL A   1      48.607  26.214  22.036  1.00  0.00    -0.744 OA
ENDBRANCH  71  75
ENDBRANCH  54  68
BRANCH  55  79
ATOM     79  C   UNL A   1      38.496  30.293  30.945  1.00  0.00     0.023 A 
ATOM     80  C   UNL A   1      37.503  30.956  30.199  1.00  0.00     0.031 A 
ATOM     81  C   UNL A   1      38.309  30.164  32.330  1.00  0.00     0.131 A 
ATOM     82  C   UNL A   1      36.430  31.565  30.859  1.00  0.00     0.055 A 
ATOM     83  C   UNL A   1      37.192  30.697  32.972  1.00  0.00     0.041 A 
ATOM     84  F   UNL A   1      39.235  29.547  33.083  1.00  0.00    -0.206 F 
ATOM     85  C   UNL A   1      36.259  31.427  32.241  1.00  0.00     0.022 A 
BRANCH  82  86
ATOM     86  S   UNL A   1      35.336  32.714  29.976  1.00  0.00     0.124 S 
ATOM     87  O   UNL A   1      34.794  31.867  28.920  1.00  0.00    -0.237 OA
ATOM     88  O   UNL A   1      34.396  33.095  31.029  1.00  0.00    -0.237 OA
ATOM     89  O   UNL A   1      36.235  33.776  29.538  1.00  0.00    -0.744 OA
ENDBRANCH  82  86
ENDBRANCH  55  79
BRANCH  67  90
ATOM     90  C   UNL A   1      44.541  33.604  29.573  1.00  0.00     0.023 A 
ATOM     91  C   UNL A   1      44.549  34.638  28.618  1.00  0.00     0.031 A 
ATOM     92  C   UNL A   1      45.159  33.836  30.814  1.00  0.00     0.131 A 
ATOM     93  C   UNL A   1      45.189  35.850  28.912  1.00  0.00     0.055 A 
ATOM     94  C   UNL A   1      45.764  35.057  31.115  1.00  0.00     0.041 A 
ATOM     95  F   UNL A   1      45.181  32.877  31.753  1.00  0.00    -0.206 F 
ATOM     96  C   UNL A   1      45.791  36.066  30.157  1.00  0.00     0.022 A 
BRANCH  93  97
ATOM     97  S   UNL A   1      45.331  37.160  27.667  1.00  0.00     0.124 S 
ATOM     98  O   UNL A   1      46.597  37.790  28.036  1.00  0.00    -0.237 OA
ATOM     99  O   UNL A   1      45.352  36.402  26.419  1.00  0.00    -0.237 OA
ATOM    100  O   UNL A   1      44.143  37.980  27.881  1.00  0.00    -0.744 OA
ENDBRANCH  93  97
ENDBRANCH  67  90
ENDBRANCH  41  42
ENDBRANCH  33  36
ENDBRANCH  31  32
ENDBRANCH  30  31
ENDBRANCH  29  30
ENDBRANCH   1  29
TORSDOF 19
ENDMDL
MODEL 2
REMARK VINA RESULT:     -12.5      4.745      9.864
REMARK SMILES CCCCOC(=O)[C@@H]1[C@H]2c3ccccc3[C@H](c3ccccc32)[C@@H]1C(=O)NCCCCNC(=O)c1ccc(-c2c3nc(c(-c4cc(S(=O)(=O)[O-])ccc4F)c4ccc([nH]4)c(-c4cc(S(=O)(=O)[O-])ccc4F)c4nc(c(-c5cc(S(=O)(=O)[O-])ccc5F)c5ccc2[nH]5)C=C4)C=C3)cc1
REMARK SMILES IDX 27 1 26 2 24 3 25 4 23 6 8 7 9 8 22 9 10 10 16 11 21 12
REMARK SMILES IDX 17 13 15 14 11 15 20 16 18 17 14 18 12 19 19 20 13 21 6 22
REMARK SMILES IDX 7 23 5 24 4 25 3 26 2 27 1 28 28 29 29 30 30 31 31 32 32 33
REMARK SMILES IDX 33 35 34 36 35 37 96 38 36 39 95 40 37 41 38 42 39 43 89 44
REMARK SMILES IDX 40 45 94 46 88 47 90 48 41 49 93 50 87 51 86 52 42 54 74 55
REMARK SMILES IDX 54 56 73 57 55 58 58 59 72 60 91 61 56 62 57 63 71 65 92 66
REMARK SMILES IDX 59 67 43 68 44 69 52 70 45 71 51 72 53 73 50 74 46 75 47 76
REMARK SMILES IDX 48 77 49 78 75 79 76 80 84 81 77 82 83 83 85 84 82 85 78 86
REMARK SMILES IDX 79 87 80 88 81 89 60 90 61 91 69 92 62 93 68 94 70 95 67 96
REMARK SMILES IDX 63 97 64 98 65 99 66 100
REMARK H PARENT 26 5 31 34 90 53 58 64
REMARK Flexibility Score: inf
ROOT
ATOM      1  C   UNL A   1      32.837  27.386  26.644  1.00  0.00     0.116 C 
ENDROOT
BRANCH   1   2
ATOM      2  N   UNL A   1      33.112  27.855  25.302  1.00  0.00    -0.356 N 
ATOM      3  C   UNL A   1      33.484  27.200  24.181  1.00  0.00     0.224 C 
ATOM      4  O   UNL A   1      33.243  27.788  23.116  1.00  0.00    -0.275 OA
ATOM      5  H   UNL A   1      33.007  28.827  25.186  1.00  0.00     0.163 HD
BRANCH   3   6
ATOM      6  C   UNL A   1      34.208  25.857  24.116  1.00  0.00     0.105 C 
ATOM      7  C   UNL A   1      34.013  24.867  22.920  1.00  0.00     0.124 C 
ATOM      8  C   UNL A   1      33.968  23.406  23.456  1.00  0.00     0.065 C 
ATOM      9  C   UNL A   1      32.899  23.313  24.546  1.00  0.00    -0.036 A 
ATOM     10  C   UNL A   1      35.313  23.203  24.175  1.00  0.00    -0.036 A 
ATOM     11  C   UNL A   1      34.350  25.078  25.469  1.00  0.00     0.063 C 
ATOM     12  C   UNL A   1      31.842  22.413  24.570  1.00  0.00     0.004 A 
ATOM     13  C   UNL A   1      33.152  24.157  25.660  1.00  0.00    -0.036 A 
ATOM     14  C   UNL A   1      35.527  24.113  25.251  1.00  0.00    -0.036 A 
ATOM     15  C   UNL A   1      36.237  22.208  23.897  1.00  0.00     0.004 A 
ATOM     16  C   UNL A   1      31.067  22.322  25.730  1.00  0.00     0.000 A 
ATOM     17  C   UNL A   1      32.426  24.010  26.834  1.00  0.00     0.004 A 
ATOM     18  C   UNL A   1      36.666  24.029  26.037  1.00  0.00     0.004 A 
ATOM     19  C   UNL A   1      37.381  22.124  24.693  1.00  0.00     0.000 A 
ATOM     20  C   UNL A   1      31.374  23.092  26.861  1.00  0.00     0.000 A 
ATOM     21  C   UNL A   1      37.595  23.026  25.749  1.00  0.00     0.000 A 
BRANCH   7  22
ATOM     22  C   UNL A   1      32.977  25.036  21.835  1.00  0.00     0.310 C 
ATOM     23  O   UNL A   1      33.290  25.411  20.709  1.00  0.00    -0.252 OA
BRANCH  22  24
ATOM     24  O   UNL A   1      31.729  24.702  22.203  1.00  0.00    -0.465 OA
BRANCH  24  25
ATOM     25  C   UNL A   1      30.779  25.766  22.404  1.00  0.00     0.233 C 
BRANCH  25  26
ATOM     26  C   UNL A   1      30.117  25.602  23.769  1.00  0.00     0.041 C 
BRANCH  26  27
ATOM     27  C   UNL A   1      29.740  26.926  24.441  1.00  0.00     0.000 C 
ATOM     28  C   UNL A   1      29.270  27.981  23.451  1.00  0.00     0.004 C 
ENDBRANCH  26  27
ENDBRANCH  25  26
ENDBRANCH  24  25
ENDBRANCH  22  24
ENDBRANCH   7  22
ENDBRANCH   3   6
ENDBRANCH   1   2
BRANCH   1  29
ATOM     29  C   UNL A   1      31.986  28.361  27.448  1.00  0.00     0.023 C 
BRANCH  29  30
ATOM     30  C   UNL A   1      31.494  29.573  26.669  1.00  0.00     0.023 C 
BRANCH  30  31
ATOM     31  C   UNL A   1      32.536  30.652  26.401  1.00  0.00     0.116 C 
BRANCH  31  32
ATOM     32  N   UNL A   1      32.285  31.950  27.027  1.00  0.00    -0.352 N 
ATOM     33  C   UNL A   1      33.208  32.747  27.681  1.00  0.00     0.251 C 
ATOM     34  H   UNL A   1      31.364  32.291  26.976  1.00  0.00     0.163 HD
ATOM     35  O   UNL A   1      32.889  33.821  28.177  1.00  0.00    -0.269 OA
BRANCH  33  36
ATOM     36  C   UNL A   1      34.583  32.218  27.812  1.00  0.00     0.039 A 
ATOM     37  C   UNL A   1      34.757  30.857  28.057  1.00  0.00     0.014 A 
ATOM     38  C   UNL A   1      35.645  33.115  27.950  1.00  0.00     0.014 A 
ATOM     39  C   UNL A   1      35.920  30.439  28.689  1.00  0.00     0.010 A 
ATOM     40  C   UNL A   1      36.857  32.661  28.479  1.00  0.00     0.010 A 
ATOM     41  C   UNL A   1      36.974  31.341  28.939  1.00  0.00    -0.014 A 
BRANCH  41  42
ATOM     42  C   UNL A   1      38.153  30.870  29.720  1.00  0.00     0.031 A 
ATOM     43  C   UNL A   1      38.330  31.224  31.176  1.00  0.00     0.074 A 
ATOM     44  C   UNL A   1      39.021  30.025  29.131  1.00  0.00     0.049 A 
ATOM     45  N   UNL A   1      39.249  30.812  32.014  1.00  0.00    -0.248 NA
ATOM     46  C   UNL A   1      37.366  32.163  31.770  1.00  0.00     0.031 C 
ATOM     47  C   UNL A   1      38.953  29.615  27.729  1.00  0.00     0.029 A 
ATOM     48  N   UNL A   1      40.086  29.321  29.634  1.00  0.00    -0.354 N 
ATOM     49  C   UNL A   1      39.001  31.470  33.214  1.00  0.00     0.074 A 
ATOM     50  C   UNL A   1      37.854  32.323  32.993  1.00  0.00     0.031 C 
ATOM     51  C   UNL A   1      39.864  28.661  27.509  1.00  0.00     0.029 A 
ATOM     52  C   UNL A   1      40.645  28.454  28.725  1.00  0.00     0.049 A 
ATOM     53  H   UNL A   1      40.417  29.428  30.556  1.00  0.00     0.167 HD
ATOM     54  C   UNL A   1      39.662  31.365  34.393  1.00  0.00     0.034 A 
ATOM     55  C   UNL A   1      41.674  27.591  28.845  1.00  0.00     0.034 A 
ATOM     56  C   UNL A   1      40.772  30.473  34.618  1.00  0.00     0.049 A 
ATOM     57  C   UNL A   1      42.382  27.477  30.165  1.00  0.00     0.074 A 
ATOM     58  C   UNL A   1      41.460  30.245  35.798  1.00  0.00     0.029 A 
ATOM     59  N   UNL A   1      41.354  29.659  33.656  1.00  0.00    -0.354 N 
ATOM     60  N   UNL A   1      42.106  28.079  31.298  1.00  0.00    -0.248 NA
ATOM     61  C   UNL A   1      43.545  26.584  30.225  1.00  0.00     0.031 C 
ATOM     62  C   UNL A   1      42.488  29.336  35.538  1.00  0.00     0.029 A 
ATOM     63  C   UNL A   1      42.413  28.955  34.208  1.00  0.00     0.049 A 
ATOM     64  H   UNL A   1      41.059  29.593  32.719  1.00  0.00     0.167 HD
ATOM     65  C   UNL A   1      43.074  27.654  32.202  1.00  0.00     0.074 A 
ATOM     66  C   UNL A   1      43.911  26.704  31.496  1.00  0.00     0.031 C 
ATOM     67  C   UNL A   1      43.261  28.032  33.492  1.00  0.00     0.034 A 
BRANCH  54  68
ATOM     68  C   UNL A   1      39.217  32.225  35.550  1.00  0.00     0.023 A 
ATOM     69  C   UNL A   1      39.699  33.543  35.670  1.00  0.00     0.031 A 
ATOM     70  C   UNL A   1      38.414  31.715  36.584  1.00  0.00     0.131 A 
ATOM     71  C   UNL A   1      39.387  34.299  36.808  1.00  0.00     0.055 A 
ATOM     72  C   UNL A   1      38.083  32.482  37.703  1.00  0.00     0.041 A 
ATOM     73  F   UNL A   1      37.929  30.464  36.517  1.00  0.00    -0.206 F 
ATOM     74  C   UNL A   1      38.578  33.777  37.822  1.00  0.00     0.022 A 
BRANCH  71  75
ATOM     75  S   UNL A   1      40.061  35.966  37.044  1.00  0.00     0.124 S 
ATOM     76  O   UNL A   1      39.174  36.503  38.073  1.00  0.00    -0.237 OA
ATOM     77  O   UNL A   1      41.427  35.686  37.482  1.00  0.00    -0.237 OA
ATOM     78  O   UNL A   1      39.937  36.585  35.729  1.00  0.00    -0.744 OA
ENDBRANCH  71  75
ENDBRANCH  54  68
BRANCH  55  79
ATOM     79  C   UNL A   1      42.038  26.753  27.666  1.00  0.00     0.023 A 
ATOM     80  C   UNL A   1      41.659  25.399  27.609  1.00  0.00     0.031 A 
ATOM     81  C   UNL A   1      42.915  27.238  26.684  1.00  0.00     0.131 A 
ATOM     82  C   UNL A   1      42.247  24.553  26.662  1.00  0.00     0.055 A 
ATOM     83  C   UNL A   1      43.431  26.409  25.687  1.00  0.00     0.041 A 
ATOM     84  F   UNL A   1      43.311  28.521  26.705  1.00  0.00    -0.206 F 
ATOM     85  C   UNL A   1      43.120  25.052  25.690  1.00  0.00     0.022 A 
BRANCH  82  86
ATOM     86  S   UNL A   1      42.050  22.752  26.786  1.00  0.00     0.124 S 
ATOM     87  O   UNL A   1      43.119  22.392  27.710  1.00  0.00    -0.237 OA
ATOM     88  O   UNL A   1      40.691  22.639  27.313  1.00  0.00    -0.237 OA
ATOM     89  O   UNL A   1      42.219  22.292  25.411  1.00  0.00    -0.744 OA
ENDBRANCH  82  86
ENDBRANCH  55  79
BRANCH  67  90
ATOM     90  C   UNL A   1      44.451  27.470  34.228  1.00  0.00     0.023 A 
ATOM     91  C   UNL A   1      44.332  26.290  34.987  1.00  0.00     0.031 A 
ATOM     92  C   UNL A   1      45.666  28.174  34.274  1.00  0.00     0.131 A 
ATOM     93  C   UNL A   1      45.404  25.866  35.783  1.00  0.00     0.055 A 
ATOM     94  C   UNL A   1      46.744  27.728  35.041  1.00  0.00     0.041 A 
ATOM     95  F   UNL A   1      45.824  29.307  33.571  1.00  0.00    -0.206 F 
ATOM     96  C   UNL A   1      46.610  26.575  35.809  1.00  0.00     0.022 A 
BRANCH  93  97
ATOM     97  S   UNL A   1      45.249  24.424  36.871  1.00  0.00     0.124 S 
ATOM     98  O   UNL A   1      46.632  24.219  37.297  1.00  0.00    -0.237 OA
ATOM     99  O   UNL A   1      44.343  24.912  37.907  1.00  0.00    -0.237 OA
ATOM    100  O   UNL A   1      44.705  23.384  36.003  1.00  0.00    -0.744 OA
ENDBRANCH  93  97
ENDBRANCH  67  90
ENDBRANCH  41  42
ENDBRANCH  33  36
ENDBRANCH  31  32
ENDBRANCH  30  31
ENDBRANCH  29  30
ENDBRANCH   1  29
TORSDOF 19
ENDMDL
MODEL 3
REMARK VINA RESULT:     -12.2      1.718      2.166
REMARK SMILES CCCCOC(=O)[C@@H]1[C@H]2c3ccccc3[C@H](c3ccccc32)[C@@H]1C(=O)NCCCCNC(=O)c1ccc(-c2c3nc(c(-c4cc(S(=O)(=O)[O-])ccc4F)c4ccc([nH]4)c(-c4cc(S(=O)(=O)[O-])ccc4F)c4nc(c(-c5cc(S(=O)(=O)[O-])ccc5F)c5ccc2[nH]5)C=C4)C=C3)cc1
REMARK SMILES IDX 27 1 26 2 24 3 25 4 23 6 8 7 9 8 22 9 10 10 16 11 21 12
REMARK SMILES IDX 17 13 15 14 11 15 20 16 18 17 14 18 12 19 19 20 13 21 6 22
REMARK SMILES IDX 7 23 5 24 4 25 3 26 2 27 1 28 28 29 29 30 30 31 31 32 32 33
REMARK SMILES IDX 33 35 34 36 35 37 96 38 36 39 95 40 37 41 38 42 39 43 89 44
REMARK SMILES IDX 40 45 94 46 88 47 90 48 41 49 93 50 87 51 86 52 42 54 74 55
REMARK SMILES IDX 54 56 73 57 55 58 58 59 72 60 91 61 56 62 57 63 71 65 92 66
REMARK SMILES IDX 59 67 43 68 44 69 52 70 45 71 51 72 53 73 50 74 46 75 47 76
REMARK SMILES IDX 48 77 49 78 75 79 76 80 84 81 77 82 83 83 85 84 82 85 78 86
REMARK SMILES IDX 79 87 80 88 81 89 60 90 61 91 69 92 62 93 68 94 70 95 67 96
REMARK SMILES IDX 63 97 64 98 65 99 66 100
REMARK H PARENT 26 5 31 34 90 53 58 64
REMARK Flexibility Score: inf
ROOT
ATOM      1  C   UNL A   1      35.697  23.949  24.437  1.00  0.00     0.116 C 
ENDROOT
BRANCH   1   2
ATOM      2  N   UNL A   1      35.012  23.299  25.533  1.00  0.00    -0.356 N 
ATOM      3  C   UNL A   1      33.881  23.618  26.201  1.00  0.00     0.224 C 
ATOM      4  O   UNL A   1      33.330  22.678  26.793  1.00  0.00    -0.275 OA
ATOM      5  H   UNL A   1      35.447  22.475  25.849  1.00  0.00     0.163 HD
BRANCH   3   6
ATOM      6  C   UNL A   1      33.272  25.012  26.333  1.00  0.00     0.105 C 
ATOM      7  C   UNL A   1      31.732  25.230  26.503  1.00  0.00     0.124 C 
ATOM      8  C   UNL A   1      31.287  26.472  25.678  1.00  0.00     0.065 C 
ATOM      9  C   UNL A   1      31.753  26.296  24.231  1.00  0.00    -0.036 A 
ATOM     10  C   UNL A   1      32.114  27.642  26.240  1.00  0.00    -0.036 A 
ATOM     11  C   UNL A   1      33.898  26.132  25.433  1.00  0.00     0.063 C 
ATOM     12  C   UNL A   1      30.944  26.365  23.105  1.00  0.00     0.004 A 
ATOM     13  C   UNL A   1      33.163  26.193  24.100  1.00  0.00    -0.036 A 
ATOM     14  C   UNL A   1      33.521  27.454  26.123  1.00  0.00    -0.036 A 
ATOM     15  C   UNL A   1      31.599  28.820  26.760  1.00  0.00     0.004 A 
ATOM     16  C   UNL A   1      31.551  26.380  21.846  1.00  0.00     0.000 A 
ATOM     17  C   UNL A   1      33.763  26.282  22.851  1.00  0.00     0.004 A 
ATOM     18  C   UNL A   1      34.407  28.439  26.532  1.00  0.00     0.004 A 
ATOM     19  C   UNL A   1      32.494  29.811  27.168  1.00  0.00     0.000 A 
ATOM     20  C   UNL A   1      32.947  26.368  21.721  1.00  0.00     0.000 A 
ATOM     21  C   UNL A   1      33.882  29.622  27.058  1.00  0.00     0.000 A 
BRANCH   7  22
ATOM     22  C   UNL A   1      30.697  24.139  26.366  1.00  0.00     0.310 C 
ATOM     23  O   UNL A   1      30.154  23.649  27.351  1.00  0.00    -0.252 OA
BRANCH  22  24
ATOM     24  O   UNL A   1      30.408  23.805  25.097  1.00  0.00    -0.465 OA
BRANCH  24  25
ATOM     25  C   UNL A   1      30.946  22.570  24.588  1.00  0.00     0.233 C 
BRANCH  25  26
ATOM     26  C   UNL A   1      31.613  22.826  23.239  1.00  0.00     0.041 C 
BRANCH  26  27
ATOM     27  C   UNL A   1      32.841  21.950  22.976  1.00  0.00     0.000 C 
ATOM     28  C   UNL A   1      32.835  20.661  23.784  1.00  0.00     0.004 C 
ENDBRANCH  26  27
ENDBRANCH  25  26
ENDBRANCH  24  25
ENDBRANCH  22  24
ENDBRANCH   7  22
ENDBRANCH   3   6
ENDBRANCH   1   2
BRANCH   1  29
ATOM     29  C   UNL A   1      36.491  22.975  23.575  1.00  0.00     0.023 C 
BRANCH  29  30
ATOM     30  C   UNL A   1      36.621  21.571  24.152  1.00  0.00     0.023 C 
BRANCH  30  31
ATOM     31  C   UNL A   1      37.438  21.459  25.434  1.00  0.00     0.116 C 
BRANCH  31  32
ATOM     32  N   UNL A   1      38.555  20.516  25.397  1.00  0.00    -0.352 N 
ATOM     33  C   UNL A   1      39.759  20.631  26.069  1.00  0.00     0.251 C 
ATOM     34  H   UNL A   1      38.437  19.716  24.836  1.00  0.00     0.163 HD
ATOM     35  O   UNL A   1      40.634  19.781  25.964  1.00  0.00    -0.269 OA
BRANCH  33  36
ATOM     36  C   UNL A   1      39.969  21.856  26.871  1.00  0.00     0.039 A 
ATOM     37  C   UNL A   1      39.381  23.046  26.444  1.00  0.00     0.014 A 
ATOM     38  C   UNL A   1      40.946  21.855  27.869  1.00  0.00     0.014 A 
ATOM     39  C   UNL A   1      39.958  24.248  26.830  1.00  0.00     0.010 A 
ATOM     40  C   UNL A   1      41.442  23.075  28.340  1.00  0.00     0.010 A 
ATOM     41  C   UNL A   1      41.018  24.279  27.758  1.00  0.00    -0.014 A 
BRANCH  41  42
ATOM     42  C   UNL A   1      41.677  25.583  28.053  1.00  0.00     0.031 A 
ATOM     43  C   UNL A   1      43.034  25.929  27.491  1.00  0.00     0.074 A 
ATOM     44  C   UNL A   1      40.994  26.508  28.754  1.00  0.00     0.049 A 
ATOM     45  N   UNL A   1      43.694  27.057  27.578  1.00  0.00    -0.248 NA
ATOM     46  C   UNL A   1      43.749  24.880  26.747  1.00  0.00     0.031 C 
ATOM     47  C   UNL A   1      39.676  26.285  29.349  1.00  0.00     0.029 A 
ATOM     48  N   UNL A   1      41.273  27.820  29.040  1.00  0.00    -0.354 N 
ATOM     49  C   UNL A   1      44.912  26.843  26.940  1.00  0.00     0.074 A 
ATOM     50  C   UNL A   1      44.908  25.470  26.485  1.00  0.00     0.031 C 
ATOM     51  C   UNL A   1      39.218  27.442  29.839  1.00  0.00     0.029 A 
ATOM     52  C   UNL A   1      40.243  28.470  29.679  1.00  0.00     0.049 A 
ATOM     53  H   UNL A   1      42.127  28.253  28.810  1.00  0.00     0.167 HD
ATOM     54  C   UNL A   1      45.933  27.713  26.744  1.00  0.00     0.034 A 
ATOM     55  C   UNL A   1      40.129  29.746  30.098  1.00  0.00     0.034 A 
ATOM     56  C   UNL A   1      45.905  29.094  27.156  1.00  0.00     0.049 A 
ATOM     57  C   UNL A   1      41.265  30.699  29.855  1.00  0.00     0.074 A 
ATOM     58  C   UNL A   1      46.863  30.070  26.939  1.00  0.00     0.029 A 
ATOM     59  N   UNL A   1      44.875  29.700  27.860  1.00  0.00    -0.354 N 
ATOM     60  N   UNL A   1      42.391  30.486  29.215  1.00  0.00    -0.248 NA
ATOM     61  C   UNL A   1      41.128  32.055  30.400  1.00  0.00     0.031 C 
ATOM     62  C   UNL A   1      46.436  31.249  27.555  1.00  0.00     0.029 A 
ATOM     63  C   UNL A   1      45.188  31.026  28.114  1.00  0.00     0.049 A 
ATOM     64  H   UNL A   1      44.042  29.253  28.140  1.00  0.00     0.167 HD
ATOM     65  C   UNL A   1      43.107  31.676  29.298  1.00  0.00     0.074 A 
ATOM     66  C   UNL A   1      42.264  32.619  30.005  1.00  0.00     0.031 C 
ATOM     67  C   UNL A   1      44.356  31.953  28.845  1.00  0.00     0.034 A 
BRANCH  54  68
ATOM     68  C   UNL A   1      47.179  27.220  26.050  1.00  0.00     0.023 A 
ATOM     69  C   UNL A   1      48.173  26.548  26.787  1.00  0.00     0.031 A 
ATOM     70  C   UNL A   1      47.435  27.508  24.699  1.00  0.00     0.131 A 
ATOM     71  C   UNL A   1      49.383  26.201  26.172  1.00  0.00     0.055 A 
ATOM     72  C   UNL A   1      48.632  27.136  24.083  1.00  0.00     0.041 A 
ATOM     73  F   UNL A   1      46.519  28.147  23.953  1.00  0.00    -0.206 F 
ATOM     74  C   UNL A   1      49.616  26.488  24.823  1.00  0.00     0.022 A 
BRANCH  71  75
ATOM     75  S   UNL A   1      50.724  25.416  27.109  1.00  0.00     0.124 S 
ATOM     76  O   UNL A   1      49.999  24.403  27.872  1.00  0.00    -0.237 OA
ATOM     77  O   UNL A   1      51.582  24.900  26.044  1.00  0.00    -0.237 OA
ATOM     78  O   UNL A   1      51.287  26.506  27.898  1.00  0.00    -0.744 OA
ENDBRANCH  71  75
ENDBRANCH  54  68
BRANCH  55  79
ATOM     79  C   UNL A   1      38.856  30.168  30.750  1.00  0.00     0.023 A 
ATOM     80  C   UNL A   1      37.911  30.934  30.043  1.00  0.00     0.031 A 
ATOM     81  C   UNL A   1      38.655  29.971  32.125  1.00  0.00     0.131 A 
ATOM     82  C   UNL A   1      36.875  31.571  30.735  1.00  0.00     0.055 A 
ATOM     83  C   UNL A   1      37.569  30.536  32.796  1.00  0.00     0.041 A 
ATOM     84  F   UNL A   1      39.535  29.255  32.843  1.00  0.00    -0.206 F 
ATOM     85  C   UNL A   1      36.688  31.365  32.106  1.00  0.00     0.022 A 
BRANCH  82  86
ATOM     86  S   UNL A   1      35.861  32.835  29.918  1.00  0.00     0.124 S 
ATOM     87  O   UNL A   1      34.774  32.039  29.357  1.00  0.00    -0.237 OA
ATOM     88  O   UNL A   1      35.500  33.697  31.043  1.00  0.00    -0.237 OA
ATOM     89  O   UNL A   1      36.772  33.435  28.949  1.00  0.00    -0.744 OA
ENDBRANCH  82  86
ENDBRANCH  55  79
BRANCH  67  90
ATOM     90  C   UNL A   1      44.931  33.314  29.142  1.00  0.00     0.023 A 
ATOM     91  C   UNL A   1      44.558  34.433  28.373  1.00  0.00     0.031 A 
ATOM     92  C   UNL A   1      45.940  33.473  30.108  1.00  0.00     0.131 A 
ATOM     93  C   UNL A   1      45.213  35.656  28.566  1.00  0.00     0.055 A 
ATOM     94  C   UNL A   1      46.564  34.703  30.320  1.00  0.00     0.041 A 
ATOM     95  F   UNL A   1      46.333  32.433  30.860  1.00  0.00    -0.206 F 
ATOM     96  C   UNL A   1      46.209  35.799  29.538  1.00  0.00     0.022 A 
BRANCH  93  97
ATOM     97  S   UNL A   1      44.852  37.088  27.513  1.00  0.00     0.124 S 
ATOM     98  O   UNL A   1      44.345  38.055  28.484  1.00  0.00    -0.237 OA
ATOM     99  O   UNL A   1      46.163  37.398  26.949  1.00  0.00    -0.237 OA
ATOM    100  O   UNL A   1      43.865  36.585  26.562  1.00  0.00    -0.744 OA
ENDBRANCH  93  97
ENDBRANCH  67  90
ENDBRANCH  41  42
ENDBRANCH  33  36
ENDBRANCH  31  32
ENDBRANCH  30  31
ENDBRANCH  29  30
ENDBRANCH   1  29
TORSDOF 19
ENDMDL
