MODEL 1
REMARK VINA RESULT:     -11.1      0.000      0.000
REMARK SMILES CC[C@H](C(=O)NCCCCNC(=O)c1ccc(-c2c3nc(c(-c4cc(S(=O)(=O)[O-])ccc4F)c4ccc([nH]4)c(-c4cc(S(=O)(=O)[O-])ccc4F)c4nc(c(-c5cc(S(=O)(=O)[O-])ccc5F)c5ccc2[nH]5)C=C4)C=C3)cc1)N1C(=O)/C(=C\c2cccs2)SC1=S
REMARK SMILES IDX 9 1 8 2 7 3 6 4 4 5 5 6 3 8 2 9 1 10 77 11 78 12 88 13 79 14
REMARK SMILES IDX 80 15 87 16 89 17 81 18 82 19 83 20 86 21 84 22 85 23 10 24
REMARK SMILES IDX 11 25 12 26 13 28 14 29 15 30 76 31 16 32 75 33 17 34 18 35
REMARK SMILES IDX 19 36 69 37 20 38 74 39 68 40 70 41 21 42 73 43 67 44 66 45
REMARK SMILES IDX 22 47 54 48 34 49 53 50 35 51 38 52 52 53 71 54 36 55 37 56
REMARK SMILES IDX 51 58 72 59 39 60 23 61 24 62 32 63 25 64 31 65 33 66 30 67
REMARK SMILES IDX 26 68 27 69 28 70 29 71 55 72 56 73 64 74 57 75 63 76 65 77
REMARK SMILES IDX 62 78 58 79 59 80 60 81 61 82 40 83 41 84 49 85 42 86 48 87
REMARK SMILES IDX 50 88 47 89 43 90 44 91 45 92 46 93
REMARK H PARENT 6 7 11 27 70 46 38 57
REMARK Flexibility Score: inf
ROOT
ATOM      1  C   UNL A   1      38.631  21.037  25.254  1.00  0.00     0.023 C 
ENDROOT
BRANCH   1   2
ATOM      2  C   UNL A   1      37.542  22.063  25.548  1.00  0.00     0.023 C 
BRANCH   2   3
ATOM      3  C   UNL A   1      36.892  22.627  24.288  1.00  0.00     0.116 C 
BRANCH   3   4
ATOM      4  N   UNL A   1      36.110  23.813  24.578  1.00  0.00    -0.354 N 
ATOM      5  C   UNL A   1      34.880  23.974  25.139  1.00  0.00     0.243 C 
ATOM      6  O   UNL A   1      34.543  25.131  25.417  1.00  0.00    -0.273 OA
ATOM      7  H   UNL A   1      36.549  24.656  24.323  1.00  0.00     0.163 HD
BRANCH   5   8
ATOM      8  C   UNL A   1      33.957  22.797  25.533  1.00  0.00     0.181 C 
BRANCH   8   9
ATOM      9  C   UNL A   1      33.079  22.878  26.799  1.00  0.00     0.032 C 
ATOM     10  C   UNL A   1      33.706  22.245  28.036  1.00  0.00     0.006 C 
ENDBRANCH   8   9
BRANCH   8  11
ATOM     11  N   UNL A   1      33.260  22.132  24.396  1.00  0.00    -0.280 N 
ATOM     12  C   UNL A   1      33.625  20.814  24.158  1.00  0.00     0.266 C 
ATOM     13  C   UNL A   1      32.207  22.598  23.632  1.00  0.00     0.149 C 
ATOM     14  O   UNL A   1      34.572  20.239  24.680  1.00  0.00    -0.268 OA
ATOM     15  C   UNL A   1      32.681  20.166  23.208  1.00  0.00     0.081 C 
ATOM     16  S   UNL A   1      31.741  21.376  22.439  1.00  0.00    -0.054 SA
ATOM     17  S   UNL A   1      31.375  24.036  23.676  1.00  0.00    -0.052 S 
ATOM     18  C   UNL A   1      32.473  18.855  23.031  1.00  0.00     0.040 C 
BRANCH  18  19
ATOM     19  C   UNL A   1      33.090  17.885  23.862  1.00  0.00     0.028 A 
ATOM     20  C   UNL A   1      34.203  17.105  23.591  1.00  0.00     0.020 A 
ATOM     21  S   UNL A   1      32.462  17.542  25.420  1.00  0.00    -0.144 S 
ATOM     22  C   UNL A   1      34.476  16.164  24.622  1.00  0.00     0.012 A 
ATOM     23  C   UNL A   1      33.590  16.279  25.667  1.00  0.00     0.065 A 
ENDBRANCH  18  19
ENDBRANCH   8  11
ENDBRANCH   5   8
ENDBRANCH   3   4
ENDBRANCH   2   3
ENDBRANCH   1   2
BRANCH   1  24
ATOM     24  C   UNL A   1      39.493  20.677  26.457  1.00  0.00     0.116 C 
BRANCH  24  25
ATOM     25  N   UNL A   1      40.408  19.576  26.188  1.00  0.00    -0.352 N 
ATOM     26  C   UNL A   1      41.768  19.632  26.002  1.00  0.00     0.251 C 
ATOM     27  H   UNL A   1      40.003  18.681  26.134  1.00  0.00     0.163 HD
ATOM     28  O   UNL A   1      42.384  18.643  25.622  1.00  0.00    -0.269 OA
BRANCH  26  29
ATOM     29  C   UNL A   1      42.455  20.918  26.232  1.00  0.00     0.039 A 
ATOM     30  C   UNL A   1      42.696  21.763  25.150  1.00  0.00     0.014 A 
ATOM     31  C   UNL A   1      42.771  21.315  27.535  1.00  0.00     0.014 A 
ATOM     32  C   UNL A   1      43.202  23.040  25.386  1.00  0.00     0.010 A 
ATOM     33  C   UNL A   1      43.175  22.621  27.774  1.00  0.00     0.010 A 
ATOM     34  C   UNL A   1      43.408  23.494  26.701  1.00  0.00    -0.014 A 
BRANCH  34  35
ATOM     35  C   UNL A   1      43.885  24.874  26.967  1.00  0.00     0.031 A 
ATOM     36  C   UNL A   1      42.944  25.893  27.549  1.00  0.00     0.074 A 
ATOM     37  C   UNL A   1      45.150  25.215  26.647  1.00  0.00     0.049 A 
ATOM     38  N   UNL A   1      43.160  27.151  27.837  1.00  0.00    -0.248 NA
ATOM     39  C   UNL A   1      41.566  25.448  27.809  1.00  0.00     0.031 C 
ATOM     40  C   UNL A   1      46.133  24.325  26.025  1.00  0.00     0.029 A 
ATOM     41  N   UNL A   1      45.827  26.397  26.806  1.00  0.00    -0.354 N 
ATOM     42  C   UNL A   1      41.947  27.645  28.304  1.00  0.00     0.074 A 
ATOM     43  C   UNL A   1      40.981  26.576  28.179  1.00  0.00     0.031 C 
ATOM     44  C   UNL A   1      47.300  24.979  25.900  1.00  0.00     0.029 A 
ATOM     45  C   UNL A   1      47.137  26.344  26.386  1.00  0.00     0.049 A 
ATOM     46  H   UNL A   1      45.416  27.207  27.184  1.00  0.00     0.167 HD
ATOM     47  C   UNL A   1      41.673  28.867  28.823  1.00  0.00     0.034 A 
ATOM     48  C   UNL A   1      48.096  27.292  26.392  1.00  0.00     0.034 A 
ATOM     49  C   UNL A   1      42.653  29.919  28.944  1.00  0.00     0.049 A 
ATOM     50  C   UNL A   1      47.761  28.650  26.954  1.00  0.00     0.074 A 
ATOM     51  C   UNL A   1      42.503  31.180  29.491  1.00  0.00     0.029 A 
ATOM     52  N   UNL A   1      43.968  29.833  28.502  1.00  0.00    -0.354 N 
ATOM     53  N   UNL A   1      46.624  29.086  27.449  1.00  0.00    -0.248 NA
ATOM     54  C   UNL A   1      48.845  29.639  26.975  1.00  0.00     0.031 C 
ATOM     55  C   UNL A   1      43.700  31.882  29.311  1.00  0.00     0.029 A 
ATOM     56  C   UNL A   1      44.629  31.030  28.736  1.00  0.00     0.049 A 
ATOM     57  H   UNL A   1      44.372  29.038  28.083  1.00  0.00     0.167 HD
ATOM     58  C   UNL A   1      46.869  30.390  27.871  1.00  0.00     0.074 A 
ATOM     59  C   UNL A   1      48.266  30.657  27.592  1.00  0.00     0.031 C 
ATOM     60  C   UNL A   1      46.020  31.287  28.437  1.00  0.00     0.034 A 
BRANCH  47  61
ATOM     61  C   UNL A   1      40.252  29.128  29.269  1.00  0.00     0.023 A 
ATOM     62  C   UNL A   1      39.880  29.067  30.626  1.00  0.00     0.031 A 
ATOM     63  C   UNL A   1      39.246  29.403  28.327  1.00  0.00     0.131 A 
ATOM     64  C   UNL A   1      38.532  29.192  30.991  1.00  0.00     0.055 A 
ATOM     65  C   UNL A   1      37.919  29.618  28.707  1.00  0.00     0.041 A 
ATOM     66  F   UNL A   1      39.530  29.450  27.017  1.00  0.00    -0.206 F 
ATOM     67  C   UNL A   1      37.552  29.495  30.044  1.00  0.00     0.022 A 
BRANCH  64  68
ATOM     68  S   UNL A   1      38.056  28.791  32.695  1.00  0.00     0.124 S 
ATOM     69  O   UNL A   1      39.136  29.415  33.457  1.00  0.00    -0.237 OA
ATOM     70  O   UNL A   1      36.745  29.417  32.814  1.00  0.00    -0.237 OA
ATOM     71  O   UNL A   1      38.054  27.330  32.716  1.00  0.00    -0.744 OA
ENDBRANCH  64  68
ENDBRANCH  47  61
BRANCH  48  72
ATOM     72  C   UNL A   1      49.459  26.997  25.860  1.00  0.00     0.023 A 
ATOM     73  C   UNL A   1      49.828  27.379  24.560  1.00  0.00     0.031 A 
ATOM     74  C   UNL A   1      50.399  26.287  26.629  1.00  0.00     0.131 A 
ATOM     75  C   UNL A   1      51.080  27.003  24.049  1.00  0.00     0.055 A 
ATOM     76  C   UNL A   1      51.666  25.969  26.136  1.00  0.00     0.041 A 
ATOM     77  F   UNL A   1      50.101  25.901  27.880  1.00  0.00    -0.206 F 
ATOM     78  C   UNL A   1      52.007  26.314  24.833  1.00  0.00     0.022 A 
BRANCH  75  79
ATOM     79  S   UNL A   1      51.445  27.348  22.305  1.00  0.00     0.124 S 
ATOM     80  O   UNL A   1      50.236  26.863  21.648  1.00  0.00    -0.237 OA
ATOM     81  O   UNL A   1      51.635  28.794  22.315  1.00  0.00    -0.237 OA
ATOM     82  O   UNL A   1      52.651  26.563  22.049  1.00  0.00    -0.744 OA
ENDBRANCH  75  79
ENDBRANCH  48  72
BRANCH  60  83
ATOM     83  C   UNL A   1      46.604  32.623  28.833  1.00  0.00     0.023 A 
ATOM     84  C   UNL A   1      46.553  33.736  27.976  1.00  0.00     0.031 A 
ATOM     85  C   UNL A   1      47.252  32.773  30.071  1.00  0.00     0.131 A 
ATOM     86  C   UNL A   1      47.212  34.923  28.332  1.00  0.00     0.055 A 
ATOM     87  C   UNL A   1      47.836  33.980  30.455  1.00  0.00     0.041 A 
ATOM     88  F   UNL A   1      47.334  31.744  30.931  1.00  0.00    -0.206 F 
ATOM     89  C   UNL A   1      47.836  35.058  29.574  1.00  0.00     0.022 A 
BRANCH  86  90
ATOM     90  S   UNL A   1      47.362  36.237  27.092  1.00  0.00     0.124 S 
ATOM     91  O   UNL A   1      48.711  36.737  27.343  1.00  0.00    -0.237 OA
ATOM     92  O   UNL A   1      47.175  35.508  25.841  1.00  0.00    -0.237 OA
ATOM     93  O   UNL A   1      46.284  37.160  27.438  1.00  0.00    -0.744 OA
ENDBRANCH  86  90
ENDBRANCH  60  83
ENDBRANCH  34  35
ENDBRANCH  26  29
ENDBRANCH  24  25
ENDBRANCH   1  24
TORSDOF 17
ENDMDL
MODEL 2
REMARK VINA RESULT:     -11.1      6.508     12.253
REMARK SMILES CC[C@H](C(=O)NCCCCNC(=O)c1ccc(-c2c3nc(c(-c4cc(S(=O)(=O)[O-])ccc4F)c4ccc([nH]4)c(-c4cc(S(=O)(=O)[O-])ccc4F)c4nc(c(-c5cc(S(=O)(=O)[O-])ccc5F)c5ccc2[nH]5)C=C4)C=C3)cc1)N1C(=O)/C(=C\c2cccs2)SC1=S
REMARK SMILES IDX 9 1 8 2 7 3 6 4 4 5 5 6 3 8 2 9 1 10 77 11 78 12 88 13 79 14
REMARK SMILES IDX 80 15 87 16 89 17 81 18 82 19 83 20 86 21 84 22 85 23 10 24
REMARK SMILES IDX 11 25 12 26 13 28 14 29 15 30 76 31 16 32 75 33 17 34 18 35
REMARK SMILES IDX 19 36 69 37 20 38 74 39 68 40 70 41 21 42 73 43 67 44 66 45
REMARK SMILES IDX 22 47 54 48 34 49 53 50 35 51 38 52 52 53 71 54 36 55 37 56
REMARK SMILES IDX 51 58 72 59 39 60 23 61 24 62 32 63 25 64 31 65 33 66 30 67
REMARK SMILES IDX 26 68 27 69 28 70 29 71 55 72 56 73 64 74 57 75 63 76 65 77
REMARK SMILES IDX 62 78 58 79 59 80 60 81 61 82 40 83 41 84 49 85 42 86 48 87
REMARK SMILES IDX 50 88 47 89 43 90 44 91 45 92 46 93
REMARK H PARENT 6 7 11 27 70 46 38 57
REMARK Flexibility Score: inf
ROOT
ATOM      1  C   UNL A   1      32.214  31.297  27.342  1.00  0.00     0.023 C 
ENDROOT
BRANCH   1   2
ATOM      2  C   UNL A   1      32.267  30.208  26.274  1.00  0.00     0.023 C 
BRANCH   2   3
ATOM      3  C   UNL A   1      33.646  29.575  26.128  1.00  0.00     0.116 C 
BRANCH   3   4
ATOM      4  N   UNL A   1      33.579  28.129  26.208  1.00  0.00    -0.354 N 
ATOM      5  C   UNL A   1      33.109  27.193  25.339  1.00  0.00     0.243 C 
ATOM      6  O   UNL A   1      33.344  26.010  25.614  1.00  0.00    -0.273 OA
ATOM      7  H   UNL A   1      33.940  27.755  27.044  1.00  0.00     0.163 HD
BRANCH   5   8
ATOM      8  C   UNL A   1      32.409  27.539  24.004  1.00  0.00     0.181 C 
BRANCH   8   9
ATOM      9  C   UNL A   1      33.109  27.265  22.656  1.00  0.00     0.032 C 
ATOM     10  C   UNL A   1      33.950  28.428  22.141  1.00  0.00     0.006 C 
ENDBRANCH   8   9
BRANCH   8  11
ATOM     11  N   UNL A   1      30.949  27.242  23.959  1.00  0.00    -0.280 N 
ATOM     12  C   UNL A   1      30.116  28.347  23.849  1.00  0.00     0.266 C 
ATOM     13  C   UNL A   1      30.315  26.017  23.877  1.00  0.00     0.149 C 
ATOM     14  O   UNL A   1      30.473  29.513  23.962  1.00  0.00    -0.268 OA
ATOM     15  C   UNL A   1      28.725  27.932  23.526  1.00  0.00     0.081 C 
ATOM     16  S   UNL A   1      28.562  26.250  23.813  1.00  0.00    -0.054 SA
ATOM     17  S   UNL A   1      30.923  24.470  23.831  1.00  0.00    -0.052 S 
ATOM     18  C   UNL A   1      27.755  28.680  22.983  1.00  0.00     0.040 C 
BRANCH  18  19
ATOM     19  C   UNL A   1      28.000  30.001  22.529  1.00  0.00     0.028 A 
ATOM     20  C   UNL A   1      28.471  30.410  21.292  1.00  0.00     0.020 A 
ATOM     21  S   UNL A   1      27.722  31.344  23.557  1.00  0.00    -0.144 S 
ATOM     22  C   UNL A   1      28.692  31.813  21.227  1.00  0.00     0.012 A 
ATOM     23  C   UNL A   1      28.347  32.440  22.401  1.00  0.00     0.065 A 
ENDBRANCH  18  19
ENDBRANCH   8  11
ENDBRANCH   5   8
ENDBRANCH   3   4
ENDBRANCH   2   3
ENDBRANCH   1   2
BRANCH   1  24
ATOM     24  C   UNL A   1      33.351  32.306  27.264  1.00  0.00     0.116 C 
BRANCH  24  25
ATOM     25  N   UNL A   1      32.922  33.666  27.561  1.00  0.00    -0.352 N 
ATOM     26  C   UNL A   1      33.328  34.475  28.595  1.00  0.00     0.251 C 
ATOM     27  H   UNL A   1      32.259  34.054  26.946  1.00  0.00     0.163 HD
ATOM     28  O   UNL A   1      32.758  35.538  28.813  1.00  0.00    -0.269 OA
BRANCH  26  29
ATOM     29  C   UNL A   1      34.436  34.012  29.453  1.00  0.00     0.039 A 
ATOM     30  C   UNL A   1      34.153  33.190  30.544  1.00  0.00     0.014 A 
ATOM     31  C   UNL A   1      35.756  34.322  29.114  1.00  0.00     0.014 A 
ATOM     32  C   UNL A   1      35.208  32.628  31.260  1.00  0.00     0.010 A 
ATOM     33  C   UNL A   1      36.799  33.679  29.765  1.00  0.00     0.010 A 
ATOM     34  C   UNL A   1      36.537  32.835  30.853  1.00  0.00    -0.014 A 
BRANCH  34  35
ATOM     35  C   UNL A   1      37.665  32.189  31.570  1.00  0.00     0.031 A 
ATOM     36  C   UNL A   1      38.423  31.064  30.917  1.00  0.00     0.074 A 
ATOM     37  C   UNL A   1      37.977  32.588  32.820  1.00  0.00     0.049 A 
ATOM     38  N   UNL A   1      39.423  30.360  31.382  1.00  0.00    -0.248 NA
ATOM     39  C   UNL A   1      37.973  30.654  29.578  1.00  0.00     0.031 C 
ATOM     40  C   UNL A   1      37.275  33.630  33.574  1.00  0.00     0.029 A 
ATOM     41  N   UNL A   1      38.967  32.174  33.673  1.00  0.00    -0.354 N 
ATOM     42  C   UNL A   1      39.714  29.423  30.397  1.00  0.00     0.074 A 
ATOM     43  C   UNL A   1      38.732  29.595  29.349  1.00  0.00     0.031 C 
ATOM     44  C   UNL A   1      37.886  33.804  34.757  1.00  0.00     0.029 A 
ATOM     45  C   UNL A   1      38.991  32.858  34.867  1.00  0.00     0.049 A 
ATOM     46  H   UNL A   1      39.601  31.454  33.453  1.00  0.00     0.167 HD
ATOM     47  C   UNL A   1      40.731  28.527  30.353  1.00  0.00     0.034 A 
ATOM     48  C   UNL A   1      39.811  32.734  35.930  1.00  0.00     0.034 A 
ATOM     49  C   UNL A   1      41.704  28.376  31.406  1.00  0.00     0.049 A 
ATOM     50  C   UNL A   1      40.921  31.715  35.867  1.00  0.00     0.074 A 
ATOM     51  C   UNL A   1      42.801  27.534  31.454  1.00  0.00     0.029 A 
ATOM     52  N   UNL A   1      41.694  29.081  32.605  1.00  0.00    -0.354 N 
ATOM     53  N   UNL A   1      41.223  30.876  34.901  1.00  0.00    -0.248 NA
ATOM     54  C   UNL A   1      41.812  31.640  37.031  1.00  0.00     0.031 C 
ATOM     55  C   UNL A   1      43.406  27.673  32.708  1.00  0.00     0.029 A 
ATOM     56  C   UNL A   1      42.745  28.669  33.409  1.00  0.00     0.049 A 
ATOM     57  H   UNL A   1      41.035  29.773  32.846  1.00  0.00     0.167 HD
ATOM     58  C   UNL A   1      42.360  30.197  35.331  1.00  0.00     0.074 A 
ATOM     59  C   UNL A   1      42.700  30.744  36.629  1.00  0.00     0.031 C 
ATOM     60  C   UNL A   1      43.063  29.214  34.710  1.00  0.00     0.034 A 
BRANCH  47  61
ATOM     61  C   UNL A   1      40.814  27.632  29.137  1.00  0.00     0.023 A 
ATOM     62  C   UNL A   1      41.766  27.848  28.123  1.00  0.00     0.031 A 
ATOM     63  C   UNL A   1      39.906  26.572  28.967  1.00  0.00     0.131 A 
ATOM     64  C   UNL A   1      41.734  27.076  26.953  1.00  0.00     0.055 A 
ATOM     65  C   UNL A   1      39.939  25.747  27.840  1.00  0.00     0.041 A 
ATOM     66  F   UNL A   1      38.958  26.329  29.884  1.00  0.00    -0.206 F 
ATOM     67  C   UNL A   1      40.846  26.007  26.816  1.00  0.00     0.022 A 
BRANCH  64  68
ATOM     68  S   UNL A   1      42.760  27.590  25.548  1.00  0.00     0.124 S 
ATOM     69  O   UNL A   1      41.936  28.638  24.949  1.00  0.00    -0.237 OA
ATOM     70  O   UNL A   1      43.987  28.035  26.198  1.00  0.00    -0.237 OA
ATOM     71  O   UNL A   1      42.882  26.373  24.749  1.00  0.00    -0.744 OA
ENDBRANCH  64  68
ENDBRANCH  47  61
BRANCH  48  72
ATOM     72  C   UNL A   1      39.627  33.592  37.137  1.00  0.00     0.023 A 
ATOM     73  C   UNL A   1      38.949  33.114  38.269  1.00  0.00     0.031 A 
ATOM     74  C   UNL A   1      40.085  34.922  37.158  1.00  0.00     0.131 A 
ATOM     75  C   UNL A   1      38.702  33.972  39.352  1.00  0.00     0.055 A 
ATOM     76  C   UNL A   1      39.889  35.753  38.262  1.00  0.00     0.041 A 
ATOM     77  F   UNL A   1      40.743  35.430  36.103  1.00  0.00    -0.206 F 
ATOM     78  C   UNL A   1      39.180  35.284  39.363  1.00  0.00     0.022 A 
BRANCH  75  79
ATOM     79  S   UNL A   1      37.660  33.377  40.713  1.00  0.00     0.124 S 
ATOM     80  O   UNL A   1      36.533  32.796  39.991  1.00  0.00    -0.237 OA
ATOM     81  O   UNL A   1      38.548  32.434  41.385  1.00  0.00    -0.237 OA
ATOM     82  O   UNL A   1      37.358  34.592  41.467  1.00  0.00    -0.744 OA
ENDBRANCH  75  79
ENDBRANCH  48  72
BRANCH  60  83
ATOM     83  C   UNL A   1      44.296  28.705  35.420  1.00  0.00     0.023 A 
ATOM     84  C   UNL A   1      44.232  27.662  36.360  1.00  0.00     0.031 A 
ATOM     85  C   UNL A   1      45.547  29.299  35.177  1.00  0.00     0.131 A 
ATOM     86  C   UNL A   1      45.380  27.302  37.083  1.00  0.00     0.055 A 
ATOM     87  C   UNL A   1      46.701  28.882  35.841  1.00  0.00     0.041 A 
ATOM     88  F   UNL A   1      45.669  30.301  34.292  1.00  0.00    -0.206 F 
ATOM     89  C   UNL A   1      46.617  27.891  36.815  1.00  0.00     0.022 A 
BRANCH  86  90
ATOM     90  S   UNL A   1      45.203  26.152  38.474  1.00  0.00     0.124 S 
ATOM     91  O   UNL A   1      44.323  26.894  39.371  1.00  0.00    -0.237 OA
ATOM     92  O   UNL A   1      44.617  24.977  37.834  1.00  0.00    -0.237 OA
ATOM     93  O   UNL A   1      46.573  25.978  38.952  1.00  0.00    -0.744 OA
ENDBRANCH  86  90
ENDBRANCH  60  83
ENDBRANCH  34  35
ENDBRANCH  26  29
ENDBRANCH  24  25
ENDBRANCH   1  24
TORSDOF 17
ENDMDL
MODEL 3
REMARK VINA RESULT:     -10.8      1.923      7.819
REMARK SMILES CC[C@H](C(=O)NCCCCNC(=O)c1ccc(-c2c3nc(c(-c4cc(S(=O)(=O)[O-])ccc4F)c4ccc([nH]4)c(-c4cc(S(=O)(=O)[O-])ccc4F)c4nc(c(-c5cc(S(=O)(=O)[O-])ccc5F)c5ccc2[nH]5)C=C4)C=C3)cc1)N1C(=O)/C(=C\c2cccs2)SC1=S
REMARK SMILES IDX 9 1 8 2 7 3 6 4 4 5 5 6 3 8 2 9 1 10 77 11 78 12 88 13 79 14
REMARK SMILES IDX 80 15 87 16 89 17 81 18 82 19 83 20 86 21 84 22 85 23 10 24
REMARK SMILES IDX 11 25 12 26 13 28 14 29 15 30 76 31 16 32 75 33 17 34 18 35
REMARK SMILES IDX 19 36 69 37 20 38 74 39 68 40 70 41 21 42 73 43 67 44 66 45
REMARK SMILES IDX 22 47 54 48 34 49 53 50 35 51 38 52 52 53 71 54 36 55 37 56
REMARK SMILES IDX 51 58 72 59 39 60 23 61 24 62 32 63 25 64 31 65 33 66 30 67
REMARK SMILES IDX 26 68 27 69 28 70 29 71 55 72 56 73 64 74 57 75 63 76 65 77
REMARK SMILES IDX 62 78 58 79 59 80 60 81 61 82 40 83 41 84 49 85 42 86 48 87
REMARK SMILES IDX 50 88 47 89 43 90 44 91 45 92 46 93
REMARK H PARENT 6 7 11 27 70 46 38 57
REMARK Flexibility Score: inf
ROOT
ATOM      1  C   UNL A   1      38.389  19.968  25.010  1.00  0.00     0.023 C 
ENDROOT
BRANCH   1   2
ATOM      2  C   UNL A   1      37.516  21.143  24.579  1.00  0.00     0.023 C 
BRANCH   2   3
ATOM      3  C   UNL A   1      37.239  22.131  25.706  1.00  0.00     0.116 C 
BRANCH   3   4
ATOM      4  N   UNL A   1      36.532  23.302  25.225  1.00  0.00    -0.354 N 
ATOM      5  C   UNL A   1      35.205  23.602  25.168  1.00  0.00     0.243 C 
ATOM      6  O   UNL A   1      34.910  24.763  24.859  1.00  0.00    -0.273 OA
ATOM      7  H   UNL A   1      37.119  24.011  24.876  1.00  0.00     0.163 HD
BRANCH   5   8
ATOM      8  C   UNL A   1      34.086  22.613  25.568  1.00  0.00     0.181 C 
BRANCH   8   9
ATOM      9  C   UNL A   1      33.156  22.919  26.761  1.00  0.00     0.032 C 
ATOM     10  C   UNL A   1      33.612  22.308  28.082  1.00  0.00     0.006 C 
ENDBRANCH   8   9
BRANCH   8  11
ATOM     11  N   UNL A   1      33.362  21.982  24.428  1.00  0.00    -0.280 N 
ATOM     12  C   UNL A   1      33.681  20.654  24.178  1.00  0.00     0.266 C 
ATOM     13  C   UNL A   1      32.324  22.490  23.671  1.00  0.00     0.149 C 
ATOM     14  O   UNL A   1      34.608  20.041  24.693  1.00  0.00    -0.268 OA
ATOM     15  C   UNL A   1      32.712  20.047  23.226  1.00  0.00     0.081 C 
ATOM     16  S   UNL A   1      31.813  21.295  22.470  1.00  0.00    -0.054 SA
ATOM     17  S   UNL A   1      31.543  23.956  23.729  1.00  0.00    -0.052 S 
ATOM     18  C   UNL A   1      32.458  18.745  23.039  1.00  0.00     0.040 C 
BRANCH  18  19
ATOM     19  C   UNL A   1      33.043  17.747  23.860  1.00  0.00     0.028 A 
ATOM     20  C   UNL A   1      34.110  16.913  23.569  1.00  0.00     0.020 A 
ATOM     21  S   UNL A   1      32.430  17.438  25.431  1.00  0.00    -0.144 S 
ATOM     22  C   UNL A   1      34.358  15.962  24.597  1.00  0.00     0.012 A 
ATOM     23  C   UNL A   1      33.499  16.122  25.659  1.00  0.00     0.065 A 
ENDBRANCH  18  19
ENDBRANCH   8  11
ENDBRANCH   5   8
ENDBRANCH   3   4
ENDBRANCH   2   3
ENDBRANCH   1   2
BRANCH   1  24
ATOM     24  C   UNL A   1      39.312  20.270  26.183  1.00  0.00     0.116 C 
BRANCH  24  25
ATOM     25  N   UNL A   1      40.611  19.623  26.061  1.00  0.00    -0.352 N 
ATOM     26  C   UNL A   1      41.855  20.193  26.182  1.00  0.00     0.251 C 
ATOM     27  H   UNL A   1      40.596  18.658  25.869  1.00  0.00     0.163 HD
ATOM     28  O   UNL A   1      42.861  19.555  25.893  1.00  0.00    -0.269 OA
BRANCH  26  29
ATOM     29  C   UNL A   1      41.943  21.596  26.629  1.00  0.00     0.039 A 
ATOM     30  C   UNL A   1      42.195  21.867  27.974  1.00  0.00     0.014 A 
ATOM     31  C   UNL A   1      41.864  22.631  25.693  1.00  0.00     0.014 A 
ATOM     32  C   UNL A   1      42.432  23.183  28.367  1.00  0.00     0.010 A 
ATOM     33  C   UNL A   1      42.201  23.923  26.070  1.00  0.00     0.010 A 
ATOM     34  C   UNL A   1      42.476  24.216  27.414  1.00  0.00    -0.014 A 
BRANCH  34  35
ATOM     35  C   UNL A   1      42.790  25.610  27.813  1.00  0.00     0.031 A 
ATOM     36  C   UNL A   1      44.197  26.129  27.684  1.00  0.00     0.074 A 
ATOM     37  C   UNL A   1      41.819  26.391  28.328  1.00  0.00     0.049 A 
ATOM     38  N   UNL A   1      44.677  27.305  27.993  1.00  0.00    -0.248 NA
ATOM     39  C   UNL A   1      45.203  25.187  27.170  1.00  0.00     0.031 C 
ATOM     40  C   UNL A   1      40.432  25.977  28.553  1.00  0.00     0.029 A 
ATOM     41  N   UNL A   1      41.845  27.696  28.747  1.00  0.00    -0.354 N 
ATOM     42  C   UNL A   1      46.039  27.240  27.718  1.00  0.00     0.074 A 
ATOM     43  C   UNL A   1      46.320  25.885  27.299  1.00  0.00     0.031 C 
ATOM     44  C   UNL A   1      39.731  27.021  29.024  1.00  0.00     0.029 A 
ATOM     45  C   UNL A   1      40.625  28.164  29.181  1.00  0.00     0.049 A 
ATOM     46  H   UNL A   1      42.660  28.248  28.740  1.00  0.00     0.167 HD
ATOM     47  C   UNL A   1      46.964  28.230  27.775  1.00  0.00     0.034 A 
ATOM     48  C   UNL A   1      40.269  29.376  29.651  1.00  0.00     0.034 A 
ATOM     49  C   UNL A   1      46.662  29.578  28.190  1.00  0.00     0.049 A 
ATOM     50  C   UNL A   1      41.320  30.455  29.726  1.00  0.00     0.074 A 
ATOM     51  C   UNL A   1      47.505  30.673  28.246  1.00  0.00     0.029 A 
ATOM     52  N   UNL A   1      45.417  30.014  28.629  1.00  0.00    -0.354 N 
ATOM     53  N   UNL A   1      42.593  30.396  29.405  1.00  0.00    -0.248 NA
ATOM     54  C   UNL A   1      40.880  31.769  30.209  1.00  0.00     0.031 C 
ATOM     55  C   UNL A   1      46.792  31.748  28.790  1.00  0.00     0.029 A 
ATOM     56  C   UNL A   1      45.479  31.352  28.987  1.00  0.00     0.049 A 
ATOM     57  H   UNL A   1      44.608  29.454  28.678  1.00  0.00     0.167 HD
ATOM     58  C   UNL A   1      43.097  31.677  29.617  1.00  0.00     0.074 A 
ATOM     59  C   UNL A   1      41.984  32.487  30.069  1.00  0.00     0.031 C 
ATOM     60  C   UNL A   1      44.362  32.144  29.452  1.00  0.00     0.034 A 
BRANCH  47  61
ATOM     61  C   UNL A   1      48.385  27.873  27.403  1.00  0.00     0.023 A 
ATOM     62  C   UNL A   1      48.869  28.035  26.091  1.00  0.00     0.031 A 
ATOM     63  C   UNL A   1      49.259  27.329  28.360  1.00  0.00     0.131 A 
ATOM     64  C   UNL A   1      50.152  27.578  25.754  1.00  0.00     0.055 A 
ATOM     65  C   UNL A   1      50.568  26.962  28.038  1.00  0.00     0.041 A 
ATOM     66  F   UNL A   1      48.852  27.126  29.622  1.00  0.00    -0.206 F 
ATOM     67  C   UNL A   1      51.016  27.069  26.724  1.00  0.00     0.022 A 
BRANCH  64  68
ATOM     68  S   UNL A   1      50.613  27.511  24.000  1.00  0.00     0.124 S 
ATOM     69  O   UNL A   1      50.963  28.904  23.733  1.00  0.00    -0.237 OA
ATOM     70  O   UNL A   1      51.720  26.563  24.000  1.00  0.00    -0.237 OA
ATOM     71  O   UNL A   1      49.393  27.047  23.343  1.00  0.00    -0.744 OA
ENDBRANCH  64  68
ENDBRANCH  47  61
BRANCH  48  72
ATOM     72  C   UNL A   1      38.866  29.642  30.082  1.00  0.00     0.023 A 
ATOM     73  C   UNL A   1      37.951  30.273  29.223  1.00  0.00     0.031 A 
ATOM     74  C   UNL A   1      38.430  29.313  31.378  1.00  0.00     0.131 A 
ATOM     75  C   UNL A   1      36.667  30.601  29.686  1.00  0.00     0.055 A 
ATOM     76  C   UNL A   1      37.133  29.588  31.814  1.00  0.00     0.041 A 
ATOM     77  F   UNL A   1      39.262  28.705  32.240  1.00  0.00    -0.206 F 
ATOM     78  C   UNL A   1      36.247  30.250  30.971  1.00  0.00     0.022 A 
BRANCH  75  79
ATOM     79  S   UNL A   1      35.581  31.583  28.614  1.00  0.00     0.124 S 
ATOM     80  O   UNL A   1      36.508  32.576  28.083  1.00  0.00    -0.237 OA
ATOM     81  O   UNL A   1      35.103  30.580  27.668  1.00  0.00    -0.237 OA
ATOM     82  O   UNL A   1      34.572  32.101  29.535  1.00  0.00    -0.744 OA
ENDBRANCH  75  79
ENDBRANCH  48  72
BRANCH  60  83
ATOM     83  C   UNL A   1      44.587  33.613  29.723  1.00  0.00     0.023 A 
ATOM     84  C   UNL A   1      44.367  34.590  28.736  1.00  0.00     0.031 A 
ATOM     85  C   UNL A   1      45.065  34.037  30.976  1.00  0.00     0.131 A 
ATOM     86  C   UNL A   1      44.703  35.929  28.991  1.00  0.00     0.055 A 
ATOM     87  C   UNL A   1      45.320  35.380  31.250  1.00  0.00     0.041 A 
ATOM     88  F   UNL A   1      45.296  33.149  31.956  1.00  0.00    -0.206 F 
ATOM     89  C   UNL A   1      45.159  36.333  30.248  1.00  0.00     0.022 A 
BRANCH  86  90
ATOM     90  S   UNL A   1      44.667  37.109  27.615  1.00  0.00     0.124 S 
ATOM     91  O   UNL A   1      43.588  36.577  26.788  1.00  0.00    -0.237 OA
ATOM     92  O   UNL A   1      44.386  38.371  28.294  1.00  0.00    -0.237 OA
ATOM     93  O   UNL A   1      46.004  37.001  27.036  1.00  0.00    -0.744 OA
ENDBRANCH  86  90
ENDBRANCH  60  83
ENDBRANCH  34  35
ENDBRANCH  26  29
ENDBRANCH  24  25
ENDBRANCH   1  24
TORSDOF 17
ENDMDL
