MODEL 1
REMARK VINA RESULT:     -11.2      0.000      0.000
REMARK SMILES CC(C)(C)OC(=O)N1CC(Cc2ccc(C(=O)NCCCCNC(=O)c3ccc(-c4c5nc(c(-c6cc(S(=O)(=O)[O-])ccc6F)c6ccc([nH]6)c(-c6cc(S(=O)(=O)[O-])ccc6F)c6nc(c(-c7cc(S(=O)(=O)[O-])ccc7F)c7ccc4[nH]7)C=C6)C=C5)cc3)cc2)C1
REMARK SMILES IDX 20 1 19 2 18 3 16 4 17 5 15 7 12 8 13 9 90 10 14 11 89 12
REMARK SMILES IDX 11 13 10 14 6 15 7 16 8 17 9 18 91 19 5 20 2 21 1 22 3 23
REMARK SMILES IDX 4 24 21 25 22 26 23 27 24 28 25 30 26 31 27 32 88 33 28 34
REMARK SMILES IDX 87 35 29 36 30 37 31 38 81 39 32 40 86 41 80 42 82 43 33 44
REMARK SMILES IDX 85 45 79 46 78 47 34 49 66 50 46 51 65 52 47 53 50 54 64 55
REMARK SMILES IDX 83 56 48 57 49 58 63 60 84 61 51 62 35 63 36 64 44 65 37 66
REMARK SMILES IDX 43 67 45 68 42 69 38 70 39 71 40 72 41 73 67 74 68 75 76 76
REMARK SMILES IDX 69 77 75 78 77 79 74 80 70 81 71 82 72 83 73 84 52 85 53 86
REMARK SMILES IDX 61 87 54 88 60 89 62 90 59 91 55 92 56 93 57 94 58 95
REMARK H PARENT 18 6 23 29 82 48 50 59
REMARK Flexibility Score: inf
ROOT
ATOM      1  C   UNL A   1      40.763  20.874  26.823  1.00  0.00     0.023 C 
ENDROOT
BRANCH   1   2
ATOM      2  C   UNL A   1      39.626  21.598  26.098  1.00  0.00     0.116 C 
BRANCH   2   3
ATOM      3  N   UNL A   1      39.563  22.998  26.480  1.00  0.00    -0.352 N 
ATOM      4  C   UNL A   1      38.549  23.917  26.374  1.00  0.00     0.251 C 
ATOM      5  O   UNL A   1      38.700  25.026  26.882  1.00  0.00    -0.269 OA
ATOM      6  H   UNL A   1      40.391  23.348  26.882  1.00  0.00     0.163 HD
BRANCH   4   7
ATOM      7  C   UNL A   1      37.257  23.602  25.709  1.00  0.00     0.039 A 
ATOM      8  C   UNL A   1      34.739  23.052  24.569  1.00  0.00    -0.048 A 
ATOM      9  C   UNL A   1      34.846  23.346  25.931  1.00  0.00     0.004 A 
ATOM     10  C   UNL A   1      35.896  23.070  23.778  1.00  0.00     0.004 A 
ATOM     11  C   UNL A   1      36.096  23.624  26.494  1.00  0.00     0.014 A 
ATOM     12  C   UNL A   1      37.141  23.361  24.340  1.00  0.00     0.014 A 
BRANCH   8  13
ATOM     13  C   UNL A   1      33.410  22.723  23.940  1.00  0.00     0.042 C 
BRANCH  13  14
ATOM     14  C   UNL A   1      33.263  21.216  23.784  1.00  0.00     0.033 C 
ATOM     15  C   UNL A   1      32.843  18.225  25.205  1.00  0.00     0.410 C 
ATOM     16  O   UNL A   1      31.719  17.743  25.237  1.00  0.00    -0.224 OA
ATOM     17  N   UNL A   1      33.077  19.530  24.911  1.00  0.00    -0.307 N 
ATOM     18  C   UNL A   1      32.148  20.603  24.653  1.00  0.00     0.128 C 
ATOM     19  C   UNL A   1      34.251  20.289  24.540  1.00  0.00     0.128 C 
BRANCH  15  20
ATOM     20  O   UNL A   1      33.993  17.557  25.479  1.00  0.00    -0.444 OA
BRANCH  20  21
ATOM     21  C   UNL A   1      34.270  16.266  24.870  1.00  0.00     0.106 C 
ATOM     22  C   UNL A   1      35.667  15.879  25.379  1.00  0.00     0.056 C 
ATOM     23  C   UNL A   1      34.312  16.427  23.349  1.00  0.00     0.056 C 
ATOM     24  C   UNL A   1      33.293  15.157  25.290  1.00  0.00     0.056 C 
ENDBRANCH  20  21
ENDBRANCH  15  20
ENDBRANCH  13  14
ENDBRANCH   8  13
ENDBRANCH   4   7
ENDBRANCH   2   3
ENDBRANCH   1   2
BRANCH   1  25
ATOM     25  C   UNL A   1      41.189  19.549  26.182  1.00  0.00     0.023 C 
BRANCH  25  26
ATOM     26  C   UNL A   1      42.612  19.099  26.503  1.00  0.00     0.116 C 
BRANCH  26  27
ATOM     27  N   UNL A   1      43.428  18.904  25.316  1.00  0.00    -0.352 N 
ATOM     28  C   UNL A   1      44.162  19.830  24.614  1.00  0.00     0.251 C 
ATOM     29  H   UNL A   1      43.459  17.983  24.968  1.00  0.00     0.163 HD
ATOM     30  O   UNL A   1      44.705  19.504  23.563  1.00  0.00    -0.269 OA
BRANCH  28  31
ATOM     31  C   UNL A   1      44.255  21.222  25.107  1.00  0.00     0.039 A 
ATOM     32  C   UNL A   1      45.065  21.489  26.214  1.00  0.00     0.014 A 
ATOM     33  C   UNL A   1      43.561  22.259  24.477  1.00  0.00     0.014 A 
ATOM     34  C   UNL A   1      45.235  22.806  26.648  1.00  0.00     0.010 A 
ATOM     35  C   UNL A   1      43.772  23.576  24.878  1.00  0.00     0.010 A 
ATOM     36  C   UNL A   1      44.616  23.862  25.961  1.00  0.00    -0.014 A 
BRANCH  36  37
ATOM     37  C   UNL A   1      44.839  25.275  26.361  1.00  0.00     0.031 A 
ATOM     38  C   UNL A   1      46.202  25.891  26.215  1.00  0.00     0.074 A 
ATOM     39  C   UNL A   1      43.831  25.976  26.916  1.00  0.00     0.049 A 
ATOM     40  N   UNL A   1      46.628  27.064  26.605  1.00  0.00    -0.248 NA
ATOM     41  C   UNL A   1      47.229  25.060  25.568  1.00  0.00     0.031 C 
ATOM     42  C   UNL A   1      42.475  25.473  27.141  1.00  0.00     0.029 A 
ATOM     43  N   UNL A   1      43.797  27.255  27.410  1.00  0.00    -0.354 N 
ATOM     44  C   UNL A   1      47.973  27.114  26.259  1.00  0.00     0.074 A 
ATOM     45  C   UNL A   1      48.303  25.829  25.675  1.00  0.00     0.031 C 
ATOM     46  C   UNL A   1      41.740  26.436  27.723  1.00  0.00     0.029 A 
ATOM     47  C   UNL A   1      42.579  27.608  27.946  1.00  0.00     0.049 A 
ATOM     48  H   UNL A   1      44.570  27.864  27.383  1.00  0.00     0.167 HD
ATOM     49  C   UNL A   1      48.848  28.142  26.394  1.00  0.00     0.034 A 
ATOM     50  C   UNL A   1      42.190  28.742  28.560  1.00  0.00     0.034 A 
ATOM     51  C   UNL A   1      48.506  29.417  26.974  1.00  0.00     0.049 A 
ATOM     52  C   UNL A   1      43.181  29.869  28.706  1.00  0.00     0.074 A 
ATOM     53  C   UNL A   1      49.307  30.532  27.150  1.00  0.00     0.029 A 
ATOM     54  N   UNL A   1      47.252  29.750  27.473  1.00  0.00    -0.354 N 
ATOM     55  N   UNL A   1      44.445  29.906  28.354  1.00  0.00    -0.248 NA
ATOM     56  C   UNL A   1      42.689  31.109  29.321  1.00  0.00     0.031 C 
ATOM     57  C   UNL A   1      48.552  31.522  27.790  1.00  0.00     0.029 A 
ATOM     58  C   UNL A   1      47.263  31.046  27.964  1.00  0.00     0.049 A 
ATOM     59  H   UNL A   1      46.470  29.153  27.476  1.00  0.00     0.167 HD
ATOM     60  C   UNL A   1      44.889  31.184  28.679  1.00  0.00     0.074 A 
ATOM     61  C   UNL A   1      43.757  31.888  29.243  1.00  0.00     0.031 C 
ATOM     62  C   UNL A   1      46.122  31.729  28.523  1.00  0.00     0.034 A 
BRANCH  49  63
ATOM     63  C   UNL A   1      50.261  27.907  25.922  1.00  0.00     0.023 A 
ATOM     64  C   UNL A   1      50.646  28.190  24.600  1.00  0.00     0.031 A 
ATOM     65  C   UNL A   1      51.225  27.361  26.788  1.00  0.00     0.131 A 
ATOM     66  C   UNL A   1      51.934  27.855  24.159  1.00  0.00     0.055 A 
ATOM     67  C   UNL A   1      52.530  27.103  26.364  1.00  0.00     0.041 A 
ATOM     68  F   UNL A   1      50.909  27.054  28.055  1.00  0.00    -0.206 F 
ATOM     69  C   UNL A   1      52.887  27.335  25.038  1.00  0.00     0.022 A 
BRANCH  66  70
ATOM     70  S   UNL A   1      52.305  27.987  22.389  1.00  0.00     0.124 S 
ATOM     71  O   UNL A   1      53.755  28.159  22.406  1.00  0.00    -0.237 OA
ATOM     72  O   UNL A   1      51.817  26.715  21.867  1.00  0.00    -0.237 OA
ATOM     73  O   UNL A   1      51.549  29.165  21.967  1.00  0.00    -0.744 OA
ENDBRANCH  66  70
ENDBRANCH  49  63
BRANCH  50  74
ATOM     74  C   UNL A   1      40.809  28.875  29.099  1.00  0.00     0.023 A 
ATOM     75  C   UNL A   1      40.563  28.823  30.479  1.00  0.00     0.031 A 
ATOM     76  C   UNL A   1      39.706  29.005  28.236  1.00  0.00     0.131 A 
ATOM     77  C   UNL A   1      39.244  28.849  30.956  1.00  0.00     0.055 A 
ATOM     78  C   UNL A   1      38.399  29.078  28.717  1.00  0.00     0.041 A 
ATOM     79  F   UNL A   1      39.889  29.069  26.907  1.00  0.00    -0.206 F 
ATOM     80  C   UNL A   1      38.160  28.984  30.085  1.00  0.00     0.022 A 
BRANCH  77  81
ATOM     81  S   UNL A   1      38.958  28.608  32.731  1.00  0.00     0.124 S 
ATOM     82  O   UNL A   1      40.136  27.843  33.122  1.00  0.00    -0.237 OA
ATOM     83  O   UNL A   1      38.896  29.984  33.215  1.00  0.00    -0.237 OA
ATOM     84  O   UNL A   1      37.694  27.875  32.776  1.00  0.00    -0.744 OA
ENDBRANCH  77  81
ENDBRANCH  50  74
BRANCH  62  85
ATOM     85  C   UNL A   1      46.280  33.173  28.924  1.00  0.00     0.023 A 
ATOM     86  C   UNL A   1      46.033  34.220  28.020  1.00  0.00     0.031 A 
ATOM     87  C   UNL A   1      46.703  33.501  30.223  1.00  0.00     0.131 A 
ATOM     88  C   UNL A   1      46.262  35.547  28.412  1.00  0.00     0.055 A 
ATOM     89  C   UNL A   1      46.883  34.825  30.623  1.00  0.00     0.041 A 
ATOM     90  F   UNL A   1      46.952  32.535  31.123  1.00  0.00    -0.206 F 
ATOM     91  C   UNL A   1      46.673  35.856  29.711  1.00  0.00     0.022 A 
BRANCH  88  92
ATOM     92  S   UNL A   1      46.084  36.864  27.178  1.00  0.00     0.124 S 
ATOM     93  O   UNL A   1      44.645  36.862  26.936  1.00  0.00    -0.237 OA
ATOM     94  O   UNL A   1      46.611  38.027  27.884  1.00  0.00    -0.237 OA
ATOM     95  O   UNL A   1      46.902  36.398  26.058  1.00  0.00    -0.744 OA
ENDBRANCH  88  92
ENDBRANCH  62  85
ENDBRANCH  36  37
ENDBRANCH  28  31
ENDBRANCH  26  27
ENDBRANCH  25  26
ENDBRANCH   1  25
TORSDOF 18
ENDMDL
MODEL 2
REMARK VINA RESULT:     -10.9      2.892      8.813
REMARK SMILES CC(C)(C)OC(=O)N1CC(Cc2ccc(C(=O)NCCCCNC(=O)c3ccc(-c4c5nc(c(-c6cc(S(=O)(=O)[O-])ccc6F)c6ccc([nH]6)c(-c6cc(S(=O)(=O)[O-])ccc6F)c6nc(c(-c7cc(S(=O)(=O)[O-])ccc7F)c7ccc4[nH]7)C=C6)C=C5)cc3)cc2)C1
REMARK SMILES IDX 20 1 19 2 18 3 16 4 17 5 15 7 12 8 13 9 90 10 14 11 89 12
REMARK SMILES IDX 11 13 10 14 6 15 7 16 8 17 9 18 91 19 5 20 2 21 1 22 3 23
REMARK SMILES IDX 4 24 21 25 22 26 23 27 24 28 25 30 26 31 27 32 88 33 28 34
REMARK SMILES IDX 87 35 29 36 30 37 31 38 81 39 32 40 86 41 80 42 82 43 33 44
REMARK SMILES IDX 85 45 79 46 78 47 34 49 66 50 46 51 65 52 47 53 50 54 64 55
REMARK SMILES IDX 83 56 48 57 49 58 63 60 84 61 51 62 35 63 36 64 44 65 37 66
REMARK SMILES IDX 43 67 45 68 42 69 38 70 39 71 40 72 41 73 67 74 68 75 76 76
REMARK SMILES IDX 69 77 75 78 77 79 74 80 70 81 71 82 72 83 73 84 52 85 53 86
REMARK SMILES IDX 61 87 54 88 60 89 62 90 59 91 55 92 56 93 57 94 58 95
REMARK H PARENT 18 6 23 29 82 48 50 59
REMARK Flexibility Score: inf
ROOT
ATOM      1  C   UNL A   1      36.735  19.686  24.888  1.00  0.00     0.023 C 
ENDROOT
BRANCH   1   2
ATOM      2  C   UNL A   1      35.432  20.483  24.986  1.00  0.00     0.116 C 
BRANCH   2   3
ATOM      3  N   UNL A   1      34.321  19.634  25.378  1.00  0.00    -0.352 N 
ATOM      4  C   UNL A   1      32.966  19.789  25.218  1.00  0.00     0.251 C 
ATOM      5  O   UNL A   1      32.223  18.864  25.536  1.00  0.00    -0.269 OA
ATOM      6  H   UNL A   1      34.585  18.805  25.839  1.00  0.00     0.163 HD
BRANCH   4   7
ATOM      7  C   UNL A   1      32.371  21.018  24.630  1.00  0.00     0.039 A 
ATOM      8  C   UNL A   1      31.218  23.396  23.652  1.00  0.00    -0.048 A 
ATOM      9  C   UNL A   1      31.113  23.067  25.007  1.00  0.00     0.004 A 
ATOM     10  C   UNL A   1      31.933  22.543  22.800  1.00  0.00     0.004 A 
ATOM     11  C   UNL A   1      31.690  21.889  25.491  1.00  0.00     0.014 A 
ATOM     12  C   UNL A   1      32.520  21.374  23.290  1.00  0.00     0.014 A 
BRANCH   8  13
ATOM     13  C   UNL A   1      30.583  24.645  23.097  1.00  0.00     0.042 C 
BRANCH  13  14
ATOM     14  C   UNL A   1      30.709  25.786  24.096  1.00  0.00     0.033 C 
ATOM     15  C   UNL A   1      31.664  28.917  24.753  1.00  0.00     0.410 C 
ATOM     16  O   UNL A   1      30.821  29.803  24.735  1.00  0.00    -0.224 OA
ATOM     17  N   UNL A   1      31.444  27.680  24.236  1.00  0.00    -0.307 N 
ATOM     18  C   UNL A   1      30.296  27.159  23.534  1.00  0.00     0.128 C 
ATOM     19  C   UNL A   1      32.110  26.402  24.352  1.00  0.00     0.128 C 
BRANCH  15  20
ATOM     20  O   UNL A   1      32.921  29.037  25.253  1.00  0.00    -0.444 OA
BRANCH  20  21
ATOM     21  C   UNL A   1      33.143  29.254  26.672  1.00  0.00     0.106 C 
ATOM     22  C   UNL A   1      32.018  28.476  27.373  1.00  0.00     0.056 C 
ATOM     23  C   UNL A   1      32.996  30.745  26.981  1.00  0.00     0.056 C 
ATOM     24  C   UNL A   1      34.483  28.705  27.185  1.00  0.00     0.056 C 
ENDBRANCH  20  21
ENDBRANCH  15  20
ENDBRANCH  13  14
ENDBRANCH   8  13
ENDBRANCH   4   7
ENDBRANCH   2   3
ENDBRANCH   1   2
BRANCH   1  25
ATOM     25  C   UNL A   1      38.006  20.541  24.850  1.00  0.00     0.023 C 
BRANCH  25  26
ATOM     26  C   UNL A   1      38.797  20.587  26.155  1.00  0.00     0.116 C 
BRANCH  26  27
ATOM     27  N   UNL A   1      39.958  19.713  26.147  1.00  0.00    -0.352 N 
ATOM     28  C   UNL A   1      41.283  20.039  26.313  1.00  0.00     0.251 C 
ATOM     29  H   UNL A   1      39.770  18.757  26.004  1.00  0.00     0.163 HD
ATOM     30  O   UNL A   1      42.144  19.178  26.164  1.00  0.00    -0.269 OA
BRANCH  28  31
ATOM     31  C   UNL A   1      41.664  21.435  26.624  1.00  0.00     0.039 A 
ATOM     32  C   UNL A   1      42.017  21.757  27.937  1.00  0.00     0.014 A 
ATOM     33  C   UNL A   1      41.686  22.416  25.629  1.00  0.00     0.014 A 
ATOM     34  C   UNL A   1      42.459  23.047  28.240  1.00  0.00     0.010 A 
ATOM     35  C   UNL A   1      42.176  23.687  25.922  1.00  0.00     0.010 A 
ATOM     36  C   UNL A   1      42.574  24.012  27.227  1.00  0.00    -0.014 A 
BRANCH  36  37
ATOM     37  C   UNL A   1      43.109  25.368  27.513  1.00  0.00     0.031 A 
ATOM     38  C   UNL A   1      42.234  26.395  28.175  1.00  0.00     0.074 A 
ATOM     39  C   UNL A   1      44.354  25.690  27.114  1.00  0.00     0.049 A 
ATOM     40  N   UNL A   1      42.472  27.659  28.409  1.00  0.00    -0.248 NA
ATOM     41  C   UNL A   1      40.902  25.941  28.604  1.00  0.00     0.031 C 
ATOM     42  C   UNL A   1      45.283  24.787  26.431  1.00  0.00     0.029 A 
ATOM     43  N   UNL A   1      45.047  26.869  27.209  1.00  0.00    -0.354 N 
ATOM     44  C   UNL A   1      41.320  28.157  29.007  1.00  0.00     0.074 A 
ATOM     45  C   UNL A   1      40.365  27.068  29.049  1.00  0.00     0.031 C 
ATOM     46  C   UNL A   1      46.426  25.445  26.174  1.00  0.00     0.029 A 
ATOM     47  C   UNL A   1      46.299  26.823  26.638  1.00  0.00     0.049 A 
ATOM     48  H   UNL A   1      44.684  27.675  27.644  1.00  0.00     0.167 HD
ATOM     49  C   UNL A   1      41.086  29.401  29.495  1.00  0.00     0.034 A 
ATOM     50  C   UNL A   1      47.230  27.785  26.494  1.00  0.00     0.034 A 
ATOM     51  C   UNL A   1      42.046  30.476  29.450  1.00  0.00     0.049 A 
ATOM     52  C   UNL A   1      46.946  29.162  27.038  1.00  0.00     0.074 A 
ATOM     53  C   UNL A   1      41.921  31.771  29.925  1.00  0.00     0.029 A 
ATOM     54  N   UNL A   1      43.317  30.380  28.897  1.00  0.00    -0.354 N 
ATOM     55  N   UNL A   1      45.857  29.610  27.619  1.00  0.00    -0.248 NA
ATOM     56  C   UNL A   1      48.020  30.157  26.916  1.00  0.00     0.031 C 
ATOM     57  C   UNL A   1      43.097  32.467  29.624  1.00  0.00     0.029 A 
ATOM     58  C   UNL A   1      43.979  31.592  29.010  1.00  0.00     0.049 A 
ATOM     59  H   UNL A   1      43.693  29.569  28.486  1.00  0.00     0.167 HD
ATOM     60  C   UNL A   1      46.129  30.932  27.958  1.00  0.00     0.074 A 
ATOM     61  C   UNL A   1      47.485  31.203  27.529  1.00  0.00     0.031 C 
ATOM     62  C   UNL A   1      45.331  31.842  28.573  1.00  0.00     0.034 A 
BRANCH  49  63
ATOM     63  C   UNL A   1      39.727  29.657  30.098  1.00  0.00     0.023 A 
ATOM     64  C   UNL A   1      38.758  30.416  29.419  1.00  0.00     0.031 A 
ATOM     65  C   UNL A   1      39.409  29.174  31.379  1.00  0.00     0.131 A 
ATOM     66  C   UNL A   1      37.548  30.734  30.053  1.00  0.00     0.055 A 
ATOM     67  C   UNL A   1      38.171  29.428  31.973  1.00  0.00     0.041 A 
ATOM     68  F   UNL A   1      40.302  28.460  32.082  1.00  0.00    -0.206 F 
ATOM     69  C   UNL A   1      37.237  30.226  31.316  1.00  0.00     0.022 A 
BRANCH  66  70
ATOM     70  S   UNL A   1      36.442  31.930  29.256  1.00  0.00     0.124 S 
ATOM     71  O   UNL A   1      35.212  31.746  30.022  1.00  0.00    -0.237 OA
ATOM     72  O   UNL A   1      37.140  33.194  29.461  1.00  0.00    -0.237 OA
ATOM     73  O   UNL A   1      36.380  31.469  27.870  1.00  0.00    -0.744 OA
ENDBRANCH  66  70
ENDBRANCH  49  63
BRANCH  50  74
ATOM     74  C   UNL A   1      48.513  27.498  25.795  1.00  0.00     0.023 A 
ATOM     75  C   UNL A   1      48.634  27.665  24.408  1.00  0.00     0.031 A 
ATOM     76  C   UNL A   1      49.625  27.002  26.501  1.00  0.00     0.131 A 
ATOM     77  C   UNL A   1      49.821  27.291  23.759  1.00  0.00     0.055 A 
ATOM     78  C   UNL A   1      50.819  26.676  25.858  1.00  0.00     0.041 A 
ATOM     79  F   UNL A   1      49.562  26.833  27.831  1.00  0.00    -0.206 F 
ATOM     80  C   UNL A   1      50.917  26.805  24.476  1.00  0.00     0.022 A 
BRANCH  77  81
ATOM     81  S   UNL A   1      49.878  27.361  21.948  1.00  0.00     0.124 S 
ATOM     82  O   UNL A   1      49.352  28.695  21.683  1.00  0.00    -0.237 OA
ATOM     83  O   UNL A   1      51.301  27.168  21.684  1.00  0.00    -0.237 OA
ATOM     84  O   UNL A   1      49.014  26.256  21.537  1.00  0.00    -0.744 OA
ENDBRANCH  77  81
ENDBRANCH  50  74
BRANCH  62  85
ATOM     85  C   UNL A   1      45.936  33.191  28.859  1.00  0.00     0.023 A 
ATOM     86  C   UNL A   1      45.811  34.261  27.956  1.00  0.00     0.031 A 
ATOM     87  C   UNL A   1      46.664  33.400  30.043  1.00  0.00     0.131 A 
ATOM     88  C   UNL A   1      46.451  35.480  28.227  1.00  0.00     0.055 A 
ATOM     89  C   UNL A   1      47.258  34.630  30.330  1.00  0.00     0.041 A 
ATOM     90  F   UNL A   1      46.812  32.409  30.937  1.00  0.00    -0.206 F 
ATOM     91  C   UNL A   1      47.163  35.674  29.414  1.00  0.00     0.022 A 
BRANCH  88  92
ATOM     92  S   UNL A   1      46.401  36.789  26.973  1.00  0.00     0.124 S 
ATOM     93  O   UNL A   1      46.932  36.105  25.798  1.00  0.00    -0.237 OA
ATOM     94  O   UNL A   1      44.982  37.125  26.929  1.00  0.00    -0.237 OA
ATOM     95  O   UNL A   1      47.266  37.829  27.529  1.00  0.00    -0.744 OA
ENDBRANCH  88  92
ENDBRANCH  62  85
ENDBRANCH  36  37
ENDBRANCH  28  31
ENDBRANCH  26  27
ENDBRANCH  25  26
ENDBRANCH   1  25
TORSDOF 18
ENDMDL
MODEL 3
REMARK VINA RESULT:     -10.7      2.620      4.799
REMARK SMILES CC(C)(C)OC(=O)N1CC(Cc2ccc(C(=O)NCCCCNC(=O)c3ccc(-c4c5nc(c(-c6cc(S(=O)(=O)[O-])ccc6F)c6ccc([nH]6)c(-c6cc(S(=O)(=O)[O-])ccc6F)c6nc(c(-c7cc(S(=O)(=O)[O-])ccc7F)c7ccc4[nH]7)C=C6)C=C5)cc3)cc2)C1
REMARK SMILES IDX 20 1 19 2 18 3 16 4 17 5 15 7 12 8 13 9 90 10 14 11 89 12
REMARK SMILES IDX 11 13 10 14 6 15 7 16 8 17 9 18 91 19 5 20 2 21 1 22 3 23
REMARK SMILES IDX 4 24 21 25 22 26 23 27 24 28 25 30 26 31 27 32 88 33 28 34
REMARK SMILES IDX 87 35 29 36 30 37 31 38 81 39 32 40 86 41 80 42 82 43 33 44
REMARK SMILES IDX 85 45 79 46 78 47 34 49 66 50 46 51 65 52 47 53 50 54 64 55
REMARK SMILES IDX 83 56 48 57 49 58 63 60 84 61 51 62 35 63 36 64 44 65 37 66
REMARK SMILES IDX 43 67 45 68 42 69 38 70 39 71 40 72 41 73 67 74 68 75 76 76
REMARK SMILES IDX 69 77 75 78 77 79 74 80 70 81 71 82 72 83 73 84 52 85 53 86
REMARK SMILES IDX 61 87 54 88 60 89 62 90 59 91 55 92 56 93 57 94 58 95
REMARK H PARENT 18 6 23 29 82 48 50 59
REMARK Flexibility Score: inf
ROOT
ATOM      1  C   UNL A   1      36.712  19.592  25.234  1.00  0.00     0.023 C 
ENDROOT
BRANCH   1   2
ATOM      2  C   UNL A   1      35.397  20.330  24.973  1.00  0.00     0.116 C 
BRANCH   2   3
ATOM      3  N   UNL A   1      34.259  19.434  25.078  1.00  0.00    -0.352 N 
ATOM      4  C   UNL A   1      32.924  19.640  24.831  1.00  0.00     0.251 C 
ATOM      5  O   UNL A   1      32.158  18.679  24.882  1.00  0.00    -0.269 OA
ATOM      6  H   UNL A   1      34.483  18.523  25.377  1.00  0.00     0.163 HD
BRANCH   4   7
ATOM      7  C   UNL A   1      32.379  20.972  24.462  1.00  0.00     0.039 A 
ATOM      8  C   UNL A   1      31.316  23.522  23.903  1.00  0.00    -0.048 A 
ATOM      9  C   UNL A   1      31.137  22.945  25.163  1.00  0.00     0.004 A 
ATOM     10  C   UNL A   1      32.060  22.828  22.939  1.00  0.00     0.004 A 
ATOM     11  C   UNL A   1      31.670  21.681  25.440  1.00  0.00     0.014 A 
ATOM     12  C   UNL A   1      32.603  21.573  23.223  1.00  0.00     0.014 A 
BRANCH   8  13
ATOM     13  C   UNL A   1      30.731  24.870  23.567  1.00  0.00     0.042 C 
BRANCH  13  14
ATOM     14  C   UNL A   1      31.806  25.944  23.656  1.00  0.00     0.033 C 
ATOM     15  C   UNL A   1      33.409  28.236  25.480  1.00  0.00     0.410 C 
ATOM     16  O   UNL A   1      34.488  27.940  25.975  1.00  0.00    -0.224 OA
ATOM     17  N   UNL A   1      32.557  27.311  24.967  1.00  0.00    -0.307 N 
ATOM     18  C   UNL A   1      32.658  25.871  24.938  1.00  0.00     0.128 C 
ATOM     19  C   UNL A   1      31.397  27.372  24.106  1.00  0.00     0.128 C 
BRANCH  15  20
ATOM     20  O   UNL A   1      32.900  29.491  25.393  1.00  0.00    -0.444 OA
BRANCH  20  21
ATOM     21  C   UNL A   1      32.321  30.144  26.556  1.00  0.00     0.106 C 
ATOM     22  C   UNL A   1      33.512  30.779  27.289  1.00  0.00     0.056 C 
ATOM     23  C   UNL A   1      31.678  29.086  27.456  1.00  0.00     0.056 C 
ATOM     24  C   UNL A   1      31.328  31.265  26.211  1.00  0.00     0.056 C 
ENDBRANCH  20  21
ENDBRANCH  15  20
ENDBRANCH  13  14
ENDBRANCH   8  13
ENDBRANCH   4   7
ENDBRANCH   2   3
ENDBRANCH   1   2
BRANCH   1  25
ATOM     25  C   UNL A   1      37.963  20.312  24.720  1.00  0.00     0.023 C 
BRANCH  25  26
ATOM     26  C   UNL A   1      39.026  20.603  25.776  1.00  0.00     0.116 C 
BRANCH  26  27
ATOM     27  N   UNL A   1      40.036  19.562  25.868  1.00  0.00    -0.352 N 
ATOM     28  C   UNL A   1      41.377  19.687  26.140  1.00  0.00     0.251 C 
ATOM     29  H   UNL A   1      39.716  18.644  25.715  1.00  0.00     0.163 HD
ATOM     30  O   UNL A   1      42.106  18.702  26.067  1.00  0.00    -0.269 OA
BRANCH  28  31
ATOM     31  C   UNL A   1      41.941  21.013  26.475  1.00  0.00     0.039 A 
ATOM     32  C   UNL A   1      42.313  21.866  25.432  1.00  0.00     0.014 A 
ATOM     33  C   UNL A   1      42.089  21.421  27.803  1.00  0.00     0.014 A 
ATOM     34  C   UNL A   1      42.771  23.154  25.719  1.00  0.00     0.010 A 
ATOM     35  C   UNL A   1      42.495  22.723  28.086  1.00  0.00     0.010 A 
ATOM     36  C   UNL A   1      42.832  23.604  27.047  1.00  0.00    -0.014 A 
BRANCH  36  37
ATOM     37  C   UNL A   1      43.247  24.993  27.371  1.00  0.00     0.031 A 
ATOM     38  C   UNL A   1      44.705  25.358  27.375  1.00  0.00     0.074 A 
ATOM     39  C   UNL A   1      42.317  25.900  27.727  1.00  0.00     0.049 A 
ATOM     40  N   UNL A   1      45.278  26.477  27.736  1.00  0.00    -0.248 NA
ATOM     41  C   UNL A   1      45.643  24.312  26.940  1.00  0.00     0.031 C 
ATOM     42  C   UNL A   1      40.876  25.650  27.793  1.00  0.00     0.029 A 
ATOM     43  N   UNL A   1      42.446  27.208  28.117  1.00  0.00    -0.354 N 
ATOM     44  C   UNL A   1      46.644  26.271  27.579  1.00  0.00     0.074 A 
ATOM     45  C   UNL A   1      46.813  24.900  27.142  1.00  0.00     0.031 C 
ATOM     46  C   UNL A   1      40.255  26.772  28.195  1.00  0.00     0.029 A 
ATOM     47  C   UNL A   1      41.252  27.806  28.449  1.00  0.00     0.049 A 
ATOM     48  H   UNL A   1      43.312  27.676  28.156  1.00  0.00     0.167 HD
ATOM     49  C   UNL A   1      47.662  27.148  27.763  1.00  0.00     0.034 A 
ATOM     50  C   UNL A   1      40.995  29.042  28.919  1.00  0.00     0.034 A 
ATOM     51  C   UNL A   1      47.479  28.512  28.196  1.00  0.00     0.049 A 
ATOM     52  C   UNL A   1      42.142  29.999  29.123  1.00  0.00     0.074 A 
ATOM     53  C   UNL A   1      48.436  29.492  28.402  1.00  0.00     0.029 A 
ATOM     54  N   UNL A   1      46.251  29.093  28.487  1.00  0.00    -0.354 N 
ATOM     55  N   UNL A   1      43.427  29.793  28.950  1.00  0.00    -0.248 NA
ATOM     56  C   UNL A   1      41.803  31.355  29.571  1.00  0.00     0.031 C 
ATOM     57  C   UNL A   1      47.793  30.649  28.856  1.00  0.00     0.029 A 
ATOM     58  C   UNL A   1      46.428  30.410  28.880  1.00  0.00     0.049 A 
ATOM     59  H   UNL A   1      45.382  28.636  28.423  1.00  0.00     0.167 HD
ATOM     60  C   UNL A   1      44.045  31.005  29.242  1.00  0.00     0.074 A 
ATOM     61  C   UNL A   1      42.992  31.937  29.588  1.00  0.00     0.031 C 
ATOM     62  C   UNL A   1      45.364  31.323  29.223  1.00  0.00     0.034 A 
BRANCH  49  63
ATOM     63  C   UNL A   1      49.060  26.641  27.513  1.00  0.00     0.023 A 
ATOM     64  C   UNL A   1      49.780  27.018  26.366  1.00  0.00     0.031 A 
ATOM     65  C   UNL A   1      49.666  25.741  28.407  1.00  0.00     0.131 A 
ATOM     66  C   UNL A   1      51.030  26.441  26.103  1.00  0.00     0.055 A 
ATOM     67  C   UNL A   1      50.946  25.230  28.179  1.00  0.00     0.041 A 
ATOM     68  F   UNL A   1      49.019  25.331  29.508  1.00  0.00    -0.206 F 
ATOM     69  C   UNL A   1      51.630  25.567  27.014  1.00  0.00     0.022 A 
BRANCH  66  70
ATOM     70  S   UNL A   1      51.804  26.747  24.492  1.00  0.00     0.124 S 
ATOM     71  O   UNL A   1      52.414  28.056  24.705  1.00  0.00    -0.237 OA
ATOM     72  O   UNL A   1      52.727  25.624  24.365  1.00  0.00    -0.237 OA
ATOM     73  O   UNL A   1      50.676  26.736  23.562  1.00  0.00    -0.744 OA
ENDBRANCH  66  70
ENDBRANCH  49  63
BRANCH  50  74
ATOM     74  C   UNL A   1      39.601  29.452  29.248  1.00  0.00     0.023 A 
ATOM     75  C   UNL A   1      39.177  29.571  30.579  1.00  0.00     0.031 A 
ATOM     76  C   UNL A   1      38.657  29.681  28.230  1.00  0.00     0.131 A 
ATOM     77  C   UNL A   1      37.834  29.859  30.863  1.00  0.00     0.055 A 
ATOM     78  C   UNL A   1      37.333  30.013  28.516  1.00  0.00     0.041 A 
ATOM     79  F   UNL A   1      39.016  29.587  26.939  1.00  0.00    -0.206 F 
ATOM     80  C   UNL A   1      36.911  30.089  29.839  1.00  0.00     0.022 A 
BRANCH  77  81
ATOM     81  S   UNL A   1      37.288  29.837  32.591  1.00  0.00     0.124 S 
ATOM     82  O   UNL A   1      37.346  28.414  32.905  1.00  0.00    -0.237 OA
ATOM     83  O   UNL A   1      38.293  30.677  33.235  1.00  0.00    -0.237 OA
ATOM     84  O   UNL A   1      35.944  30.409  32.531  1.00  0.00    -0.744 OA
ENDBRANCH  77  81
ENDBRANCH  50  74
BRANCH  62  85
ATOM     85  C   UNL A   1      45.722  32.752  29.536  1.00  0.00     0.023 A 
ATOM     86  C   UNL A   1      45.776  33.736  28.534  1.00  0.00     0.031 A 
ATOM     87  C   UNL A   1      46.032  33.126  30.855  1.00  0.00     0.131 A 
ATOM     88  C   UNL A   1      46.184  35.038  28.858  1.00  0.00     0.055 A 
ATOM     89  C   UNL A   1      46.391  34.435  31.179  1.00  0.00     0.041 A 
ATOM     90  F   UNL A   1      45.995  32.223  31.848  1.00  0.00    -0.206 F 
ATOM     91  C   UNL A   1      46.479  35.396  30.176  1.00  0.00     0.022 A 
BRANCH  88  92
ATOM     92  S   UNL A   1      46.393  36.244  27.520  1.00  0.00     0.124 S 
ATOM     93  O   UNL A   1      47.322  35.553  26.630  1.00  0.00    -0.237 OA
ATOM     94  O   UNL A   1      45.030  36.399  27.023  1.00  0.00    -0.237 OA
ATOM     95  O   UNL A   1      46.941  37.418  28.198  1.00  0.00    -0.744 OA
ENDBRANCH  88  92
ENDBRANCH  62  85
ENDBRANCH  36  37
ENDBRANCH  28  31
ENDBRANCH  26  27
ENDBRANCH  25  26
ENDBRANCH   1  25
TORSDOF 18
ENDMDL
