MODEL 1
REMARK VINA RESULT:     -12.1      0.000      0.000
REMARK SMILES Cc1cc(C)c2c(O[C@@H](C)C(=O)NCCCCNC(=O)c3ccc(-c4c5nc(c(-c6cc(S(=O)(=O)[O-])ccc6F)c6ccc([nH]6)c(-c6cc(S(=O)(=O)[O-])ccc6F)c6nc(c(-c7cc(S(=O)(=O)[O-])ccc7F)c7ccc4[nH]7)C=C6)C=C5)cc3)nsc2n1
REMARK SMILES IDX 16 1 15 2 14 3 13 4 11 5 12 6 9 8 10 9 8 10 7 11 1 12 2 13
REMARK SMILES IDX 3 14 87 15 4 16 86 17 5 18 6 19 85 20 84 21 17 22 18 23
REMARK SMILES IDX 19 24 20 26 21 27 22 28 83 29 23 30 82 31 24 32 25 33 26 34
REMARK SMILES IDX 76 35 27 36 81 37 75 38 77 39 28 40 80 41 74 42 73 43 29 45
REMARK SMILES IDX 61 46 41 47 60 48 42 49 45 50 59 51 78 52 43 53 44 54 58 56
REMARK SMILES IDX 79 57 46 58 30 59 31 60 39 61 32 62 38 63 40 64 37 65 33 66
REMARK SMILES IDX 34 67 35 68 36 69 62 70 63 71 71 72 64 73 70 74 72 75 69 76
REMARK SMILES IDX 65 77 66 78 67 79 68 80 47 81 48 82 56 83 49 84 55 85 57 86
REMARK SMILES IDX 54 87 50 88 51 89 52 90 53 91
REMARK H PARENT 13 7 18 25 77 44 45 55
REMARK Flexibility Score: inf
ROOT
ATOM      1  C   UNL A   1      36.672  20.638  25.120  1.00  0.00     0.023 C 
ENDROOT
BRANCH   1   2
ATOM      2  C   UNL A   1      35.829  21.838  25.602  1.00  0.00     0.023 C 
BRANCH   2   3
ATOM      3  C   UNL A   1      34.721  21.459  26.592  1.00  0.00     0.116 C 
BRANCH   3   4
ATOM      4  N   UNL A   1      33.623  22.387  26.743  1.00  0.00    -0.353 N 
ATOM      5  C   UNL A   1      32.559  22.550  25.893  1.00  0.00     0.260 C 
ATOM      6  O   UNL A   1      31.453  22.727  26.419  1.00  0.00    -0.271 OA
ATOM      7  H   UNL A   1      33.641  22.963  27.541  1.00  0.00     0.163 HD
BRANCH   5   8
ATOM      8  C   UNL A   1      32.721  22.681  24.343  1.00  0.00     0.260 C 
ATOM      9  C   UNL A   1      32.546  21.401  23.517  1.00  0.00     0.064 C 
BRANCH   8  10
ATOM     10  O   UNL A   1      33.475  23.662  23.706  1.00  0.00    -0.463 OA
BRANCH  10  11
ATOM     11  C   UNL A   1      32.985  24.754  23.080  1.00  0.00     0.235 A 
ATOM     12  C   UNL A   1      29.065  28.863  22.779  1.00  0.00     0.067 C 
ATOM     13  C   UNL A   1      30.142  27.848  23.019  1.00  0.00     0.039 A 
ATOM     14  C   UNL A   1      30.466  27.463  24.310  1.00  0.00     0.027 A 
ATOM     15  N   UNL A   1      30.766  27.362  21.942  1.00  0.00    -0.240 NA
ATOM     16  C   UNL A   1      31.432  26.458  24.562  1.00  0.00    -0.034 A 
ATOM     17  C   UNL A   1      31.697  26.429  22.191  1.00  0.00     0.147 A 
ATOM     18  C   UNL A   1      31.623  26.147  26.027  1.00  0.00     0.045 C 
ATOM     19  C   UNL A   1      32.088  25.872  23.420  1.00  0.00     0.078 A 
ATOM     20  S   UNL A   1      32.553  25.745  20.899  1.00  0.00    -0.012 S 
ATOM     21  N   UNL A   1      33.359  24.648  21.804  1.00  0.00    -0.153 NA
ENDBRANCH  10  11
ENDBRANCH   8  10
ENDBRANCH   5   8
ENDBRANCH   3   4
ENDBRANCH   2   3
ENDBRANCH   1   2
BRANCH   1  22
ATOM     22  C   UNL A   1      38.183  20.862  25.174  1.00  0.00     0.116 C 
BRANCH  22  23
ATOM     23  N   UNL A   1      39.008  19.689  25.421  1.00  0.00    -0.352 N 
ATOM     24  C   UNL A   1      40.337  19.661  25.838  1.00  0.00     0.251 C 
ATOM     25  H   UNL A   1      38.578  18.815  25.278  1.00  0.00     0.163 HD
ATOM     26  O   UNL A   1      40.986  18.630  25.752  1.00  0.00    -0.269 OA
BRANCH  24  27
ATOM     27  C   UNL A   1      40.957  20.886  26.420  1.00  0.00     0.039 A 
ATOM     28  C   UNL A   1      41.727  21.769  25.652  1.00  0.00     0.014 A 
ATOM     29  C   UNL A   1      40.837  21.108  27.790  1.00  0.00     0.014 A 
ATOM     30  C   UNL A   1      42.301  22.894  26.263  1.00  0.00     0.010 A 
ATOM     31  C   UNL A   1      41.340  22.234  28.386  1.00  0.00     0.010 A 
ATOM     32  C   UNL A   1      42.096  23.118  27.631  1.00  0.00    -0.014 A 
BRANCH  32  33
ATOM     33  C   UNL A   1      42.427  24.374  28.294  1.00  0.00     0.031 A 
ATOM     34  C   UNL A   1      41.395  25.426  28.063  1.00  0.00     0.074 A 
ATOM     35  C   UNL A   1      43.319  24.452  29.307  1.00  0.00     0.049 A 
ATOM     36  N   UNL A   1      41.504  26.512  27.374  1.00  0.00    -0.248 NA
ATOM     37  C   UNL A   1      40.008  25.143  28.489  1.00  0.00     0.031 C 
ATOM     38  C   UNL A   1      44.135  23.381  29.888  1.00  0.00     0.029 A 
ATOM     39  N   UNL A   1      43.596  25.503  30.126  1.00  0.00    -0.354 N 
ATOM     40  C   UNL A   1      40.278  27.158  27.493  1.00  0.00     0.074 A 
ATOM     41  C   UNL A   1      39.345  26.161  27.939  1.00  0.00     0.031 C 
ATOM     42  C   UNL A   1      44.639  23.787  31.078  1.00  0.00     0.029 A 
ATOM     43  C   UNL A   1      44.297  25.185  31.291  1.00  0.00     0.049 A 
ATOM     44  H   UNL A   1      43.322  26.424  29.912  1.00  0.00     0.167 HD
ATOM     45  C   UNL A   1      40.180  28.516  27.496  1.00  0.00     0.034 A 
ATOM     46  C   UNL A   1      44.537  26.010  32.352  1.00  0.00     0.034 A 
ATOM     47  C   UNL A   1      41.413  29.124  27.055  1.00  0.00     0.049 A 
ATOM     48  C   UNL A   1      44.368  27.396  31.839  1.00  0.00     0.074 A 
ATOM     49  C   UNL A   1      42.167  29.045  25.900  1.00  0.00     0.029 A 
ATOM     50  N   UNL A   1      42.274  29.590  28.026  1.00  0.00    -0.354 N 
ATOM     51  N   UNL A   1      45.125  27.911  30.908  1.00  0.00    -0.248 NA
ATOM     52  C   UNL A   1      43.056  28.010  31.982  1.00  0.00     0.031 C 
ATOM     53  C   UNL A   1      43.518  28.960  26.352  1.00  0.00     0.029 A 
ATOM     54  C   UNL A   1      43.525  29.093  27.743  1.00  0.00     0.049 A 
ATOM     55  H   UNL A   1      42.037  30.173  28.783  1.00  0.00     0.167 HD
ATOM     56  C   UNL A   1      44.253  28.595  30.075  1.00  0.00     0.074 A 
ATOM     57  C   UNL A   1      43.003  28.686  30.830  1.00  0.00     0.031 C 
ATOM     58  C   UNL A   1      44.522  28.757  28.744  1.00  0.00     0.034 A 
BRANCH  45  59
ATOM     59  C   UNL A   1      39.105  29.299  28.213  1.00  0.00     0.023 A 
ATOM     60  C   UNL A   1      39.072  29.242  29.619  1.00  0.00     0.031 A 
ATOM     61  C   UNL A   1      37.980  29.896  27.595  1.00  0.00     0.131 A 
ATOM     62  C   UNL A   1      37.959  29.721  30.334  1.00  0.00     0.055 A 
ATOM     63  C   UNL A   1      36.908  30.431  28.313  1.00  0.00     0.041 A 
ATOM     64  F   UNL A   1      37.805  29.908  26.269  1.00  0.00    -0.206 F 
ATOM     65  C   UNL A   1      36.881  30.326  29.691  1.00  0.00     0.022 A 
BRANCH  62  66
ATOM     66  S   UNL A   1      37.884  29.429  32.120  1.00  0.00     0.124 S 
ATOM     67  O   UNL A   1      38.069  27.984  32.193  1.00  0.00    -0.237 OA
ATOM     68  O   UNL A   1      38.989  30.247  32.606  1.00  0.00    -0.237 OA
ATOM     69  O   UNL A   1      36.551  29.905  32.485  1.00  0.00    -0.744 OA
ENDBRANCH  62  66
ENDBRANCH  45  59
BRANCH  46  70
ATOM     70  C   UNL A   1      44.554  25.694  33.818  1.00  0.00     0.023 A 
ATOM     71  C   UNL A   1      43.517  26.091  34.700  1.00  0.00     0.031 A 
ATOM     72  C   UNL A   1      45.470  24.746  34.325  1.00  0.00     0.131 A 
ATOM     73  C   UNL A   1      43.425  25.538  36.005  1.00  0.00     0.055 A 
ATOM     74  C   UNL A   1      45.372  24.202  35.611  1.00  0.00     0.041 A 
ATOM     75  F   UNL A   1      46.445  24.239  33.555  1.00  0.00    -0.206 F 
ATOM     76  C   UNL A   1      44.341  24.587  36.452  1.00  0.00     0.022 A 
BRANCH  73  77
ATOM     77  S   UNL A   1      42.031  25.955  37.111  1.00  0.00     0.124 S 
ATOM     78  O   UNL A   1      41.270  24.710  37.127  1.00  0.00    -0.237 OA
ATOM     79  O   UNL A   1      42.704  26.320  38.351  1.00  0.00    -0.237 OA
ATOM     80  O   UNL A   1      41.373  27.068  36.422  1.00  0.00    -0.744 OA
ENDBRANCH  73  77
ENDBRANCH  46  70
BRANCH  58  81
ATOM     81  C   UNL A   1      45.903  28.383  28.234  1.00  0.00     0.023 A 
ATOM     82  C   UNL A   1      46.308  27.081  27.847  1.00  0.00     0.031 A 
ATOM     83  C   UNL A   1      46.796  29.438  27.989  1.00  0.00     0.131 A 
ATOM     84  C   UNL A   1      47.569  26.884  27.240  1.00  0.00     0.055 A 
ATOM     85  C   UNL A   1      48.030  29.243  27.371  1.00  0.00     0.041 A 
ATOM     86  F   UNL A   1      46.458  30.699  28.307  1.00  0.00    -0.206 F 
ATOM     87  C   UNL A   1      48.422  27.963  26.995  1.00  0.00     0.022 A 
BRANCH  84  88
ATOM     88  S   UNL A   1      48.113  25.215  26.735  1.00  0.00     0.124 S 
ATOM     89  O   UNL A   1      49.479  25.141  27.241  1.00  0.00    -0.237 OA
ATOM     90  O   UNL A   1      47.141  24.345  27.391  1.00  0.00    -0.237 OA
ATOM     91  O   UNL A   1      48.008  25.247  25.274  1.00  0.00    -0.744 OA
ENDBRANCH  84  88
ENDBRANCH  58  81
ENDBRANCH  32  33
ENDBRANCH  24  27
ENDBRANCH  22  23
ENDBRANCH   1  22
TORSDOF 16
ENDMDL
MODEL 2
REMARK VINA RESULT:     -11.9      5.024      9.989
REMARK SMILES Cc1cc(C)c2c(O[C@@H](C)C(=O)NCCCCNC(=O)c3ccc(-c4c5nc(c(-c6cc(S(=O)(=O)[O-])ccc6F)c6ccc([nH]6)c(-c6cc(S(=O)(=O)[O-])ccc6F)c6nc(c(-c7cc(S(=O)(=O)[O-])ccc7F)c7ccc4[nH]7)C=C6)C=C5)cc3)nsc2n1
REMARK SMILES IDX 16 1 15 2 14 3 13 4 11 5 12 6 9 8 10 9 8 10 7 11 1 12 2 13
REMARK SMILES IDX 3 14 87 15 4 16 86 17 5 18 6 19 85 20 84 21 17 22 18 23
REMARK SMILES IDX 19 24 20 26 21 27 22 28 83 29 23 30 82 31 24 32 25 33 26 34
REMARK SMILES IDX 76 35 27 36 81 37 75 38 77 39 28 40 80 41 74 42 73 43 29 45
REMARK SMILES IDX 61 46 41 47 60 48 42 49 45 50 59 51 78 52 43 53 44 54 58 56
REMARK SMILES IDX 79 57 46 58 30 59 31 60 39 61 32 62 38 63 40 64 37 65 33 66
REMARK SMILES IDX 34 67 35 68 36 69 62 70 63 71 71 72 64 73 70 74 72 75 69 76
REMARK SMILES IDX 65 77 66 78 67 79 68 80 47 81 48 82 56 83 49 84 55 85 57 86
REMARK SMILES IDX 54 87 50 88 51 89 52 90 53 91
REMARK H PARENT 13 7 18 25 77 44 45 55
REMARK Flexibility Score: inf
ROOT
ATOM      1  C   UNL A   1      36.657  31.003  32.524  1.00  0.00     0.023 C 
ENDROOT
BRANCH   1   2
ATOM      2  C   UNL A   1      37.864  31.125  33.478  1.00  0.00     0.023 C 
BRANCH   2   3
ATOM      3  C   UNL A   1      38.993  32.013  32.940  1.00  0.00     0.116 C 
BRANCH   3   4
ATOM      4  N   UNL A   1      39.589  31.634  31.680  1.00  0.00    -0.353 N 
ATOM      5  C   UNL A   1      39.698  32.408  30.553  1.00  0.00     0.260 C 
ATOM      6  O   UNL A   1      40.760  32.325  29.925  1.00  0.00    -0.271 OA
ATOM      7  H   UNL A   1      39.958  30.723  31.625  1.00  0.00     0.163 HD
BRANCH   5   8
ATOM      8  C   UNL A   1      38.504  33.233  29.970  1.00  0.00     0.260 C 
ATOM      9  C   UNL A   1      38.630  34.760  30.011  1.00  0.00     0.064 C 
BRANCH   8  10
ATOM     10  O   UNL A   1      37.189  32.779  29.898  1.00  0.00    -0.463 OA
BRANCH  10  11
ATOM     11  C   UNL A   1      36.087  33.558  29.853  1.00  0.00     0.235 A 
ATOM     12  C   UNL A   1      31.688  35.957  32.544  1.00  0.00     0.067 C 
ATOM     13  C   UNL A   1      32.954  35.419  31.944  1.00  0.00     0.039 A 
ATOM     14  C   UNL A   1      34.099  35.306  32.715  1.00  0.00     0.027 A 
ATOM     15  N   UNL A   1      32.915  35.082  30.653  1.00  0.00    -0.240 NA
ATOM     16  C   UNL A   1      35.288  34.739  32.193  1.00  0.00    -0.034 A 
ATOM     17  C   UNL A   1      34.052  34.569  30.160  1.00  0.00     0.147 A 
ATOM     18  C   UNL A   1      36.419  34.663  33.192  1.00  0.00     0.045 C 
ATOM     19  C   UNL A   1      35.268  34.313  30.817  1.00  0.00     0.078 A 
ATOM     20  S   UNL A   1      34.118  34.108  28.531  1.00  0.00    -0.012 S 
ATOM     21  N   UNL A   1      35.619  33.464  28.607  1.00  0.00    -0.153 NA
ENDBRANCH  10  11
ENDBRANCH   8  10
ENDBRANCH   5   8
ENDBRANCH   3   4
ENDBRANCH   2   3
ENDBRANCH   1   2
BRANCH   1  22
ATOM     22  C   UNL A   1      36.656  29.742  31.660  1.00  0.00     0.116 C 
BRANCH  22  23
ATOM     23  N   UNL A   1      35.911  29.806  30.412  1.00  0.00    -0.352 N 
ATOM     24  C   UNL A   1      36.419  29.722  29.117  1.00  0.00     0.251 C 
ATOM     25  H   UNL A   1      34.936  29.922  30.491  1.00  0.00     0.163 HD
ATOM     26  O   UNL A   1      35.729  30.054  28.165  1.00  0.00    -0.269 OA
BRANCH  24  27
ATOM     27  C   UNL A   1      37.795  29.195  28.894  1.00  0.00     0.039 A 
ATOM     28  C   UNL A   1      38.569  29.576  27.790  1.00  0.00     0.014 A 
ATOM     29  C   UNL A   1      38.288  28.227  29.765  1.00  0.00     0.014 A 
ATOM     30  C   UNL A   1      39.850  29.028  27.624  1.00  0.00     0.010 A 
ATOM     31  C   UNL A   1      39.561  27.732  29.649  1.00  0.00     0.010 A 
ATOM     32  C   UNL A   1      40.337  28.110  28.565  1.00  0.00    -0.014 A 
BRANCH  32  33
ATOM     33  C   UNL A   1      41.732  27.688  28.623  1.00  0.00     0.031 A 
ATOM     34  C   UNL A   1      41.971  26.422  27.871  1.00  0.00     0.074 A 
ATOM     35  C   UNL A   1      42.737  28.530  28.952  1.00  0.00     0.049 A 
ATOM     36  N   UNL A   1      42.276  25.260  28.346  1.00  0.00    -0.248 NA
ATOM     37  C   UNL A   1      41.642  26.396  26.431  1.00  0.00     0.031 C 
ATOM     38  C   UNL A   1      42.652  29.939  29.349  1.00  0.00     0.029 A 
ATOM     39  N   UNL A   1      44.080  28.331  28.879  1.00  0.00    -0.354 N 
ATOM     40  C   UNL A   1      42.418  24.429  27.239  1.00  0.00     0.074 A 
ATOM     41  C   UNL A   1      41.758  25.096  26.152  1.00  0.00     0.031 C 
ATOM     42  C   UNL A   1      43.879  30.509  29.271  1.00  0.00     0.029 A 
ATOM     43  C   UNL A   1      44.861  29.486  28.947  1.00  0.00     0.049 A 
ATOM     44  H   UNL A   1      44.475  27.434  28.785  1.00  0.00     0.167 HD
ATOM     45  C   UNL A   1      43.308  23.397  27.226  1.00  0.00     0.034 A 
ATOM     46  C   UNL A   1      46.204  29.581  28.718  1.00  0.00     0.034 A 
ATOM     47  C   UNL A   1      43.800  23.122  28.555  1.00  0.00     0.049 A 
ATOM     48  C   UNL A   1      46.745  28.205  28.880  1.00  0.00     0.074 A 
ATOM     49  C   UNL A   1      43.202  22.770  29.750  1.00  0.00     0.029 A 
ATOM     50  N   UNL A   1      45.029  23.644  28.897  1.00  0.00    -0.354 N 
ATOM     51  N   UNL A   1      46.700  27.547  30.007  1.00  0.00    -0.248 NA
ATOM     52  C   UNL A   1      46.854  27.381  27.685  1.00  0.00     0.031 C 
ATOM     53  C   UNL A   1      43.861  23.566  30.734  1.00  0.00     0.029 A 
ATOM     54  C   UNL A   1      44.886  24.280  30.108  1.00  0.00     0.049 A 
ATOM     55  H   UNL A   1      45.858  23.574  28.371  1.00  0.00     0.167 HD
ATOM     56  C   UNL A   1      46.337  26.256  29.655  1.00  0.00     0.074 A 
ATOM     57  C   UNL A   1      46.522  26.194  28.204  1.00  0.00     0.031 C 
ATOM     58  C   UNL A   1      45.636  25.455  30.513  1.00  0.00     0.034 A 
BRANCH  45  59
ATOM     59  C   UNL A   1      43.988  22.866  25.986  1.00  0.00     0.023 A 
ATOM     60  C   UNL A   1      43.835  21.501  25.680  1.00  0.00     0.031 A 
ATOM     61  C   UNL A   1      44.962  23.560  25.228  1.00  0.00     0.131 A 
ATOM     62  C   UNL A   1      44.641  20.885  24.706  1.00  0.00     0.055 A 
ATOM     63  C   UNL A   1      45.713  22.960  24.215  1.00  0.00     0.041 A 
ATOM     64  F   UNL A   1      45.313  24.825  25.488  1.00  0.00    -0.206 F 
ATOM     65  C   UNL A   1      45.572  21.608  23.962  1.00  0.00     0.022 A 
BRANCH  62  66
ATOM     66  S   UNL A   1      44.543  19.087  24.508  1.00  0.00     0.124 S 
ATOM     67  O   UNL A   1      45.716  18.642  25.251  1.00  0.00    -0.237 OA
ATOM     68  O   UNL A   1      43.247  18.789  25.108  1.00  0.00    -0.237 OA
ATOM     69  O   UNL A   1      44.614  18.902  23.060  1.00  0.00    -0.744 OA
ENDBRANCH  62  66
ENDBRANCH  45  59
BRANCH  46  70
ATOM     70  C   UNL A   1      46.979  30.672  28.042  1.00  0.00     0.023 A 
ATOM     71  C   UNL A   1      46.362  31.672  27.247  1.00  0.00     0.031 A 
ATOM     72  C   UNL A   1      48.325  30.909  28.400  1.00  0.00     0.131 A 
ATOM     73  C   UNL A   1      47.078  32.836  26.863  1.00  0.00     0.055 A 
ATOM     74  C   UNL A   1      49.025  32.060  28.021  1.00  0.00     0.041 A 
ATOM     75  F   UNL A   1      48.986  30.071  29.214  1.00  0.00    -0.206 F 
ATOM     76  C   UNL A   1      48.400  33.035  27.262  1.00  0.00     0.022 A 
BRANCH  73  77
ATOM     77  S   UNL A   1      46.263  34.184  25.936  1.00  0.00     0.124 S 
ATOM     78  O   UNL A   1      47.346  34.669  25.086  1.00  0.00    -0.237 OA
ATOM     79  O   UNL A   1      45.169  33.495  25.264  1.00  0.00    -0.237 OA
ATOM     80  O   UNL A   1      45.845  35.114  26.987  1.00  0.00    -0.744 OA
ENDBRANCH  73  77
ENDBRANCH  46  70
BRANCH  58  81
ATOM     81  C   UNL A   1      45.463  25.914  31.952  1.00  0.00     0.023 A 
ATOM     82  C   UNL A   1      44.308  26.546  32.477  1.00  0.00     0.031 A 
ATOM     83  C   UNL A   1      46.470  25.547  32.859  1.00  0.00     0.131 A 
ATOM     84  C   UNL A   1      44.202  26.784  33.866  1.00  0.00     0.055 A 
ATOM     85  C   UNL A   1      46.353  25.764  34.232  1.00  0.00     0.041 A 
ATOM     86  F   UNL A   1      47.576  24.919  32.426  1.00  0.00    -0.206 F 
ATOM     87  C   UNL A   1      45.218  26.386  34.740  1.00  0.00     0.022 A 
BRANCH  84  88
ATOM     88  S   UNL A   1      42.725  27.599  34.565  1.00  0.00     0.124 S 
ATOM     89  O   UNL A   1      43.286  28.677  35.370  1.00  0.00    -0.237 OA
ATOM     90  O   UNL A   1      41.987  28.008  33.374  1.00  0.00    -0.237 OA
ATOM     91  O   UNL A   1      42.082  26.535  35.340  1.00  0.00    -0.744 OA
ENDBRANCH  84  88
ENDBRANCH  58  81
ENDBRANCH  32  33
ENDBRANCH  24  27
ENDBRANCH  22  23
ENDBRANCH   1  22
TORSDOF 16
ENDMDL
MODEL 3
REMARK VINA RESULT:     -11.9      3.302      8.551
REMARK SMILES Cc1cc(C)c2c(O[C@@H](C)C(=O)NCCCCNC(=O)c3ccc(-c4c5nc(c(-c6cc(S(=O)(=O)[O-])ccc6F)c6ccc([nH]6)c(-c6cc(S(=O)(=O)[O-])ccc6F)c6nc(c(-c7cc(S(=O)(=O)[O-])ccc7F)c7ccc4[nH]7)C=C6)C=C5)cc3)nsc2n1
REMARK SMILES IDX 16 1 15 2 14 3 13 4 11 5 12 6 9 8 10 9 8 10 7 11 1 12 2 13
REMARK SMILES IDX 3 14 87 15 4 16 86 17 5 18 6 19 85 20 84 21 17 22 18 23
REMARK SMILES IDX 19 24 20 26 21 27 22 28 83 29 23 30 82 31 24 32 25 33 26 34
REMARK SMILES IDX 76 35 27 36 81 37 75 38 77 39 28 40 80 41 74 42 73 43 29 45
REMARK SMILES IDX 61 46 41 47 60 48 42 49 45 50 59 51 78 52 43 53 44 54 58 56
REMARK SMILES IDX 79 57 46 58 30 59 31 60 39 61 32 62 38 63 40 64 37 65 33 66
REMARK SMILES IDX 34 67 35 68 36 69 62 70 63 71 71 72 64 73 70 74 72 75 69 76
REMARK SMILES IDX 65 77 66 78 67 79 68 80 47 81 48 82 56 83 49 84 55 85 57 86
REMARK SMILES IDX 54 87 50 88 51 89 52 90 53 91
REMARK H PARENT 13 7 18 25 77 44 45 55
REMARK Flexibility Score: inf
ROOT
ATOM      1  C   UNL A   1      34.116  28.843  27.065  1.00  0.00     0.023 C 
ENDROOT
BRANCH   1   2
ATOM      2  C   UNL A   1      33.926  29.149  25.563  1.00  0.00     0.023 C 
BRANCH   2   3
ATOM      3  C   UNL A   1      32.584  28.672  24.997  1.00  0.00     0.116 C 
BRANCH   3   4
ATOM      4  N   UNL A   1      32.617  27.913  23.767  1.00  0.00    -0.353 N 
ATOM      5  C   UNL A   1      32.455  26.558  23.630  1.00  0.00     0.260 C 
ATOM      6  O   UNL A   1      31.786  26.176  22.663  1.00  0.00    -0.271 OA
ATOM      7  H   UNL A   1      32.772  28.423  22.940  1.00  0.00     0.163 HD
BRANCH   5   8
ATOM      8  C   UNL A   1      33.200  25.517  24.528  1.00  0.00     0.260 C 
ATOM      9  C   UNL A   1      32.772  25.438  25.999  1.00  0.00     0.064 C 
BRANCH   8  10
ATOM     10  O   UNL A   1      34.490  25.047  24.292  1.00  0.00    -0.463 OA
BRANCH  10  11
ATOM     11  C   UNL A   1      34.878  23.754  24.327  1.00  0.00     0.235 A 
ATOM     12  C   UNL A   1      33.512  18.257  24.833  1.00  0.00     0.067 C 
ATOM     13  C   UNL A   1      33.768  19.708  24.553  1.00  0.00     0.039 A 
ATOM     14  C   UNL A   1      32.811  20.476  23.910  1.00  0.00     0.027 A 
ATOM     15  N   UNL A   1      34.950  20.198  24.935  1.00  0.00    -0.240 NA
ATOM     16  C   UNL A   1      32.998  21.863  23.694  1.00  0.00    -0.034 A 
ATOM     17  C   UNL A   1      35.130  21.507  24.704  1.00  0.00     0.147 A 
ATOM     18  C   UNL A   1      31.831  22.539  23.014  1.00  0.00     0.045 C 
ATOM     19  C   UNL A   1      34.241  22.439  24.142  1.00  0.00     0.078 A 
ATOM     20  S   UNL A   1      36.595  22.236  25.146  1.00  0.00    -0.012 S 
ATOM     21  N   UNL A   1      36.137  23.758  24.765  1.00  0.00    -0.153 NA
ENDBRANCH  10  11
ENDBRANCH   8  10
ENDBRANCH   5   8
ENDBRANCH   3   4
ENDBRANCH   2   3
ENDBRANCH   1   2
BRANCH   1  22
ATOM     22  C   UNL A   1      35.451  29.309  27.644  1.00  0.00     0.116 C 
BRANCH  22  23
ATOM     23  N   UNL A   1      35.431  29.805  29.012  1.00  0.00    -0.352 N 
ATOM     24  C   UNL A   1      36.397  29.612  29.997  1.00  0.00     0.251 C 
ATOM     25  H   UNL A   1      34.645  30.340  29.271  1.00  0.00     0.163 HD
ATOM     26  O   UNL A   1      36.138  29.852  31.166  1.00  0.00    -0.269 OA
BRANCH  24  27
ATOM     27  C   UNL A   1      37.760  29.141  29.617  1.00  0.00     0.039 A 
ATOM     28  C   UNL A   1      38.446  29.660  28.511  1.00  0.00     0.014 A 
ATOM     29  C   UNL A   1      38.328  28.092  30.335  1.00  0.00     0.014 A 
ATOM     30  C   UNL A   1      39.718  29.162  28.193  1.00  0.00     0.010 A 
ATOM     31  C   UNL A   1      39.594  27.639  30.072  1.00  0.00     0.010 A 
ATOM     32  C   UNL A   1      40.284  28.154  28.985  1.00  0.00    -0.014 A 
BRANCH  32  33
ATOM     33  C   UNL A   1      41.684  27.757  28.894  1.00  0.00     0.031 A 
ATOM     34  C   UNL A   1      41.864  26.487  28.133  1.00  0.00     0.074 A 
ATOM     35  C   UNL A   1      42.703  28.620  29.104  1.00  0.00     0.049 A 
ATOM     36  N   UNL A   1      42.241  25.336  28.582  1.00  0.00    -0.248 NA
ATOM     37  C   UNL A   1      41.381  26.439  26.738  1.00  0.00     0.031 C 
ATOM     38  C   UNL A   1      42.636  30.032  29.496  1.00  0.00     0.029 A 
ATOM     39  N   UNL A   1      44.035  28.444  28.887  1.00  0.00    -0.354 N 
ATOM     40  C   UNL A   1      42.277  24.495  27.474  1.00  0.00     0.074 A 
ATOM     41  C   UNL A   1      41.490  25.139  26.459  1.00  0.00     0.031 C 
ATOM     42  C   UNL A   1      43.836  30.622  29.279  1.00  0.00     0.029 A 
ATOM     43  C   UNL A   1      44.797  29.613  28.859  1.00  0.00     0.049 A 
ATOM     44  H   UNL A   1      44.433  27.553  28.759  1.00  0.00     0.167 HD
ATOM     45  C   UNL A   1      43.178  23.479  27.374  1.00  0.00     0.034 A 
ATOM     46  C   UNL A   1      46.105  29.729  28.484  1.00  0.00     0.034 A 
ATOM     47  C   UNL A   1      43.818  23.228  28.643  1.00  0.00     0.049 A 
ATOM     48  C   UNL A   1      46.685  28.364  28.599  1.00  0.00     0.074 A 
ATOM     49  C   UNL A   1      43.360  22.879  29.900  1.00  0.00     0.029 A 
ATOM     50  N   UNL A   1      45.067  23.775  28.845  1.00  0.00    -0.354 N 
ATOM     51  N   UNL A   1      46.776  27.718  29.730  1.00  0.00    -0.248 NA
ATOM     52  C   UNL A   1      46.679  27.529  27.407  1.00  0.00     0.031 C 
ATOM     53  C   UNL A   1      44.108  23.696  30.799  1.00  0.00     0.029 A 
ATOM     54  C   UNL A   1      45.045  24.421  30.059  1.00  0.00     0.049 A 
ATOM     55  H   UNL A   1      45.835  23.714  28.232  1.00  0.00     0.167 HD
ATOM     56  C   UNL A   1      46.400  26.418  29.432  1.00  0.00     0.074 A 
ATOM     57  C   UNL A   1      46.428  26.343  27.970  1.00  0.00     0.031 C 
ATOM     58  C   UNL A   1      45.812  25.614  30.369  1.00  0.00     0.034 A 
BRANCH  45  59
ATOM     59  C   UNL A   1      43.730  22.946  26.072  1.00  0.00     0.023 A 
ATOM     60  C   UNL A   1      43.654  21.560  25.839  1.00  0.00     0.031 A 
ATOM     61  C   UNL A   1      44.531  23.679  25.163  1.00  0.00     0.131 A 
ATOM     62  C   UNL A   1      44.372  20.965  24.786  1.00  0.00     0.055 A 
ATOM     63  C   UNL A   1      45.188  23.093  24.079  1.00  0.00     0.041 A 
ATOM     64  F   UNL A   1      44.805  24.979  25.327  1.00  0.00    -0.206 F 
ATOM     65  C   UNL A   1      45.130  21.724  23.896  1.00  0.00     0.022 A 
BRANCH  62  66
ATOM     66  S   UNL A   1      44.402  19.158  24.668  1.00  0.00     0.124 S 
ATOM     67  O   UNL A   1      44.564  18.957  23.233  1.00  0.00    -0.237 OA
ATOM     68  O   UNL A   1      45.551  18.821  25.501  1.00  0.00    -0.237 OA
ATOM     69  O   UNL A   1      43.104  18.761  25.210  1.00  0.00    -0.744 OA
ENDBRANCH  62  66
ENDBRANCH  45  59
BRANCH  46  70
ATOM     70  C   UNL A   1      46.781  30.826  27.717  1.00  0.00     0.023 A 
ATOM     71  C   UNL A   1      46.063  31.789  26.962  1.00  0.00     0.031 A 
ATOM     72  C   UNL A   1      48.146  31.109  27.946  1.00  0.00     0.131 A 
ATOM     73  C   UNL A   1      46.706  32.964  26.491  1.00  0.00     0.055 A 
ATOM     74  C   UNL A   1      48.772  32.271  27.481  1.00  0.00     0.041 A 
ATOM     75  F   UNL A   1      48.904  30.310  28.712  1.00  0.00    -0.206 F 
ATOM     76  C   UNL A   1      48.052  33.210  26.762  1.00  0.00     0.022 A 
BRANCH  73  77
ATOM     77  S   UNL A   1      45.768  34.266  25.614  1.00  0.00     0.124 S 
ATOM     78  O   UNL A   1      46.792  34.854  24.756  1.00  0.00    -0.237 OA
ATOM     79  O   UNL A   1      44.717  33.509  24.946  1.00  0.00    -0.237 OA
ATOM     80  O   UNL A   1      45.302  35.134  26.697  1.00  0.00    -0.744 OA
ENDBRANCH  73  77
ENDBRANCH  46  70
BRANCH  58  81
ATOM     81  C   UNL A   1      45.788  26.086  31.813  1.00  0.00     0.023 A 
ATOM     82  C   UNL A   1      44.676  26.675  32.464  1.00  0.00     0.031 A 
ATOM     83  C   UNL A   1      46.910  25.776  32.599  1.00  0.00     0.131 A 
ATOM     84  C   UNL A   1      44.723  26.928  33.853  1.00  0.00     0.055 A 
ATOM     85  C   UNL A   1      46.944  26.008  33.974  1.00  0.00     0.041 A 
ATOM     86  F   UNL A   1      47.984  25.190  32.045  1.00  0.00    -0.206 F 
ATOM     87  C   UNL A   1      45.850  26.587  34.606  1.00  0.00     0.022 A 
BRANCH  84  88
ATOM     88  S   UNL A   1      43.303  27.689  34.714  1.00  0.00     0.124 S 
ATOM     89  O   UNL A   1      43.210  29.011  34.106  1.00  0.00    -0.237 OA
ATOM     90  O   UNL A   1      42.210  26.768  34.411  1.00  0.00    -0.237 OA
ATOM     91  O   UNL A   1      43.716  27.694  36.119  1.00  0.00    -0.744 OA
ENDBRANCH  84  88
ENDBRANCH  58  81
ENDBRANCH  32  33
ENDBRANCH  24  27
ENDBRANCH  22  23
ENDBRANCH   1  22
TORSDOF 16
ENDMDL
