MODEL 1
REMARK VINA RESULT:     -11.9      0.000      0.000
REMARK SMILES O=C(NCCCCNC(=O)c1ccc(Cl)nc1NC[C@@H]1C[N@@H+]2CCC[C@@H]2CO1)c1ccc(-c2c3nc(c(-c4cc(S(=O)(=O)[O-])ccc4F)c4ccc([nH]4)c(-c4cc(S(=O)(=O)[O-])ccc4F)c4nc(c(-c5cc(S(=O)(=O)[O-])ccc5F)c5ccc2[nH]5)C=C4)C=C3)cc1
REMARK SMILES IDX 5 1 4 2 3 3 1 4 2 5 29 7 30 8 91 9 31 10 90 11 32 12 33 13
REMARK SMILES IDX 34 14 84 15 35 16 89 17 83 18 85 19 36 20 88 21 82 22 81 23
REMARK SMILES IDX 37 25 69 26 49 27 68 28 50 29 53 30 67 31 86 32 51 33 52 34
REMARK SMILES IDX 66 36 87 37 54 38 38 39 39 40 47 41 40 42 46 43 48 44 45 45
REMARK SMILES IDX 41 46 42 47 43 48 44 49 70 50 71 51 79 52 72 53 78 54 80 55
REMARK SMILES IDX 77 56 73 57 74 58 75 59 76 60 55 61 56 62 64 63 57 64 63 65
REMARK SMILES IDX 65 66 62 67 58 68 59 69 60 70 61 71 6 72 7 73 8 74 9 75
REMARK SMILES IDX 10 77 11 78 12 79 17 80 13 81 16 82 14 83 15 84 18 85 19 87
REMARK SMILES IDX 20 88 21 89 28 90 22 91 27 92 23 93 26 94 24 96 25 97
REMARK H PARENT 3 6 85 24 53 35 8 76 18 86 22 95
REMARK Flexibility Score: inf
ROOT
ATOM      1  C   UNL A   1      37.916  19.798  24.811  1.00  0.00     0.023 C 
ENDROOT
BRANCH   1   2
ATOM      2  C   UNL A   1      38.936  20.238  25.854  1.00  0.00     0.116 C 
BRANCH   2   3
ATOM      3  N   UNL A   1      40.057  19.320  25.978  1.00  0.00    -0.352 N 
ATOM      4  O   UNL A   1      42.220  18.709  26.164  1.00  0.00    -0.269 OA
ATOM      5  C   UNL A   1      41.381  19.606  26.212  1.00  0.00     0.251 C 
ATOM      6  H   UNL A   1      39.838  18.366  25.882  1.00  0.00     0.163 HD
BRANCH   5   7
ATOM      7  C   UNL A   1      41.792  20.998  26.497  1.00  0.00     0.039 A 
ATOM      8  C   UNL A   1      41.896  21.451  27.815  1.00  0.00     0.014 A 
ATOM      9  C   UNL A   1      42.072  21.861  25.433  1.00  0.00     0.014 A 
ATOM     10  C   UNL A   1      42.157  22.793  28.065  1.00  0.00     0.010 A 
ATOM     11  C   UNL A   1      42.413  23.192  25.691  1.00  0.00     0.010 A 
ATOM     12  C   UNL A   1      42.440  23.674  27.008  1.00  0.00    -0.014 A 
BRANCH  12  13
ATOM     13  C   UNL A   1      42.855  25.066  27.318  1.00  0.00     0.031 A 
ATOM     14  C   UNL A   1      41.922  26.026  28.001  1.00  0.00     0.074 A 
ATOM     15  C   UNL A   1      44.104  25.444  26.986  1.00  0.00     0.049 A 
ATOM     16  N   UNL A   1      42.133  27.272  28.344  1.00  0.00    -0.248 NA
ATOM     17  C   UNL A   1      40.578  25.533  28.339  1.00  0.00     0.031 C 
ATOM     18  C   UNL A   1      45.087  24.592  26.309  1.00  0.00     0.029 A 
ATOM     19  N   UNL A   1      44.771  26.627  27.174  1.00  0.00    -0.354 N 
ATOM     20  C   UNL A   1      40.949  27.719  28.920  1.00  0.00     0.074 A 
ATOM     21  C   UNL A   1      40.014  26.613  28.864  1.00  0.00     0.031 C 
ATOM     22  C   UNL A   1      46.237  25.267  26.172  1.00  0.00     0.029 A 
ATOM     23  C   UNL A   1      46.057  26.618  26.684  1.00  0.00     0.049 A 
ATOM     24  H   UNL A   1      44.368  27.408  27.618  1.00  0.00     0.167 HD
ATOM     25  C   UNL A   1      40.675  28.938  29.447  1.00  0.00     0.034 A 
ATOM     26  C   UNL A   1      46.979  27.597  26.624  1.00  0.00     0.034 A 
ATOM     27  C   UNL A   1      41.626  30.024  29.503  1.00  0.00     0.049 A 
ATOM     28  C   UNL A   1      46.631  28.948  27.188  1.00  0.00     0.074 A 
ATOM     29  C   UNL A   1      41.470  31.276  30.071  1.00  0.00     0.029 A 
ATOM     30  N   UNL A   1      42.905  29.993  28.961  1.00  0.00    -0.354 N 
ATOM     31  N   UNL A   1      45.518  29.337  27.766  1.00  0.00    -0.248 NA
ATOM     32  C   UNL A   1      47.660  29.989  27.090  1.00  0.00     0.031 C 
ATOM     33  C   UNL A   1      42.624  32.024  29.814  1.00  0.00     0.029 A 
ATOM     34  C   UNL A   1      43.531  31.218  29.146  1.00  0.00     0.049 A 
ATOM     35  H   UNL A   1      43.309  29.215  28.512  1.00  0.00     0.167 HD
ATOM     36  C   UNL A   1      45.721  30.668  28.113  1.00  0.00     0.074 A 
ATOM     37  C   UNL A   1      47.071  31.003  27.707  1.00  0.00     0.031 C 
ATOM     38  C   UNL A   1      44.868  31.539  28.711  1.00  0.00     0.034 A 
BRANCH  25  39
ATOM     39  C   UNL A   1      39.279  29.189  29.963  1.00  0.00     0.023 A 
ATOM     40  C   UNL A   1      38.286  29.787  29.171  1.00  0.00     0.031 A 
ATOM     41  C   UNL A   1      38.932  28.787  31.266  1.00  0.00     0.131 A 
ATOM     42  C   UNL A   1      37.003  30.001  29.701  1.00  0.00     0.055 A 
ATOM     43  C   UNL A   1      37.638  28.948  31.767  1.00  0.00     0.041 A 
ATOM     44  F   UNL A   1      39.846  28.226  32.075  1.00  0.00    -0.206 F 
ATOM     45  C   UNL A   1      36.667  29.565  30.985  1.00  0.00     0.022 A 
BRANCH  42  46
ATOM     46  S   UNL A   1      35.797  30.934  28.718  1.00  0.00     0.124 S 
ATOM     47  O   UNL A   1      35.053  29.859  28.064  1.00  0.00    -0.237 OA
ATOM     48  O   UNL A   1      35.072  31.685  29.735  1.00  0.00    -0.237 OA
ATOM     49  O   UNL A   1      36.630  31.737  27.825  1.00  0.00    -0.744 OA
ENDBRANCH  42  46
ENDBRANCH  25  39
BRANCH  26  50
ATOM     50  C   UNL A   1      48.293  27.357  25.962  1.00  0.00     0.023 A 
ATOM     51  C   UNL A   1      48.455  27.538  24.581  1.00  0.00     0.031 A 
ATOM     52  C   UNL A   1      49.398  26.898  26.702  1.00  0.00     0.131 A 
ATOM     53  C   UNL A   1      49.678  27.213  23.973  1.00  0.00     0.055 A 
ATOM     54  C   UNL A   1      50.630  26.633  26.102  1.00  0.00     0.041 A 
ATOM     55  F   UNL A   1      49.299  26.709  28.027  1.00  0.00    -0.206 F 
ATOM     56  C   UNL A   1      50.770  26.776  24.725  1.00  0.00     0.022 A 
BRANCH  53  57
ATOM     57  S   UNL A   1      49.788  27.270  22.163  1.00  0.00     0.124 S 
ATOM     58  O   UNL A   1      51.166  26.848  21.935  1.00  0.00    -0.237 OA
ATOM     59  O   UNL A   1      48.753  26.320  21.770  1.00  0.00    -0.237 OA
ATOM     60  O   UNL A   1      49.503  28.667  21.850  1.00  0.00    -0.744 OA
ENDBRANCH  53  57
ENDBRANCH  26  50
BRANCH  38  61
ATOM     61  C   UNL A   1      45.397  32.927  28.969  1.00  0.00     0.023 A 
ATOM     62  C   UNL A   1      45.245  33.955  28.023  1.00  0.00     0.031 A 
ATOM     63  C   UNL A   1      46.093  33.213  30.155  1.00  0.00     0.131 A 
ATOM     64  C   UNL A   1      45.836  35.207  28.251  1.00  0.00     0.055 A 
ATOM     65  C   UNL A   1      46.628  34.478  30.404  1.00  0.00     0.041 A 
ATOM     66  F   UNL A   1      46.268  32.265  31.090  1.00  0.00    -0.206 F 
ATOM     67  C   UNL A   1      46.513  35.478  29.443  1.00  0.00     0.022 A 
BRANCH  64  68
ATOM     68  S   UNL A   1      45.789  36.446  26.928  1.00  0.00     0.124 S 
ATOM     69  O   UNL A   1      46.280  35.685  25.783  1.00  0.00    -0.237 OA
ATOM     70  O   UNL A   1      44.377  36.811  26.891  1.00  0.00    -0.237 OA
ATOM     71  O   UNL A   1      46.688  37.494  27.407  1.00  0.00    -0.744 OA
ENDBRANCH  64  68
ENDBRANCH  38  61
ENDBRANCH  12  13
ENDBRANCH   5   7
ENDBRANCH   2   3
ENDBRANCH   1   2
BRANCH   1  72
ATOM     72  C   UNL A   1      36.500  20.337  25.009  1.00  0.00     0.023 C 
BRANCH  72  73
ATOM     73  C   UNL A   1      36.399  21.844  25.226  1.00  0.00     0.116 C 
BRANCH  73  74
ATOM     74  N   UNL A   1      36.072  22.563  24.008  1.00  0.00    -0.352 N 
ATOM     75  C   UNL A   1      34.850  23.010  23.567  1.00  0.00     0.255 C 
ATOM     76  H   UNL A   1      36.834  22.759  23.414  1.00  0.00     0.163 HD
ATOM     77  O   UNL A   1      34.730  23.481  22.440  1.00  0.00    -0.269 OA
BRANCH  75  78
ATOM     78  C   UNL A   1      33.675  22.923  24.452  1.00  0.00     0.082 A 
ATOM     79  C   UNL A   1      32.934  21.737  24.497  1.00  0.00     0.021 A 
ATOM     80  C   UNL A   1      33.319  24.010  25.268  1.00  0.00     0.140 A 
ATOM     81  C   UNL A   1      31.798  21.690  25.290  1.00  0.00     0.042 A 
ATOM     82  N   UNL A   1      32.204  23.964  26.032  1.00  0.00    -0.219 NA
ATOM     83  C   UNL A   1      31.481  22.823  26.017  1.00  0.00     0.131 A 
ATOM     84  Cl  UNL A   1      30.062  22.867  26.982  1.00  0.00    -0.062 Cl
BRANCH  80  85
ATOM     85  N   UNL A   1      34.055  25.184  25.219  1.00  0.00    -0.367 N 
ATOM     86  H   UNL A   1      35.011  25.134  24.989  1.00  0.00     0.162 HD
BRANCH  85  87
ATOM     87  C   UNL A   1      33.471  26.489  25.496  1.00  0.00     0.152 C 
BRANCH  87  88
ATOM     88  C   UNL A   1      33.709  27.458  24.310  1.00  0.00     0.192 C 
ATOM     89  C   UNL A   1      33.007  28.828  24.547  1.00  0.00     0.296 C 
ATOM     90  O   UNL A   1      33.350  26.832  23.060  1.00  0.00    -0.364 OA
ATOM     91  N   UNL A   1      31.901  29.222  23.673  1.00  0.00    -0.328 N 
ATOM     92  C   UNL A   1      31.938  26.817  22.861  1.00  0.00     0.225 C 
ATOM     93  C   UNL A   1      30.749  29.823  24.331  1.00  0.00     0.262 C 
ATOM     94  C   UNL A   1      31.440  28.245  22.676  1.00  0.00     0.210 C 
ATOM     95  H   UNL A   1      32.391  29.950  23.153  1.00  0.00     0.348 HD
ATOM     96  C   UNL A   1      29.652  29.707  23.287  1.00  0.00     0.068 C 
ATOM     97  C   UNL A   1      29.916  28.340  22.685  1.00  0.00     0.073 C 
ENDBRANCH  87  88
ENDBRANCH  85  87
ENDBRANCH  80  85
ENDBRANCH  75  78
ENDBRANCH  73  74
ENDBRANCH  72  73
ENDBRANCH   1  72
TORSDOF 17
ENDMDL
MODEL 2
REMARK VINA RESULT:     -11.9      5.894     11.320
REMARK SMILES O=C(NCCCCNC(=O)c1ccc(Cl)nc1NC[C@@H]1C[N@@H+]2CCC[C@@H]2CO1)c1ccc(-c2c3nc(c(-c4cc(S(=O)(=O)[O-])ccc4F)c4ccc([nH]4)c(-c4cc(S(=O)(=O)[O-])ccc4F)c4nc(c(-c5cc(S(=O)(=O)[O-])ccc5F)c5ccc2[nH]5)C=C4)C=C3)cc1
REMARK SMILES IDX 5 1 4 2 3 3 1 4 2 5 29 7 30 8 91 9 31 10 90 11 32 12 33 13
REMARK SMILES IDX 34 14 84 15 35 16 89 17 83 18 85 19 36 20 88 21 82 22 81 23
REMARK SMILES IDX 37 25 69 26 49 27 68 28 50 29 53 30 67 31 86 32 51 33 52 34
REMARK SMILES IDX 66 36 87 37 54 38 38 39 39 40 47 41 40 42 46 43 48 44 45 45
REMARK SMILES IDX 41 46 42 47 43 48 44 49 70 50 71 51 79 52 72 53 78 54 80 55
REMARK SMILES IDX 77 56 73 57 74 58 75 59 76 60 55 61 56 62 64 63 57 64 63 65
REMARK SMILES IDX 65 66 62 67 58 68 59 69 60 70 61 71 6 72 7 73 8 74 9 75
REMARK SMILES IDX 10 77 11 78 12 79 17 80 13 81 16 82 14 83 15 84 18 85 19 87
REMARK SMILES IDX 20 88 21 89 28 90 22 91 27 92 23 93 26 94 24 96 25 97
REMARK H PARENT 3 6 85 24 53 35 8 76 18 86 22 95
REMARK Flexibility Score: inf
ROOT
ATOM      1  C   UNL A   1      31.491  32.102  26.851  1.00  0.00     0.023 C 
ENDROOT
BRANCH   1   2
ATOM      2  C   UNL A   1      32.810  32.716  27.302  1.00  0.00     0.116 C 
BRANCH   2   3
ATOM      3  N   UNL A   1      32.678  34.099  27.731  1.00  0.00    -0.352 N 
ATOM      4  O   UNL A   1      33.048  35.907  29.027  1.00  0.00    -0.269 OA
ATOM      5  C   UNL A   1      33.377  34.767  28.709  1.00  0.00     0.251 C 
ATOM      6  H   UNL A   1      31.996  34.628  27.259  1.00  0.00     0.163 HD
BRANCH   5   7
ATOM      7  C   UNL A   1      34.508  34.098  29.389  1.00  0.00     0.039 A 
ATOM      8  C   UNL A   1      35.826  34.402  29.039  1.00  0.00     0.014 A 
ATOM      9  C   UNL A   1      34.245  33.153  30.385  1.00  0.00     0.014 A 
ATOM     10  C   UNL A   1      36.872  33.675  29.593  1.00  0.00     0.010 A 
ATOM     11  C   UNL A   1      35.305  32.479  31.000  1.00  0.00     0.010 A 
ATOM     12  C   UNL A   1      36.626  32.721  30.595  1.00  0.00    -0.014 A 
BRANCH  12  13
ATOM     13  C   UNL A   1      37.777  32.065  31.267  1.00  0.00     0.031 A 
ATOM     14  C   UNL A   1      38.574  30.990  30.583  1.00  0.00     0.074 A 
ATOM     15  C   UNL A   1      38.103  32.474  32.510  1.00  0.00     0.049 A 
ATOM     16  N   UNL A   1      39.607  30.323  31.032  1.00  0.00    -0.248 NA
ATOM     17  C   UNL A   1      38.159  30.608  29.225  1.00  0.00     0.031 C 
ATOM     18  C   UNL A   1      37.387  33.504  33.268  1.00  0.00     0.029 A 
ATOM     19  N   UNL A   1      39.116  32.091  33.350  1.00  0.00    -0.354 N 
ATOM     20  C   UNL A   1      39.956  29.430  30.025  1.00  0.00     0.074 A 
ATOM     21  C   UNL A   1      39.010  29.629  28.945  1.00  0.00     0.031 C 
ATOM     22  C   UNL A   1      38.003  33.694  34.444  1.00  0.00     0.029 A 
ATOM     23  C   UNL A   1      39.111  32.755  34.555  1.00  0.00     0.049 A 
ATOM     24  H   UNL A   1      39.782  31.406  33.114  1.00  0.00     0.167 HD
ATOM     25  C   UNL A   1      40.973  28.533  30.008  1.00  0.00     0.034 A 
ATOM     26  C   UNL A   1      39.891  32.605  35.642  1.00  0.00     0.034 A 
ATOM     27  C   UNL A   1      41.911  28.359  31.092  1.00  0.00     0.049 A 
ATOM     28  C   UNL A   1      40.989  31.578  35.602  1.00  0.00     0.074 A 
ATOM     29  C   UNL A   1      43.014  27.524  31.149  1.00  0.00     0.029 A 
ATOM     30  N   UNL A   1      41.853  29.020  32.312  1.00  0.00    -0.354 N 
ATOM     31  N   UNL A   1      41.329  30.773  34.622  1.00  0.00    -0.248 NA
ATOM     32  C   UNL A   1      41.808  31.439  36.812  1.00  0.00     0.031 C 
ATOM     33  C   UNL A   1      43.580  27.627  32.425  1.00  0.00     0.029 A 
ATOM     34  C   UNL A   1      42.874  28.579  33.142  1.00  0.00     0.049 A 
ATOM     35  H   UNL A   1      41.184  29.702  32.553  1.00  0.00     0.167 HD
ATOM     36  C   UNL A   1      42.411  30.039  35.096  1.00  0.00     0.074 A 
ATOM     37  C   UNL A   1      42.685  30.520  36.436  1.00  0.00     0.031 C 
ATOM     38  C   UNL A   1      43.114  29.054  34.483  1.00  0.00     0.034 A 
BRANCH  25  39
ATOM     39  C   UNL A   1      41.103  27.633  28.803  1.00  0.00     0.023 A 
ATOM     40  C   UNL A   1      42.087  27.837  27.822  1.00  0.00     0.031 A 
ATOM     41  C   UNL A   1      40.242  26.530  28.657  1.00  0.00     0.131 A 
ATOM     42  C   UNL A   1      42.163  26.971  26.718  1.00  0.00     0.055 A 
ATOM     43  C   UNL A   1      40.361  25.639  27.588  1.00  0.00     0.041 A 
ATOM     44  F   UNL A   1      39.271  26.297  29.555  1.00  0.00    -0.206 F 
ATOM     45  C   UNL A   1      41.322  25.861  26.607  1.00  0.00     0.022 A 
BRANCH  42  46
ATOM     46  S   UNL A   1      43.326  27.363  25.381  1.00  0.00     0.124 S 
ATOM     47  O   UNL A   1      43.928  26.057  25.121  1.00  0.00    -0.237 OA
ATOM     48  O   UNL A   1      42.448  27.880  24.339  1.00  0.00    -0.237 OA
ATOM     49  O   UNL A   1      44.224  28.345  25.984  1.00  0.00    -0.744 OA
ENDBRANCH  42  46
ENDBRANCH  25  39
BRANCH  26  50
ATOM     50  C   UNL A   1      39.631  33.404  36.874  1.00  0.00     0.023 A 
ATOM     51  C   UNL A   1      38.911  32.867  37.951  1.00  0.00     0.031 A 
ATOM     52  C   UNL A   1      40.065  34.739  36.971  1.00  0.00     0.131 A 
ATOM     53  C   UNL A   1      38.603  33.674  39.056  1.00  0.00     0.055 A 
ATOM     54  C   UNL A   1      39.807  35.520  38.098  1.00  0.00     0.041 A 
ATOM     55  F   UNL A   1      40.760  35.303  35.969  1.00  0.00    -0.206 F 
ATOM     56  C   UNL A   1      39.057  34.992  39.144  1.00  0.00     0.022 A 
BRANCH  53  57
ATOM     57  S   UNL A   1      37.504  33.008  40.336  1.00  0.00     0.124 S 
ATOM     58  O   UNL A   1      38.240  31.829  40.777  1.00  0.00    -0.237 OA
ATOM     59  O   UNL A   1      37.440  34.116  41.283  1.00  0.00    -0.237 OA
ATOM     60  O   UNL A   1      36.265  32.736  39.611  1.00  0.00    -0.744 OA
ENDBRANCH  53  57
ENDBRANCH  26  50
BRANCH  38  61
ATOM     61  C   UNL A   1      44.256  28.457  35.266  1.00  0.00     0.023 A 
ATOM     62  C   UNL A   1      44.036  27.480  36.252  1.00  0.00     0.031 A 
ATOM     63  C   UNL A   1      45.572  28.898  35.051  1.00  0.00     0.131 A 
ATOM     64  C   UNL A   1      45.107  27.019  37.030  1.00  0.00     0.055 A 
ATOM     65  C   UNL A   1      46.645  28.392  35.787  1.00  0.00     0.041 A 
ATOM     66  F   UNL A   1      45.837  29.832  34.123  1.00  0.00    -0.206 F 
ATOM     67  C   UNL A   1      46.413  27.458  36.793  1.00  0.00     0.022 A 
BRANCH  64  68
ATOM     68  S   UNL A   1      44.758  25.907  38.420  1.00  0.00     0.124 S 
ATOM     69  O   UNL A   1      45.920  26.121  39.277  1.00  0.00    -0.237 OA
ATOM     70  O   UNL A   1      43.491  26.425  38.924  1.00  0.00    -0.237 OA
ATOM     71  O   UNL A   1      44.684  24.589  37.794  1.00  0.00    -0.744 OA
ENDBRANCH  64  68
ENDBRANCH  38  61
ENDBRANCH  12  13
ENDBRANCH   5   7
ENDBRANCH   2   3
ENDBRANCH   1   2
BRANCH   1  72
ATOM     72  C   UNL A   1      31.611  30.829  26.014  1.00  0.00     0.023 C 
BRANCH  72  73
ATOM     73  C   UNL A   1      32.846  29.977  26.293  1.00  0.00     0.116 C 
BRANCH  73  74
ATOM     74  N   UNL A   1      33.618  29.703  25.095  1.00  0.00    -0.352 N 
ATOM     75  C   UNL A   1      33.319  28.874  24.041  1.00  0.00     0.255 C 
ATOM     76  H   UNL A   1      34.479  30.178  25.028  1.00  0.00     0.163 HD
ATOM     77  O   UNL A   1      34.153  28.650  23.169  1.00  0.00    -0.269 OA
BRANCH  75  78
ATOM     78  C   UNL A   1      31.986  28.249  23.956  1.00  0.00     0.082 A 
ATOM     79  C   UNL A   1      30.970  28.890  23.238  1.00  0.00     0.021 A 
ATOM     80  C   UNL A   1      31.747  27.004  24.562  1.00  0.00     0.140 A 
ATOM     81  C   UNL A   1      29.707  28.319  23.215  1.00  0.00     0.042 A 
ATOM     82  N   UNL A   1      30.511  26.455  24.545  1.00  0.00    -0.219 NA
ATOM     83  C   UNL A   1      29.537  27.122  23.888  1.00  0.00     0.131 A 
ATOM     84  Cl  UNL A   1      27.993  26.375  23.954  1.00  0.00    -0.062 Cl
BRANCH  80  85
ATOM     85  N   UNL A   1      32.756  26.373  25.273  1.00  0.00    -0.367 N 
ATOM     86  H   UNL A   1      33.163  26.845  26.035  1.00  0.00     0.162 HD
BRANCH  85  87
ATOM     87  C   UNL A   1      33.237  25.041  24.938  1.00  0.00     0.152 C 
BRANCH  87  88
ATOM     88  C   UNL A   1      32.985  24.057  26.109  1.00  0.00     0.192 C 
ATOM     89  C   UNL A   1      34.080  22.950  26.165  1.00  0.00     0.296 C 
ATOM     90  O   UNL A   1      31.639  23.539  26.059  1.00  0.00    -0.364 OA
ATOM     91  N   UNL A   1      33.700  21.561  25.904  1.00  0.00    -0.328 N 
ATOM     92  C   UNL A   1      31.500  22.518  25.074  1.00  0.00     0.225 C 
ATOM     93  C   UNL A   1      34.608  20.800  25.056  1.00  0.00     0.262 C 
ATOM     94  C   UNL A   1      32.313  21.299  25.493  1.00  0.00     0.210 C 
ATOM     95  H   UNL A   1      33.785  21.214  26.859  1.00  0.00     0.348 HD
ATOM     96  C   UNL A   1      33.765  19.615  24.618  1.00  0.00     0.068 C 
ATOM     97  C   UNL A   1      32.405  20.248  24.390  1.00  0.00     0.073 C 
ENDBRANCH  87  88
ENDBRANCH  85  87
ENDBRANCH  80  85
ENDBRANCH  75  78
ENDBRANCH  73  74
ENDBRANCH  72  73
ENDBRANCH   1  72
TORSDOF 17
ENDMDL
MODEL 3
REMARK VINA RESULT:     -11.7      1.911      2.296
REMARK SMILES O=C(NCCCCNC(=O)c1ccc(Cl)nc1NC[C@@H]1C[N@@H+]2CCC[C@@H]2CO1)c1ccc(-c2c3nc(c(-c4cc(S(=O)(=O)[O-])ccc4F)c4ccc([nH]4)c(-c4cc(S(=O)(=O)[O-])ccc4F)c4nc(c(-c5cc(S(=O)(=O)[O-])ccc5F)c5ccc2[nH]5)C=C4)C=C3)cc1
REMARK SMILES IDX 5 1 4 2 3 3 1 4 2 5 29 7 30 8 91 9 31 10 90 11 32 12 33 13
REMARK SMILES IDX 34 14 84 15 35 16 89 17 83 18 85 19 36 20 88 21 82 22 81 23
REMARK SMILES IDX 37 25 69 26 49 27 68 28 50 29 53 30 67 31 86 32 51 33 52 34
REMARK SMILES IDX 66 36 87 37 54 38 38 39 39 40 47 41 40 42 46 43 48 44 45 45
REMARK SMILES IDX 41 46 42 47 43 48 44 49 70 50 71 51 79 52 72 53 78 54 80 55
REMARK SMILES IDX 77 56 73 57 74 58 75 59 76 60 55 61 56 62 64 63 57 64 63 65
REMARK SMILES IDX 65 66 62 67 58 68 59 69 60 70 61 71 6 72 7 73 8 74 9 75
REMARK SMILES IDX 10 77 11 78 12 79 17 80 13 81 16 82 14 83 15 84 18 85 19 87
REMARK SMILES IDX 20 88 21 89 28 90 22 91 27 92 23 93 26 94 24 96 25 97
REMARK H PARENT 3 6 85 24 53 35 8 76 18 86 22 95
REMARK Flexibility Score: inf
ROOT
ATOM      1  C   UNL A   1      37.904  19.780  24.809  1.00  0.00     0.023 C 
ENDROOT
BRANCH   1   2
ATOM      2  C   UNL A   1      38.984  20.248  25.775  1.00  0.00     0.116 C 
BRANCH   2   3
ATOM      3  N   UNL A   1      40.059  19.282  25.941  1.00  0.00    -0.352 N 
ATOM      4  O   UNL A   1      42.186  18.576  26.189  1.00  0.00    -0.269 OA
ATOM      5  C   UNL A   1      41.389  19.511  26.203  1.00  0.00     0.251 C 
ATOM      6  H   UNL A   1      39.799  18.337  25.854  1.00  0.00     0.163 HD
BRANCH   5   7
ATOM      7  C   UNL A   1      41.856  20.888  26.477  1.00  0.00     0.039 A 
ATOM      8  C   UNL A   1      42.038  21.797  25.432  1.00  0.00     0.014 A 
ATOM      9  C   UNL A   1      42.117  21.271  27.796  1.00  0.00     0.014 A 
ATOM     10  C   UNL A   1      42.598  23.042  25.690  1.00  0.00     0.010 A 
ATOM     11  C   UNL A   1      42.606  22.555  28.062  1.00  0.00     0.010 A 
ATOM     12  C   UNL A   1      42.868  23.444  27.009  1.00  0.00    -0.014 A 
BRANCH  12  13
ATOM     13  C   UNL A   1      43.331  24.832  27.262  1.00  0.00     0.031 A 
ATOM     14  C   UNL A   1      42.400  25.881  27.802  1.00  0.00     0.074 A 
ATOM     15  C   UNL A   1      44.622  25.126  27.010  1.00  0.00     0.049 A 
ATOM     16  N   UNL A   1      42.650  27.135  28.080  1.00  0.00    -0.248 NA
ATOM     17  C   UNL A   1      41.009  25.477  28.058  1.00  0.00     0.031 C 
ATOM     18  C   UNL A   1      45.607  24.183  26.473  1.00  0.00     0.029 A 
ATOM     19  N   UNL A   1      45.334  26.286  27.177  1.00  0.00    -0.354 N 
ATOM     20  C   UNL A   1      41.450  27.678  28.526  1.00  0.00     0.074 A 
ATOM     21  C   UNL A   1      40.464  26.617  28.464  1.00  0.00     0.031 C 
ATOM     22  C   UNL A   1      46.800  24.790  26.389  1.00  0.00     0.029 A 
ATOM     23  C   UNL A   1      46.652  26.181  26.796  1.00  0.00     0.049 A 
ATOM     24  H   UNL A   1      44.939  27.114  27.535  1.00  0.00     0.167 HD
ATOM     25  C   UNL A   1      41.201  28.942  28.949  1.00  0.00     0.034 A 
ATOM     26  C   UNL A   1      47.627  27.108  26.750  1.00  0.00     0.034 A 
ATOM     27  C   UNL A   1      42.201  29.982  29.014  1.00  0.00     0.049 A 
ATOM     28  C   UNL A   1      47.308  28.510  27.195  1.00  0.00     0.074 A 
ATOM     29  C   UNL A   1      42.068  31.276  29.486  1.00  0.00     0.029 A 
ATOM     30  N   UNL A   1      43.516  29.852  28.583  1.00  0.00    -0.354 N 
ATOM     31  N   UNL A   1      46.176  28.991  27.653  1.00  0.00    -0.248 NA
ATOM     32  C   UNL A   1      48.397  29.490  27.116  1.00  0.00     0.031 C 
ATOM     33  C   UNL A   1      43.277  31.948  29.277  1.00  0.00     0.029 A 
ATOM     34  C   UNL A   1      44.189  31.055  28.739  1.00  0.00     0.049 A 
ATOM     35  H   UNL A   1      43.911  29.027  28.220  1.00  0.00     0.167 HD
ATOM     36  C   UNL A   1      46.422  30.331  27.929  1.00  0.00     0.074 A 
ATOM     37  C   UNL A   1      47.816  30.572  27.615  1.00  0.00     0.031 C 
ATOM     38  C   UNL A   1      45.573  31.281  28.397  1.00  0.00     0.034 A 
BRANCH  25  39
ATOM     39  C   UNL A   1      39.784  29.294  29.331  1.00  0.00     0.023 A 
ATOM     40  C   UNL A   1      39.378  29.406  30.672  1.00  0.00     0.031 A 
ATOM     41  C   UNL A   1      38.832  29.555  28.329  1.00  0.00     0.131 A 
ATOM     42  C   UNL A   1      38.046  29.734  30.974  1.00  0.00     0.055 A 
ATOM     43  C   UNL A   1      37.524  29.939  28.636  1.00  0.00     0.041 A 
ATOM     44  F   UNL A   1      39.159  29.446  27.031  1.00  0.00    -0.206 F 
ATOM     45  C   UNL A   1      37.123  30.023  29.965  1.00  0.00     0.022 A 
BRANCH  42  46
ATOM     46  S   UNL A   1      37.510  29.697  32.707  1.00  0.00     0.124 S 
ATOM     47  O   UNL A   1      36.237  30.411  32.638  1.00  0.00    -0.237 OA
ATOM     48  O   UNL A   1      37.427  28.268  32.983  1.00  0.00    -0.237 OA
ATOM     49  O   UNL A   1      38.576  30.406  33.411  1.00  0.00    -0.744 OA
ENDBRANCH  42  46
ENDBRANCH  25  39
BRANCH  26  50
ATOM     50  C   UNL A   1      48.975  26.760  26.216  1.00  0.00     0.023 A 
ATOM     51  C   UNL A   1      49.416  27.253  24.980  1.00  0.00     0.031 A 
ATOM     52  C   UNL A   1      49.825  25.887  26.920  1.00  0.00     0.131 A 
ATOM     53  C   UNL A   1      50.651  26.832  24.461  1.00  0.00     0.055 A 
ATOM     54  C   UNL A   1      51.077  25.519  26.428  1.00  0.00     0.041 A 
ATOM     55  F   UNL A   1      49.452  25.387  28.109  1.00  0.00    -0.206 F 
ATOM     56  C   UNL A   1      51.490  25.980  25.182  1.00  0.00     0.022 A 
BRANCH  53  57
ATOM     57  S   UNL A   1      51.099  27.332  22.776  1.00  0.00     0.124 S 
ATOM     58  O   UNL A   1      52.399  26.692  22.611  1.00  0.00    -0.237 OA
ATOM     59  O   UNL A   1      50.002  26.768  21.995  1.00  0.00    -0.237 OA
ATOM     60  O   UNL A   1      51.126  28.790  22.851  1.00  0.00    -0.744 OA
ENDBRANCH  53  57
ENDBRANCH  26  50
BRANCH  38  61
ATOM     61  C   UNL A   1      46.153  32.656  28.608  1.00  0.00     0.023 A 
ATOM     62  C   UNL A   1      46.299  33.560  27.542  1.00  0.00     0.031 A 
ATOM     63  C   UNL A   1      46.600  33.051  29.880  1.00  0.00     0.131 A 
ATOM     64  C   UNL A   1      46.934  34.792  27.754  1.00  0.00     0.055 A 
ATOM     65  C   UNL A   1      47.178  34.303  30.098  1.00  0.00     0.041 A 
ATOM     66  F   UNL A   1      46.486  32.223  30.931  1.00  0.00    -0.206 F 
ATOM     67  C   UNL A   1      47.360  35.175  29.028  1.00  0.00     0.022 A 
BRANCH  64  68
ATOM     68  S   UNL A   1      47.281  35.850  26.322  1.00  0.00     0.124 S 
ATOM     69  O   UNL A   1      47.149  34.910  25.213  1.00  0.00    -0.237 OA
ATOM     70  O   UNL A   1      46.239  36.866  26.423  1.00  0.00    -0.237 OA
ATOM     71  O   UNL A   1      48.639  36.328  26.570  1.00  0.00    -0.744 OA
ENDBRANCH  64  68
ENDBRANCH  38  61
ENDBRANCH  12  13
ENDBRANCH   5   7
ENDBRANCH   2   3
ENDBRANCH   1   2
BRANCH   1  72
ATOM     72  C   UNL A   1      36.498  20.308  25.090  1.00  0.00     0.023 C 
BRANCH  72  73
ATOM     73  C   UNL A   1      36.418  21.785  25.464  1.00  0.00     0.116 C 
BRANCH  73  74
ATOM     74  N   UNL A   1      35.423  22.050  26.488  1.00  0.00    -0.352 N 
ATOM     75  C   UNL A   1      34.090  21.718  26.507  1.00  0.00     0.255 C 
ATOM     76  H   UNL A   1      35.749  22.535  27.281  1.00  0.00     0.163 HD
ATOM     77  O   UNL A   1      33.356  22.144  27.394  1.00  0.00    -0.269 OA
BRANCH  75  78
ATOM     78  C   UNL A   1      33.537  20.845  25.456  1.00  0.00     0.082 A 
ATOM     79  C   UNL A   1      33.522  19.459  25.650  1.00  0.00     0.021 A 
ATOM     80  C   UNL A   1      32.997  21.401  24.284  1.00  0.00     0.140 A 
ATOM     81  C   UNL A   1      33.052  18.648  24.629  1.00  0.00     0.042 A 
ATOM     82  N   UNL A   1      32.548  20.605  23.286  1.00  0.00    -0.219 NA
ATOM     83  C   UNL A   1      32.594  19.269  23.481  1.00  0.00     0.131 A 
ATOM     84  Cl  UNL A   1      32.044  18.336  22.149  1.00  0.00    -0.062 Cl
BRANCH  80  85
ATOM     85  N   UNL A   1      33.014  22.774  24.095  1.00  0.00    -0.367 N 
ATOM     86  H   UNL A   1      32.667  23.354  24.811  1.00  0.00     0.162 HD
BRANCH  85  87
ATOM     87  C   UNL A   1      33.523  23.393  22.880  1.00  0.00     0.152 C 
BRANCH  87  88
ATOM     88  C   UNL A   1      34.007  24.838  23.164  1.00  0.00     0.192 C 
ATOM     89  C   UNL A   1      33.214  25.480  24.342  1.00  0.00     0.296 C 
ATOM     90  O   UNL A   1      33.991  25.628  21.957  1.00  0.00    -0.364 OA
ATOM     91  N   UNL A   1      32.342  26.624  24.072  1.00  0.00    -0.328 N 
ATOM     92  C   UNL A   1      32.673  26.055  21.620  1.00  0.00     0.225 C 
ATOM     93  C   UNL A   1      31.041  26.604  24.726  1.00  0.00     0.262 C 
ATOM     94  C   UNL A   1      32.179  27.041  22.672  1.00  0.00     0.210 C 
ATOM     95  H   UNL A   1      32.915  27.341  24.518  1.00  0.00     0.348 HD
ATOM     96  C   UNL A   1      30.239  27.625  23.939  1.00  0.00     0.068 C 
ATOM     97  C   UNL A   1      30.697  27.373  22.515  1.00  0.00     0.073 C 
ENDBRANCH  87  88
ENDBRANCH  85  87
ENDBRANCH  80  85
ENDBRANCH  75  78
ENDBRANCH  73  74
ENDBRANCH  72  73
ENDBRANCH   1  72
TORSDOF 17
ENDMDL
