MODEL 1
REMARK VINA RESULT:     -13.0      0.000      0.000
REMARK SMILES O=C1Nc2ccccc2/C1=C/c1cccc(C(=O)NCCCCNC(=O)c2ccc(-c3c4nc(c(-c5cc(S(=O)(=O)[O-])ccc5F)c5ccc([nH]5)c(-c5cc(S(=O)(=O)[O-])ccc5F)c5nc(c(-c6cc(S(=O)(=O)[O-])ccc6F)c6ccc3[nH]6)C=C5)C=C4)cc2)c1
REMARK SMILES IDX 22 1 21 2 20 3 19 4 17 5 18 6 16 8 12 9 13 10 90 11 14 12
REMARK SMILES IDX 15 13 11 14 1 15 2 16 3 17 10 18 4 19 9 21 5 22 8 23 6 24
REMARK SMILES IDX 7 25 23 26 24 27 25 28 26 30 27 31 28 32 89 33 29 34 88 35
REMARK SMILES IDX 30 36 31 37 32 38 82 39 33 40 87 41 81 42 83 43 34 44 86 45
REMARK SMILES IDX 80 46 79 47 35 49 67 50 47 51 66 52 48 53 51 54 65 55 84 56
REMARK SMILES IDX 49 57 50 58 64 60 85 61 52 62 36 63 37 64 45 65 38 66 44 67
REMARK SMILES IDX 46 68 43 69 39 70 40 71 41 72 42 73 68 74 69 75 77 76 70 77
REMARK SMILES IDX 76 78 78 79 75 80 71 81 72 82 73 83 74 84 53 85 54 86 62 87
REMARK SMILES IDX 55 88 61 89 63 90 60 91 56 92 57 93 58 94 59 95
REMARK H PARENT 19 7 3 20 24 29 83 48 51 59
REMARK Flexibility Score: inf
ROOT
ATOM      1  C   UNL A   1      35.755  21.563  24.627  1.00  0.00     0.023 C 
ENDROOT
BRANCH   1   2
ATOM      2  C   UNL A   1      34.783  20.974  25.655  1.00  0.00     0.023 C 
BRANCH   2   3
ATOM      3  C   UNL A   1      33.665  20.134  25.028  1.00  0.00     0.116 C 
BRANCH   3   4
ATOM      4  N   UNL A   1      32.367  20.608  25.470  1.00  0.00    -0.352 N 
ATOM      5  C   UNL A   1      31.739  21.828  25.424  1.00  0.00     0.251 C 
ATOM      6  O   UNL A   1      30.602  21.884  25.898  1.00  0.00    -0.269 OA
ATOM      7  H   UNL A   1      31.820  19.906  25.892  1.00  0.00     0.163 HD
BRANCH   5   8
ATOM      8  C   UNL A   1      32.319  23.061  24.811  1.00  0.00     0.040 A 
ATOM      9  C   UNL A   1      33.379  25.255  24.906  1.00  0.00    -0.024 A 
ATOM     10  C   UNL A   1      33.615  25.223  23.534  1.00  0.00     0.008 A 
ATOM     11  C   UNL A   1      32.651  24.218  25.510  1.00  0.00     0.022 A 
ATOM     12  C   UNL A   1      33.179  24.125  22.789  1.00  0.00     0.001 A 
ATOM     13  C   UNL A   1      32.564  23.043  23.428  1.00  0.00     0.014 A 
BRANCH   9  14
ATOM     14  C   UNL A   1      33.901  26.321  25.769  1.00  0.00     0.022 C 
ATOM     15  O   UNL A   1      31.018  27.141  24.985  1.00  0.00    -0.269 OA
ATOM     16  C   UNL A   1      31.832  27.826  25.566  1.00  0.00     0.256 C 
ATOM     17  N   UNL A   1      31.645  29.133  25.991  1.00  0.00    -0.321 N 
ATOM     18  C   UNL A   1      33.245  27.474  25.994  1.00  0.00     0.050 C 
ATOM     19  C   UNL A   1      32.777  29.630  26.625  1.00  0.00     0.049 A 
ATOM     20  H   UNL A   1      30.813  29.643  25.860  1.00  0.00     0.170 HD
ATOM     21  C   UNL A   1      33.788  28.662  26.663  1.00  0.00     0.011 A 
ATOM     22  C   UNL A   1      32.943  30.904  27.126  1.00  0.00     0.027 A 
ATOM     23  C   UNL A   1      35.025  28.970  27.197  1.00  0.00     0.011 A 
ATOM     24  C   UNL A   1      34.188  31.216  27.674  1.00  0.00     0.002 A 
ATOM     25  C   UNL A   1      35.221  30.261  27.705  1.00  0.00     0.001 A 
ENDBRANCH   9  14
ENDBRANCH   5   8
ENDBRANCH   3   4
ENDBRANCH   2   3
ENDBRANCH   1   2
BRANCH   1  26
ATOM     26  C   UNL A   1      37.071  22.068  25.208  1.00  0.00     0.116 C 
BRANCH  26  27
ATOM     27  N   UNL A   1      38.006  20.999  25.527  1.00  0.00    -0.352 N 
ATOM     28  C   UNL A   1      39.240  21.101  26.127  1.00  0.00     0.251 C 
ATOM     29  H   UNL A   1      37.721  20.090  25.283  1.00  0.00     0.163 HD
ATOM     30  O   UNL A   1      39.968  20.120  26.217  1.00  0.00    -0.269 OA
BRANCH  28  31
ATOM     31  C   UNL A   1      39.683  22.422  26.619  1.00  0.00     0.039 A 
ATOM     32  C   UNL A   1      40.739  22.487  27.527  1.00  0.00     0.014 A 
ATOM     33  C   UNL A   1      39.098  23.591  26.123  1.00  0.00     0.014 A 
ATOM     34  C   UNL A   1      41.256  23.732  27.887  1.00  0.00     0.010 A 
ATOM     35  C   UNL A   1      39.671  24.823  26.417  1.00  0.00     0.010 A 
ATOM     36  C   UNL A   1      40.755  24.908  27.303  1.00  0.00    -0.014 A 
BRANCH  36  37
ATOM     37  C   UNL A   1      41.355  26.232  27.612  1.00  0.00     0.031 A 
ATOM     38  C   UNL A   1      42.736  26.567  27.115  1.00  0.00     0.074 A 
ATOM     39  C   UNL A   1      40.678  27.109  28.381  1.00  0.00     0.049 A 
ATOM     40  N   UNL A   1      43.448  27.645  27.318  1.00  0.00    -0.248 NA
ATOM     41  C   UNL A   1      43.417  25.540  26.311  1.00  0.00     0.031 C 
ATOM     42  C   UNL A   1      39.352  26.876  28.959  1.00  0.00     0.029 A 
ATOM     43  N   UNL A   1      41.008  28.370  28.812  1.00  0.00    -0.354 N 
ATOM     44  C   UNL A   1      44.662  27.424  26.676  1.00  0.00     0.074 A 
ATOM     45  C   UNL A   1      44.613  26.082  26.137  1.00  0.00     0.031 C 
ATOM     46  C   UNL A   1      38.970  27.970  29.639  1.00  0.00     0.029 A 
ATOM     47  C   UNL A   1      40.039  28.960  29.592  1.00  0.00     0.049 A 
ATOM     48  H   UNL A   1      41.858  28.812  28.585  1.00  0.00     0.167 HD
ATOM     49  C   UNL A   1      45.710  28.271  26.530  1.00  0.00     0.034 A 
ATOM     50  C   UNL A   1      40.021  30.158  30.213  1.00  0.00     0.034 A 
ATOM     51  C   UNL A   1      45.737  29.609  27.066  1.00  0.00     0.049 A 
ATOM     52  C   UNL A   1      41.212  31.071  30.057  1.00  0.00     0.074 A 
ATOM     53  C   UNL A   1      46.720  30.572  26.927  1.00  0.00     0.029 A 
ATOM     54  N   UNL A   1      44.741  30.171  27.857  1.00  0.00    -0.354 N 
ATOM     55  N   UNL A   1      42.326  30.870  29.391  1.00  0.00    -0.248 NA
ATOM     56  C   UNL A   1      41.138  32.377  30.725  1.00  0.00     0.031 C 
ATOM     57  C   UNL A   1      46.360  31.681  27.699  1.00  0.00     0.029 A 
ATOM     58  C   UNL A   1      45.107  31.452  28.244  1.00  0.00     0.049 A 
ATOM     59  H   UNL A   1      43.899  29.725  28.105  1.00  0.00     0.167 HD
ATOM     60  C   UNL A   1      43.069  32.040  29.533  1.00  0.00     0.074 A 
ATOM     61  C   UNL A   1      42.267  32.945  30.331  1.00  0.00     0.031 C 
ATOM     62  C   UNL A   1      44.301  32.341  29.047  1.00  0.00     0.034 A 
BRANCH  49  63
ATOM     63  C   UNL A   1      46.922  27.763  25.783  1.00  0.00     0.023 A 
ATOM     64  C   UNL A   1      47.142  28.071  24.428  1.00  0.00     0.031 A 
ATOM     65  C   UNL A   1      47.867  26.948  26.433  1.00  0.00     0.131 A 
ATOM     66  C   UNL A   1      48.237  27.512  23.751  1.00  0.00     0.055 A 
ATOM     67  C   UNL A   1      49.000  26.466  25.775  1.00  0.00     0.041 A 
ATOM     68  F   UNL A   1      47.699  26.598  27.718  1.00  0.00    -0.206 F 
ATOM     69  C   UNL A   1      49.183  26.735  24.422  1.00  0.00     0.022 A 
BRANCH  66  70
ATOM     70  S   UNL A   1      48.327  27.699  21.949  1.00  0.00     0.124 S 
ATOM     71  O   UNL A   1      48.564  26.322  21.521  1.00  0.00    -0.237 OA
ATOM     72  O   UNL A   1      47.019  28.253  21.623  1.00  0.00    -0.237 OA
ATOM     73  O   UNL A   1      49.457  28.607  21.756  1.00  0.00    -0.744 OA
ENDBRANCH  66  70
ENDBRANCH  49  63
BRANCH  50  74
ATOM     74  C   UNL A   1      38.854  30.563  31.051  1.00  0.00     0.023 A 
ATOM     75  C   UNL A   1      37.866  31.429  30.554  1.00  0.00     0.031 A 
ATOM     76  C   UNL A   1      38.740  30.136  32.387  1.00  0.00     0.131 A 
ATOM     77  C   UNL A   1      36.842  31.884  31.400  1.00  0.00     0.055 A 
ATOM     78  C   UNL A   1      37.683  30.540  33.205  1.00  0.00     0.041 A 
ATOM     79  F   UNL A   1      39.654  29.308  32.916  1.00  0.00    -0.206 F 
ATOM     80  C   UNL A   1      36.735  31.434  32.717  1.00  0.00     0.022 A 
BRANCH  77  81
ATOM     81  S   UNL A   1      35.713  33.165  30.785  1.00  0.00     0.124 S 
ATOM     82  O   UNL A   1      36.199  33.361  29.424  1.00  0.00    -0.237 OA
ATOM     83  O   UNL A   1      34.415  32.513  30.916  1.00  0.00    -0.237 OA
ATOM     84  O   UNL A   1      35.941  34.285  31.698  1.00  0.00    -0.744 OA
ENDBRANCH  77  81
ENDBRANCH  50  74
BRANCH  62  85
ATOM     85  C   UNL A   1      44.831  33.728  29.323  1.00  0.00     0.023 A 
ATOM     86  C   UNL A   1      44.576  34.808  28.459  1.00  0.00     0.031 A 
ATOM     87  C   UNL A   1      45.617  33.970  30.466  1.00  0.00     0.131 A 
ATOM     88  C   UNL A   1      45.154  36.060  28.716  1.00  0.00     0.055 A 
ATOM     89  C   UNL A   1      46.126  35.235  30.755  1.00  0.00     0.041 A 
ATOM     90  F   UNL A   1      45.898  32.977  31.325  1.00  0.00    -0.206 F 
ATOM     91  C   UNL A   1      45.909  36.287  29.869  1.00  0.00     0.022 A 
BRANCH  88  92
ATOM     92  S   UNL A   1      44.997  37.364  27.465  1.00  0.00     0.124 S 
ATOM     93  O   UNL A   1      45.178  38.573  28.263  1.00  0.00    -0.237 OA
ATOM     94  O   UNL A   1      46.080  37.042  26.542  1.00  0.00    -0.237 OA
ATOM     95  O   UNL A   1      43.651  37.168  26.932  1.00  0.00    -0.744 OA
ENDBRANCH  88  92
ENDBRANCH  62  85
ENDBRANCH  36  37
ENDBRANCH  28  31
ENDBRANCH  26  27
ENDBRANCH   1  26
TORSDOF 15
ENDMDL
MODEL 2
REMARK VINA RESULT:     -12.7      1.417      1.646
REMARK SMILES O=C1Nc2ccccc2/C1=C/c1cccc(C(=O)NCCCCNC(=O)c2ccc(-c3c4nc(c(-c5cc(S(=O)(=O)[O-])ccc5F)c5ccc([nH]5)c(-c5cc(S(=O)(=O)[O-])ccc5F)c5nc(c(-c6cc(S(=O)(=O)[O-])ccc6F)c6ccc3[nH]6)C=C5)C=C4)cc2)c1
REMARK SMILES IDX 22 1 21 2 20 3 19 4 17 5 18 6 16 8 12 9 13 10 90 11 14 12
REMARK SMILES IDX 15 13 11 14 1 15 2 16 3 17 10 18 4 19 9 21 5 22 8 23 6 24
REMARK SMILES IDX 7 25 23 26 24 27 25 28 26 30 27 31 28 32 89 33 29 34 88 35
REMARK SMILES IDX 30 36 31 37 32 38 82 39 33 40 87 41 81 42 83 43 34 44 86 45
REMARK SMILES IDX 80 46 79 47 35 49 67 50 47 51 66 52 48 53 51 54 65 55 84 56
REMARK SMILES IDX 49 57 50 58 64 60 85 61 52 62 36 63 37 64 45 65 38 66 44 67
REMARK SMILES IDX 46 68 43 69 39 70 40 71 41 72 42 73 68 74 69 75 77 76 70 77
REMARK SMILES IDX 76 78 78 79 75 80 71 81 72 82 73 83 74 84 53 85 54 86 62 87
REMARK SMILES IDX 55 88 61 89 63 90 60 91 56 92 57 93 58 94 59 95
REMARK H PARENT 19 7 3 20 24 29 83 48 51 59
REMARK Flexibility Score: inf
ROOT
ATOM      1  C   UNL A   1      35.617  21.691  24.546  1.00  0.00     0.023 C 
ENDROOT
BRANCH   1   2
ATOM      2  C   UNL A   1      34.631  20.611  25.002  1.00  0.00     0.023 C 
BRANCH   2   3
ATOM      3  C   UNL A   1      33.997  20.899  26.367  1.00  0.00     0.116 C 
BRANCH   3   4
ATOM      4  N   UNL A   1      32.563  21.077  26.233  1.00  0.00    -0.352 N 
ATOM      5  C   UNL A   1      31.778  22.073  25.707  1.00  0.00     0.251 C 
ATOM      6  O   UNL A   1      30.558  21.898  25.751  1.00  0.00    -0.269 OA
ATOM      7  H   UNL A   1      32.043  20.324  26.597  1.00  0.00     0.163 HD
BRANCH   5   8
ATOM      8  C   UNL A   1      32.299  23.315  25.059  1.00  0.00     0.040 A 
ATOM      9  C   UNL A   1      33.354  25.512  25.086  1.00  0.00    -0.024 A 
ATOM     10  C   UNL A   1      33.474  25.494  23.698  1.00  0.00     0.008 A 
ATOM     11  C   UNL A   1      32.684  24.466  25.738  1.00  0.00     0.022 A 
ATOM     12  C   UNL A   1      32.982  24.401  22.982  1.00  0.00     0.001 A 
ATOM     13  C   UNL A   1      32.427  23.311  23.660  1.00  0.00     0.014 A 
BRANCH   9  14
ATOM     14  C   UNL A   1      33.943  26.573  25.912  1.00  0.00     0.022 C 
ATOM     15  O   UNL A   1      31.053  27.466  25.240  1.00  0.00    -0.269 OA
ATOM     16  C   UNL A   1      31.910  28.135  25.777  1.00  0.00     0.256 C 
ATOM     17  N   UNL A   1      31.779  29.451  26.193  1.00  0.00    -0.321 N 
ATOM     18  C   UNL A   1      33.330  27.747  26.149  1.00  0.00     0.050 C 
ATOM     19  C   UNL A   1      32.950  29.923  26.771  1.00  0.00     0.049 A 
ATOM     20  H   UNL A   1      30.957  29.984  26.091  1.00  0.00     0.170 HD
ATOM     21  C   UNL A   1      33.934  28.926  26.779  1.00  0.00     0.011 A 
ATOM     22  C   UNL A   1      33.174  31.197  27.249  1.00  0.00     0.027 A 
ATOM     23  C   UNL A   1      35.202  29.206  27.256  1.00  0.00     0.011 A 
ATOM     24  C   UNL A   1      34.449  31.480  27.739  1.00  0.00     0.002 A 
ATOM     25  C   UNL A   1      35.456  30.496  27.738  1.00  0.00     0.001 A 
ENDBRANCH   9  14
ENDBRANCH   5   8
ENDBRANCH   3   4
ENDBRANCH   2   3
ENDBRANCH   1   2
BRANCH   1  26
ATOM     26  C   UNL A   1      36.719  22.015  25.549  1.00  0.00     0.116 C 
BRANCH  26  27
ATOM     27  N   UNL A   1      37.702  20.951  25.687  1.00  0.00    -0.352 N 
ATOM     28  C   UNL A   1      39.003  21.047  26.123  1.00  0.00     0.251 C 
ATOM     29  H   UNL A   1      37.399  20.049  25.435  1.00  0.00     0.163 HD
ATOM     30  O   UNL A   1      39.750  20.077  26.065  1.00  0.00    -0.269 OA
BRANCH  28  31
ATOM     31  C   UNL A   1      39.489  22.351  26.619  1.00  0.00     0.039 A 
ATOM     32  C   UNL A   1      40.537  22.376  27.540  1.00  0.00     0.014 A 
ATOM     33  C   UNL A   1      38.956  23.541  26.116  1.00  0.00     0.014 A 
ATOM     34  C   UNL A   1      41.096  23.601  27.906  1.00  0.00     0.010 A 
ATOM     35  C   UNL A   1      39.571  24.751  26.416  1.00  0.00     0.010 A 
ATOM     36  C   UNL A   1      40.647  24.795  27.316  1.00  0.00    -0.014 A 
BRANCH  36  37
ATOM     37  C   UNL A   1      41.293  26.096  27.631  1.00  0.00     0.031 A 
ATOM     38  C   UNL A   1      42.702  26.366  27.176  1.00  0.00     0.074 A 
ATOM     39  C   UNL A   1      40.630  27.008  28.371  1.00  0.00     0.049 A 
ATOM     40  N   UNL A   1      43.453  27.415  27.391  1.00  0.00    -0.248 NA
ATOM     41  C   UNL A   1      43.363  25.303  26.402  1.00  0.00     0.031 C 
ATOM     42  C   UNL A   1      39.278  26.838  28.908  1.00  0.00     0.029 A 
ATOM     43  N   UNL A   1      41.000  28.259  28.800  1.00  0.00    -0.354 N 
ATOM     44  C   UNL A   1      44.676  27.136  26.790  1.00  0.00     0.074 A 
ATOM     45  C   UNL A   1      44.586  25.792  26.262  1.00  0.00     0.031 C 
ATOM     46  C   UNL A   1      38.922  27.954  29.565  1.00  0.00     0.029 A 
ATOM     47  C   UNL A   1      40.034  28.898  29.544  1.00  0.00     0.049 A 
ATOM     48  H   UNL A   1      41.875  28.661  28.596  1.00  0.00     0.167 HD
ATOM     49  C   UNL A   1      45.763  27.936  26.669  1.00  0.00     0.034 A 
ATOM     50  C   UNL A   1      40.047  30.102  30.153  1.00  0.00     0.034 A 
ATOM     51  C   UNL A   1      45.830  29.278  27.194  1.00  0.00     0.049 A 
ATOM     52  C   UNL A   1      41.280  30.962  30.026  1.00  0.00     0.074 A 
ATOM     53  C   UNL A   1      46.857  30.197  27.077  1.00  0.00     0.029 A 
ATOM     54  N   UNL A   1      44.835  29.890  27.947  1.00  0.00    -0.354 N 
ATOM     55  N   UNL A   1      42.405  30.707  29.398  1.00  0.00    -0.248 NA
ATOM     56  C   UNL A   1      41.242  32.276  30.680  1.00  0.00     0.031 C 
ATOM     57  C   UNL A   1      46.521  31.327  27.827  1.00  0.00     0.029 A 
ATOM     58  C   UNL A   1      45.243  31.158  28.334  1.00  0.00     0.049 A 
ATOM     59  H   UNL A   1      43.967  29.482  28.173  1.00  0.00     0.167 HD
ATOM     60  C   UNL A   1      43.192  31.846  29.553  1.00  0.00     0.074 A 
ATOM     61  C   UNL A   1      42.406  32.792  30.316  1.00  0.00     0.031 C 
ATOM     62  C   UNL A   1      44.451  32.089  29.103  1.00  0.00     0.034 A 
BRANCH  49  63
ATOM     63  C   UNL A   1      46.975  27.370  25.966  1.00  0.00     0.023 A 
ATOM     64  C   UNL A   1      47.980  26.673  26.662  1.00  0.00     0.031 A 
ATOM     65  C   UNL A   1      47.135  27.540  24.579  1.00  0.00     0.131 A 
ATOM     66  C   UNL A   1      49.128  26.236  25.984  1.00  0.00     0.055 A 
ATOM     67  C   UNL A   1      48.239  27.026  23.896  1.00  0.00     0.041 A 
ATOM     68  F   UNL A   1      46.223  28.218  23.864  1.00  0.00    -0.206 F 
ATOM     69  C   UNL A   1      49.251  26.382  24.601  1.00  0.00     0.022 A 
BRANCH  66  70
ATOM     70  S   UNL A   1      50.519  25.601  26.959  1.00  0.00     0.124 S 
ATOM     71  O   UNL A   1      49.912  24.453  27.628  1.00  0.00    -0.237 OA
ATOM     72  O   UNL A   1      51.509  25.294  25.935  1.00  0.00    -0.237 OA
ATOM     73  O   UNL A   1      50.858  26.719  27.840  1.00  0.00    -0.744 OA
ENDBRANCH  66  70
ENDBRANCH  49  63
BRANCH  50  74
ATOM     74  C   UNL A   1      38.873  30.565  30.950  1.00  0.00     0.023 A 
ATOM     75  C   UNL A   1      37.996  31.542  30.452  1.00  0.00     0.031 A 
ATOM     76  C   UNL A   1      38.643  30.077  32.249  1.00  0.00     0.131 A 
ATOM     77  C   UNL A   1      36.968  32.042  31.268  1.00  0.00     0.055 A 
ATOM     78  C   UNL A   1      37.580  30.530  33.032  1.00  0.00     0.041 A 
ATOM     79  F   UNL A   1      39.449  29.142  32.777  1.00  0.00    -0.206 F 
ATOM     80  C   UNL A   1      36.744  31.532  32.549  1.00  0.00     0.022 A 
BRANCH  77  81
ATOM     81  S   UNL A   1      35.993  33.452  30.671  1.00  0.00     0.124 S 
ATOM     82  O   UNL A   1      36.557  33.661  29.342  1.00  0.00    -0.237 OA
ATOM     83  O   UNL A   1      34.635  32.922  30.717  1.00  0.00    -0.237 OA
ATOM     84  O   UNL A   1      36.284  34.502  31.646  1.00  0.00    -0.744 OA
ENDBRANCH  77  81
ENDBRANCH  50  74
BRANCH  62  85
ATOM     85  C   UNL A   1      45.031  33.455  29.383  1.00  0.00     0.023 A 
ATOM     86  C   UNL A   1      44.869  34.530  28.491  1.00  0.00     0.031 A 
ATOM     87  C   UNL A   1      45.771  33.681  30.559  1.00  0.00     0.131 A 
ATOM     88  C   UNL A   1      45.490  35.759  28.756  1.00  0.00     0.055 A 
ATOM     89  C   UNL A   1      46.324  34.927  30.853  1.00  0.00     0.041 A 
ATOM     90  F   UNL A   1      45.964  32.692  31.446  1.00  0.00    -0.206 F 
ATOM     91  C   UNL A   1      46.199  35.971  29.941  1.00  0.00     0.022 A 
BRANCH  88  92
ATOM     92  S   UNL A   1      45.455  37.045  27.479  1.00  0.00     0.124 S 
ATOM     93  O   UNL A   1      46.242  36.434  26.411  1.00  0.00    -0.237 OA
ATOM     94  O   UNL A   1      44.027  37.186  27.216  1.00  0.00    -0.237 OA
ATOM     95  O   UNL A   1      46.081  38.194  28.131  1.00  0.00    -0.744 OA
ENDBRANCH  88  92
ENDBRANCH  62  85
ENDBRANCH  36  37
ENDBRANCH  28  31
ENDBRANCH  26  27
ENDBRANCH   1  26
TORSDOF 15
ENDMDL
MODEL 3
REMARK VINA RESULT:     -12.7      1.614      7.723
REMARK SMILES O=C1Nc2ccccc2/C1=C/c1cccc(C(=O)NCCCCNC(=O)c2ccc(-c3c4nc(c(-c5cc(S(=O)(=O)[O-])ccc5F)c5ccc([nH]5)c(-c5cc(S(=O)(=O)[O-])ccc5F)c5nc(c(-c6cc(S(=O)(=O)[O-])ccc6F)c6ccc3[nH]6)C=C5)C=C4)cc2)c1
REMARK SMILES IDX 22 1 21 2 20 3 19 4 17 5 18 6 16 8 12 9 13 10 90 11 14 12
REMARK SMILES IDX 15 13 11 14 1 15 2 16 3 17 10 18 4 19 9 21 5 22 8 23 6 24
REMARK SMILES IDX 7 25 23 26 24 27 25 28 26 30 27 31 28 32 89 33 29 34 88 35
REMARK SMILES IDX 30 36 31 37 32 38 82 39 33 40 87 41 81 42 83 43 34 44 86 45
REMARK SMILES IDX 80 46 79 47 35 49 67 50 47 51 66 52 48 53 51 54 65 55 84 56
REMARK SMILES IDX 49 57 50 58 64 60 85 61 52 62 36 63 37 64 45 65 38 66 44 67
REMARK SMILES IDX 46 68 43 69 39 70 40 71 41 72 42 73 68 74 69 75 77 76 70 77
REMARK SMILES IDX 76 78 78 79 75 80 71 81 72 82 73 83 74 84 53 85 54 86 62 87
REMARK SMILES IDX 55 88 61 89 63 90 60 91 56 92 57 93 58 94 59 95
REMARK H PARENT 19 7 3 20 24 29 83 48 51 59
REMARK Flexibility Score: inf
ROOT
ATOM      1  C   UNL A   1      35.237  21.389  24.945  1.00  0.00     0.023 C 
ENDROOT
BRANCH   1   2
ATOM      2  C   UNL A   1      34.169  21.013  25.977  1.00  0.00     0.023 C 
BRANCH   2   3
ATOM      3  C   UNL A   1      32.741  21.331  25.523  1.00  0.00     0.116 C 
BRANCH   3   4
ATOM      4  N   UNL A   1      32.134  22.310  26.406  1.00  0.00    -0.352 N 
ATOM      5  C   UNL A   1      31.906  23.660  26.307  1.00  0.00     0.251 C 
ATOM      6  O   UNL A   1      31.347  24.199  27.266  1.00  0.00    -0.269 OA
ATOM      7  H   UNL A   1      31.822  21.925  27.257  1.00  0.00     0.163 HD
BRANCH   5   8
ATOM      8  C   UNL A   1      32.245  24.496  25.116  1.00  0.00     0.040 A 
ATOM      9  C   UNL A   1      31.773  26.208  23.444  1.00  0.00    -0.024 A 
ATOM     10  C   UNL A   1      33.100  26.189  23.021  1.00  0.00     0.008 A 
ATOM     11  C   UNL A   1      31.343  25.295  24.420  1.00  0.00     0.022 A 
ATOM     12  C   UNL A   1      33.999  25.305  23.622  1.00  0.00     0.001 A 
ATOM     13  C   UNL A   1      33.580  24.489  24.678  1.00  0.00     0.014 A 
BRANCH   9  14
ATOM     14  C   UNL A   1      30.800  27.182  22.937  1.00  0.00     0.022 C 
ATOM     15  O   UNL A   1      32.541  28.666  25.027  1.00  0.00    -0.269 OA
ATOM     16  C   UNL A   1      31.536  29.085  24.494  1.00  0.00     0.256 C 
ATOM     17  N   UNL A   1      30.946  30.319  24.721  1.00  0.00    -0.321 N 
ATOM     18  C   UNL A   1      30.658  28.416  23.452  1.00  0.00     0.050 C 
ATOM     19  C   UNL A   1      29.804  30.489  23.948  1.00  0.00     0.049 A 
ATOM     20  H   UNL A   1      31.293  30.991  25.351  1.00  0.00     0.170 HD
ATOM     21  C   UNL A   1      29.578  29.362  23.147  1.00  0.00     0.011 A 
ATOM     22  C   UNL A   1      28.959  31.578  23.961  1.00  0.00     0.027 A 
ATOM     23  C   UNL A   1      28.455  29.296  22.342  1.00  0.00     0.011 A 
ATOM     24  C   UNL A   1      27.829  31.518  23.144  1.00  0.00     0.002 A 
ATOM     25  C   UNL A   1      27.576  30.386  22.346  1.00  0.00     0.001 A 
ENDBRANCH   9  14
ENDBRANCH   5   8
ENDBRANCH   3   4
ENDBRANCH   2   3
ENDBRANCH   1   2
BRANCH   1  26
ATOM     26  C   UNL A   1      36.573  21.822  25.538  1.00  0.00     0.116 C 
BRANCH  26  27
ATOM     27  N   UNL A   1      37.562  20.754  25.569  1.00  0.00    -0.352 N 
ATOM     28  C   UNL A   1      38.889  20.835  25.917  1.00  0.00     0.251 C 
ATOM     29  H   UNL A   1      37.240  19.861  25.307  1.00  0.00     0.163 HD
ATOM     30  O   UNL A   1      39.628  19.867  25.773  1.00  0.00    -0.269 OA
BRANCH  28  31
ATOM     31  C   UNL A   1      39.412  22.120  26.425  1.00  0.00     0.039 A 
ATOM     32  C   UNL A   1      40.424  22.107  27.385  1.00  0.00     0.014 A 
ATOM     33  C   UNL A   1      38.950  23.328  25.895  1.00  0.00     0.014 A 
ATOM     34  C   UNL A   1      41.021  23.309  27.766  1.00  0.00     0.010 A 
ATOM     35  C   UNL A   1      39.605  24.512  26.212  1.00  0.00     0.010 A 
ATOM     36  C   UNL A   1      40.647  24.517  27.152  1.00  0.00    -0.014 A 
BRANCH  36  37
ATOM     37  C   UNL A   1      41.336  25.791  27.485  1.00  0.00     0.031 A 
ATOM     38  C   UNL A   1      40.615  26.851  28.274  1.00  0.00     0.074 A 
ATOM     39  C   UNL A   1      42.587  26.011  27.033  1.00  0.00     0.049 A 
ATOM     40  N   UNL A   1      41.025  28.043  28.623  1.00  0.00    -0.248 NA
ATOM     41  C   UNL A   1      39.241  26.542  28.699  1.00  0.00     0.031 C 
ATOM     42  C   UNL A   1      43.368  25.076  26.220  1.00  0.00     0.029 A 
ATOM     43  N   UNL A   1      43.424  27.089  27.190  1.00  0.00    -0.354 N 
ATOM     44  C   UNL A   1      39.960  28.628  29.298  1.00  0.00     0.074 A 
ATOM     45  C   UNL A   1      38.864  27.685  29.249  1.00  0.00     0.031 C 
ATOM     46  C   UNL A   1      44.578  25.607  25.979  1.00  0.00     0.029 A 
ATOM     47  C   UNL A   1      44.644  26.937  26.572  1.00  0.00     0.049 A 
ATOM     48  H   UNL A   1      43.175  27.894  27.698  1.00  0.00     0.167 HD
ATOM     49  C   UNL A   1      39.910  29.831  29.922  1.00  0.00     0.034 A 
ATOM     50  C   UNL A   1      45.693  27.782  26.480  1.00  0.00     0.034 A 
ATOM     51  C   UNL A   1      41.017  30.754  29.969  1.00  0.00     0.049 A 
ATOM     52  C   UNL A   1      45.601  29.125  27.160  1.00  0.00     0.074 A 
ATOM     53  C   UNL A   1      41.096  31.970  30.623  1.00  0.00     0.029 A 
ATOM     54  N   UNL A   1      42.235  30.570  29.327  1.00  0.00    -0.354 N 
ATOM     55  N   UNL A   1      44.608  29.636  27.851  1.00  0.00    -0.248 NA
ATOM     56  C   UNL A   1      46.776  30.000  27.060  1.00  0.00     0.031 C 
ATOM     57  C   UNL A   1      42.324  32.559  30.308  1.00  0.00     0.029 A 
ATOM     58  C   UNL A   1      43.055  31.669  29.537  1.00  0.00     0.049 A 
ATOM     59  H   UNL A   1      42.481  29.775  28.799  1.00  0.00     0.167 HD
ATOM     60  C   UNL A   1      45.054  30.878  28.296  1.00  0.00     0.074 A 
ATOM     61  C   UNL A   1      46.410  31.028  27.811  1.00  0.00     0.031 C 
ATOM     62  C   UNL A   1      44.403  31.810  29.039  1.00  0.00     0.034 A 
BRANCH  49  63
ATOM     63  C   UNL A   1      38.607  30.225  30.580  1.00  0.00     0.023 A 
ATOM     64  C   UNL A   1      37.591  30.892  29.873  1.00  0.00     0.031 A 
ATOM     65  C   UNL A   1      38.383  29.940  31.939  1.00  0.00     0.131 A 
ATOM     66  C   UNL A   1      36.431  31.313  30.542  1.00  0.00     0.055 A 
ATOM     67  C   UNL A   1      37.190  30.285  32.577  1.00  0.00     0.041 A 
ATOM     68  F   UNL A   1      39.325  29.328  32.673  1.00  0.00    -0.206 F 
ATOM     69  C   UNL A   1      36.211  30.989  31.882  1.00  0.00     0.022 A 
BRANCH  66  70
ATOM     70  S   UNL A   1      35.281  32.413  29.672  1.00  0.00     0.124 S 
ATOM     71  O   UNL A   1      34.678  31.502  28.702  1.00  0.00    -0.237 OA
ATOM     72  O   UNL A   1      34.409  32.872  30.745  1.00  0.00    -0.237 OA
ATOM     73  O   UNL A   1      36.154  33.435  29.096  1.00  0.00    -0.744 OA
ENDBRANCH  66  70
ENDBRANCH  49  63
BRANCH  50  74
ATOM     74  C   UNL A   1      46.912  27.400  25.706  1.00  0.00     0.023 A 
ATOM     75  C   UNL A   1      47.096  27.828  24.382  1.00  0.00     0.031 A 
ATOM     76  C   UNL A   1      47.884  26.550  26.263  1.00  0.00     0.131 A 
ATOM     77  C   UNL A   1      48.193  27.360  23.640  1.00  0.00     0.055 A 
ATOM     78  C   UNL A   1      49.008  26.139  25.542  1.00  0.00     0.041 A 
ATOM     79  F   UNL A   1      47.761  26.109  27.525  1.00  0.00    -0.206 F 
ATOM     80  C   UNL A   1      49.158  26.532  24.216  1.00  0.00     0.022 A 
BRANCH  77  81
ATOM     81  S   UNL A   1      48.280  27.761  21.872  1.00  0.00     0.124 S 
ATOM     82  O   UNL A   1      49.460  28.617  21.821  1.00  0.00    -0.237 OA
ATOM     83  O   UNL A   1      48.418  26.441  21.269  1.00  0.00    -0.237 OA
ATOM     84  O   UNL A   1      47.008  28.434  21.614  1.00  0.00    -0.744 OA
ENDBRANCH  77  81
ENDBRANCH  50  74
BRANCH  62  85
ATOM     85  C   UNL A   1      45.175  33.053  29.417  1.00  0.00     0.023 A 
ATOM     86  C   UNL A   1      45.114  34.229  28.650  1.00  0.00     0.031 A 
ATOM     87  C   UNL A   1      45.997  33.053  30.560  1.00  0.00     0.131 A 
ATOM     88  C   UNL A   1      45.908  35.332  28.997  1.00  0.00     0.055 A 
ATOM     89  C   UNL A   1      46.726  34.178  30.942  1.00  0.00     0.041 A 
ATOM     90  F   UNL A   1      46.100  31.957  31.329  1.00  0.00    -0.206 F 
ATOM     91  C   UNL A   1      46.698  35.322  30.149  1.00  0.00     0.022 A 
BRANCH  88  92
ATOM     92  S   UNL A   1      45.982  36.743  27.860  1.00  0.00     0.124 S 
ATOM     93  O   UNL A   1      45.809  37.873  28.768  1.00  0.00    -0.237 OA
ATOM     94  O   UNL A   1      47.308  36.599  27.269  1.00  0.00    -0.237 OA
ATOM     95  O   UNL A   1      44.868  36.506  26.945  1.00  0.00    -0.744 OA
ENDBRANCH  88  92
ENDBRANCH  62  85
ENDBRANCH  36  37
ENDBRANCH  28  31
ENDBRANCH  26  27
ENDBRANCH   1  26
TORSDOF 15
ENDMDL
