MODEL 1
REMARK VINA RESULT:     -11.9      0.000      0.000
REMARK SMILES CC(C)[C@H]([NH2+]C[C@H]1CC[C@@H](C(=O)NCCCCNC(=O)c2ccc(-c3c4nc(c(-c5cc(S(=O)(=O)[O-])ccc5F)c5ccc([nH]5)c(-c5cc(S(=O)(=O)[O-])ccc5F)c5nc(c(-c6cc(S(=O)(=O)[O-])ccc6F)c6ccc3[nH]6)C=C5)C=C4)cc2)CC1)c1ccccc1
REMARK SMILES IDX 15 1 14 2 13 3 11 4 12 5 10 7 7 8 8 9 85 10 9 11 84 12 6 13
REMARK SMILES IDX 5 14 4 17 2 18 1 19 3 20 86 21 87 22 91 23 88 24 90 25 89 26
REMARK SMILES IDX 16 27 17 28 18 29 19 30 20 32 21 33 22 34 83 35 23 36 82 37
REMARK SMILES IDX 24 38 25 39 26 40 76 41 27 42 81 43 75 44 77 45 28 46 80 47
REMARK SMILES IDX 74 48 73 49 29 51 61 52 41 53 60 54 42 55 45 56 59 57 78 58
REMARK SMILES IDX 43 59 44 60 58 62 79 63 46 64 30 65 31 66 39 67 32 68 38 69
REMARK SMILES IDX 40 70 37 71 33 72 34 73 35 74 36 75 62 76 63 77 71 78 64 79
REMARK SMILES IDX 70 80 72 81 69 82 65 83 66 84 67 85 68 86 47 87 48 88 56 89
REMARK SMILES IDX 49 90 55 91 57 92 54 93 50 94 51 95 52 96 53 97
REMARK H PARENT 13 6 5 15 5 16 18 31 77 50 45 61
REMARK Flexibility Score: inf
ROOT
ATOM      1  C   UNL A   1      31.494  29.276  25.375  1.00  0.00     0.023 C 
ENDROOT
BRANCH   1   2
ATOM      2  C   UNL A   1      30.848  29.127  24.000  1.00  0.00     0.116 C 
BRANCH   2   3
ATOM      3  N   UNL A   1      29.976  27.980  23.905  1.00  0.00    -0.356 N 
ATOM      4  C   UNL A   1      30.218  26.647  23.881  1.00  0.00     0.223 C 
ATOM      5  O   UNL A   1      29.216  25.921  23.864  1.00  0.00    -0.275 OA
ATOM      6  H   UNL A   1      29.022  28.212  23.847  1.00  0.00     0.163 HD
BRANCH   4   7
ATOM      7  C   UNL A   1      31.610  25.992  23.874  1.00  0.00     0.078 C 
ATOM      8  C   UNL A   1      32.173  23.097  24.565  1.00  0.00     0.044 C 
ATOM      9  C   UNL A   1      31.648  23.501  23.177  1.00  0.00     0.010 C 
ATOM     10  C   UNL A   1      32.019  24.176  25.662  1.00  0.00     0.010 C 
ATOM     11  C   UNL A   1      31.875  24.955  22.788  1.00  0.00     0.014 C 
ATOM     12  C   UNL A   1      32.199  25.621  25.230  1.00  0.00     0.014 C 
BRANCH   8  13
ATOM     13  C   UNL A   1      31.499  21.803  25.101  1.00  0.00     0.264 C 
BRANCH  13  14
ATOM     14  N   UNL A   1      32.386  20.882  25.812  1.00  0.00    -0.340 N 
ATOM     15  H   UNL A   1      32.777  21.369  26.618  1.00  0.00     0.346 HD
ATOM     16  H   UNL A   1      31.825  20.075  26.083  1.00  0.00     0.346 HD
BRANCH  14  17
ATOM     17  C   UNL A   1      33.511  20.373  24.975  1.00  0.00     0.216 C 
BRANCH  17  18
ATOM     18  C   UNL A   1      34.886  20.926  25.502  1.00  0.00     0.046 C 
ATOM     19  C   UNL A   1      35.713  21.693  24.457  1.00  0.00     0.014 C 
ATOM     20  C   UNL A   1      34.729  21.679  26.832  1.00  0.00     0.014 C 
ENDBRANCH  17  18
BRANCH  17  21
ATOM     21  C   UNL A   1      33.436  18.840  24.852  1.00  0.00     0.009 A 
ATOM     22  C   UNL A   1      32.677  18.079  25.761  1.00  0.00     0.010 A 
ATOM     23  C   UNL A   1      34.089  18.137  23.825  1.00  0.00     0.010 A 
ATOM     24  C   UNL A   1      32.647  16.682  25.699  1.00  0.00     0.001 A 
ATOM     25  C   UNL A   1      34.077  16.741  23.769  1.00  0.00     0.001 A 
ATOM     26  C   UNL A   1      33.364  16.013  24.714  1.00  0.00     0.000 A 
ENDBRANCH  17  21
ENDBRANCH  14  17
ENDBRANCH  13  14
ENDBRANCH   8  13
ENDBRANCH   4   7
ENDBRANCH   2   3
ENDBRANCH   1   2
BRANCH   1  27
ATOM     27  C   UNL A   1      31.540  30.705  25.911  1.00  0.00     0.023 C 
BRANCH  27  28
ATOM     28  C   UNL A   1      32.702  31.011  26.852  1.00  0.00     0.116 C 
BRANCH  28  29
ATOM     29  N   UNL A   1      32.800  32.407  27.250  1.00  0.00    -0.352 N 
ATOM     30  C   UNL A   1      33.839  33.042  27.895  1.00  0.00     0.251 C 
ATOM     31  H   UNL A   1      32.023  32.971  27.030  1.00  0.00     0.163 HD
ATOM     32  O   UNL A   1      33.741  34.212  28.236  1.00  0.00    -0.269 OA
BRANCH  30  33
ATOM     33  C   UNL A   1      35.053  32.293  28.247  1.00  0.00     0.039 A 
ATOM     34  C   UNL A   1      36.264  32.990  28.221  1.00  0.00     0.014 A 
ATOM     35  C   UNL A   1      34.999  30.961  28.658  1.00  0.00     0.014 A 
ATOM     36  C   UNL A   1      37.407  32.385  28.721  1.00  0.00     0.010 A 
ATOM     37  C   UNL A   1      36.119  30.388  29.239  1.00  0.00     0.010 A 
ATOM     38  C   UNL A   1      37.323  31.106  29.290  1.00  0.00    -0.014 A 
BRANCH  38  39
ATOM     39  C   UNL A   1      38.497  30.519  29.965  1.00  0.00     0.031 A 
ATOM     40  C   UNL A   1      38.836  30.951  31.356  1.00  0.00     0.074 A 
ATOM     41  C   UNL A   1      39.252  29.636  29.286  1.00  0.00     0.049 A 
ATOM     42  N   UNL A   1      39.839  30.592  32.110  1.00  0.00    -0.248 NA
ATOM     43  C   UNL A   1      37.947  31.952  31.967  1.00  0.00     0.031 C 
ATOM     44  C   UNL A   1      39.010  29.203  27.904  1.00  0.00     0.029 A 
ATOM     45  N   UNL A   1      40.366  28.935  29.658  1.00  0.00    -0.354 N 
ATOM     46  C   UNL A   1      39.710  31.330  33.280  1.00  0.00     0.074 A 
ATOM     47  C   UNL A   1      38.573  32.208  33.103  1.00  0.00     0.031 C 
ATOM     48  C   UNL A   1      39.922  28.278  27.566  1.00  0.00     0.029 A 
ATOM     49  C   UNL A   1      40.833  28.082  28.685  1.00  0.00     0.049 A 
ATOM     50  H   UNL A   1      40.794  29.031  30.540  1.00  0.00     0.167 HD
ATOM     51  C   UNL A   1      40.463  31.259  34.406  1.00  0.00     0.034 A 
ATOM     52  C   UNL A   1      41.880  27.236  28.706  1.00  0.00     0.034 A 
ATOM     53  C   UNL A   1      41.586  30.364  34.538  1.00  0.00     0.049 A 
ATOM     54  C   UNL A   1      42.686  27.156  29.976  1.00  0.00     0.074 A 
ATOM     55  C   UNL A   1      42.431  30.181  35.616  1.00  0.00     0.029 A 
ATOM     56  N   UNL A   1      42.017  29.489  33.543  1.00  0.00    -0.354 N 
ATOM     57  N   UNL A   1      42.541  27.840  31.089  1.00  0.00    -0.248 NA
ATOM     58  C   UNL A   1      43.781  26.182  30.001  1.00  0.00     0.031 C 
ATOM     59  C   UNL A   1      43.398  29.234  35.258  1.00  0.00     0.029 A 
ATOM     60  C   UNL A   1      43.121  28.775  33.978  1.00  0.00     0.049 A 
ATOM     61  H   UNL A   1      41.598  29.393  32.657  1.00  0.00     0.167 HD
ATOM     62  C   UNL A   1      43.513  27.361  31.959  1.00  0.00     0.074 A 
ATOM     63  C   UNL A   1      44.220  26.314  31.244  1.00  0.00     0.031 C 
ATOM     64  C   UNL A   1      43.803  27.745  33.229  1.00  0.00     0.034 A 
BRANCH  51  65
ATOM     65  C   UNL A   1      40.101  32.196  35.533  1.00  0.00     0.023 A 
ATOM     66  C   UNL A   1      39.166  31.832  36.521  1.00  0.00     0.031 A 
ATOM     67  C   UNL A   1      40.624  33.500  35.577  1.00  0.00     0.131 A 
ATOM     68  C   UNL A   1      38.710  32.788  37.443  1.00  0.00     0.055 A 
ATOM     69  C   UNL A   1      40.234  34.418  36.554  1.00  0.00     0.041 A 
ATOM     70  F   UNL A   1      41.500  33.916  34.648  1.00  0.00    -0.206 F 
ATOM     71  C   UNL A   1      39.256  34.072  37.482  1.00  0.00     0.022 A 
BRANCH  68  72
ATOM     72  S   UNL A   1      37.271  32.381  38.470  1.00  0.00     0.124 S 
ATOM     73  O   UNL A   1      36.206  33.113  37.788  1.00  0.00    -0.237 OA
ATOM     74  O   UNL A   1      37.212  30.928  38.371  1.00  0.00    -0.237 OA
ATOM     75  O   UNL A   1      37.631  32.902  39.787  1.00  0.00    -0.744 OA
ENDBRANCH  68  72
ENDBRANCH  51  65
BRANCH  52  76
ATOM     76  C   UNL A   1      42.206  26.397  27.518  1.00  0.00     0.023 A 
ATOM     77  C   UNL A   1      41.820  25.049  27.453  1.00  0.00     0.031 A 
ATOM     78  C   UNL A   1      42.922  26.928  26.429  1.00  0.00     0.131 A 
ATOM     79  C   UNL A   1      42.186  24.266  26.347  1.00  0.00     0.055 A 
ATOM     80  C   UNL A   1      43.243  26.158  25.309  1.00  0.00     0.041 A 
ATOM     81  F   UNL A   1      43.302  28.216  26.430  1.00  0.00    -0.206 F 
ATOM     82  C   UNL A   1      42.885  24.815  25.270  1.00  0.00     0.022 A 
BRANCH  79  83
ATOM     83  S   UNL A   1      41.796  22.494  26.367  1.00  0.00     0.124 S 
ATOM     84  O   UNL A   1      42.342  22.082  27.654  1.00  0.00    -0.237 OA
ATOM     85  O   UNL A   1      40.340  22.506  26.262  1.00  0.00    -0.237 OA
ATOM     86  O   UNL A   1      42.499  21.978  25.195  1.00  0.00    -0.744 OA
ENDBRANCH  79  83
ENDBRANCH  52  76
BRANCH  64  87
ATOM     87  C   UNL A   1      44.910  26.991  33.917  1.00  0.00     0.023 A 
ATOM     88  C   UNL A   1      44.656  25.818  34.647  1.00  0.00     0.031 A 
ATOM     89  C   UNL A   1      46.229  27.472  33.866  1.00  0.00     0.131 A 
ATOM     90  C   UNL A   1      45.695  25.200  35.354  1.00  0.00     0.055 A 
ATOM     91  C   UNL A   1      47.272  26.818  34.520  1.00  0.00     0.041 A 
ATOM     92  F   UNL A   1      46.523  28.590  33.182  1.00  0.00    -0.206 F 
ATOM     93  C   UNL A   1      47.005  25.684  35.283  1.00  0.00     0.022 A 
BRANCH  90  94
ATOM     94  S   UNL A   1      45.291  23.818  36.456  1.00  0.00     0.124 S 
ATOM     95  O   UNL A   1      44.313  23.077  35.667  1.00  0.00    -0.237 OA
ATOM     96  O   UNL A   1      46.589  23.173  36.634  1.00  0.00    -0.237 OA
ATOM     97  O   UNL A   1      44.758  24.476  37.647  1.00  0.00    -0.744 OA
ENDBRANCH  90  94
ENDBRANCH  64  87
ENDBRANCH  38  39
ENDBRANCH  30  33
ENDBRANCH  28  29
ENDBRANCH  27  28
ENDBRANCH   1  27
TORSDOF 19
ENDMDL
MODEL 2
REMARK VINA RESULT:     -11.9      2.352      8.063
REMARK SMILES CC(C)[C@H]([NH2+]C[C@H]1CC[C@@H](C(=O)NCCCCNC(=O)c2ccc(-c3c4nc(c(-c5cc(S(=O)(=O)[O-])ccc5F)c5ccc([nH]5)c(-c5cc(S(=O)(=O)[O-])ccc5F)c5nc(c(-c6cc(S(=O)(=O)[O-])ccc6F)c6ccc3[nH]6)C=C5)C=C4)cc2)CC1)c1ccccc1
REMARK SMILES IDX 15 1 14 2 13 3 11 4 12 5 10 7 7 8 8 9 85 10 9 11 84 12 6 13
REMARK SMILES IDX 5 14 4 17 2 18 1 19 3 20 86 21 87 22 91 23 88 24 90 25 89 26
REMARK SMILES IDX 16 27 17 28 18 29 19 30 20 32 21 33 22 34 83 35 23 36 82 37
REMARK SMILES IDX 24 38 25 39 26 40 76 41 27 42 81 43 75 44 77 45 28 46 80 47
REMARK SMILES IDX 74 48 73 49 29 51 61 52 41 53 60 54 42 55 45 56 59 57 78 58
REMARK SMILES IDX 43 59 44 60 58 62 79 63 46 64 30 65 31 66 39 67 32 68 38 69
REMARK SMILES IDX 40 70 37 71 33 72 34 73 35 74 36 75 62 76 63 77 71 78 64 79
REMARK SMILES IDX 70 80 72 81 69 82 65 83 66 84 67 85 68 86 47 87 48 88 56 89
REMARK SMILES IDX 49 90 55 91 57 92 54 93 50 94 51 95 52 96 53 97
REMARK H PARENT 13 6 5 15 5 16 18 31 77 50 45 61
REMARK Flexibility Score: inf
ROOT
ATOM      1  C   UNL A   1      35.075  30.404  27.914  1.00  0.00     0.023 C 
ENDROOT
BRANCH   1   2
ATOM      2  C   UNL A   1      34.371  29.315  27.109  1.00  0.00     0.116 C 
BRANCH   2   3
ATOM      3  N   UNL A   1      33.121  28.894  27.696  1.00  0.00    -0.356 N 
ATOM      4  C   UNL A   1      32.191  27.986  27.312  1.00  0.00     0.223 C 
ATOM      5  O   UNL A   1      31.252  27.815  28.100  1.00  0.00    -0.275 OA
ATOM      6  H   UNL A   1      32.903  29.354  28.538  1.00  0.00     0.163 HD
BRANCH   4   7
ATOM      7  C   UNL A   1      32.220  27.177  26.004  1.00  0.00     0.078 C 
ATOM      8  C   UNL A   1      32.264  24.152  25.831  1.00  0.00     0.044 C 
ATOM      9  C   UNL A   1      30.954  24.921  26.080  1.00  0.00     0.010 C 
ATOM     10  C   UNL A   1      33.555  24.969  26.065  1.00  0.00     0.010 C 
ATOM     11  C   UNL A   1      30.964  26.384  25.660  1.00  0.00     0.014 C 
ATOM     12  C   UNL A   1      33.515  26.438  25.684  1.00  0.00     0.014 C 
BRANCH   8  13
ATOM     13  C   UNL A   1      32.372  22.868  26.701  1.00  0.00     0.264 C 
BRANCH  13  14
ATOM     14  N   UNL A   1      33.469  21.966  26.352  1.00  0.00    -0.340 N 
ATOM     15  H   UNL A   1      34.345  22.392  26.651  1.00  0.00     0.346 HD
ATOM     16  H   UNL A   1      33.290  21.080  26.823  1.00  0.00     0.346 HD
BRANCH  14  17
ATOM     17  C   UNL A   1      33.559  21.676  24.891  1.00  0.00     0.216 C 
BRANCH  17  18
ATOM     18  C   UNL A   1      34.998  22.009  24.349  1.00  0.00     0.046 C 
ATOM     19  C   UNL A   1      35.043  23.119  23.286  1.00  0.00     0.014 C 
ATOM     20  C   UNL A   1      36.007  22.210  25.490  1.00  0.00     0.014 C 
ENDBRANCH  17  18
BRANCH  17  21
ATOM     21  C   UNL A   1      33.075  20.243  24.599  1.00  0.00     0.009 A 
ATOM     22  C   UNL A   1      33.085  19.259  25.605  1.00  0.00     0.010 A 
ATOM     23  C   UNL A   1      32.580  19.861  23.341  1.00  0.00     0.010 A 
ATOM     24  C   UNL A   1      32.705  17.939  25.340  1.00  0.00     0.001 A 
ATOM     25  C   UNL A   1      32.216  18.540  23.067  1.00  0.00     0.001 A 
ATOM     26  C   UNL A   1      32.289  17.576  24.064  1.00  0.00     0.000 A 
ENDBRANCH  17  21
ENDBRANCH  14  17
ENDBRANCH  13  14
ENDBRANCH   8  13
ENDBRANCH   4   7
ENDBRANCH   2   3
ENDBRANCH   1   2
BRANCH   1  27
ATOM     27  C   UNL A   1      34.667  31.832  27.559  1.00  0.00     0.023 C 
BRANCH  27  28
ATOM     28  C   UNL A   1      33.200  32.172  27.811  1.00  0.00     0.116 C 
BRANCH  28  29
ATOM     29  N   UNL A   1      32.914  33.598  27.851  1.00  0.00    -0.352 N 
ATOM     30  C   UNL A   1      33.525  34.572  28.610  1.00  0.00     0.251 C 
ATOM     31  H   UNL A   1      32.190  33.906  27.259  1.00  0.00     0.163 HD
ATOM     32  O   UNL A   1      33.118  35.724  28.593  1.00  0.00    -0.269 OA
BRANCH  30  33
ATOM     33  C   UNL A   1      34.632  34.218  29.509  1.00  0.00     0.039 A 
ATOM     34  C   UNL A   1      34.315  33.491  30.659  1.00  0.00     0.014 A 
ATOM     35  C   UNL A   1      35.957  34.529  29.198  1.00  0.00     0.014 A 
ATOM     36  C   UNL A   1      35.337  32.974  31.439  1.00  0.00     0.010 A 
ATOM     37  C   UNL A   1      36.978  33.938  29.925  1.00  0.00     0.010 A 
ATOM     38  C   UNL A   1      36.670  33.142  31.039  1.00  0.00    -0.014 A 
BRANCH  38  39
ATOM     39  C   UNL A   1      37.755  32.465  31.774  1.00  0.00     0.031 A 
ATOM     40  C   UNL A   1      38.479  31.325  31.130  1.00  0.00     0.074 A 
ATOM     41  C   UNL A   1      38.033  32.871  33.027  1.00  0.00     0.049 A 
ATOM     42  N   UNL A   1      39.429  30.573  31.612  1.00  0.00    -0.248 NA
ATOM     43  C   UNL A   1      38.047  30.959  29.771  1.00  0.00     0.031 C 
ATOM     44  C   UNL A   1      37.334  33.946  33.741  1.00  0.00     0.029 A 
ATOM     45  N   UNL A   1      38.977  32.444  33.920  1.00  0.00    -0.354 N 
ATOM     46  C   UNL A   1      39.703  29.636  30.623  1.00  0.00     0.074 A 
ATOM     47  C   UNL A   1      38.767  29.873  29.545  1.00  0.00     0.031 C 
ATOM     48  C   UNL A   1      37.905  34.122  34.943  1.00  0.00     0.029 A 
ATOM     49  C   UNL A   1      38.979  33.151  35.101  1.00  0.00     0.049 A 
ATOM     50  H   UNL A   1      39.597  31.702  33.736  1.00  0.00     0.167 HD
ATOM     51  C   UNL A   1      40.666  28.682  30.613  1.00  0.00     0.034 A 
ATOM     52  C   UNL A   1      39.769  33.023  36.184  1.00  0.00     0.034 A 
ATOM     53  C   UNL A   1      41.580  28.485  31.711  1.00  0.00     0.049 A 
ATOM     54  C   UNL A   1      40.848  31.973  36.140  1.00  0.00     0.074 A 
ATOM     55  C   UNL A   1      42.605  27.566  31.836  1.00  0.00     0.029 A 
ATOM     56  N   UNL A   1      41.576  29.236  32.884  1.00  0.00    -0.354 N 
ATOM     57  N   UNL A   1      41.117  31.107  35.187  1.00  0.00    -0.248 NA
ATOM     58  C   UNL A   1      41.738  31.893  37.301  1.00  0.00     0.031 C 
ATOM     59  C   UNL A   1      43.188  27.730  33.099  1.00  0.00     0.029 A 
ATOM     60  C   UNL A   1      42.572  28.795  33.740  1.00  0.00     0.049 A 
ATOM     61  H   UNL A   1      40.955  29.975  33.077  1.00  0.00     0.167 HD
ATOM     62  C   UNL A   1      42.227  30.394  35.625  1.00  0.00     0.074 A 
ATOM     63  C   UNL A   1      42.586  30.950  36.917  1.00  0.00     0.031 C 
ATOM     64  C   UNL A   1      42.891  29.372  35.025  1.00  0.00     0.034 A 
BRANCH  51  65
ATOM     65  C   UNL A   1      40.731  27.785  29.400  1.00  0.00     0.023 A 
ATOM     66  C   UNL A   1      41.678  27.994  28.379  1.00  0.00     0.031 A 
ATOM     67  C   UNL A   1      39.783  26.765  29.213  1.00  0.00     0.131 A 
ATOM     68  C   UNL A   1      41.592  27.267  27.181  1.00  0.00     0.055 A 
ATOM     69  C   UNL A   1      39.761  25.982  28.056  1.00  0.00     0.041 A 
ATOM     70  F   UNL A   1      38.838  26.532  30.137  1.00  0.00    -0.206 F 
ATOM     71  C   UNL A   1      40.656  26.245  27.022  1.00  0.00     0.022 A 
BRANCH  68  72
ATOM     72  S   UNL A   1      42.607  27.798  25.774  1.00  0.00     0.124 S 
ATOM     73  O   UNL A   1      42.031  29.108  25.475  1.00  0.00    -0.237 OA
ATOM     74  O   UNL A   1      43.951  27.805  26.336  1.00  0.00    -0.237 OA
ATOM     75  O   UNL A   1      42.357  26.771  24.764  1.00  0.00    -0.744 OA
ENDBRANCH  68  72
ENDBRANCH  51  65
BRANCH  52  76
ATOM     76  C   UNL A   1      39.587  33.909  37.368  1.00  0.00     0.023 A 
ATOM     77  C   UNL A   1      38.918  33.456  38.517  1.00  0.00     0.031 A 
ATOM     78  C   UNL A   1      40.070  35.230  37.368  1.00  0.00     0.131 A 
ATOM     79  C   UNL A   1      38.712  34.326  39.599  1.00  0.00     0.055 A 
ATOM     80  C   UNL A   1      39.904  36.078  38.465  1.00  0.00     0.041 A 
ATOM     81  F   UNL A   1      40.731  35.711  36.303  1.00  0.00    -0.206 F 
ATOM     82  C   UNL A   1      39.211  35.631  39.585  1.00  0.00     0.022 A 
BRANCH  79  83
ATOM     83  S   UNL A   1      37.717  33.750  41.002  1.00  0.00     0.124 S 
ATOM     84  O   UNL A   1      38.645  32.851  41.677  1.00  0.00    -0.237 OA
ATOM     85  O   UNL A   1      37.420  35.001  41.693  1.00  0.00    -0.237 OA
ATOM     86  O   UNL A   1      36.572  33.104  40.366  1.00  0.00    -0.744 OA
ENDBRANCH  79  83
ENDBRANCH  52  76
BRANCH  64  87
ATOM     87  C   UNL A   1      44.089  28.833  35.760  1.00  0.00     0.023 A 
ATOM     88  C   UNL A   1      43.986  27.728  36.622  1.00  0.00     0.031 A 
ATOM     89  C   UNL A   1      45.341  29.455  35.619  1.00  0.00     0.131 A 
ATOM     90  C   UNL A   1      45.102  27.318  37.362  1.00  0.00     0.055 A 
ATOM     91  C   UNL A   1      46.464  29.003  36.311  1.00  0.00     0.041 A 
ATOM     92  F   UNL A   1      45.491  30.515  34.808  1.00  0.00    -0.206 F 
ATOM     93  C   UNL A   1      46.345  27.939  37.201  1.00  0.00     0.022 A 
BRANCH  90  94
ATOM     94  S   UNL A   1      44.881  26.031  38.621  1.00  0.00     0.124 S 
ATOM     95  O   UNL A   1      46.251  25.807  39.070  1.00  0.00    -0.237 OA
ATOM     96  O   UNL A   1      43.994  26.684  39.579  1.00  0.00    -0.237 OA
ATOM     97  O   UNL A   1      44.283  24.924  37.877  1.00  0.00    -0.744 OA
ENDBRANCH  90  94
ENDBRANCH  64  87
ENDBRANCH  38  39
ENDBRANCH  30  33
ENDBRANCH  28  29
ENDBRANCH  27  28
ENDBRANCH   1  27
TORSDOF 19
ENDMDL
MODEL 3
REMARK VINA RESULT:     -11.7      1.589      2.406
REMARK SMILES CC(C)[C@H]([NH2+]C[C@H]1CC[C@@H](C(=O)NCCCCNC(=O)c2ccc(-c3c4nc(c(-c5cc(S(=O)(=O)[O-])ccc5F)c5ccc([nH]5)c(-c5cc(S(=O)(=O)[O-])ccc5F)c5nc(c(-c6cc(S(=O)(=O)[O-])ccc6F)c6ccc3[nH]6)C=C5)C=C4)cc2)CC1)c1ccccc1
REMARK SMILES IDX 15 1 14 2 13 3 11 4 12 5 10 7 7 8 8 9 85 10 9 11 84 12 6 13
REMARK SMILES IDX 5 14 4 17 2 18 1 19 3 20 86 21 87 22 91 23 88 24 90 25 89 26
REMARK SMILES IDX 16 27 17 28 18 29 19 30 20 32 21 33 22 34 83 35 23 36 82 37
REMARK SMILES IDX 24 38 25 39 26 40 76 41 27 42 81 43 75 44 77 45 28 46 80 47
REMARK SMILES IDX 74 48 73 49 29 51 61 52 41 53 60 54 42 55 45 56 59 57 78 58
REMARK SMILES IDX 43 59 44 60 58 62 79 63 46 64 30 65 31 66 39 67 32 68 38 69
REMARK SMILES IDX 40 70 37 71 33 72 34 73 35 74 36 75 62 76 63 77 71 78 64 79
REMARK SMILES IDX 70 80 72 81 69 82 65 83 66 84 67 85 68 86 47 87 48 88 56 89
REMARK SMILES IDX 49 90 55 91 57 92 54 93 50 94 51 95 52 96 53 97
REMARK H PARENT 13 6 5 15 5 16 18 31 77 50 45 61
REMARK Flexibility Score: inf
ROOT
ATOM      1  C   UNL A   1      31.294  29.635  24.611  1.00  0.00     0.023 C 
ENDROOT
BRANCH   1   2
ATOM      2  C   UNL A   1      31.152  28.142  24.329  1.00  0.00     0.116 C 
BRANCH   2   3
ATOM      3  N   UNL A   1      32.399  27.423  24.438  1.00  0.00    -0.356 N 
ATOM      4  C   UNL A   1      32.821  26.242  23.924  1.00  0.00     0.223 C 
ATOM      5  O   UNL A   1      33.999  25.945  24.161  1.00  0.00    -0.275 OA
ATOM      6  H   UNL A   1      33.072  27.877  24.993  1.00  0.00     0.163 HD
BRANCH   4   7
ATOM      7  C   UNL A   1      31.963  25.274  23.090  1.00  0.00     0.078 C 
ATOM      8  C   UNL A   1      31.681  22.304  23.620  1.00  0.00     0.044 C 
ATOM      9  C   UNL A   1      30.878  23.341  24.424  1.00  0.00     0.010 C 
ATOM     10  C   UNL A   1      32.884  22.876  22.834  1.00  0.00     0.010 C 
ATOM     11  C   UNL A   1      30.721  24.703  23.765  1.00  0.00     0.014 C 
ATOM     12  C   UNL A   1      32.713  24.260  22.233  1.00  0.00     0.014 C 
BRANCH   8  13
ATOM     13  C   UNL A   1      32.225  21.153  24.512  1.00  0.00     0.264 C 
BRANCH  13  14
ATOM     14  N   UNL A   1      33.044  20.158  23.820  1.00  0.00    -0.340 N 
ATOM     15  H   UNL A   1      32.424  19.517  23.325  1.00  0.00     0.346 HD
ATOM     16  H   UNL A   1      33.661  20.665  23.186  1.00  0.00     0.346 HD
BRANCH  14  17
ATOM     17  C   UNL A   1      33.913  19.362  24.735  1.00  0.00     0.216 C 
BRANCH  17  18
ATOM     18  C   UNL A   1      33.904  17.843  24.325  1.00  0.00     0.046 C 
ATOM     19  C   UNL A   1      33.512  16.875  25.454  1.00  0.00     0.014 C 
ATOM     20  C   UNL A   1      33.131  17.608  23.018  1.00  0.00     0.014 C 
ENDBRANCH  17  18
BRANCH  17  21
ATOM     21  C   UNL A   1      35.313  19.997  24.829  1.00  0.00     0.009 A 
ATOM     22  C   UNL A   1      35.469  21.394  24.897  1.00  0.00     0.010 A 
ATOM     23  C   UNL A   1      36.485  19.224  24.880  1.00  0.00     0.010 A 
ATOM     24  C   UNL A   1      36.735  21.989  24.923  1.00  0.00     0.001 A 
ATOM     25  C   UNL A   1      37.752  19.813  24.888  1.00  0.00     0.001 A 
ATOM     26  C   UNL A   1      37.877  21.197  24.899  1.00  0.00     0.000 A 
ENDBRANCH  17  21
ENDBRANCH  14  17
ENDBRANCH  13  14
ENDBRANCH   8  13
ENDBRANCH   4   7
ENDBRANCH   2   3
ENDBRANCH   1   2
BRANCH   1  27
ATOM     27  C   UNL A   1      32.512  30.017  25.450  1.00  0.00     0.023 C 
BRANCH  27  28
ATOM     28  C   UNL A   1      32.204  30.488  26.869  1.00  0.00     0.116 C 
BRANCH  28  29
ATOM     29  N   UNL A   1      32.245  31.932  27.044  1.00  0.00    -0.352 N 
ATOM     30  C   UNL A   1      33.274  32.704  27.537  1.00  0.00     0.251 C 
ATOM     31  H   UNL A   1      31.433  32.419  26.776  1.00  0.00     0.163 HD
ATOM     32  O   UNL A   1      33.129  33.907  27.700  1.00  0.00    -0.269 OA
BRANCH  30  33
ATOM     33  C   UNL A   1      34.537  32.074  27.943  1.00  0.00     0.039 A 
ATOM     34  C   UNL A   1      35.651  32.906  28.081  1.00  0.00     0.014 A 
ATOM     35  C   UNL A   1      34.613  30.715  28.249  1.00  0.00     0.014 A 
ATOM     36  C   UNL A   1      36.814  32.397  28.639  1.00  0.00     0.010 A 
ATOM     37  C   UNL A   1      35.743  30.228  28.888  1.00  0.00     0.010 A 
ATOM     38  C   UNL A   1      36.841  31.074  29.103  1.00  0.00    -0.014 A 
BRANCH  38  39
ATOM     39  C   UNL A   1      38.018  30.572  29.837  1.00  0.00     0.031 A 
ATOM     40  C   UNL A   1      38.240  31.006  31.252  1.00  0.00     0.074 A 
ATOM     41  C   UNL A   1      38.881  29.765  29.193  1.00  0.00     0.049 A 
ATOM     42  N   UNL A   1      39.223  30.716  32.059  1.00  0.00    -0.248 NA
ATOM     43  C   UNL A   1      37.239  31.921  31.821  1.00  0.00     0.031 C 
ATOM     44  C   UNL A   1      38.755  29.337  27.795  1.00  0.00     0.029 A 
ATOM     45  N   UNL A   1      40.025  29.150  29.622  1.00  0.00    -0.354 N 
ATOM     46  C   UNL A   1      38.968  31.422  33.228  1.00  0.00     0.074 A 
ATOM     47  C   UNL A   1      37.775  32.208  32.996  1.00  0.00     0.031 C 
ATOM     48  C   UNL A   1      39.757  28.495  27.499  1.00  0.00     0.029 A 
ATOM     49  C   UNL A   1      40.615  28.355  28.667  1.00  0.00     0.049 A 
ATOM     50  H   UNL A   1      40.392  29.265  30.529  1.00  0.00     0.167 HD
ATOM     51  C   UNL A   1      39.657  31.392  34.396  1.00  0.00     0.034 A 
ATOM     52  C   UNL A   1      41.725  27.595  28.740  1.00  0.00     0.034 A 
ATOM     53  C   UNL A   1      40.840  30.588  34.582  1.00  0.00     0.049 A 
ATOM     54  C   UNL A   1      42.461  27.558  30.054  1.00  0.00     0.074 A 
ATOM     55  C   UNL A   1      41.634  30.456  35.706  1.00  0.00     0.029 A 
ATOM     56  N   UNL A   1      41.398  29.769  33.604  1.00  0.00    -0.354 N 
ATOM     57  N   UNL A   1      42.196  28.210  31.165  1.00  0.00    -0.248 NA
ATOM     58  C   UNL A   1      43.628  26.677  30.131  1.00  0.00     0.031 C 
ATOM     59  C   UNL A   1      42.694  29.597  35.394  1.00  0.00     0.029 A 
ATOM     60  C   UNL A   1      42.530  29.139  34.095  1.00  0.00     0.049 A 
ATOM     61  H   UNL A   1      41.041  29.654  32.694  1.00  0.00     0.167 HD
ATOM     62  C   UNL A   1      43.152  27.796  32.085  1.00  0.00     0.074 A 
ATOM     63  C   UNL A   1      43.982  26.822  31.400  1.00  0.00     0.031 C 
ATOM     64  C   UNL A   1      43.336  28.180  33.374  1.00  0.00     0.034 A 
BRANCH  51  65
ATOM     65  C   UNL A   1      39.156  32.277  35.511  1.00  0.00     0.023 A 
ATOM     66  C   UNL A   1      39.550  33.625  35.615  1.00  0.00     0.031 A 
ATOM     67  C   UNL A   1      38.347  31.753  36.533  1.00  0.00     0.131 A 
ATOM     68  C   UNL A   1      39.221  34.367  36.760  1.00  0.00     0.055 A 
ATOM     69  C   UNL A   1      37.946  32.525  37.626  1.00  0.00     0.041 A 
ATOM     70  F   UNL A   1      37.958  30.468  36.506  1.00  0.00    -0.206 F 
ATOM     71  C   UNL A   1      38.401  33.835  37.755  1.00  0.00     0.022 A 
BRANCH  68  72
ATOM     72  S   UNL A   1      40.027  35.974  37.010  1.00  0.00     0.124 S 
ATOM     73  O   UNL A   1      39.783  36.627  35.726  1.00  0.00    -0.237 OA
ATOM     74  O   UNL A   1      39.302  36.518  38.152  1.00  0.00    -0.237 OA
ATOM     75  O   UNL A   1      41.422  35.622  37.266  1.00  0.00    -0.744 OA
ENDBRANCH  68  72
ENDBRANCH  51  65
BRANCH  52  76
ATOM     76  C   UNL A   1      42.187  26.806  27.562  1.00  0.00     0.023 A 
ATOM     77  C   UNL A   1      41.870  25.445  27.432  1.00  0.00     0.031 A 
ATOM     78  C   UNL A   1      42.964  27.399  26.551  1.00  0.00     0.131 A 
ATOM     79  C   UNL A   1      42.361  24.711  26.341  1.00  0.00     0.055 A 
ATOM     80  C   UNL A   1      43.412  26.677  25.443  1.00  0.00     0.041 A 
ATOM     81  F   UNL A   1      43.284  28.702  26.616  1.00  0.00    -0.206 F 
ATOM     82  C   UNL A   1      43.121  25.320  25.340  1.00  0.00     0.022 A 
BRANCH  79  83
ATOM     83  S   UNL A   1      42.053  22.924  26.284  1.00  0.00     0.124 S 
ATOM     84  O   UNL A   1      40.602  22.866  26.415  1.00  0.00    -0.237 OA
ATOM     85  O   UNL A   1      42.595  22.567  24.976  1.00  0.00    -0.237 OA
ATOM     86  O   UNL A   1      42.805  22.412  27.428  1.00  0.00    -0.744 OA
ENDBRANCH  79  83
ENDBRANCH  52  76
BRANCH  64  87
ATOM     87  C   UNL A   1      44.459  27.507  34.117  1.00  0.00     0.023 A 
ATOM     88  C   UNL A   1      44.275  26.275  34.767  1.00  0.00     0.031 A 
ATOM     89  C   UNL A   1      45.719  28.122  34.199  1.00  0.00     0.131 A 
ATOM     90  C   UNL A   1      45.315  25.728  35.529  1.00  0.00     0.055 A 
ATOM     91  C   UNL A   1      46.771  27.543  34.908  1.00  0.00     0.041 A 
ATOM     92  F   UNL A   1      45.945  29.300  33.596  1.00  0.00    -0.206 F 
ATOM     93  C   UNL A   1      46.567  26.347  35.591  1.00  0.00     0.022 A 
BRANCH  90  94
ATOM     94  S   UNL A   1      44.975  24.253  36.527  1.00  0.00     0.124 S 
ATOM     95  O   UNL A   1      46.212  23.494  36.378  1.00  0.00    -0.237 OA
ATOM     96  O   UNL A   1      44.731  24.822  37.849  1.00  0.00    -0.237 OA
ATOM     97  O   UNL A   1      43.803  23.665  35.880  1.00  0.00    -0.744 OA
ENDBRANCH  90  94
ENDBRANCH  64  87
ENDBRANCH  38  39
ENDBRANCH  30  33
ENDBRANCH  28  29
ENDBRANCH  27  28
ENDBRANCH   1  27
TORSDOF 19
ENDMDL
