MODEL 1
REMARK VINA RESULT:     -12.9      0.000      0.000
REMARK SMILES C[C@H](NC(=O)C1=Cc2cc(Br)ccc2OC1)C(=O)NCCCCNC(=O)c1ccc(-c2c3nc(c(-c4cc(S(=O)(=O)[O-])ccc4F)c4ccc([nH]4)c(-c4cc(S(=O)(=O)[O-])ccc4F)c4nc(c(-c5cc(S(=O)(=O)[O-])ccc5F)c5ccc2[nH]5)C=C4)C=C3)cc1
REMARK SMILES IDX 22 1 21 2 20 3 19 4 17 5 18 6 2 8 1 9 3 10 4 11 5 13 6 14
REMARK SMILES IDX 7 15 16 16 8 17 15 18 9 19 14 20 10 21 13 22 11 23 12 24
REMARK SMILES IDX 23 25 24 26 25 27 26 29 27 30 28 31 89 32 29 33 88 34 30 35
REMARK SMILES IDX 31 36 32 37 82 38 33 39 87 40 81 41 83 42 34 43 86 44 80 45
REMARK SMILES IDX 79 46 35 48 67 49 47 50 66 51 48 52 51 53 65 54 84 55 49 56
REMARK SMILES IDX 50 57 64 59 85 60 52 61 36 62 37 63 45 64 38 65 44 66 46 67
REMARK SMILES IDX 43 68 39 69 40 70 41 71 42 72 68 73 69 74 77 75 70 76 76 77
REMARK SMILES IDX 78 78 75 79 71 80 72 81 73 82 74 83 53 84 54 85 62 86 55 87
REMARK SMILES IDX 61 88 63 89 60 90 56 91 57 92 58 93 59 94
REMARK H PARENT 19 7 3 12 24 28 83 47 51 58
REMARK Flexibility Score: inf
ROOT
ATOM      1  C   UNL A   1      36.927  21.667  24.060  1.00  0.00     0.023 C 
ENDROOT
BRANCH   1   2
ATOM      2  C   UNL A   1      36.452  23.081  23.730  1.00  0.00     0.023 C 
BRANCH   2   3
ATOM      3  C   UNL A   1      35.078  23.428  24.296  1.00  0.00     0.116 C 
BRANCH   3   4
ATOM      4  N   UNL A   1      34.157  22.332  24.130  1.00  0.00    -0.354 N 
ATOM      5  C   UNL A   1      33.346  21.749  25.054  1.00  0.00     0.242 C 
ATOM      6  O   UNL A   1      32.666  20.785  24.690  1.00  0.00    -0.273 OA
ATOM      7  H   UNL A   1      34.109  21.951  23.223  1.00  0.00     0.163 HD
BRANCH   5   8
ATOM      8  C   UNL A   1      33.179  22.323  26.483  1.00  0.00     0.168 C 
ATOM      9  C   UNL A   1      34.139  21.644  27.447  1.00  0.00     0.041 C 
BRANCH   8  10
ATOM     10  N   UNL A   1      31.791  22.589  26.915  1.00  0.00    -0.341 N 
ATOM     11  C   UNL A   1      30.852  23.560  26.790  1.00  0.00     0.251 C 
ATOM     12  H   UNL A   1      31.447  21.840  27.453  1.00  0.00     0.164 HD
ATOM     13  O   UNL A   1      29.750  23.380  27.308  1.00  0.00    -0.270 OA
BRANCH  11  14
ATOM     14  C   UNL A   1      31.128  24.837  26.123  1.00  0.00     0.055 C 
ATOM     15  C   UNL A   1      30.188  25.331  25.303  1.00  0.00     0.025 C 
ATOM     16  C   UNL A   1      32.472  25.476  26.177  1.00  0.00     0.271 C 
ATOM     17  C   UNL A   1      30.410  26.666  24.759  1.00  0.00     0.018 A 
ATOM     18  O   UNL A   1      32.420  26.915  26.118  1.00  0.00    -0.488 OA
ATOM     19  C   UNL A   1      29.487  27.250  23.884  1.00  0.00     0.027 A 
ATOM     20  C   UNL A   1      31.499  27.416  25.228  1.00  0.00     0.127 A 
ATOM     21  C   UNL A   1      29.654  28.581  23.499  1.00  0.00     0.018 A 
ATOM     22  C   UNL A   1      31.647  28.750  24.853  1.00  0.00     0.048 A 
ATOM     23  Br  UNL A   1      28.408  29.383  22.327  1.00  0.00    -0.051 Br
ATOM     24  C   UNL A   1      30.723  29.334  23.985  1.00  0.00     0.019 A 
ENDBRANCH  11  14
ENDBRANCH   8  10
ENDBRANCH   5   8
ENDBRANCH   3   4
ENDBRANCH   2   3
ENDBRANCH   1   2
BRANCH   1  25
ATOM     25  C   UNL A   1      37.465  21.488  25.476  1.00  0.00     0.116 C 
BRANCH  25  26
ATOM     26  N   UNL A   1      38.558  20.530  25.588  1.00  0.00    -0.352 N 
ATOM     27  C   UNL A   1      39.783  20.718  26.196  1.00  0.00     0.251 C 
ATOM     28  H   UNL A   1      38.404  19.646  25.184  1.00  0.00     0.163 HD
ATOM     29  O   UNL A   1      40.645  19.854  26.143  1.00  0.00    -0.269 OA
BRANCH  27  30
ATOM     30  C   UNL A   1      40.036  22.019  26.851  1.00  0.00     0.039 A 
ATOM     31  C   UNL A   1      39.452  23.176  26.335  1.00  0.00     0.014 A 
ATOM     32  C   UNL A   1      40.984  22.093  27.874  1.00  0.00     0.014 A 
ATOM     33  C   UNL A   1      39.969  24.413  26.693  1.00  0.00     0.010 A 
ATOM     34  C   UNL A   1      41.436  23.344  28.299  1.00  0.00     0.010 A 
ATOM     35  C   UNL A   1      40.986  24.510  27.660  1.00  0.00    -0.014 A 
BRANCH  35  36
ATOM     36  C   UNL A   1      41.575  25.842  27.959  1.00  0.00     0.031 A 
ATOM     37  C   UNL A   1      42.913  26.241  27.395  1.00  0.00     0.074 A 
ATOM     38  C   UNL A   1      40.862  26.722  28.686  1.00  0.00     0.049 A 
ATOM     39  N   UNL A   1      43.544  27.382  27.507  1.00  0.00    -0.248 NA
ATOM     40  C   UNL A   1      43.642  25.234  26.606  1.00  0.00     0.031 C 
ATOM     41  C   UNL A   1      39.550  26.445  29.271  1.00  0.00     0.029 A 
ATOM     42  N   UNL A   1      41.113  28.026  29.028  1.00  0.00    -0.354 N 
ATOM     43  C   UNL A   1      44.751  27.222  26.836  1.00  0.00     0.074 A 
ATOM     44  C   UNL A   1      44.776  25.866  26.336  1.00  0.00     0.031 C 
ATOM     45  C   UNL A   1      39.080  27.562  29.837  1.00  0.00     0.029 A 
ATOM     46  C   UNL A   1      40.085  28.616  29.727  1.00  0.00     0.049 A 
ATOM     47  H   UNL A   1      41.947  28.494  28.797  1.00  0.00     0.167 HD
ATOM     48  C   UNL A   1      45.741  28.128  26.646  1.00  0.00     0.034 A 
ATOM     49  C   UNL A   1      39.964  29.862  30.229  1.00  0.00     0.034 A 
ATOM     50  C   UNL A   1      45.683  29.489  27.115  1.00  0.00     0.049 A 
ATOM     51  C   UNL A   1      41.081  30.845  30.017  1.00  0.00     0.074 A 
ATOM     52  C   UNL A   1      46.609  30.498  26.918  1.00  0.00     0.029 A 
ATOM     53  N   UNL A   1      44.653  30.034  27.867  1.00  0.00    -0.354 N 
ATOM     54  N   UNL A   1      42.195  30.691  29.340  1.00  0.00    -0.248 NA
ATOM     55  C   UNL A   1      40.937  32.167  30.641  1.00  0.00     0.031 C 
ATOM     56  C   UNL A   1      46.168  31.635  27.598  1.00  0.00     0.029 A 
ATOM     57  C   UNL A   1      44.937  31.356  28.170  1.00  0.00     0.049 A 
ATOM     58  H   UNL A   1      43.840  29.554  28.145  1.00  0.00     0.167 HD
ATOM     59  C   UNL A   1      42.881  31.895  29.449  1.00  0.00     0.074 A 
ATOM     60  C   UNL A   1      42.042  32.780  30.234  1.00  0.00     0.031 C 
ATOM     61  C   UNL A   1      44.097  32.232  28.953  1.00  0.00     0.034 A 
BRANCH  48  62
ATOM     62  C   UNL A   1      46.980  27.702  25.899  1.00  0.00     0.023 A 
ATOM     63  C   UNL A   1      47.090  27.965  24.520  1.00  0.00     0.031 A 
ATOM     64  C   UNL A   1      47.988  26.940  26.513  1.00  0.00     0.131 A 
ATOM     65  C   UNL A   1      48.172  27.448  23.795  1.00  0.00     0.055 A 
ATOM     66  C   UNL A   1      49.081  26.454  25.793  1.00  0.00     0.041 A 
ATOM     67  F   UNL A   1      47.929  26.663  27.826  1.00  0.00    -0.206 F 
ATOM     68  C   UNL A   1      49.170  26.698  24.425  1.00  0.00     0.022 A 
BRANCH  65  69
ATOM     69  S   UNL A   1      48.295  27.677  22.001  1.00  0.00     0.124 S 
ATOM     70  O   UNL A   1      49.435  28.586  21.895  1.00  0.00    -0.237 OA
ATOM     71  O   UNL A   1      48.540  26.314  21.534  1.00  0.00    -0.237 OA
ATOM     72  O   UNL A   1      47.007  28.248  21.629  1.00  0.00    -0.744 OA
ENDBRANCH  65  69
ENDBRANCH  48  62
BRANCH  49  73
ATOM     73  C   UNL A   1      38.699  30.231  30.929  1.00  0.00     0.023 A 
ATOM     74  C   UNL A   1      37.641  30.844  30.231  1.00  0.00     0.031 A 
ATOM     75  C   UNL A   1      38.593  30.113  32.324  1.00  0.00     0.131 A 
ATOM     76  C   UNL A   1      36.571  31.402  30.942  1.00  0.00     0.055 A 
ATOM     77  C   UNL A   1      37.486  30.601  33.020  1.00  0.00     0.041 A 
ATOM     78  F   UNL A   1      39.582  29.545  33.032  1.00  0.00    -0.206 F 
ATOM     79  C   UNL A   1      36.479  31.271  32.331  1.00  0.00     0.022 A 
BRANCH  76  80
ATOM     80  S   UNL A   1      35.352  32.452  30.105  1.00  0.00     0.124 S 
ATOM     81  O   UNL A   1      36.130  33.652  29.817  1.00  0.00    -0.237 OA
ATOM     82  O   UNL A   1      35.001  31.633  28.946  1.00  0.00    -0.237 OA
ATOM     83  O   UNL A   1      34.292  32.609  31.096  1.00  0.00    -0.744 OA
ENDBRANCH  76  80
ENDBRANCH  49  73
BRANCH  61  84
ATOM     84  C   UNL A   1      44.633  33.613  29.241  1.00  0.00     0.023 A 
ATOM     85  C   UNL A   1      44.252  34.703  28.435  1.00  0.00     0.031 A 
ATOM     86  C   UNL A   1      45.631  33.816  30.209  1.00  0.00     0.131 A 
ATOM     87  C   UNL A   1      44.894  35.937  28.585  1.00  0.00     0.055 A 
ATOM     88  C   UNL A   1      46.238  35.061  30.384  1.00  0.00     0.041 A 
ATOM     89  F   UNL A   1      46.032  32.806  30.996  1.00  0.00    -0.206 F 
ATOM     90  C   UNL A   1      45.881  36.124  29.559  1.00  0.00     0.022 A 
BRANCH  87  91
ATOM     91  S   UNL A   1      44.537  37.320  27.466  1.00  0.00     0.124 S 
ATOM     92  O   UNL A   1      44.274  38.408  28.406  1.00  0.00    -0.237 OA
ATOM     93  O   UNL A   1      45.782  37.436  26.711  1.00  0.00    -0.237 OA
ATOM     94  O   UNL A   1      43.380  36.866  26.702  1.00  0.00    -0.744 OA
ENDBRANCH  87  91
ENDBRANCH  61  84
ENDBRANCH  35  36
ENDBRANCH  27  30
ENDBRANCH  25  26
ENDBRANCH   1  25
TORSDOF 16
ENDMDL
MODEL 2
REMARK VINA RESULT:     -12.8      1.629      2.259
REMARK SMILES C[C@H](NC(=O)C1=Cc2cc(Br)ccc2OC1)C(=O)NCCCCNC(=O)c1ccc(-c2c3nc(c(-c4cc(S(=O)(=O)[O-])ccc4F)c4ccc([nH]4)c(-c4cc(S(=O)(=O)[O-])ccc4F)c4nc(c(-c5cc(S(=O)(=O)[O-])ccc5F)c5ccc2[nH]5)C=C4)C=C3)cc1
REMARK SMILES IDX 22 1 21 2 20 3 19 4 17 5 18 6 2 8 1 9 3 10 4 11 5 13 6 14
REMARK SMILES IDX 7 15 16 16 8 17 15 18 9 19 14 20 10 21 13 22 11 23 12 24
REMARK SMILES IDX 23 25 24 26 25 27 26 29 27 30 28 31 89 32 29 33 88 34 30 35
REMARK SMILES IDX 31 36 32 37 82 38 33 39 87 40 81 41 83 42 34 43 86 44 80 45
REMARK SMILES IDX 79 46 35 48 67 49 47 50 66 51 48 52 51 53 65 54 84 55 49 56
REMARK SMILES IDX 50 57 64 59 85 60 52 61 36 62 37 63 45 64 38 65 44 66 46 67
REMARK SMILES IDX 43 68 39 69 40 70 41 71 42 72 68 73 69 74 77 75 70 76 76 77
REMARK SMILES IDX 78 78 75 79 71 80 72 81 73 82 74 83 53 84 54 85 62 86 55 87
REMARK SMILES IDX 61 88 63 89 60 90 56 91 57 92 58 93 59 94
REMARK H PARENT 19 7 3 12 24 28 83 47 51 58
REMARK Flexibility Score: inf
ROOT
ATOM      1  C   UNL A   1      35.828  21.583  25.879  1.00  0.00     0.023 C 
ENDROOT
BRANCH   1   2
ATOM      2  C   UNL A   1      34.907  20.635  25.115  1.00  0.00     0.023 C 
BRANCH   2   3
ATOM      3  C   UNL A   1      33.457  21.105  25.028  1.00  0.00     0.116 C 
BRANCH   3   4
ATOM      4  N   UNL A   1      32.891  20.801  23.738  1.00  0.00    -0.354 N 
ATOM      5  C   UNL A   1      32.222  21.622  22.883  1.00  0.00     0.242 C 
ATOM      6  O   UNL A   1      31.785  21.126  21.840  1.00  0.00    -0.273 OA
ATOM      7  H   UNL A   1      33.002  19.871  23.433  1.00  0.00     0.163 HD
BRANCH   5   8
ATOM      8  C   UNL A   1      32.097  23.146  23.132  1.00  0.00     0.168 C 
ATOM      9  C   UNL A   1      30.779  23.469  23.816  1.00  0.00     0.041 C 
BRANCH   8  10
ATOM     10  N   UNL A   1      32.578  24.020  22.042  1.00  0.00    -0.341 N 
ATOM     11  C   UNL A   1      32.827  25.335  21.823  1.00  0.00     0.251 C 
ATOM     12  H   UNL A   1      32.775  23.491  21.236  1.00  0.00     0.164 HD
ATOM     13  O   UNL A   1      33.266  25.674  20.724  1.00  0.00    -0.270 OA
BRANCH  11  14
ATOM     14  C   UNL A   1      32.525  26.367  22.822  1.00  0.00     0.055 C 
ATOM     15  C   UNL A   1      33.447  26.614  23.764  1.00  0.00     0.025 C 
ATOM     16  C   UNL A   1      31.174  26.984  22.929  1.00  0.00     0.271 C 
ATOM     17  C   UNL A   1      33.201  27.736  24.662  1.00  0.00     0.018 A 
ATOM     18  O   UNL A   1      31.208  28.347  23.396  1.00  0.00    -0.488 OA
ATOM     19  C   UNL A   1      34.103  28.055  25.683  1.00  0.00     0.027 A 
ATOM     20  C   UNL A   1      32.110  28.581  24.408  1.00  0.00     0.127 A 
ATOM     21  C   UNL A   1      33.914  29.219  26.428  1.00  0.00     0.018 A 
ATOM     22  C   UNL A   1      31.939  29.752  25.145  1.00  0.00     0.048 A 
ATOM     23  Br  UNL A   1      35.134  29.663  27.802  1.00  0.00    -0.051 Br
ATOM     24  C   UNL A   1      32.843  30.071  26.159  1.00  0.00     0.019 A 
ENDBRANCH  11  14
ENDBRANCH   8  10
ENDBRANCH   5   8
ENDBRANCH   3   4
ENDBRANCH   2   3
ENDBRANCH   1   2
BRANCH   1  25
ATOM     25  C   UNL A   1      37.153  21.884  25.184  1.00  0.00     0.116 C 
BRANCH  25  26
ATOM     26  N   UNL A   1      38.160  20.839  25.329  1.00  0.00    -0.352 N 
ATOM     27  C   UNL A   1      39.368  20.920  25.991  1.00  0.00     0.251 C 
ATOM     28  H   UNL A   1      37.953  19.975  24.906  1.00  0.00     0.163 HD
ATOM     29  O   UNL A   1      40.159  19.990  25.962  1.00  0.00    -0.269 OA
BRANCH  27  30
ATOM     30  C   UNL A   1      39.696  22.190  26.675  1.00  0.00     0.039 A 
ATOM     31  C   UNL A   1      39.141  23.384  26.214  1.00  0.00     0.014 A 
ATOM     32  C   UNL A   1      40.681  22.194  27.664  1.00  0.00     0.014 A 
ATOM     33  C   UNL A   1      39.720  24.588  26.590  1.00  0.00     0.010 A 
ATOM     34  C   UNL A   1      41.198  23.413  28.109  1.00  0.00     0.010 A 
ATOM     35  C   UNL A   1      40.773  24.615  27.521  1.00  0.00    -0.014 A 
BRANCH  35  36
ATOM     36  C   UNL A   1      41.426  25.913  27.839  1.00  0.00     0.031 A 
ATOM     37  C   UNL A   1      42.778  26.258  27.273  1.00  0.00     0.074 A 
ATOM     38  C   UNL A   1      40.758  26.813  28.584  1.00  0.00     0.049 A 
ATOM     39  N   UNL A   1      43.462  27.367  27.399  1.00  0.00    -0.248 NA
ATOM     40  C   UNL A   1      43.455  25.231  26.464  1.00  0.00     0.031 C 
ATOM     41  C   UNL A   1      39.438  26.588  29.172  1.00  0.00     0.029 A 
ATOM     42  N   UNL A   1      41.072  28.098  28.946  1.00  0.00    -0.354 N 
ATOM     43  C   UNL A   1      44.657  27.161  26.718  1.00  0.00     0.074 A 
ATOM     44  C   UNL A   1      44.616  25.813  26.197  1.00  0.00     0.031 C 
ATOM     45  C   UNL A   1      39.024  27.717  29.759  1.00  0.00     0.029 A 
ATOM     46  C   UNL A   1      40.077  28.725  29.660  1.00  0.00     0.049 A 
ATOM     47  H   UNL A   1      41.926  28.531  28.717  1.00  0.00     0.167 HD
ATOM     48  C   UNL A   1      45.687  28.022  26.537  1.00  0.00     0.034 A 
ATOM     49  C   UNL A   1      40.017  29.966  30.183  1.00  0.00     0.034 A 
ATOM     50  C   UNL A   1      45.695  29.377  27.028  1.00  0.00     0.049 A 
ATOM     51  C   UNL A   1      41.178  30.899  29.980  1.00  0.00     0.074 A 
ATOM     52  C   UNL A   1      46.667  30.345  26.841  1.00  0.00     0.029 A 
ATOM     53  N   UNL A   1      44.696  29.958  27.795  1.00  0.00    -0.354 N 
ATOM     54  N   UNL A   1      42.279  30.705  29.293  1.00  0.00    -0.248 NA
ATOM     55  C   UNL A   1      41.099  32.217  30.626  1.00  0.00     0.031 C 
ATOM     56  C   UNL A   1      46.284  31.490  27.542  1.00  0.00     0.029 A 
ATOM     57  C   UNL A   1      45.043  31.260  28.117  1.00  0.00     0.049 A 
ATOM     58  H   UNL A   1      43.863  29.511  28.070  1.00  0.00     0.167 HD
ATOM     59  C   UNL A   1      43.022  31.874  29.418  1.00  0.00     0.074 A 
ATOM     60  C   UNL A   1      42.230  32.783  30.221  1.00  0.00     0.031 C 
ATOM     61  C   UNL A   1      44.250  32.161  28.919  1.00  0.00     0.034 A 
BRANCH  48  62
ATOM     62  C   UNL A   1      46.901  27.552  25.775  1.00  0.00     0.023 A 
ATOM     63  C   UNL A   1      47.059  27.907  24.422  1.00  0.00     0.031 A 
ATOM     64  C   UNL A   1      47.831  26.663  26.343  1.00  0.00     0.131 A 
ATOM     65  C   UNL A   1      48.108  27.357  23.674  1.00  0.00     0.055 A 
ATOM     66  C   UNL A   1      48.893  26.143  25.602  1.00  0.00     0.041 A 
ATOM     67  F   UNL A   1      47.724  26.295  27.630  1.00  0.00    -0.206 F 
ATOM     68  C   UNL A   1      49.028  26.481  24.258  1.00  0.00     0.022 A 
BRANCH  65  69
ATOM     69  S   UNL A   1      48.284  27.708  21.904  1.00  0.00     0.124 S 
ATOM     70  O   UNL A   1      48.533  26.375  21.360  1.00  0.00    -0.237 OA
ATOM     71  O   UNL A   1      46.982  28.283  21.574  1.00  0.00    -0.237 OA
ATOM     72  O   UNL A   1      49.414  28.628  21.838  1.00  0.00    -0.744 OA
ENDBRANCH  65  69
ENDBRANCH  48  62
BRANCH  49  73
ATOM     73  C   UNL A   1      38.774  30.382  30.896  1.00  0.00     0.023 A 
ATOM     74  C   UNL A   1      37.811  31.185  30.257  1.00  0.00     0.031 A 
ATOM     75  C   UNL A   1      38.609  30.109  32.263  1.00  0.00     0.131 A 
ATOM     76  C   UNL A   1      36.781  31.766  31.009  1.00  0.00     0.055 A 
ATOM     77  C   UNL A   1      37.537  30.627  32.991  1.00  0.00     0.041 A 
ATOM     78  F   UNL A   1      39.508  29.357  32.916  1.00  0.00    -0.206 F 
ATOM     79  C   UNL A   1      36.629  31.479  32.369  1.00  0.00     0.022 A 
BRANCH  76  80
ATOM     80  S   UNL A   1      35.707  33.035  30.283  1.00  0.00     0.124 S 
ATOM     81  O   UNL A   1      35.847  34.133  31.233  1.00  0.00    -0.237 OA
ATOM     82  O   UNL A   1      36.336  33.243  28.979  1.00  0.00    -0.237 OA
ATOM     83  O   UNL A   1      34.396  32.396  30.242  1.00  0.00    -0.744 OA
ENDBRANCH  76  80
ENDBRANCH  49  73
BRANCH  61  84
ATOM     84  C   UNL A   1      44.852  33.510  29.226  1.00  0.00     0.023 A 
ATOM     85  C   UNL A   1      44.612  34.603  28.370  1.00  0.00     0.031 A 
ATOM     86  C   UNL A   1      45.777  33.671  30.272  1.00  0.00     0.131 A 
ATOM     87  C   UNL A   1      45.321  35.796  28.552  1.00  0.00     0.055 A 
ATOM     88  C   UNL A   1      46.449  34.877  30.474  1.00  0.00     0.041 A 
ATOM     89  F   UNL A   1      46.043  32.656  31.108  1.00  0.00    -0.206 F 
ATOM     90  C   UNL A   1      46.234  35.941  29.602  1.00  0.00     0.022 A 
BRANCH  87  91
ATOM     91  S   UNL A   1      45.152  37.172  27.382  1.00  0.00     0.124 S 
ATOM     92  O   UNL A   1      43.762  37.033  26.951  1.00  0.00    -0.237 OA
ATOM     93  O   UNL A   1      45.429  38.332  28.226  1.00  0.00    -0.237 OA
ATOM     94  O   UNL A   1      46.151  36.889  26.357  1.00  0.00    -0.744 OA
ENDBRANCH  87  91
ENDBRANCH  61  84
ENDBRANCH  35  36
ENDBRANCH  27  30
ENDBRANCH  25  26
ENDBRANCH   1  25
TORSDOF 16
ENDMDL
MODEL 3
REMARK VINA RESULT:     -12.7      2.033      3.552
REMARK SMILES C[C@H](NC(=O)C1=Cc2cc(Br)ccc2OC1)C(=O)NCCCCNC(=O)c1ccc(-c2c3nc(c(-c4cc(S(=O)(=O)[O-])ccc4F)c4ccc([nH]4)c(-c4cc(S(=O)(=O)[O-])ccc4F)c4nc(c(-c5cc(S(=O)(=O)[O-])ccc5F)c5ccc2[nH]5)C=C4)C=C3)cc1
REMARK SMILES IDX 22 1 21 2 20 3 19 4 17 5 18 6 2 8 1 9 3 10 4 11 5 13 6 14
REMARK SMILES IDX 7 15 16 16 8 17 15 18 9 19 14 20 10 21 13 22 11 23 12 24
REMARK SMILES IDX 23 25 24 26 25 27 26 29 27 30 28 31 89 32 29 33 88 34 30 35
REMARK SMILES IDX 31 36 32 37 82 38 33 39 87 40 81 41 83 42 34 43 86 44 80 45
REMARK SMILES IDX 79 46 35 48 67 49 47 50 66 51 48 52 51 53 65 54 84 55 49 56
REMARK SMILES IDX 50 57 64 59 85 60 52 61 36 62 37 63 45 64 38 65 44 66 46 67
REMARK SMILES IDX 43 68 39 69 40 70 41 71 42 72 68 73 69 74 77 75 70 76 76 77
REMARK SMILES IDX 78 78 75 79 71 80 72 81 73 82 74 83 53 84 54 85 62 86 55 87
REMARK SMILES IDX 61 88 63 89 60 90 56 91 57 92 58 93 59 94
REMARK H PARENT 19 7 3 12 24 28 83 47 51 58
REMARK Flexibility Score: inf
ROOT
ATOM      1  C   UNL A   1      36.541  21.492  24.290  1.00  0.00     0.023 C 
ENDROOT
BRANCH   1   2
ATOM      2  C   UNL A   1      36.590  22.890  23.680  1.00  0.00     0.023 C 
BRANCH   2   3
ATOM      3  C   UNL A   1      35.226  23.562  23.542  1.00  0.00     0.116 C 
BRANCH   3   4
ATOM      4  N   UNL A   1      35.058  24.601  24.527  1.00  0.00    -0.354 N 
ATOM      5  C   UNL A   1      33.948  25.331  24.818  1.00  0.00     0.242 C 
ATOM      6  O   UNL A   1      34.051  26.206  25.683  1.00  0.00    -0.273 OA
ATOM      7  H   UNL A   1      35.857  24.811  25.063  1.00  0.00     0.163 HD
BRANCH   5   8
ATOM      8  C   UNL A   1      32.568  25.022  24.185  1.00  0.00     0.168 C 
ATOM      9  C   UNL A   1      32.067  26.216  23.389  1.00  0.00     0.041 C 
BRANCH   8  10
ATOM     10  N   UNL A   1      31.620  24.272  25.035  1.00  0.00    -0.341 N 
ATOM     11  C   UNL A   1      31.259  22.987  25.271  1.00  0.00     0.251 C 
ATOM     12  H   UNL A   1      31.095  24.889  25.594  1.00  0.00     0.164 HD
ATOM     13  O   UNL A   1      30.396  22.766  26.121  1.00  0.00    -0.270 OA
BRANCH  11  14
ATOM     14  C   UNL A   1      31.808  21.863  24.503  1.00  0.00     0.055 C 
ATOM     15  C   UNL A   1      32.386  20.863  25.184  1.00  0.00     0.025 C 
ATOM     16  C   UNL A   1      31.916  21.907  23.018  1.00  0.00     0.271 C 
ATOM     17  C   UNL A   1      32.799  19.689  24.424  1.00  0.00     0.018 A 
ATOM     18  O   UNL A   1      31.794  20.610  22.402  1.00  0.00    -0.488 OA
ATOM     19  C   UNL A   1      33.424  18.606  25.053  1.00  0.00     0.027 A 
ATOM     20  C   UNL A   1      32.444  19.598  23.070  1.00  0.00     0.127 A 
ATOM     21  C   UNL A   1      33.672  17.440  24.327  1.00  0.00     0.018 A 
ATOM     22  C   UNL A   1      32.678  18.423  22.357  1.00  0.00     0.048 A 
ATOM     23  Br  UNL A   1      34.505  15.968  25.170  1.00  0.00    -0.051 Br
ATOM     24  C   UNL A   1      33.296  17.341  22.987  1.00  0.00     0.019 A 
ENDBRANCH  11  14
ENDBRANCH   8  10
ENDBRANCH   5   8
ENDBRANCH   3   4
ENDBRANCH   2   3
ENDBRANCH   1   2
BRANCH   1  25
ATOM     25  C   UNL A   1      37.260  21.353  25.628  1.00  0.00     0.116 C 
BRANCH  25  26
ATOM     26  N   UNL A   1      38.408  20.454  25.604  1.00  0.00    -0.352 N 
ATOM     27  C   UNL A   1      39.676  20.693  26.095  1.00  0.00     0.251 C 
ATOM     28  H   UNL A   1      38.261  19.573  25.191  1.00  0.00     0.163 HD
ATOM     29  O   UNL A   1      40.572  19.879  25.932  1.00  0.00    -0.269 OA
BRANCH  27  30
ATOM     30  C   UNL A   1      39.924  21.990  26.761  1.00  0.00     0.039 A 
ATOM     31  C   UNL A   1      39.378  23.156  26.224  1.00  0.00     0.014 A 
ATOM     32  C   UNL A   1      40.834  22.048  27.818  1.00  0.00     0.014 A 
ATOM     33  C   UNL A   1      39.901  24.384  26.603  1.00  0.00     0.010 A 
ATOM     34  C   UNL A   1      41.289  23.292  28.262  1.00  0.00     0.010 A 
ATOM     35  C   UNL A   1      40.882  24.465  27.608  1.00  0.00    -0.014 A 
BRANCH  35  36
ATOM     36  C   UNL A   1      41.481  25.787  27.931  1.00  0.00     0.031 A 
ATOM     37  C   UNL A   1      42.839  26.171  27.406  1.00  0.00     0.074 A 
ATOM     38  C   UNL A   1      40.759  26.672  28.643  1.00  0.00     0.049 A 
ATOM     39  N   UNL A   1      43.481  27.303  27.542  1.00  0.00    -0.248 NA
ATOM     40  C   UNL A   1      43.575  25.158  26.632  1.00  0.00     0.031 C 
ATOM     41  C   UNL A   1      39.428  26.410  29.190  1.00  0.00     0.029 A 
ATOM     42  N   UNL A   1      41.018  27.971  28.999  1.00  0.00    -0.354 N 
ATOM     43  C   UNL A   1      44.705  27.130  26.903  1.00  0.00     0.074 A 
ATOM     44  C   UNL A   1      44.725  25.776  26.397  1.00  0.00     0.031 C 
ATOM     45  C   UNL A   1      38.957  27.531  29.749  1.00  0.00     0.029 A 
ATOM     46  C   UNL A   1      39.979  28.572  29.673  1.00  0.00     0.049 A 
ATOM     47  H   UNL A   1      41.865  28.429  28.794  1.00  0.00     0.167 HD
ATOM     48  C   UNL A   1      45.711  28.023  26.746  1.00  0.00     0.034 A 
ATOM     49  C   UNL A   1      39.861  29.816  30.179  1.00  0.00     0.034 A 
ATOM     50  C   UNL A   1      45.658  29.383  27.221  1.00  0.00     0.049 A 
ATOM     51  C   UNL A   1      40.996  30.785  30.003  1.00  0.00     0.074 A 
ATOM     52  C   UNL A   1      46.603  30.380  27.056  1.00  0.00     0.029 A 
ATOM     53  N   UNL A   1      44.615  29.938  27.948  1.00  0.00    -0.354 N 
ATOM     54  N   UNL A   1      42.126  30.620  29.356  1.00  0.00    -0.248 NA
ATOM     55  C   UNL A   1      40.853  32.106  30.631  1.00  0.00     0.031 C 
ATOM     56  C   UNL A   1      46.159  31.519  27.729  1.00  0.00     0.029 A 
ATOM     57  C   UNL A   1      44.909  31.254  28.265  1.00  0.00     0.049 A 
ATOM     58  H   UNL A   1      43.789  29.467  28.200  1.00  0.00     0.167 HD
ATOM     59  C   UNL A   1      42.825  31.814  29.491  1.00  0.00     0.074 A 
ATOM     60  C   UNL A   1      41.977  32.705  30.257  1.00  0.00     0.031 C 
ATOM     61  C   UNL A   1      44.059  32.137  29.030  1.00  0.00     0.034 A 
BRANCH  48  62
ATOM     62  C   UNL A   1      46.965  27.585  26.031  1.00  0.00     0.023 A 
ATOM     63  C   UNL A   1      47.122  27.866  24.660  1.00  0.00     0.031 A 
ATOM     64  C   UNL A   1      47.939  26.794  26.665  1.00  0.00     0.131 A 
ATOM     65  C   UNL A   1      48.216  27.339  23.962  1.00  0.00     0.055 A 
ATOM     66  C   UNL A   1      49.044  26.298  25.971  1.00  0.00     0.041 A 
ATOM     67  F   UNL A   1      47.834  26.499  27.970  1.00  0.00    -0.206 F 
ATOM     68  C   UNL A   1      49.180  26.561  24.610  1.00  0.00     0.022 A 
BRANCH  65  69
ATOM     69  S   UNL A   1      48.400  27.592  22.175  1.00  0.00     0.124 S 
ATOM     70  O   UNL A   1      49.558  28.481  22.118  1.00  0.00    -0.237 OA
ATOM     71  O   UNL A   1      48.634  26.232  21.696  1.00  0.00    -0.237 OA
ATOM     72  O   UNL A   1      47.134  28.193  21.773  1.00  0.00    -0.744 OA
ENDBRANCH  65  69
ENDBRANCH  48  62
BRANCH  49  73
ATOM     73  C   UNL A   1      38.582  30.198  30.845  1.00  0.00     0.023 A 
ATOM     74  C   UNL A   1      37.553  30.831  30.123  1.00  0.00     0.031 A 
ATOM     75  C   UNL A   1      38.435  30.072  32.236  1.00  0.00     0.131 A 
ATOM     76  C   UNL A   1      36.472  31.400  30.808  1.00  0.00     0.055 A 
ATOM     77  C   UNL A   1      37.316  30.571  32.905  1.00  0.00     0.041 A 
ATOM     78  F   UNL A   1      39.395  29.484  32.967  1.00  0.00    -0.206 F 
ATOM     79  C   UNL A   1      36.338  31.260  32.192  1.00  0.00     0.022 A 
BRANCH  76  80
ATOM     80  S   UNL A   1      35.292  32.474  29.945  1.00  0.00     0.124 S 
ATOM     81  O   UNL A   1      34.770  31.586  28.911  1.00  0.00    -0.237 OA
ATOM     82  O   UNL A   1      34.358  32.811  31.018  1.00  0.00    -0.237 OA
ATOM     83  O   UNL A   1      36.115  33.581  29.470  1.00  0.00    -0.744 OA
ENDBRANCH  76  80
ENDBRANCH  49  73
BRANCH  61  84
ATOM     84  C   UNL A   1      44.606  33.509  29.340  1.00  0.00     0.023 A 
ATOM     85  C   UNL A   1      44.443  34.561  28.418  1.00  0.00     0.031 A 
ATOM     86  C   UNL A   1      45.411  33.730  30.471  1.00  0.00     0.131 A 
ATOM     87  C   UNL A   1      45.111  35.773  28.622  1.00  0.00     0.055 A 
ATOM     88  C   UNL A   1      46.041  34.956  30.691  1.00  0.00     0.041 A 
ATOM     89  F   UNL A   1      45.601  32.755  31.373  1.00  0.00    -0.206 F 
ATOM     90  C   UNL A   1      45.905  35.979  29.757  1.00  0.00     0.022 A 
BRANCH  87  91
ATOM     91  S   UNL A   1      45.048  37.097  27.383  1.00  0.00     0.124 S 
ATOM     92  O   UNL A   1      46.000  36.618  26.382  1.00  0.00    -0.237 OA
ATOM     93  O   UNL A   1      43.646  37.070  26.973  1.00  0.00    -0.237 OA
ATOM     94  O   UNL A   1      45.464  38.287  28.117  1.00  0.00    -0.744 OA
ENDBRANCH  87  91
ENDBRANCH  61  84
ENDBRANCH  35  36
ENDBRANCH  27  30
ENDBRANCH  25  26
ENDBRANCH   1  25
TORSDOF 16
ENDMDL
