MODEL 1
REMARK VINA RESULT:     -12.4      0.000      0.000
REMARK SMILES O=C(NCCCCNC(=O)c1cc(NC(=O)c2cccc(Cl)c2)ccc1N1CC[NH+](CC(=O)N2CCOCC2)CC1)c1ccc(-c2c3nc(c(-c4cc(S(=O)(=O)[O-])ccc4F)c4ccc([nH]4)c(-c4cc(S(=O)(=O)[O-])ccc4F)c4nc(c(-c5cc(S(=O)(=O)[O-])ccc5F)c5ccc2[nH]5)C=C4)C=C3)cc1
REMARK SMILES IDX 5 1 4 2 3 3 1 4 2 5 42 7 43 8 104 9 44 10 103 11 45 12 46 13
REMARK SMILES IDX 47 14 97 15 48 16 102 17 96 18 98 19 49 20 101 21 95 22
REMARK SMILES IDX 94 23 50 25 82 26 62 27 81 28 63 29 66 30 80 31 99 32 64 33
REMARK SMILES IDX 65 34 79 36 100 37 67 38 51 39 52 40 60 41 53 42 59 43 61 44
REMARK SMILES IDX 58 45 54 46 55 47 56 48 57 49 83 50 84 51 92 52 85 53 91 54
REMARK SMILES IDX 93 55 90 56 86 57 87 58 88 59 89 60 68 61 69 62 77 63 70 64
REMARK SMILES IDX 76 65 78 66 75 67 71 68 72 69 73 70 74 71 6 72 7 73 8 74
REMARK SMILES IDX 9 75 10 77 11 78 12 79 26 80 13 81 25 82 24 83 27 84 28 85
REMARK SMILES IDX 41 86 29 87 40 88 30 89 31 91 32 92 33 93 34 94 35 95 39 96
REMARK SMILES IDX 36 97 38 98 37 99 14 100 15 101 16 103 17 104 18 105 23 106
REMARK SMILES IDX 19 107 21 108 20 109 22 110
REMARK H PARENT 3 6 98 24 66 35 8 76 30 90 14 102
REMARK Flexibility Score: inf
ROOT
ATOM      1  C   UNL A   1      35.841  24.272  25.063  1.00  0.00     0.023 C 
ENDROOT
BRANCH   1   2
ATOM      2  C   UNL A   1      36.576  23.828  26.321  1.00  0.00     0.116 C 
BRANCH   2   3
ATOM      3  N   UNL A   1      37.428  22.661  26.142  1.00  0.00    -0.352 N 
ATOM      4  O   UNL A   1      39.371  21.502  26.073  1.00  0.00    -0.269 OA
ATOM      5  C   UNL A   1      38.794  22.550  26.314  1.00  0.00     0.251 C 
ATOM      6  H   UNL A   1      36.968  21.838  25.860  1.00  0.00     0.163 HD
BRANCH   5   7
ATOM      7  C   UNL A   1      39.557  23.743  26.750  1.00  0.00     0.039 A 
ATOM      8  C   UNL A   1      39.996  23.852  28.070  1.00  0.00     0.014 A 
ATOM      9  C   UNL A   1      39.751  24.794  25.851  1.00  0.00     0.014 A 
ATOM     10  C   UNL A   1      40.448  25.081  28.538  1.00  0.00     0.010 A 
ATOM     11  C   UNL A   1      40.294  26.001  26.306  1.00  0.00     0.010 A 
ATOM     12  C   UNL A   1      40.593  26.175  27.665  1.00  0.00    -0.014 A 
BRANCH  12  13
ATOM     13  C   UNL A   1      41.062  27.479  28.210  1.00  0.00     0.031 A 
ATOM     14  C   UNL A   1      42.518  27.870  28.160  1.00  0.00     0.074 A 
ATOM     15  C   UNL A   1      40.150  28.342  28.699  1.00  0.00     0.049 A 
ATOM     16  N   UNL A   1      43.089  28.982  28.555  1.00  0.00    -0.248 NA
ATOM     17  C   UNL A   1      43.456  26.885  27.602  1.00  0.00     0.031 C 
ATOM     18  C   UNL A   1      38.715  28.071  28.809  1.00  0.00     0.029 A 
ATOM     19  N   UNL A   1      40.281  29.624  29.169  1.00  0.00    -0.354 N 
ATOM     20  C   UNL A   1      44.449  28.828  28.304  1.00  0.00     0.074 A 
ATOM     21  C   UNL A   1      44.622  27.498  27.758  1.00  0.00     0.031 C 
ATOM     22  C   UNL A   1      38.093  29.167  29.266  1.00  0.00     0.029 A 
ATOM     23  C   UNL A   1      39.088  30.195  29.545  1.00  0.00     0.049 A 
ATOM     24  H   UNL A   1      41.147  30.090  29.230  1.00  0.00     0.167 HD
ATOM     25  C   UNL A   1      45.456  29.718  28.499  1.00  0.00     0.034 A 
ATOM     26  C   UNL A   1      38.822  31.405  30.074  1.00  0.00     0.034 A 
ATOM     27  C   UNL A   1      45.269  31.043  29.046  1.00  0.00     0.049 A 
ATOM     28  C   UNL A   1      39.958  32.365  30.292  1.00  0.00     0.074 A 
ATOM     29  C   UNL A   1      46.219  32.023  29.284  1.00  0.00     0.029 A 
ATOM     30  N   UNL A   1      44.048  31.578  29.439  1.00  0.00    -0.354 N 
ATOM     31  N   UNL A   1      41.237  32.200  30.049  1.00  0.00    -0.248 NA
ATOM     32  C   UNL A   1      39.613  33.679  30.848  1.00  0.00     0.031 C 
ATOM     33  C   UNL A   1      45.583  33.123  29.871  1.00  0.00     0.029 A 
ATOM     34  C   UNL A   1      44.225  32.862  29.936  1.00  0.00     0.049 A 
ATOM     35  H   UNL A   1      43.183  31.113  29.375  1.00  0.00     0.167 HD
ATOM     36  C   UNL A   1      41.849  33.393  30.417  1.00  0.00     0.074 A 
ATOM     37  C   UNL A   1      40.791  34.281  30.859  1.00  0.00     0.031 C 
ATOM     38  C   UNL A   1      43.165  33.725  30.399  1.00  0.00     0.034 A 
BRANCH  25  39
ATOM     39  C   UNL A   1      46.859  29.273  28.153  1.00  0.00     0.023 A 
ATOM     40  C   UNL A   1      47.708  28.692  29.111  1.00  0.00     0.031 A 
ATOM     41  C   UNL A   1      47.356  29.433  26.847  1.00  0.00     0.131 A 
ATOM     42  C   UNL A   1      49.024  28.343  28.765  1.00  0.00     0.055 A 
ATOM     43  C   UNL A   1      48.642  29.018  26.490  1.00  0.00     0.041 A 
ATOM     44  F   UNL A   1      46.599  29.997  25.892  1.00  0.00    -0.206 F 
ATOM     45  C   UNL A   1      49.488  28.480  27.454  1.00  0.00     0.022 A 
BRANCH  42  46
ATOM     46  S   UNL A   1      50.159  27.816  30.078  1.00  0.00     0.124 S 
ATOM     47  O   UNL A   1      50.255  29.027  30.889  1.00  0.00    -0.237 OA
ATOM     48  O   UNL A   1      49.445  26.698  30.682  1.00  0.00    -0.237 OA
ATOM     49  O   UNL A   1      51.379  27.461  29.356  1.00  0.00    -0.744 OA
ENDBRANCH  42  46
ENDBRANCH  25  39
BRANCH  26  50
ATOM     50  C   UNL A   1      37.429  31.757  30.467  1.00  0.00     0.023 A 
ATOM     51  C   UNL A   1      36.593  32.495  29.615  1.00  0.00     0.031 A 
ATOM     52  C   UNL A   1      36.921  31.377  31.723  1.00  0.00     0.131 A 
ATOM     53  C   UNL A   1      35.311  32.866  30.047  1.00  0.00     0.055 A 
ATOM     54  C   UNL A   1      35.625  31.699  32.125  1.00  0.00     0.041 A 
ATOM     55  F   UNL A   1      37.678  30.664  32.574  1.00  0.00    -0.206 F 
ATOM     56  C   UNL A   1      34.816  32.461  31.289  1.00  0.00     0.022 A 
BRANCH  53  57
ATOM     57  S   UNL A   1      34.324  33.964  28.992  1.00  0.00     0.124 S 
ATOM     58  O   UNL A   1      35.317  34.948  28.575  1.00  0.00    -0.237 OA
ATOM     59  O   UNL A   1      33.855  33.047  27.958  1.00  0.00    -0.237 OA
ATOM     60  O   UNL A   1      33.290  34.463  29.896  1.00  0.00    -0.744 OA
ENDBRANCH  53  57
ENDBRANCH  26  50
BRANCH  38  61
ATOM     61  C   UNL A   1      43.513  35.119  30.859  1.00  0.00     0.023 A 
ATOM     62  C   UNL A   1      43.531  35.458  32.225  1.00  0.00     0.031 A 
ATOM     63  C   UNL A   1      43.776  36.133  29.923  1.00  0.00     0.131 A 
ATOM     64  C   UNL A   1      43.733  36.790  32.612  1.00  0.00     0.055 A 
ATOM     65  C   UNL A   1      44.039  37.446  30.317  1.00  0.00     0.041 A 
ATOM     66  F   UNL A   1      43.769  35.867  28.607  1.00  0.00    -0.206 F 
ATOM     67  C   UNL A   1      44.000  37.784  31.667  1.00  0.00     0.022 A 
BRANCH  64  68
ATOM     68  S   UNL A   1      43.526  37.229  34.360  1.00  0.00     0.124 S 
ATOM     69  O   UNL A   1      42.710  38.435  34.276  1.00  0.00    -0.237 OA
ATOM     70  O   UNL A   1      42.863  36.046  34.901  1.00  0.00    -0.237 OA
ATOM     71  O   UNL A   1      44.896  37.438  34.826  1.00  0.00    -0.744 OA
ENDBRANCH  64  68
ENDBRANCH  38  61
ENDBRANCH  12  13
ENDBRANCH   5   7
ENDBRANCH   2   3
ENDBRANCH   1   2
BRANCH   1  72
ATOM     72  C   UNL A   1      34.562  25.080  25.266  1.00  0.00     0.023 C 
BRANCH  72  73
ATOM     73  C   UNL A   1      34.394  26.309  24.379  1.00  0.00     0.116 C 
BRANCH  73  74
ATOM     74  N   UNL A   1      34.293  26.011  22.962  1.00  0.00    -0.352 N 
ATOM     75  C   UNL A   1      33.158  25.975  22.189  1.00  0.00     0.253 C 
ATOM     76  H   UNL A   1      35.140  25.811  22.500  1.00  0.00     0.163 HD
ATOM     77  O   UNL A   1      33.241  25.753  20.982  1.00  0.00    -0.269 OA
BRANCH  75  78
ATOM     78  C   UNL A   1      31.813  26.135  22.808  1.00  0.00     0.065 A 
ATOM     79  C   UNL A   1      31.279  27.417  22.672  1.00  0.00     0.042 A 
ATOM     80  C   UNL A   1      31.109  25.118  23.487  1.00  0.00     0.050 A 
ATOM     81  C   UNL A   1      29.947  27.675  22.945  1.00  0.00     0.042 A 
ATOM     82  C   UNL A   1      29.773  25.398  23.807  1.00  0.00     0.029 A 
ATOM     83  C   UNL A   1      29.195  26.652  23.527  1.00  0.00     0.028 A 
BRANCH  80  84
ATOM     84  N   UNL A   1      31.742  23.949  23.896  1.00  0.00    -0.360 N 
ATOM     85  C   UNL A   1      32.391  22.976  22.996  1.00  0.00     0.178 C 
ATOM     86  C   UNL A   1      31.080  23.297  25.032  1.00  0.00     0.178 C 
ATOM     87  C   UNL A   1      33.253  21.942  23.801  1.00  0.00     0.284 C 
ATOM     88  C   UNL A   1      32.103  22.524  25.859  1.00  0.00     0.284 C 
ATOM     89  N   UNL A   1      32.747  21.452  25.104  1.00  0.00    -0.324 N 
ATOM     90  H   UNL A   1      33.588  21.169  25.605  1.00  0.00     0.348 HD
BRANCH  89  91
ATOM     91  C   UNL A   1      31.997  20.185  25.102  1.00  0.00     0.363 C 
BRANCH  91  92
ATOM     92  C   UNL A   1      32.295  19.205  23.961  1.00  0.00     0.277 C 
ATOM     93  O   UNL A   1      32.072  19.549  22.793  1.00  0.00    -0.268 OA
ATOM     94  N   UNL A   1      32.874  17.964  24.245  1.00  0.00    -0.333 N 
ATOM     95  C   UNL A   1      32.704  17.202  25.494  1.00  0.00     0.148 C 
ATOM     96  C   UNL A   1      33.309  17.159  23.102  1.00  0.00     0.148 C 
ATOM     97  C   UNL A   1      33.778  16.140  25.741  1.00  0.00     0.181 C 
ATOM     98  C   UNL A   1      34.420  16.181  23.484  1.00  0.00     0.181 C 
ATOM     99  O   UNL A   1      34.008  15.344  24.572  1.00  0.00    -0.378 OA
ENDBRANCH  91  92
ENDBRANCH  89  91
ENDBRANCH  80  84
BRANCH  81 100
ATOM    100  N   UNL A   1      29.319  28.906  22.662  1.00  0.00    -0.322 N 
ATOM    101  C   UNL A   1      29.352  30.129  23.310  1.00  0.00     0.255 C 
ATOM    102  H   UNL A   1      28.752  28.892  21.857  1.00  0.00     0.170 HD
ATOM    103  O   UNL A   1      28.579  31.024  22.973  1.00  0.00    -0.269 OA
BRANCH 101 104
ATOM    104  C   UNL A   1      30.321  30.408  24.392  1.00  0.00     0.041 A 
ATOM    105  C   UNL A   1      30.310  31.674  24.991  1.00  0.00     0.014 A 
ATOM    106  C   UNL A   1      31.160  29.398  24.881  1.00  0.00     0.034 A 
ATOM    107  C   UNL A   1      31.071  31.902  26.140  1.00  0.00     0.002 A 
ATOM    108  C   UNL A   1      31.893  29.629  26.044  1.00  0.00     0.041 A 
ATOM    109  C   UNL A   1      31.845  30.871  26.680  1.00  0.00     0.020 A 
ATOM    110  Cl  UNL A   1      32.798  28.344  26.743  1.00  0.00    -0.084 Cl
ENDBRANCH 101 104
ENDBRANCH  81 100
ENDBRANCH  75  78
ENDBRANCH  73  74
ENDBRANCH  72  73
ENDBRANCH   1  72
TORSDOF 19
ENDMDL
MODEL 2
REMARK VINA RESULT:     -12.4      4.790      7.698
REMARK SMILES O=C(NCCCCNC(=O)c1cc(NC(=O)c2cccc(Cl)c2)ccc1N1CC[NH+](CC(=O)N2CCOCC2)CC1)c1ccc(-c2c3nc(c(-c4cc(S(=O)(=O)[O-])ccc4F)c4ccc([nH]4)c(-c4cc(S(=O)(=O)[O-])ccc4F)c4nc(c(-c5cc(S(=O)(=O)[O-])ccc5F)c5ccc2[nH]5)C=C4)C=C3)cc1
REMARK SMILES IDX 5 1 4 2 3 3 1 4 2 5 42 7 43 8 104 9 44 10 103 11 45 12 46 13
REMARK SMILES IDX 47 14 97 15 48 16 102 17 96 18 98 19 49 20 101 21 95 22
REMARK SMILES IDX 94 23 50 25 82 26 62 27 81 28 63 29 66 30 80 31 99 32 64 33
REMARK SMILES IDX 65 34 79 36 100 37 67 38 51 39 52 40 60 41 53 42 59 43 61 44
REMARK SMILES IDX 58 45 54 46 55 47 56 48 57 49 83 50 84 51 92 52 85 53 91 54
REMARK SMILES IDX 93 55 90 56 86 57 87 58 88 59 89 60 68 61 69 62 77 63 70 64
REMARK SMILES IDX 76 65 78 66 75 67 71 68 72 69 73 70 74 71 6 72 7 73 8 74
REMARK SMILES IDX 9 75 10 77 11 78 12 79 26 80 13 81 25 82 24 83 27 84 28 85
REMARK SMILES IDX 41 86 29 87 40 88 30 89 31 91 32 92 33 93 34 94 35 95 39 96
REMARK SMILES IDX 36 97 38 98 37 99 14 100 15 101 16 103 17 104 18 105 23 106
REMARK SMILES IDX 19 107 21 108 20 109 22 110
REMARK H PARENT 3 6 98 24 66 35 8 76 30 90 14 102
REMARK Flexibility Score: inf
ROOT
ATOM      1  C   UNL A   1      32.135  31.086  27.116  1.00  0.00     0.023 C 
ENDROOT
BRANCH   1   2
ATOM      2  C   UNL A   1      33.215  32.151  27.248  1.00  0.00     0.116 C 
BRANCH   2   3
ATOM      3  N   UNL A   1      32.712  33.487  27.538  1.00  0.00    -0.352 N 
ATOM      4  O   UNL A   1      32.563  35.451  28.652  1.00  0.00    -0.269 OA
ATOM      5  C   UNL A   1      33.128  34.379  28.507  1.00  0.00     0.251 C 
ATOM      6  H   UNL A   1      31.975  33.796  26.964  1.00  0.00     0.163 HD
BRANCH   5   7
ATOM      7  C   UNL A   1      34.242  33.990  29.403  1.00  0.00     0.039 A 
ATOM      8  C   UNL A   1      35.561  34.278  29.049  1.00  0.00     0.014 A 
ATOM      9  C   UNL A   1      33.964  33.254  30.557  1.00  0.00     0.014 A 
ATOM     10  C   UNL A   1      36.601  33.664  29.739  1.00  0.00     0.010 A 
ATOM     11  C   UNL A   1      35.018  32.714  31.303  1.00  0.00     0.010 A 
ATOM     12  C   UNL A   1      36.343  32.865  30.868  1.00  0.00    -0.014 A 
BRANCH  12  13
ATOM     13  C   UNL A   1      37.483  32.211  31.567  1.00  0.00     0.031 A 
ATOM     14  C   UNL A   1      38.259  31.090  30.921  1.00  0.00     0.074 A 
ATOM     15  C   UNL A   1      37.858  32.680  32.774  1.00  0.00     0.049 A 
ATOM     16  N   UNL A   1      39.300  30.437  31.375  1.00  0.00    -0.248 NA
ATOM     17  C   UNL A   1      37.801  30.637  29.599  1.00  0.00     0.031 C 
ATOM     18  C   UNL A   1      37.179  33.753  33.503  1.00  0.00     0.029 A 
ATOM     19  N   UNL A   1      38.908  32.340  33.588  1.00  0.00    -0.354 N 
ATOM     20  C   UNL A   1      39.618  29.492  30.403  1.00  0.00     0.074 A 
ATOM     21  C   UNL A   1      38.633  29.633  29.352  1.00  0.00     0.031 C 
ATOM     22  C   UNL A   1      37.856  34.017  34.629  1.00  0.00     0.029 A 
ATOM     23  C   UNL A   1      38.976  33.090  34.738  1.00  0.00     0.049 A 
ATOM     24  H   UNL A   1      39.552  31.627  33.369  1.00  0.00     0.167 HD
ATOM     25  C   UNL A   1      40.643  28.601  30.386  1.00  0.00     0.034 A 
ATOM     26  C   UNL A   1      39.832  33.031  35.776  1.00  0.00     0.034 A 
ATOM     27  C   UNL A   1      41.619  28.472  31.443  1.00  0.00     0.049 A 
ATOM     28  C   UNL A   1      40.949  32.026  35.737  1.00  0.00     0.074 A 
ATOM     29  C   UNL A   1      42.696  27.604  31.525  1.00  0.00     0.029 A 
ATOM     30  N   UNL A   1      41.641  29.234  32.606  1.00  0.00    -0.354 N 
ATOM     31  N   UNL A   1      41.231  31.141  34.809  1.00  0.00    -0.248 NA
ATOM     32  C   UNL A   1      41.869  32.017  36.880  1.00  0.00     0.031 C 
ATOM     33  C   UNL A   1      43.332  27.802  32.757  1.00  0.00     0.029 A 
ATOM     34  C   UNL A   1      42.697  28.841  33.416  1.00  0.00     0.049 A 
ATOM     35  H   UNL A   1      40.999  29.947  32.823  1.00  0.00     0.167 HD
ATOM     36  C   UNL A   1      42.367  30.475  35.256  1.00  0.00     0.074 A 
ATOM     37  C   UNL A   1      42.739  31.089  36.515  1.00  0.00     0.031 C 
ATOM     38  C   UNL A   1      43.039  29.444  34.683  1.00  0.00     0.034 A 
BRANCH  25  39
ATOM     39  C   UNL A   1      40.739  27.670  29.199  1.00  0.00     0.023 A 
ATOM     40  C   UNL A   1      41.664  27.887  28.162  1.00  0.00     0.031 A 
ATOM     41  C   UNL A   1      39.895  26.549  29.101  1.00  0.00     0.131 A 
ATOM     42  C   UNL A   1      41.684  27.031  27.048  1.00  0.00     0.055 A 
ATOM     43  C   UNL A   1      39.969  25.660  28.025  1.00  0.00     0.041 A 
ATOM     44  F   UNL A   1      38.979  26.299  30.051  1.00  0.00    -0.206 F 
ATOM     45  C   UNL A   1      40.860  25.905  26.985  1.00  0.00     0.022 A 
BRANCH  42  46
ATOM     46  S   UNL A   1      42.723  27.474  25.629  1.00  0.00     0.124 S 
ATOM     47  O   UNL A   1      44.061  27.426  26.216  1.00  0.00    -0.237 OA
ATOM     48  O   UNL A   1      42.409  26.424  24.668  1.00  0.00    -0.237 OA
ATOM     49  O   UNL A   1      42.259  28.811  25.267  1.00  0.00    -0.744 OA
ENDBRANCH  42  46
ENDBRANCH  25  39
BRANCH  26  50
ATOM     50  C   UNL A   1      39.640  33.924  36.954  1.00  0.00     0.023 A 
ATOM     51  C   UNL A   1      39.026  33.462  38.128  1.00  0.00     0.031 A 
ATOM     52  C   UNL A   1      40.050  35.269  36.908  1.00  0.00     0.131 A 
ATOM     53  C   UNL A   1      38.801  34.349  39.192  1.00  0.00     0.055 A 
ATOM     54  C   UNL A   1      39.876  36.131  37.989  1.00  0.00     0.041 A 
ATOM     55  F   UNL A   1      40.648  35.758  35.809  1.00  0.00    -0.206 F 
ATOM     56  C   UNL A   1      39.235  35.676  39.136  1.00  0.00     0.022 A 
BRANCH  53  57
ATOM     57  S   UNL A   1      37.853  33.765  40.623  1.00  0.00     0.124 S 
ATOM     58  O   UNL A   1      36.775  33.019  39.983  1.00  0.00    -0.237 OA
ATOM     59  O   UNL A   1      38.846  32.971  41.339  1.00  0.00    -0.237 OA
ATOM     60  O   UNL A   1      37.448  35.001  41.290  1.00  0.00    -0.744 OA
ENDBRANCH  53  57
ENDBRANCH  26  50
BRANCH  38  61
ATOM     61  C   UNL A   1      44.255  28.940  35.421  1.00  0.00     0.023 A 
ATOM     62  C   UNL A   1      44.135  28.085  36.532  1.00  0.00     0.031 A 
ATOM     63  C   UNL A   1      45.541  29.362  35.046  1.00  0.00     0.131 A 
ATOM     64  C   UNL A   1      45.274  27.738  37.273  1.00  0.00     0.055 A 
ATOM     65  C   UNL A   1      46.678  28.963  35.750  1.00  0.00     0.041 A 
ATOM     66  F   UNL A   1      45.713  30.181  33.996  1.00  0.00    -0.206 F 
ATOM     67  C   UNL A   1      46.547  28.161  36.881  1.00  0.00     0.022 A 
BRANCH  64  68
ATOM     68  S   UNL A   1      45.058  26.824  38.824  1.00  0.00     0.124 S 
ATOM     69  O   UNL A   1      45.398  27.832  39.821  1.00  0.00    -0.237 OA
ATOM     70  O   UNL A   1      43.652  26.436  38.763  1.00  0.00    -0.237 OA
ATOM     71  O   UNL A   1      46.009  25.720  38.708  1.00  0.00    -0.744 OA
ENDBRANCH  64  68
ENDBRANCH  38  61
ENDBRANCH  12  13
ENDBRANCH   5   7
ENDBRANCH   2   3
ENDBRANCH   1   2
BRANCH   1  72
ATOM     72  C   UNL A   1      31.699  30.725  25.697  1.00  0.00     0.023 C 
BRANCH  72  73
ATOM     73  C   UNL A   1      31.739  29.245  25.336  1.00  0.00     0.116 C 
BRANCH  73  74
ATOM     74  N   UNL A   1      32.042  28.368  26.452  1.00  0.00    -0.352 N 
ATOM     75  C   UNL A   1      31.862  27.008  26.526  1.00  0.00     0.253 C 
ATOM     76  H   UNL A   1      32.423  28.800  27.252  1.00  0.00     0.163 HD
ATOM     77  O   UNL A   1      32.217  26.393  27.530  1.00  0.00    -0.269 OA
BRANCH  75  78
ATOM     78  C   UNL A   1      31.178  26.273  25.427  1.00  0.00     0.065 A 
ATOM     79  C   UNL A   1      29.833  26.611  25.274  1.00  0.00     0.042 A 
ATOM     80  C   UNL A   1      31.789  25.310  24.595  1.00  0.00     0.050 A 
ATOM     81  C   UNL A   1      29.118  26.233  24.151  1.00  0.00     0.042 A 
ATOM     82  C   UNL A   1      31.044  24.891  23.483  1.00  0.00     0.029 A 
ATOM     83  C   UNL A   1      29.734  25.357  23.254  1.00  0.00     0.028 A 
BRANCH  80  84
ATOM     84  N   UNL A   1      33.015  24.744  24.924  1.00  0.00    -0.360 N 
ATOM     85  C   UNL A   1      34.332  25.346  24.636  1.00  0.00     0.178 C 
ATOM     86  C   UNL A   1      33.035  23.282  24.794  1.00  0.00     0.178 C 
ATOM     87  C   UNL A   1      35.480  24.596  25.397  1.00  0.00     0.284 C 
ATOM     88  C   UNL A   1      34.035  22.684  25.779  1.00  0.00     0.284 C 
ATOM     89  N   UNL A   1      35.406  23.123  25.530  1.00  0.00    -0.324 N 
ATOM     90  H   UNL A   1      35.961  22.922  26.361  1.00  0.00     0.348 HD
BRANCH  89  91
ATOM     91  C   UNL A   1      36.122  22.318  24.528  1.00  0.00     0.363 C 
BRANCH  91  92
ATOM     92  C   UNL A   1      36.790  21.029  25.023  1.00  0.00     0.277 C 
ATOM     93  O   UNL A   1      36.178  19.957  24.935  1.00  0.00    -0.268 OA
ATOM     94  N   UNL A   1      38.101  21.069  25.506  1.00  0.00    -0.333 N 
ATOM     95  C   UNL A   1      38.739  22.220  26.168  1.00  0.00     0.148 C 
ATOM     96  C   UNL A   1      38.745  19.783  25.780  1.00  0.00     0.148 C 
ATOM     97  C   UNL A   1      40.269  22.179  26.177  1.00  0.00     0.181 C 
ATOM     98  C   UNL A   1      40.269  19.881  25.704  1.00  0.00     0.181 C 
ATOM     99  O   UNL A   1      40.758  20.896  26.588  1.00  0.00    -0.378 OA
ENDBRANCH  91  92
ENDBRANCH  89  91
ENDBRANCH  80  84
BRANCH  81 100
ATOM    100  N   UNL A   1      27.814  26.691  23.868  1.00  0.00    -0.322 N 
ATOM    101  C   UNL A   1      27.332  27.936  23.505  1.00  0.00     0.255 C 
ATOM    102  H   UNL A   1      27.119  25.997  23.945  1.00  0.00     0.170 HD
ATOM    103  O   UNL A   1      26.119  28.142  23.477  1.00  0.00    -0.269 OA
BRANCH 101 104
ATOM    104  C   UNL A   1      28.240  29.037  23.115  1.00  0.00     0.041 A 
ATOM    105  C   UNL A   1      29.385  28.729  22.370  1.00  0.00     0.014 A 
ATOM    106  C   UNL A   1      27.911  30.370  23.394  1.00  0.00     0.034 A 
ATOM    107  C   UNL A   1      30.151  29.760  21.821  1.00  0.00     0.002 A 
ATOM    108  C   UNL A   1      28.667  31.390  22.818  1.00  0.00     0.041 A 
ATOM    109  C   UNL A   1      29.778  31.091  22.027  1.00  0.00     0.020 A 
ATOM    110  Cl  UNL A   1      28.174  33.025  23.020  1.00  0.00    -0.084 Cl
ENDBRANCH 101 104
ENDBRANCH  81 100
ENDBRANCH  75  78
ENDBRANCH  73  74
ENDBRANCH  72  73
ENDBRANCH   1  72
TORSDOF 19
ENDMDL
MODEL 3
REMARK VINA RESULT:     -12.2      2.069      2.558
REMARK SMILES O=C(NCCCCNC(=O)c1cc(NC(=O)c2cccc(Cl)c2)ccc1N1CC[NH+](CC(=O)N2CCOCC2)CC1)c1ccc(-c2c3nc(c(-c4cc(S(=O)(=O)[O-])ccc4F)c4ccc([nH]4)c(-c4cc(S(=O)(=O)[O-])ccc4F)c4nc(c(-c5cc(S(=O)(=O)[O-])ccc5F)c5ccc2[nH]5)C=C4)C=C3)cc1
REMARK SMILES IDX 5 1 4 2 3 3 1 4 2 5 42 7 43 8 104 9 44 10 103 11 45 12 46 13
REMARK SMILES IDX 47 14 97 15 48 16 102 17 96 18 98 19 49 20 101 21 95 22
REMARK SMILES IDX 94 23 50 25 82 26 62 27 81 28 63 29 66 30 80 31 99 32 64 33
REMARK SMILES IDX 65 34 79 36 100 37 67 38 51 39 52 40 60 41 53 42 59 43 61 44
REMARK SMILES IDX 58 45 54 46 55 47 56 48 57 49 83 50 84 51 92 52 85 53 91 54
REMARK SMILES IDX 93 55 90 56 86 57 87 58 88 59 89 60 68 61 69 62 77 63 70 64
REMARK SMILES IDX 76 65 78 66 75 67 71 68 72 69 73 70 74 71 6 72 7 73 8 74
REMARK SMILES IDX 9 75 10 77 11 78 12 79 26 80 13 81 25 82 24 83 27 84 28 85
REMARK SMILES IDX 41 86 29 87 40 88 30 89 31 91 32 92 33 93 34 94 35 95 39 96
REMARK SMILES IDX 36 97 38 98 37 99 14 100 15 101 16 103 17 104 18 105 23 106
REMARK SMILES IDX 19 107 21 108 20 109 22 110
REMARK H PARENT 3 6 98 24 66 35 8 76 30 90 14 102
REMARK Flexibility Score: inf
ROOT
ATOM      1  C   UNL A   1      35.774  24.007  25.137  1.00  0.00     0.023 C 
ENDROOT
BRANCH   1   2
ATOM      2  C   UNL A   1      36.081  22.917  26.155  1.00  0.00     0.116 C 
BRANCH   2   3
ATOM      3  N   UNL A   1      37.069  21.942  25.714  1.00  0.00    -0.352 N 
ATOM      4  O   UNL A   1      39.139  21.076  25.415  1.00  0.00    -0.269 OA
ATOM      5  C   UNL A   1      38.439  21.953  25.895  1.00  0.00     0.251 C 
ATOM      6  H   UNL A   1      36.713  21.169  25.221  1.00  0.00     0.163 HD
BRANCH   5   7
ATOM      7  C   UNL A   1      39.051  23.078  26.640  1.00  0.00     0.039 A 
ATOM      8  C   UNL A   1      38.647  24.389  26.387  1.00  0.00     0.014 A 
ATOM      9  C   UNL A   1      40.097  22.818  27.529  1.00  0.00     0.014 A 
ATOM     10  C   UNL A   1      39.417  25.443  26.870  1.00  0.00     0.010 A 
ATOM     11  C   UNL A   1      40.812  23.885  28.085  1.00  0.00     0.010 A 
ATOM     12  C   UNL A   1      40.515  25.205  27.716  1.00  0.00    -0.014 A 
BRANCH  12  13
ATOM     13  C   UNL A   1      41.324  26.360  28.195  1.00  0.00     0.031 A 
ATOM     14  C   UNL A   1      42.753  26.553  27.751  1.00  0.00     0.074 A 
ATOM     15  C   UNL A   1      40.737  27.276  28.990  1.00  0.00     0.049 A 
ATOM     16  N   UNL A   1      43.585  27.522  28.044  1.00  0.00    -0.248 NA
ATOM     17  C   UNL A   1      43.326  25.521  26.874  1.00  0.00     0.031 C 
ATOM     18  C   UNL A   1      39.364  27.192  29.493  1.00  0.00     0.029 A 
ATOM     19  N   UNL A   1      41.201  28.464  29.494  1.00  0.00    -0.354 N 
ATOM     20  C   UNL A   1      44.779  27.215  27.397  1.00  0.00     0.074 A 
ATOM     21  C   UNL A   1      44.573  25.948  26.728  1.00  0.00     0.031 C 
ATOM     22  C   UNL A   1      39.081  28.301  30.190  1.00  0.00     0.029 A 
ATOM     23  C   UNL A   1      40.269  29.144  30.242  1.00  0.00     0.049 A 
ATOM     24  H   UNL A   1      42.114  28.797  29.334  1.00  0.00     0.167 HD
ATOM     25  C   UNL A   1      45.932  27.931  27.355  1.00  0.00     0.034 A 
ATOM     26  C   UNL A   1      40.361  30.309  30.912  1.00  0.00     0.034 A 
ATOM     27  C   UNL A   1      46.123  29.196  28.028  1.00  0.00     0.049 A 
ATOM     28  C   UNL A   1      41.655  31.073  30.860  1.00  0.00     0.074 A 
ATOM     29  C   UNL A   1      47.249  30.002  28.050  1.00  0.00     0.029 A 
ATOM     30  N   UNL A   1      45.163  29.842  28.797  1.00  0.00    -0.354 N 
ATOM     31  N   UNL A   1      42.772  30.765  30.244  1.00  0.00    -0.248 NA
ATOM     32  C   UNL A   1      41.697  32.348  31.587  1.00  0.00     0.031 C 
ATOM     33  C   UNL A   1      46.990  31.103  28.876  1.00  0.00     0.029 A 
ATOM     34  C   UNL A   1      45.678  31.023  29.314  1.00  0.00     0.049 A 
ATOM     35  H   UNL A   1      44.250  29.510  28.955  1.00  0.00     0.167 HD
ATOM     36  C   UNL A   1      43.648  31.813  30.504  1.00  0.00     0.074 A 
ATOM     37  C   UNL A   1      42.915  32.778  31.299  1.00  0.00     0.031 C 
ATOM     38  C   UNL A   1      44.944  31.962  30.128  1.00  0.00     0.034 A 
BRANCH  25  39
ATOM     39  C   UNL A   1      47.092  27.343  26.583  1.00  0.00     0.023 A 
ATOM     40  C   UNL A   1      48.074  26.556  27.211  1.00  0.00     0.031 A 
ATOM     41  C   UNL A   1      47.218  27.572  25.202  1.00  0.00     0.131 A 
ATOM     42  C   UNL A   1      49.166  26.075  26.471  1.00  0.00     0.055 A 
ATOM     43  C   UNL A   1      48.269  27.030  24.456  1.00  0.00     0.041 A 
ATOM     44  F   UNL A   1      46.322  28.330  24.549  1.00  0.00    -0.206 F 
ATOM     45  C   UNL A   1      49.258  26.286  25.093  1.00  0.00     0.022 A 
BRANCH  42  46
ATOM     46  S   UNL A   1      50.528  25.266  27.356  1.00  0.00     0.124 S 
ATOM     47  O   UNL A   1      49.839  24.150  28.000  1.00  0.00    -0.237 OA
ATOM     48  O   UNL A   1      51.441  24.914  26.275  1.00  0.00    -0.237 OA
ATOM     49  O   UNL A   1      51.009  26.301  28.267  1.00  0.00    -0.744 OA
ENDBRANCH  42  46
ENDBRANCH  25  39
BRANCH  26  50
ATOM     50  C   UNL A   1      39.209  30.799  31.719  1.00  0.00     0.023 A 
ATOM     51  C   UNL A   1      38.221  31.622  31.158  1.00  0.00     0.031 A 
ATOM     52  C   UNL A   1      39.094  30.465  33.081  1.00  0.00     0.131 A 
ATOM     53  C   UNL A   1      37.187  32.120  31.964  1.00  0.00     0.055 A 
ATOM     54  C   UNL A   1      38.033  30.915  33.865  1.00  0.00     0.041 A 
ATOM     55  F   UNL A   1      40.009  29.675  33.665  1.00  0.00    -0.206 F 
ATOM     56  C   UNL A   1      37.077  31.760  33.310  1.00  0.00     0.022 A 
BRANCH  53  57
ATOM     57  S   UNL A   1      36.028  33.318  31.249  1.00  0.00     0.124 S 
ATOM     58  O   UNL A   1      34.758  32.608  31.361  1.00  0.00    -0.237 OA
ATOM     59  O   UNL A   1      36.200  34.468  32.131  1.00  0.00    -0.237 OA
ATOM     60  O   UNL A   1      36.525  33.499  29.887  1.00  0.00    -0.744 OA
ENDBRANCH  53  57
ENDBRANCH  26  50
BRANCH  38  61
ATOM     61  C   UNL A   1      45.629  33.233  30.568  1.00  0.00     0.023 A 
ATOM     62  C   UNL A   1      45.623  34.386  29.761  1.00  0.00     0.031 A 
ATOM     63  C   UNL A   1      46.341  33.275  31.778  1.00  0.00     0.131 A 
ATOM     64  C   UNL A   1      46.375  35.507  30.140  1.00  0.00     0.055 A 
ATOM     65  C   UNL A   1      47.036  34.416  32.180  1.00  0.00     0.041 A 
ATOM     66  F   UNL A   1      46.382  32.202  32.585  1.00  0.00    -0.206 F 
ATOM     67  C   UNL A   1      47.071  35.535  31.351  1.00  0.00     0.022 A 
BRANCH  64  68
ATOM     68  S   UNL A   1      46.527  36.887  28.973  1.00  0.00     0.124 S 
ATOM     69  O   UNL A   1      45.527  37.822  29.476  1.00  0.00    -0.237 OA
ATOM     70  O   UNL A   1      47.920  37.288  29.144  1.00  0.00    -0.237 OA
ATOM     71  O   UNL A   1      46.213  36.279  27.680  1.00  0.00    -0.744 OA
ENDBRANCH  64  68
ENDBRANCH  38  61
ENDBRANCH  12  13
ENDBRANCH   5   7
ENDBRANCH   2   3
ENDBRANCH   1   2
BRANCH   1  72
ATOM     72  C   UNL A   1      34.551  24.878  25.416  1.00  0.00     0.023 C 
BRANCH  72  73
ATOM     73  C   UNL A   1      34.441  26.164  24.605  1.00  0.00     0.116 C 
BRANCH  73  74
ATOM     74  N   UNL A   1      34.395  25.960  23.169  1.00  0.00    -0.352 N 
ATOM     75  C   UNL A   1      33.293  26.001  22.349  1.00  0.00     0.253 C 
ATOM     76  H   UNL A   1      35.256  25.770  22.729  1.00  0.00     0.163 HD
ATOM     77  O   UNL A   1      33.422  25.855  21.135  1.00  0.00    -0.269 OA
BRANCH  75  78
ATOM     78  C   UNL A   1      31.927  26.153  22.921  1.00  0.00     0.065 A 
ATOM     79  C   UNL A   1      31.415  27.448  22.822  1.00  0.00     0.042 A 
ATOM     80  C   UNL A   1      31.183  25.117  23.525  1.00  0.00     0.050 A 
ATOM     81  C   UNL A   1      30.076  27.713  23.054  1.00  0.00     0.042 A 
ATOM     82  C   UNL A   1      29.839  25.402  23.806  1.00  0.00     0.029 A 
ATOM     83  C   UNL A   1      29.288  26.676  23.559  1.00  0.00     0.028 A 
BRANCH  80  84
ATOM     84  N   UNL A   1      31.784  23.923  23.906  1.00  0.00    -0.360 N 
ATOM     85  C   UNL A   1      32.421  22.962  22.985  1.00  0.00     0.178 C 
ATOM     86  C   UNL A   1      31.093  23.252  25.014  1.00  0.00     0.178 C 
ATOM     87  C   UNL A   1      33.249  21.884  23.768  1.00  0.00     0.284 C 
ATOM     88  C   UNL A   1      32.089  22.431  25.829  1.00  0.00     0.284 C 
ATOM     89  N   UNL A   1      32.717  21.367  25.049  1.00  0.00    -0.324 N 
ATOM     90  H   UNL A   1      33.545  21.050  25.551  1.00  0.00     0.348 HD
BRANCH  89  91
ATOM     91  C   UNL A   1      31.938  20.118  25.001  1.00  0.00     0.363 C 
BRANCH  91  92
ATOM     92  C   UNL A   1      32.291  19.124  23.888  1.00  0.00     0.277 C 
ATOM     93  O   UNL A   1      32.090  19.438  22.708  1.00  0.00    -0.268 OA
ATOM     94  N   UNL A   1      32.896  17.906  24.213  1.00  0.00    -0.333 N 
ATOM     95  C   UNL A   1      32.713  17.164  25.473  1.00  0.00     0.148 C 
ATOM     96  C   UNL A   1      33.381  17.090  23.098  1.00  0.00     0.148 C 
ATOM     97  C   UNL A   1      33.809  16.137  25.769  1.00  0.00     0.181 C 
ATOM     98  C   UNL A   1      34.507  16.150  23.529  1.00  0.00     0.181 C 
ATOM     99  O   UNL A   1      34.090  15.324  24.623  1.00  0.00    -0.378 OA
ENDBRANCH  91  92
ENDBRANCH  89  91
ENDBRANCH  80  84
BRANCH  81 100
ATOM    100  N   UNL A   1      29.476  28.964  22.802  1.00  0.00    -0.322 N 
ATOM    101  C   UNL A   1      29.525  30.165  23.488  1.00  0.00     0.255 C 
ATOM    102  H   UNL A   1      28.919  28.987  21.990  1.00  0.00     0.170 HD
ATOM    103  O   UNL A   1      28.773  31.085  23.170  1.00  0.00    -0.269 OA
BRANCH 101 104
ATOM    104  C   UNL A   1      30.485  30.391  24.591  1.00  0.00     0.041 A 
ATOM    105  C   UNL A   1      30.517  31.650  25.203  1.00  0.00     0.014 A 
ATOM    106  C   UNL A   1      31.271  29.341  25.083  1.00  0.00     0.034 A 
ATOM    107  C   UNL A   1      31.266  31.833  26.368  1.00  0.00     0.002 A 
ATOM    108  C   UNL A   1      31.991  29.528  26.262  1.00  0.00     0.041 A 
ATOM    109  C   UNL A   1      31.985  30.764  26.910  1.00  0.00     0.020 A 
ATOM    110  Cl  UNL A   1      32.827  28.198  26.962  1.00  0.00    -0.084 Cl
ENDBRANCH 101 104
ENDBRANCH  81 100
ENDBRANCH  75  78
ENDBRANCH  73  74
ENDBRANCH  72  73
ENDBRANCH   1  72
TORSDOF 19
ENDMDL
