MODEL 1
REMARK VINA RESULT:     -13.0      0.000      0.000
REMARK SMILES COC(=O)c1ccc(NC(=O)[C@@H]2CC=CC[C@@H]2C(=O)NCCCCNC(=O)c2ccc(-c3c4nc(c(-c5cc(S(=O)(=O)[O-])ccc5F)c5ccc([nH]5)c(-c5cc(S(=O)(=O)[O-])ccc5F)c5nc(c(-c6cc(S(=O)(=O)[O-])ccc6F)c6ccc3[nH]6)C=C5)C=C4)cc2)c(C)c1
REMARK SMILES IDX 22 1 21 2 20 3 18 4 19 5 17 7 12 8 13 9 14 10 16 11 15 12
REMARK SMILES IDX 10 13 9 14 11 16 8 17 5 18 6 19 93 20 7 21 91 22 92 23 3 24
REMARK SMILES IDX 4 25 2 26 1 27 23 28 24 29 25 30 26 31 27 33 28 34 29 35
REMARK SMILES IDX 90 36 30 37 89 38 31 39 32 40 33 41 83 42 34 43 88 44 82 45
REMARK SMILES IDX 84 46 35 47 87 48 81 49 80 50 36 52 68 53 48 54 67 55 49 56
REMARK SMILES IDX 52 57 66 58 85 59 50 60 51 61 65 63 86 64 53 65 37 66 38 67
REMARK SMILES IDX 46 68 39 69 45 70 47 71 44 72 40 73 41 74 42 75 43 76 69 77
REMARK SMILES IDX 70 78 78 79 71 80 77 81 79 82 76 83 72 84 73 85 74 86 75 87
REMARK SMILES IDX 54 88 55 89 63 90 56 91 62 92 64 93 61 94 57 95 58 96 59 97
REMARK SMILES IDX 60 98
REMARK H PARENT 20 6 9 15 25 32 84 51 52 62
REMARK Flexibility Score: inf
ROOT
ATOM      1  C   UNL A   1      32.132  29.818  26.838  1.00  0.00     0.023 C 
ENDROOT
BRANCH   1   2
ATOM      2  C   UNL A   1      31.609  29.810  25.403  1.00  0.00     0.116 C 
BRANCH   2   3
ATOM      3  N   UNL A   1      32.661  29.613  24.404  1.00  0.00    -0.356 N 
ATOM      4  C   UNL A   1      32.901  28.535  23.592  1.00  0.00     0.224 C 
ATOM      5  O   UNL A   1      33.817  28.602  22.775  1.00  0.00    -0.275 OA
ATOM      6  H   UNL A   1      33.288  30.365  24.302  1.00  0.00     0.163 HD
BRANCH   4   7
ATOM      7  C   UNL A   1      32.006  27.314  23.756  1.00  0.00     0.095 C 
ATOM      8  C   UNL A   1      32.696  25.971  24.033  1.00  0.00     0.095 C 
ATOM      9  C   UNL A   1      33.598  25.508  22.881  1.00  0.00     0.041 C 
ATOM     10  C   UNL A   1      32.904  25.618  21.557  1.00  0.00    -0.030 C 
ATOM     11  C   UNL A   1      31.127  27.126  22.487  1.00  0.00     0.041 C 
ATOM     12  C   UNL A   1      31.775  26.320  21.393  1.00  0.00    -0.030 C 
BRANCH   8  13
ATOM     13  C   UNL A   1      33.407  25.796  25.353  1.00  0.00     0.228 C 
ATOM     14  N   UNL A   1      33.754  24.551  25.817  1.00  0.00    -0.326 N 
ATOM     15  H   UNL A   1      34.350  24.601  26.600  1.00  0.00     0.169 HD
ATOM     16  O   UNL A   1      33.710  26.752  26.070  1.00  0.00    -0.274 OA
BRANCH  14  17
ATOM     17  C   UNL A   1      33.467  23.210  25.452  1.00  0.00     0.044 A 
ATOM     18  C   UNL A   1      33.065  20.431  24.993  1.00  0.00     0.060 A 
ATOM     19  C   UNL A   1      31.984  21.270  25.218  1.00  0.00     0.018 A 
ATOM     20  C   UNL A   1      34.345  20.990  24.925  1.00  0.00     0.021 A 
ATOM     21  C   UNL A   1      32.187  22.642  25.406  1.00  0.00     0.027 A 
ATOM     22  C   UNL A   1      34.561  22.362  25.161  1.00  0.00    -0.027 A 
ATOM     23  C   UNL A   1      35.986  22.855  25.118  1.00  0.00     0.046 C 
BRANCH  18  24
ATOM     24  C   UNL A   1      32.825  18.971  24.882  1.00  0.00     0.337 C 
ATOM     25  O   UNL A   1      32.397  18.263  25.791  1.00  0.00    -0.246 OA
BRANCH  24  26
ATOM     26  O   UNL A   1      33.157  18.512  23.656  1.00  0.00    -0.465 OA
ATOM     27  C   UNL A   1      33.236  17.087  23.604  1.00  0.00     0.282 C 
ENDBRANCH  24  26
ENDBRANCH  18  24
ENDBRANCH  14  17
ENDBRANCH   8  13
ENDBRANCH   4   7
ENDBRANCH   2   3
ENDBRANCH   1   2
BRANCH   1  28
ATOM     28  C   UNL A   1      33.180  30.876  27.148  1.00  0.00     0.023 C 
BRANCH  28  29
ATOM     29  C   UNL A   1      34.539  30.331  27.546  1.00  0.00     0.116 C 
BRANCH  29  30
ATOM     30  N   UNL A   1      35.544  31.325  27.880  1.00  0.00    -0.352 N 
ATOM     31  C   UNL A   1      36.789  31.147  28.466  1.00  0.00     0.251 C 
ATOM     32  H   UNL A   1      35.310  32.255  27.659  1.00  0.00     0.163 HD
ATOM     33  O   UNL A   1      37.405  32.105  28.929  1.00  0.00    -0.269 OA
BRANCH  31  34
ATOM     34  C   UNL A   1      37.479  29.832  28.354  1.00  0.00     0.039 A 
ATOM     35  C   UNL A   1      37.445  29.009  29.493  1.00  0.00     0.014 A 
ATOM     36  C   UNL A   1      38.423  29.600  27.367  1.00  0.00     0.014 A 
ATOM     37  C   UNL A   1      38.537  28.201  29.781  1.00  0.00     0.010 A 
ATOM     38  C   UNL A   1      39.581  28.972  27.730  1.00  0.00     0.010 A 
ATOM     39  C   UNL A   1      39.647  28.319  28.960  1.00  0.00    -0.014 A 
BRANCH  39  40
ATOM     40  C   UNL A   1      40.941  27.734  29.210  1.00  0.00     0.031 A 
ATOM     41  C   UNL A   1      41.131  26.349  28.769  1.00  0.00     0.074 A 
ATOM     42  C   UNL A   1      41.946  28.557  29.578  1.00  0.00     0.049 A 
ATOM     43  N   UNL A   1      42.123  25.616  29.107  1.00  0.00    -0.248 NA
ATOM     44  C   UNL A   1      40.177  25.651  27.909  1.00  0.00     0.031 C 
ATOM     45  C   UNL A   1      43.381  28.309  29.553  1.00  0.00     0.029 A 
ATOM     46  N   UNL A   1      41.817  29.742  30.302  1.00  0.00    -0.354 N 
ATOM     47  C   UNL A   1      42.126  24.515  28.283  1.00  0.00     0.074 A 
ATOM     48  C   UNL A   1      40.846  24.531  27.626  1.00  0.00     0.031 C 
ATOM     49  C   UNL A   1      43.971  29.099  30.468  1.00  0.00     0.029 A 
ATOM     50  C   UNL A   1      42.907  29.768  31.195  1.00  0.00     0.049 A 
ATOM     51  H   UNL A   1      41.110  30.421  30.207  1.00  0.00     0.167 HD
ATOM     52  C   UNL A   1      43.290  23.821  28.172  1.00  0.00     0.034 A 
ATOM     53  C   UNL A   1      42.669  29.648  32.536  1.00  0.00     0.034 A 
ATOM     54  C   UNL A   1      44.275  24.364  29.109  1.00  0.00     0.049 A 
ATOM     55  C   UNL A   1      43.256  28.366  33.097  1.00  0.00     0.074 A 
ATOM     56  C   UNL A   1      45.337  25.243  28.973  1.00  0.00     0.029 A 
ATOM     57  N   UNL A   1      43.994  24.293  30.465  1.00  0.00    -0.354 N 
ATOM     58  N   UNL A   1      43.539  27.307  32.380  1.00  0.00    -0.248 NA
ATOM     59  C   UNL A   1      43.654  28.209  34.489  1.00  0.00     0.031 C 
ATOM     60  C   UNL A   1      45.645  25.751  30.268  1.00  0.00     0.029 A 
ATOM     61  C   UNL A   1      44.794  25.155  31.184  1.00  0.00     0.049 A 
ATOM     62  H   UNL A   1      43.312  23.705  30.863  1.00  0.00     0.167 HD
ATOM     63  C   UNL A   1      44.196  26.377  33.152  1.00  0.00     0.074 A 
ATOM     64  C   UNL A   1      44.228  26.993  34.470  1.00  0.00     0.031 C 
ATOM     65  C   UNL A   1      44.679  25.200  32.634  1.00  0.00     0.034 A 
BRANCH  52  66
ATOM     66  C   UNL A   1      43.648  22.836  27.089  1.00  0.00     0.023 A 
ATOM     67  C   UNL A   1      42.989  21.589  27.095  1.00  0.00     0.031 A 
ATOM     68  C   UNL A   1      44.604  23.004  26.070  1.00  0.00     0.131 A 
ATOM     69  C   UNL A   1      43.316  20.573  26.183  1.00  0.00     0.055 A 
ATOM     70  C   UNL A   1      44.948  21.984  25.171  1.00  0.00     0.041 A 
ATOM     71  F   UNL A   1      45.228  24.167  25.857  1.00  0.00    -0.206 F 
ATOM     72  C   UNL A   1      44.306  20.756  25.226  1.00  0.00     0.022 A 
BRANCH  69  73
ATOM     73  S   UNL A   1      42.417  19.003  26.277  1.00  0.00     0.124 S 
ATOM     74  O   UNL A   1      41.104  19.370  25.757  1.00  0.00    -0.237 OA
ATOM     75  O   UNL A   1      43.225  18.131  25.433  1.00  0.00    -0.237 OA
ATOM     76  O   UNL A   1      42.448  18.682  27.703  1.00  0.00    -0.744 OA
ENDBRANCH  69  73
ENDBRANCH  52  66
BRANCH  53  77
ATOM     77  C   UNL A   1      41.399  30.352  32.926  1.00  0.00     0.023 A 
ATOM     78  C   UNL A   1      41.423  31.763  32.780  1.00  0.00     0.031 A 
ATOM     79  C   UNL A   1      40.150  29.721  32.879  1.00  0.00     0.131 A 
ATOM     80  C   UNL A   1      40.287  32.447  32.317  1.00  0.00     0.055 A 
ATOM     81  C   UNL A   1      38.988  30.438  32.543  1.00  0.00     0.041 A 
ATOM     82  F   UNL A   1      40.050  28.389  32.999  1.00  0.00    -0.206 F 
ATOM     83  C   UNL A   1      39.064  31.789  32.190  1.00  0.00     0.022 A 
BRANCH  80  84
ATOM     84  S   UNL A   1      40.536  34.088  31.561  1.00  0.00     0.124 S 
ATOM     85  O   UNL A   1      41.122  33.744  30.270  1.00  0.00    -0.237 OA
ATOM     86  O   UNL A   1      39.178  34.631  31.520  1.00  0.00    -0.237 OA
ATOM     87  O   UNL A   1      41.423  34.785  32.490  1.00  0.00    -0.744 OA
ENDBRANCH  80  84
ENDBRANCH  53  77
BRANCH  65  88
ATOM     88  C   UNL A   1      45.154  23.974  33.408  1.00  0.00     0.023 A 
ATOM     89  C   UNL A   1      46.429  23.857  33.964  1.00  0.00     0.031 A 
ATOM     90  C   UNL A   1      44.284  22.878  33.681  1.00  0.00     0.131 A 
ATOM     91  C   UNL A   1      46.818  22.711  34.683  1.00  0.00     0.055 A 
ATOM     92  C   UNL A   1      44.642  21.780  34.469  1.00  0.00     0.041 A 
ATOM     93  F   UNL A   1      43.031  22.815  33.211  1.00  0.00    -0.206 F 
ATOM     94  C   UNL A   1      45.926  21.683  34.966  1.00  0.00     0.022 A 
BRANCH  91  95
ATOM     95  S   UNL A   1      48.552  22.578  35.175  1.00  0.00     0.124 S 
ATOM     96  O   UNL A   1      48.654  23.617  36.198  1.00  0.00    -0.237 OA
ATOM     97  O   UNL A   1      48.633  21.205  35.661  1.00  0.00    -0.237 OA
ATOM     98  O   UNL A   1      49.285  22.847  33.940  1.00  0.00    -0.744 OA
ENDBRANCH  91  95
ENDBRANCH  65  88
ENDBRANCH  39  40
ENDBRANCH  31  34
ENDBRANCH  29  30
ENDBRANCH  28  29
ENDBRANCH   1  28
TORSDOF 18
ENDMDL
MODEL 2
REMARK VINA RESULT:     -12.9      4.089     10.168
REMARK SMILES COC(=O)c1ccc(NC(=O)[C@@H]2CC=CC[C@@H]2C(=O)NCCCCNC(=O)c2ccc(-c3c4nc(c(-c5cc(S(=O)(=O)[O-])ccc5F)c5ccc([nH]5)c(-c5cc(S(=O)(=O)[O-])ccc5F)c5nc(c(-c6cc(S(=O)(=O)[O-])ccc6F)c6ccc3[nH]6)C=C5)C=C4)cc2)c(C)c1
REMARK SMILES IDX 22 1 21 2 20 3 18 4 19 5 17 7 12 8 13 9 14 10 16 11 15 12
REMARK SMILES IDX 10 13 9 14 11 16 8 17 5 18 6 19 93 20 7 21 91 22 92 23 3 24
REMARK SMILES IDX 4 25 2 26 1 27 23 28 24 29 25 30 26 31 27 33 28 34 29 35
REMARK SMILES IDX 90 36 30 37 89 38 31 39 32 40 33 41 83 42 34 43 88 44 82 45
REMARK SMILES IDX 84 46 35 47 87 48 81 49 80 50 36 52 68 53 48 54 67 55 49 56
REMARK SMILES IDX 52 57 66 58 85 59 50 60 51 61 65 63 86 64 53 65 37 66 38 67
REMARK SMILES IDX 46 68 39 69 45 70 47 71 44 72 40 73 41 74 42 75 43 76 69 77
REMARK SMILES IDX 70 78 78 79 71 80 77 81 79 82 76 83 72 84 73 85 74 86 75 87
REMARK SMILES IDX 54 88 55 89 63 90 56 91 62 92 64 93 61 94 57 95 58 96 59 97
REMARK SMILES IDX 60 98
REMARK H PARENT 20 6 9 15 25 32 84 51 52 62
REMARK Flexibility Score: inf
ROOT
ATOM      1  C   UNL A   1      36.692  20.358  25.071  1.00  0.00     0.023 C 
ENDROOT
BRANCH   1   2
ATOM      2  C   UNL A   1      35.665  21.488  25.053  1.00  0.00     0.116 C 
BRANCH   2   3
ATOM      3  N   UNL A   1      34.978  21.666  26.333  1.00  0.00    -0.356 N 
ATOM      4  C   UNL A   1      33.725  22.162  26.587  1.00  0.00     0.224 C 
ATOM      5  O   UNL A   1      33.318  22.173  27.747  1.00  0.00    -0.275 OA
ATOM      6  H   UNL A   1      35.491  21.391  27.126  1.00  0.00     0.163 HD
BRANCH   4   7
ATOM      7  C   UNL A   1      32.912  22.669  25.404  1.00  0.00     0.095 C 
ATOM      8  C   UNL A   1      32.583  24.168  25.371  1.00  0.00     0.095 C 
ATOM      9  C   UNL A   1      31.693  24.616  26.539  1.00  0.00     0.041 C 
ATOM     10  C   UNL A   1      30.521  23.700  26.723  1.00  0.00    -0.030 C 
ATOM     11  C   UNL A   1      31.563  21.901  25.318  1.00  0.00     0.041 C 
ATOM     12  C   UNL A   1      30.454  22.493  26.145  1.00  0.00    -0.030 C 
BRANCH   8  13
ATOM     13  C   UNL A   1      33.720  25.142  25.182  1.00  0.00     0.228 C 
ATOM     14  N   UNL A   1      33.496  26.428  24.753  1.00  0.00    -0.326 N 
ATOM     15  H   UNL A   1      34.301  26.990  24.833  1.00  0.00     0.169 HD
ATOM     16  O   UNL A   1      34.895  24.835  25.401  1.00  0.00    -0.274 OA
BRANCH  14  17
ATOM     17  C   UNL A   1      32.394  27.148  24.224  1.00  0.00     0.044 A 
ATOM     18  C   UNL A   1      30.375  28.869  23.196  1.00  0.00     0.060 A 
ATOM     19  C   UNL A   1      30.911  27.863  22.405  1.00  0.00     0.018 A 
ATOM     20  C   UNL A   1      30.794  28.973  24.526  1.00  0.00     0.021 A 
ATOM     21  C   UNL A   1      31.877  26.997  22.931  1.00  0.00     0.027 A 
ATOM     22  C   UNL A   1      31.802  28.135  25.046  1.00  0.00    -0.027 A 
ATOM     23  C   UNL A   1      32.220  28.364  26.476  1.00  0.00     0.046 C 
BRANCH  18  24
ATOM     24  C   UNL A   1      29.416  29.822  22.584  1.00  0.00     0.337 C 
ATOM     25  O   UNL A   1      29.101  29.830  21.396  1.00  0.00    -0.246 OA
BRANCH  24  26
ATOM     26  O   UNL A   1      28.945  30.698  23.500  1.00  0.00    -0.465 OA
ATOM     27  C   UNL A   1      28.030  31.640  22.940  1.00  0.00     0.282 C 
ENDBRANCH  24  26
ENDBRANCH  18  24
ENDBRANCH  14  17
ENDBRANCH   8  13
ENDBRANCH   4   7
ENDBRANCH   2   3
ENDBRANCH   1   2
BRANCH   1  28
ATOM     28  C   UNL A   1      38.148  20.794  24.989  1.00  0.00     0.023 C 
BRANCH  28  29
ATOM     29  C   UNL A   1      38.504  21.991  25.849  1.00  0.00     0.116 C 
BRANCH  29  30
ATOM     30  N   UNL A   1      39.876  22.039  26.326  1.00  0.00    -0.352 N 
ATOM     31  C   UNL A   1      40.688  23.143  26.543  1.00  0.00     0.251 C 
ATOM     32  H   UNL A   1      40.287  21.167  26.524  1.00  0.00     0.163 HD
ATOM     33  O   UNL A   1      41.901  23.007  26.687  1.00  0.00    -0.269 OA
BRANCH  31  34
ATOM     34  C   UNL A   1      40.074  24.473  26.810  1.00  0.00     0.039 A 
ATOM     35  C   UNL A   1      40.619  25.564  26.113  1.00  0.00     0.014 A 
ATOM     36  C   UNL A   1      39.311  24.695  27.945  1.00  0.00     0.014 A 
ATOM     37  C   UNL A   1      40.674  26.807  26.730  1.00  0.00     0.010 A 
ATOM     38  C   UNL A   1      39.533  25.847  28.645  1.00  0.00     0.010 A 
ATOM     39  C   UNL A   1      40.258  26.878  28.050  1.00  0.00    -0.014 A 
BRANCH  39  40
ATOM     40  C   UNL A   1      40.433  28.011  28.924  1.00  0.00     0.031 A 
ATOM     41  C   UNL A   1      39.447  29.090  28.804  1.00  0.00     0.074 A 
ATOM     42  C   UNL A   1      41.304  27.892  29.948  1.00  0.00     0.049 A 
ATOM     43  N   UNL A   1      39.578  30.246  29.334  1.00  0.00    -0.248 NA
ATOM     44  C   UNL A   1      38.212  28.956  28.033  1.00  0.00     0.031 C 
ATOM     45  C   UNL A   1      41.418  28.710  31.148  1.00  0.00     0.029 A 
ATOM     46  N   UNL A   1      42.456  27.104  29.962  1.00  0.00    -0.354 N 
ATOM     47  C   UNL A   1      38.356  30.874  29.270  1.00  0.00     0.074 A 
ATOM     48  C   UNL A   1      37.569  30.077  28.368  1.00  0.00     0.031 C 
ATOM     49  C   UNL A   1      42.679  28.629  31.607  1.00  0.00     0.029 A 
ATOM     50  C   UNL A   1      43.436  27.867  30.629  1.00  0.00     0.049 A 
ATOM     51  H   UNL A   1      42.561  26.202  29.584  1.00  0.00     0.167 HD
ATOM     52  C   UNL A   1      38.143  31.915  30.119  1.00  0.00     0.034 A 
ATOM     53  C   UNL A   1      44.508  28.334  29.922  1.00  0.00     0.034 A 
ATOM     54  C   UNL A   1      39.379  32.219  30.841  1.00  0.00     0.049 A 
ATOM     55  C   UNL A   1      44.512  29.849  29.844  1.00  0.00     0.074 A 
ATOM     56  C   UNL A   1      39.847  31.900  32.106  1.00  0.00     0.029 A 
ATOM     57  N   UNL A   1      40.481  32.630  30.106  1.00  0.00    -0.354 N 
ATOM     58  N   UNL A   1      43.452  30.600  30.004  1.00  0.00    -0.248 NA
ATOM     59  C   UNL A   1      45.724  30.639  29.670  1.00  0.00     0.031 C 
ATOM     60  C   UNL A   1      41.262  32.065  32.096  1.00  0.00     0.029 A 
ATOM     61  C   UNL A   1      41.641  32.512  30.841  1.00  0.00     0.049 A 
ATOM     62  H   UNL A   1      40.441  32.963  29.181  1.00  0.00     0.167 HD
ATOM     63  C   UNL A   1      43.813  31.928  30.027  1.00  0.00     0.074 A 
ATOM     64  C   UNL A   1      45.249  31.891  29.799  1.00  0.00     0.031 C 
ATOM     65  C   UNL A   1      42.906  32.933  30.258  1.00  0.00     0.034 A 
BRANCH  52  66
ATOM     66  C   UNL A   1      36.810  32.509  30.493  1.00  0.00     0.023 A 
ATOM     67  C   UNL A   1      36.101  33.209  29.494  1.00  0.00     0.031 A 
ATOM     68  C   UNL A   1      36.190  32.475  31.756  1.00  0.00     0.131 A 
ATOM     69  C   UNL A   1      34.894  33.872  29.768  1.00  0.00     0.055 A 
ATOM     70  C   UNL A   1      34.995  33.154  32.037  1.00  0.00     0.041 A 
ATOM     71  F   UNL A   1      36.673  31.756  32.773  1.00  0.00    -0.206 F 
ATOM     72  C   UNL A   1      34.341  33.863  31.042  1.00  0.00     0.022 A 
BRANCH  69  73
ATOM     73  S   UNL A   1      34.063  34.750  28.418  1.00  0.00     0.124 S 
ATOM     74  O   UNL A   1      34.092  36.131  28.888  1.00  0.00    -0.237 OA
ATOM     75  O   UNL A   1      34.914  34.438  27.275  1.00  0.00    -0.237 OA
ATOM     76  O   UNL A   1      32.736  34.137  28.385  1.00  0.00    -0.744 OA
ENDBRANCH  69  73
ENDBRANCH  52  66
BRANCH  53  77
ATOM     77  C   UNL A   1      44.951  27.336  28.888  1.00  0.00     0.023 A 
ATOM     78  C   UNL A   1      45.060  27.843  27.568  1.00  0.00     0.031 A 
ATOM     79  C   UNL A   1      45.730  26.218  29.214  1.00  0.00     0.131 A 
ATOM     80  C   UNL A   1      46.110  27.428  26.733  1.00  0.00     0.055 A 
ATOM     81  C   UNL A   1      46.693  25.720  28.319  1.00  0.00     0.041 A 
ATOM     82  F   UNL A   1      45.688  25.689  30.445  1.00  0.00    -0.206 F 
ATOM     83  C   UNL A   1      46.937  26.369  27.103  1.00  0.00     0.022 A 
BRANCH  80  84
ATOM     84  S   UNL A   1      46.575  28.523  25.349  1.00  0.00     0.124 S 
ATOM     85  O   UNL A   1      45.999  29.798  25.762  1.00  0.00    -0.237 OA
ATOM     86  O   UNL A   1      48.036  28.450  25.362  1.00  0.00    -0.237 OA
ATOM     87  O   UNL A   1      45.962  27.905  24.176  1.00  0.00    -0.744 OA
ENDBRANCH  80  84
ENDBRANCH  53  77
BRANCH  65  88
ATOM     88  C   UNL A   1      43.102  34.428  30.025  1.00  0.00     0.023 A 
ATOM     89  C   UNL A   1      42.891  35.053  28.795  1.00  0.00     0.031 A 
ATOM     90  C   UNL A   1      43.448  35.312  31.089  1.00  0.00     0.131 A 
ATOM     91  C   UNL A   1      43.070  36.440  28.631  1.00  0.00     0.055 A 
ATOM     92  C   UNL A   1      43.541  36.699  30.946  1.00  0.00     0.041 A 
ATOM     93  F   UNL A   1      43.704  34.882  32.332  1.00  0.00    -0.206 F 
ATOM     94  C   UNL A   1      43.365  37.274  29.704  1.00  0.00     0.022 A 
BRANCH  91  95
ATOM     95  S   UNL A   1      42.975  37.106  26.954  1.00  0.00     0.124 S 
ATOM     96  O   UNL A   1      44.229  37.850  26.856  1.00  0.00    -0.237 OA
ATOM     97  O   UNL A   1      42.895  35.896  26.142  1.00  0.00    -0.237 OA
ATOM     98  O   UNL A   1      41.765  37.925  26.974  1.00  0.00    -0.744 OA
ENDBRANCH  91  95
ENDBRANCH  65  88
ENDBRANCH  39  40
ENDBRANCH  31  34
ENDBRANCH  29  30
ENDBRANCH  28  29
ENDBRANCH   1  28
TORSDOF 18
ENDMDL
MODEL 3
REMARK VINA RESULT:     -12.8      3.975     10.622
REMARK SMILES COC(=O)c1ccc(NC(=O)[C@@H]2CC=CC[C@@H]2C(=O)NCCCCNC(=O)c2ccc(-c3c4nc(c(-c5cc(S(=O)(=O)[O-])ccc5F)c5ccc([nH]5)c(-c5cc(S(=O)(=O)[O-])ccc5F)c5nc(c(-c6cc(S(=O)(=O)[O-])ccc6F)c6ccc3[nH]6)C=C5)C=C4)cc2)c(C)c1
REMARK SMILES IDX 22 1 21 2 20 3 18 4 19 5 17 7 12 8 13 9 14 10 16 11 15 12
REMARK SMILES IDX 10 13 9 14 11 16 8 17 5 18 6 19 93 20 7 21 91 22 92 23 3 24
REMARK SMILES IDX 4 25 2 26 1 27 23 28 24 29 25 30 26 31 27 33 28 34 29 35
REMARK SMILES IDX 90 36 30 37 89 38 31 39 32 40 33 41 83 42 34 43 88 44 82 45
REMARK SMILES IDX 84 46 35 47 87 48 81 49 80 50 36 52 68 53 48 54 67 55 49 56
REMARK SMILES IDX 52 57 66 58 85 59 50 60 51 61 65 63 86 64 53 65 37 66 38 67
REMARK SMILES IDX 46 68 39 69 45 70 47 71 44 72 40 73 41 74 42 75 43 76 69 77
REMARK SMILES IDX 70 78 78 79 71 80 77 81 79 82 76 83 72 84 73 85 74 86 75 87
REMARK SMILES IDX 54 88 55 89 63 90 56 91 62 92 64 93 61 94 57 95 58 96 59 97
REMARK SMILES IDX 60 98
REMARK H PARENT 20 6 9 15 25 32 84 51 52 62
REMARK Flexibility Score: inf
ROOT
ATOM      1  C   UNL A   1      36.855  21.734  24.708  1.00  0.00     0.023 C 
ENDROOT
BRANCH   1   2
ATOM      2  C   UNL A   1      35.724  20.859  25.244  1.00  0.00     0.116 C 
BRANCH   2   3
ATOM      3  N   UNL A   1      35.156  21.351  26.500  1.00  0.00    -0.356 N 
ATOM      4  C   UNL A   1      34.020  22.088  26.713  1.00  0.00     0.224 C 
ATOM      5  O   UNL A   1      33.692  22.350  27.869  1.00  0.00    -0.275 OA
ATOM      6  H   UNL A   1      35.665  21.118  27.310  1.00  0.00     0.163 HD
BRANCH   4   7
ATOM      7  C   UNL A   1      33.230  22.538  25.491  1.00  0.00     0.095 C 
ATOM      8  C   UNL A   1      32.857  24.024  25.406  1.00  0.00     0.095 C 
ATOM      9  C   UNL A   1      31.917  24.476  26.532  1.00  0.00     0.041 C 
ATOM     10  C   UNL A   1      30.768  23.529  26.705  1.00  0.00    -0.030 C 
ATOM     11  C   UNL A   1      31.909  21.726  25.385  1.00  0.00     0.041 C 
ATOM     12  C   UNL A   1      30.756  22.305  26.160  1.00  0.00    -0.030 C 
BRANCH   8  13
ATOM     13  C   UNL A   1      33.970  25.028  25.225  1.00  0.00     0.228 C 
ATOM     14  N   UNL A   1      33.713  26.313  24.812  1.00  0.00    -0.326 N 
ATOM     15  H   UNL A   1      34.504  26.893  24.896  1.00  0.00     0.169 HD
ATOM     16  O   UNL A   1      35.152  24.748  25.438  1.00  0.00    -0.274 OA
BRANCH  14  17
ATOM     17  C   UNL A   1      32.592  27.012  24.294  1.00  0.00     0.044 A 
ATOM     18  C   UNL A   1      30.564  28.652  23.159  1.00  0.00     0.060 A 
ATOM     19  C   UNL A   1      30.801  27.380  22.659  1.00  0.00     0.018 A 
ATOM     20  C   UNL A   1      31.290  29.081  24.274  1.00  0.00     0.021 A 
ATOM     21  C   UNL A   1      31.776  26.566  23.247  1.00  0.00     0.027 A 
ATOM     22  C   UNL A   1      32.306  28.285  24.840  1.00  0.00    -0.027 A 
ATOM     23  C   UNL A   1      33.067  28.863  26.006  1.00  0.00     0.046 C 
BRANCH  18  24
ATOM     24  C   UNL A   1      29.584  29.522  22.461  1.00  0.00     0.337 C 
ATOM     25  O   UNL A   1      29.684  29.887  21.292  1.00  0.00    -0.246 OA
BRANCH  24  26
ATOM     26  O   UNL A   1      28.574  29.879  23.283  1.00  0.00    -0.465 OA
ATOM     27  C   UNL A   1      28.394  31.295  23.350  1.00  0.00     0.282 C 
ENDBRANCH  24  26
ENDBRANCH  18  24
ENDBRANCH  14  17
ENDBRANCH   8  13
ENDBRANCH   4   7
ENDBRANCH   2   3
ENDBRANCH   1   2
BRANCH   1  28
ATOM     28  C   UNL A   1      38.146  21.703  25.512  1.00  0.00     0.023 C 
BRANCH  28  29
ATOM     29  C   UNL A   1      38.511  23.013  26.184  1.00  0.00     0.116 C 
BRANCH  29  30
ATOM     30  N   UNL A   1      39.780  23.027  26.890  1.00  0.00    -0.352 N 
ATOM     31  C   UNL A   1      40.556  24.111  27.272  1.00  0.00     0.251 C 
ATOM     32  H   UNL A   1      40.140  22.143  27.132  1.00  0.00     0.163 HD
ATOM     33  O   UNL A   1      41.725  23.953  27.618  1.00  0.00    -0.269 OA
BRANCH  31  34
ATOM     34  C   UNL A   1      39.922  25.445  27.464  1.00  0.00     0.039 A 
ATOM     35  C   UNL A   1      40.330  26.464  26.587  1.00  0.00     0.014 A 
ATOM     36  C   UNL A   1      39.293  25.774  28.654  1.00  0.00     0.014 A 
ATOM     37  C   UNL A   1      40.406  27.771  27.050  1.00  0.00     0.010 A 
ATOM     38  C   UNL A   1      39.548  27.006  29.188  1.00  0.00     0.010 A 
ATOM     39  C   UNL A   1      40.150  27.982  28.395  1.00  0.00    -0.014 A 
BRANCH  39  40
ATOM     40  C   UNL A   1      40.380  29.213  29.110  1.00  0.00     0.031 A 
ATOM     41  C   UNL A   1      39.291  30.196  29.090  1.00  0.00     0.074 A 
ATOM     42  C   UNL A   1      41.437  29.271  29.946  1.00  0.00     0.049 A 
ATOM     43  N   UNL A   1      39.411  31.409  29.474  1.00  0.00    -0.248 NA
ATOM     44  C   UNL A   1      37.951  29.886  28.596  1.00  0.00     0.031 C 
ATOM     45  C   UNL A   1      41.700  30.222  31.019  1.00  0.00     0.029 A 
ATOM     46  N   UNL A   1      42.640  28.579  29.802  1.00  0.00    -0.354 N 
ATOM     47  C   UNL A   1      38.145  31.933  29.597  1.00  0.00     0.074 A 
ATOM     48  C   UNL A   1      37.280  30.985  28.947  1.00  0.00     0.031 C 
ATOM     49  C   UNL A   1      43.027  30.286  31.223  1.00  0.00     0.029 A 
ATOM     50  C   UNL A   1      43.652  29.481  30.188  1.00  0.00     0.049 A 
ATOM     51  H   UNL A   1      42.757  27.651  29.496  1.00  0.00     0.167 HD
ATOM     52  C   UNL A   1      38.000  33.041  30.372  1.00  0.00     0.034 A 
ATOM     53  C   UNL A   1      44.521  29.947  29.242  1.00  0.00     0.034 A 
ATOM     54  C   UNL A   1      39.317  33.513  30.803  1.00  0.00     0.049 A 
ATOM     55  C   UNL A   1      44.367  31.441  29.025  1.00  0.00     0.074 A 
ATOM     56  C   UNL A   1      40.045  33.370  31.973  1.00  0.00     0.029 A 
ATOM     57  N   UNL A   1      40.214  33.924  29.828  1.00  0.00    -0.354 N 
ATOM     58  N   UNL A   1      43.290  32.123  29.324  1.00  0.00    -0.248 NA
ATOM     59  C   UNL A   1      45.443  32.296  28.542  1.00  0.00     0.031 C 
ATOM     60  C   UNL A   1      41.410  33.639  31.666  1.00  0.00     0.029 A 
ATOM     61  C   UNL A   1      41.498  33.974  30.325  1.00  0.00     0.049 A 
ATOM     62  H   UNL A   1      39.967  34.151  28.903  1.00  0.00     0.167 HD
ATOM     63  C   UNL A   1      43.521  33.469  29.152  1.00  0.00     0.074 A 
ATOM     64  C   UNL A   1      44.885  33.515  28.647  1.00  0.00     0.031 C 
ATOM     65  C   UNL A   1      42.584  34.423  29.465  1.00  0.00     0.034 A 
BRANCH  52  66
ATOM     66  C   UNL A   1      36.713  33.571  30.948  1.00  0.00     0.023 A 
ATOM     67  C   UNL A   1      35.781  34.141  30.055  1.00  0.00     0.031 A 
ATOM     68  C   UNL A   1      36.334  33.593  32.304  1.00  0.00     0.131 A 
ATOM     69  C   UNL A   1      34.594  34.740  30.504  1.00  0.00     0.055 A 
ATOM     70  C   UNL A   1      35.159  34.210  32.757  1.00  0.00     0.041 A 
ATOM     71  F   UNL A   1      37.050  32.989  33.258  1.00  0.00    -0.206 F 
ATOM     72  C   UNL A   1      34.281  34.793  31.857  1.00  0.00     0.022 A 
BRANCH  69  73
ATOM     73  S   UNL A   1      33.465  35.452  29.279  1.00  0.00     0.124 S 
ATOM     74  O   UNL A   1      32.898  36.583  30.005  1.00  0.00    -0.237 OA
ATOM     75  O   UNL A   1      34.366  35.776  28.179  1.00  0.00    -0.237 OA
ATOM     76  O   UNL A   1      32.530  34.361  29.009  1.00  0.00    -0.744 OA
ENDBRANCH  69  73
ENDBRANCH  52  66
BRANCH  53  77
ATOM     77  C   UNL A   1      44.852  28.879  28.237  1.00  0.00     0.023 A 
ATOM     78  C   UNL A   1      45.630  27.802  28.735  1.00  0.00     0.031 A 
ATOM     79  C   UNL A   1      44.043  28.626  27.122  1.00  0.00     0.131 A 
ATOM     80  C   UNL A   1      45.373  26.487  28.313  1.00  0.00     0.055 A 
ATOM     81  C   UNL A   1      43.891  27.323  26.617  1.00  0.00     0.041 A 
ATOM     82  F   UNL A   1      43.272  29.593  26.601  1.00  0.00    -0.206 F 
ATOM     83  C   UNL A   1      44.499  26.237  27.257  1.00  0.00     0.022 A 
BRANCH  80  84
ATOM     84  S   UNL A   1      45.924  25.127  29.398  1.00  0.00     0.124 S 
ATOM     85  O   UNL A   1      45.781  23.966  28.527  1.00  0.00    -0.237 OA
ATOM     86  O   UNL A   1      47.296  25.515  29.725  1.00  0.00    -0.237 OA
ATOM     87  O   UNL A   1      45.008  25.178  30.536  1.00  0.00    -0.744 OA
ENDBRANCH  80  84
ENDBRANCH  53  77
BRANCH  65  88
ATOM     88  C   UNL A   1      42.589  35.894  29.062  1.00  0.00     0.023 A 
ATOM     89  C   UNL A   1      43.343  36.871  29.714  1.00  0.00     0.031 A 
ATOM     90  C   UNL A   1      41.867  36.360  27.925  1.00  0.00     0.131 A 
ATOM     91  C   UNL A   1      43.328  38.215  29.297  1.00  0.00     0.055 A 
ATOM     92  C   UNL A   1      41.920  37.677  27.458  1.00  0.00     0.041 A 
ATOM     93  F   UNL A   1      41.078  35.564  27.193  1.00  0.00    -0.206 F 
ATOM     94  C   UNL A   1      42.646  38.623  28.155  1.00  0.00     0.022 A 
BRANCH  91  95
ATOM     95  S   UNL A   1      44.172  39.428  30.338  1.00  0.00     0.124 S 
ATOM     96  O   UNL A   1      44.960  40.169  29.356  1.00  0.00    -0.237 OA
ATOM     97  O   UNL A   1      43.057  40.157  30.933  1.00  0.00    -0.237 OA
ATOM     98  O   UNL A   1      44.947  38.607  31.266  1.00  0.00    -0.744 OA
ENDBRANCH  91  95
ENDBRANCH  65  88
ENDBRANCH  39  40
ENDBRANCH  31  34
ENDBRANCH  29  30
ENDBRANCH  28  29
ENDBRANCH   1  28
TORSDOF 18
ENDMDL
