MODEL 1
REMARK VINA RESULT:     -11.8      0.000      0.000
REMARK SMILES C[C@@H](C(=O)NCCCCNC(=O)c1ccc(-c2c3nc(c(-c4cc(S(=O)(=O)[O-])ccc4F)c4ccc([nH]4)c(-c4cc(S(=O)(=O)[O-])ccc4F)c4nc(c(-c5cc(S(=O)(=O)[O-])ccc5F)c5ccc2[nH]5)C=C4)C=C3)cc1)N1C(=O)c2nccnc2C1=O
REMARK SMILES IDX 8 1 7 2 6 3 5 4 3 5 4 6 2 8 1 9 76 10 77 11 85 12 78 13
REMARK SMILES IDX 79 14 84 15 86 16 80 17 83 18 81 19 82 20 9 21 10 22 11 23
REMARK SMILES IDX 12 25 13 26 14 27 75 28 15 29 74 30 16 31 17 32 18 33 68 34
REMARK SMILES IDX 19 35 73 36 67 37 69 38 20 39 72 40 66 41 65 42 21 44 53 45
REMARK SMILES IDX 33 46 52 47 34 48 37 49 51 50 70 51 35 52 36 53 50 55 71 56
REMARK SMILES IDX 38 57 22 58 23 59 31 60 24 61 30 62 32 63 29 64 25 65 26 66
REMARK SMILES IDX 27 67 28 68 54 69 55 70 63 71 56 72 62 73 64 74 61 75 57 76
REMARK SMILES IDX 58 77 59 78 60 79 39 80 40 81 48 82 41 83 47 84 49 85 46 86
REMARK SMILES IDX 42 87 43 88 44 89 45 90
REMARK H PARENT 5 7 10 24 69 43 37 54
REMARK Flexibility Score: inf
ROOT
ATOM      1  C   UNL A   1      31.731  29.504  27.200  1.00  0.00     0.023 C 
ENDROOT
BRANCH   1   2
ATOM      2  C   UNL A   1      31.993  28.032  27.532  1.00  0.00     0.023 C 
BRANCH   2   3
ATOM      3  C   UNL A   1      31.416  27.037  26.525  1.00  0.00     0.116 C 
BRANCH   3   4
ATOM      4  N   UNL A   1      32.451  26.452  25.694  1.00  0.00    -0.354 N 
ATOM      5  C   UNL A   1      32.335  25.719  24.545  1.00  0.00     0.243 C 
ATOM      6  O   UNL A   1      33.375  25.374  23.976  1.00  0.00    -0.273 OA
ATOM      7  H   UNL A   1      33.372  26.605  26.002  1.00  0.00     0.163 HD
BRANCH   5   8
ATOM      8  C   UNL A   1      30.940  25.373  23.988  1.00  0.00     0.180 C 
ATOM      9  C   UNL A   1      30.966  24.243  22.962  1.00  0.00     0.042 C 
BRANCH   8  10
ATOM     10  N   UNL A   1      30.338  26.596  23.454  1.00  0.00    -0.259 N 
ATOM     11  C   UNL A   1      30.992  27.552  22.713  1.00  0.00     0.282 C 
ATOM     12  C   UNL A   1      29.048  26.971  23.728  1.00  0.00     0.282 C 
ATOM     13  O   UNL A   1      32.133  27.546  22.297  1.00  0.00    -0.267 OA
ATOM     14  C   UNL A   1      30.013  28.606  22.449  1.00  0.00     0.160 A 
ATOM     15  C   UNL A   1      28.839  28.255  23.060  1.00  0.00     0.160 A 
ATOM     16  O   UNL A   1      28.211  26.358  24.367  1.00  0.00    -0.267 OA
ATOM     17  N   UNL A   1      30.161  29.684  21.652  1.00  0.00    -0.247 NA
ATOM     18  N   UNL A   1      27.686  28.945  22.942  1.00  0.00    -0.247 NA
ATOM     19  C   UNL A   1      29.018  30.406  21.531  1.00  0.00     0.132 A 
ATOM     20  C   UNL A   1      27.815  30.048  22.157  1.00  0.00     0.132 A 
ENDBRANCH   8  10
ENDBRANCH   5   8
ENDBRANCH   3   4
ENDBRANCH   2   3
ENDBRANCH   1   2
BRANCH   1  21
ATOM     21  C   UNL A   1      32.905  30.252  26.576  1.00  0.00     0.116 C 
BRANCH  21  22
ATOM     22  N   UNL A   1      32.907  31.669  26.902  1.00  0.00    -0.352 N 
ATOM     23  C   UNL A   1      33.798  32.390  27.661  1.00  0.00     0.251 C 
ATOM     24  H   UNL A   1      32.162  32.189  26.523  1.00  0.00     0.163 HD
ATOM     25  O   UNL A   1      33.534  33.556  27.945  1.00  0.00    -0.269 OA
BRANCH  23  26
ATOM     26  C   UNL A   1      35.043  31.761  28.164  1.00  0.00     0.039 A 
ATOM     27  C   UNL A   1      36.215  32.520  28.183  1.00  0.00     0.014 A 
ATOM     28  C   UNL A   1      35.066  30.435  28.606  1.00  0.00     0.014 A 
ATOM     29  C   UNL A   1      37.390  31.971  28.703  1.00  0.00     0.010 A 
ATOM     30  C   UNL A   1      36.217  29.917  29.201  1.00  0.00     0.010 A 
ATOM     31  C   UNL A   1      37.394  30.678  29.254  1.00  0.00    -0.014 A 
BRANCH  31  32
ATOM     32  C   UNL A   1      38.624  30.126  29.885  1.00  0.00     0.031 A 
ATOM     33  C   UNL A   1      39.069  30.601  31.244  1.00  0.00     0.074 A 
ATOM     34  C   UNL A   1      39.357  29.207  29.223  1.00  0.00     0.049 A 
ATOM     35  N   UNL A   1      40.117  30.246  31.943  1.00  0.00    -0.248 NA
ATOM     36  C   UNL A   1      38.241  31.630  31.891  1.00  0.00     0.031 C 
ATOM     37  C   UNL A   1      39.057  28.699  27.881  1.00  0.00     0.029 A 
ATOM     38  N   UNL A   1      40.498  28.534  29.581  1.00  0.00    -0.354 N 
ATOM     39  C   UNL A   1      40.068  30.995  33.113  1.00  0.00     0.074 A 
ATOM     40  C   UNL A   1      38.933  31.885  32.991  1.00  0.00     0.031 C 
ATOM     41  C   UNL A   1      39.968  27.771  27.548  1.00  0.00     0.029 A 
ATOM     42  C   UNL A   1      40.946  27.652  28.623  1.00  0.00     0.049 A 
ATOM     43  H   UNL A   1      40.954  28.668  30.443  1.00  0.00     0.167 HD
ATOM     44  C   UNL A   1      40.872  30.926  34.204  1.00  0.00     0.034 A 
ATOM     45  C   UNL A   1      42.028  26.846  28.606  1.00  0.00     0.034 A 
ATOM     46  C   UNL A   1      42.006  30.040  34.312  1.00  0.00     0.049 A 
ATOM     47  C   UNL A   1      42.935  26.823  29.812  1.00  0.00     0.074 A 
ATOM     48  C   UNL A   1      42.873  29.876  35.378  1.00  0.00     0.029 A 
ATOM     49  N   UNL A   1      42.437  29.171  33.317  1.00  0.00    -0.354 N 
ATOM     50  N   UNL A   1      42.843  27.506  30.931  1.00  0.00    -0.248 NA
ATOM     51  C   UNL A   1      44.081  25.908  29.761  1.00  0.00     0.031 C 
ATOM     52  C   UNL A   1      43.867  28.967  35.002  1.00  0.00     0.029 A 
ATOM     53  C   UNL A   1      43.572  28.491  33.735  1.00  0.00     0.049 A 
ATOM     54  H   UNL A   1      42.000  29.055  32.442  1.00  0.00     0.167 HD
ATOM     55  C   UNL A   1      43.901  27.074  31.727  1.00  0.00     0.074 A 
ATOM     56  C   UNL A   1      44.597  26.054  30.971  1.00  0.00     0.031 C 
ATOM     57  C   UNL A   1      44.265  27.481  32.970  1.00  0.00     0.034 A 
BRANCH  44  58
ATOM     58  C   UNL A   1      40.553  31.844  35.362  1.00  0.00     0.023 A 
ATOM     59  C   UNL A   1      39.480  31.581  36.233  1.00  0.00     0.031 A 
ATOM     60  C   UNL A   1      41.318  33.001  35.596  1.00  0.00     0.131 A 
ATOM     61  C   UNL A   1      39.157  32.494  37.246  1.00  0.00     0.055 A 
ATOM     62  C   UNL A   1      41.045  33.861  36.662  1.00  0.00     0.041 A 
ATOM     63  F   UNL A   1      42.341  33.319  34.787  1.00  0.00    -0.206 F 
ATOM     64  C   UNL A   1      39.950  33.618  37.485  1.00  0.00     0.022 A 
BRANCH  61  65
ATOM     65  S   UNL A   1      37.602  32.267  38.152  1.00  0.00     0.124 S 
ATOM     66  O   UNL A   1      36.713  33.187  37.446  1.00  0.00    -0.237 OA
ATOM     67  O   UNL A   1      37.332  30.846  37.965  1.00  0.00    -0.237 OA
ATOM     68  O   UNL A   1      37.940  32.664  39.518  1.00  0.00    -0.744 OA
ENDBRANCH  61  65
ENDBRANCH  44  58
BRANCH  45  69
ATOM     69  C   UNL A   1      42.336  26.009  27.407  1.00  0.00     0.023 A 
ATOM     70  C   UNL A   1      41.916  24.673  27.323  1.00  0.00     0.031 A 
ATOM     71  C   UNL A   1      43.123  26.516  26.356  1.00  0.00     0.131 A 
ATOM     72  C   UNL A   1      42.340  23.871  26.252  1.00  0.00     0.055 A 
ATOM     73  C   UNL A   1      43.483  25.734  25.257  1.00  0.00     0.041 A 
ATOM     74  F   UNL A   1      43.555  27.788  26.383  1.00  0.00    -0.206 F 
ATOM     75  C   UNL A   1      43.106  24.397  25.210  1.00  0.00     0.022 A 
BRANCH  72  76
ATOM     76  S   UNL A   1      41.983  22.092  26.304  1.00  0.00     0.124 S 
ATOM     77  O   UNL A   1      40.548  22.071  26.049  1.00  0.00    -0.237 OA
ATOM     78  O   UNL A   1      42.832  21.582  25.233  1.00  0.00    -0.237 OA
ATOM     79  O   UNL A   1      42.384  21.705  27.654  1.00  0.00    -0.744 OA
ENDBRANCH  72  76
ENDBRANCH  45  69
BRANCH  57  80
ATOM     80  C   UNL A   1      45.446  26.780  33.604  1.00  0.00     0.023 A 
ATOM     81  C   UNL A   1      45.303  25.566  34.299  1.00  0.00     0.031 A 
ATOM     82  C   UNL A   1      46.728  27.355  33.539  1.00  0.00     0.131 A 
ATOM     83  C   UNL A   1      46.404  25.010  34.968  1.00  0.00     0.055 A 
ATOM     84  C   UNL A   1      47.835  26.756  34.140  1.00  0.00     0.041 A 
ATOM     85  F   UNL A   1      46.926  28.515  32.893  1.00  0.00    -0.206 F 
ATOM     86  C   UNL A   1      47.673  25.585  34.876  1.00  0.00     0.022 A 
BRANCH  83  87
ATOM     87  S   UNL A   1      46.128  23.593  36.066  1.00  0.00     0.124 S 
ATOM     88  O   UNL A   1      46.409  24.168  37.377  1.00  0.00    -0.237 OA
ATOM     89  O   UNL A   1      44.731  23.261  35.802  1.00  0.00    -0.237 OA
ATOM     90  O   UNL A   1      47.098  22.604  35.601  1.00  0.00    -0.744 OA
ENDBRANCH  83  87
ENDBRANCH  57  80
ENDBRANCH  31  32
ENDBRANCH  23  26
ENDBRANCH  21  22
ENDBRANCH   1  21
TORSDOF 15
ENDMDL
MODEL 2
REMARK VINA RESULT:     -11.7      1.468      1.771
REMARK SMILES C[C@@H](C(=O)NCCCCNC(=O)c1ccc(-c2c3nc(c(-c4cc(S(=O)(=O)[O-])ccc4F)c4ccc([nH]4)c(-c4cc(S(=O)(=O)[O-])ccc4F)c4nc(c(-c5cc(S(=O)(=O)[O-])ccc5F)c5ccc2[nH]5)C=C4)C=C3)cc1)N1C(=O)c2nccnc2C1=O
REMARK SMILES IDX 8 1 7 2 6 3 5 4 3 5 4 6 2 8 1 9 76 10 77 11 85 12 78 13
REMARK SMILES IDX 79 14 84 15 86 16 80 17 83 18 81 19 82 20 9 21 10 22 11 23
REMARK SMILES IDX 12 25 13 26 14 27 75 28 15 29 74 30 16 31 17 32 18 33 68 34
REMARK SMILES IDX 19 35 73 36 67 37 69 38 20 39 72 40 66 41 65 42 21 44 53 45
REMARK SMILES IDX 33 46 52 47 34 48 37 49 51 50 70 51 35 52 36 53 50 55 71 56
REMARK SMILES IDX 38 57 22 58 23 59 31 60 24 61 30 62 32 63 29 64 25 65 26 66
REMARK SMILES IDX 27 67 28 68 54 69 55 70 63 71 56 72 62 73 64 74 61 75 57 76
REMARK SMILES IDX 58 77 59 78 60 79 39 80 40 81 48 82 41 83 47 84 49 85 46 86
REMARK SMILES IDX 42 87 43 88 44 89 45 90
REMARK H PARENT 5 7 10 24 69 43 37 54
REMARK Flexibility Score: inf
ROOT
ATOM      1  C   UNL A   1      31.525  29.131  25.972  1.00  0.00     0.023 C 
ENDROOT
BRANCH   1   2
ATOM      2  C   UNL A   1      31.605  28.136  27.133  1.00  0.00     0.023 C 
BRANCH   2   3
ATOM      3  C   UNL A   1      31.713  26.671  26.713  1.00  0.00     0.116 C 
BRANCH   3   4
ATOM      4  N   UNL A   1      32.868  26.438  25.865  1.00  0.00    -0.354 N 
ATOM      5  C   UNL A   1      32.933  25.906  24.607  1.00  0.00     0.243 C 
ATOM      6  O   UNL A   1      34.038  25.861  24.058  1.00  0.00    -0.273 OA
ATOM      7  H   UNL A   1      33.732  26.702  26.254  1.00  0.00     0.163 HD
BRANCH   5   8
ATOM      8  C   UNL A   1      31.649  25.410  23.912  1.00  0.00     0.180 C 
ATOM      9  C   UNL A   1      31.919  24.394  22.806  1.00  0.00     0.042 C 
BRANCH   8  10
ATOM     10  N   UNL A   1      30.905  26.576  23.428  1.00  0.00    -0.259 N 
ATOM     11  C   UNL A   1      31.426  27.600  22.675  1.00  0.00     0.282 C 
ATOM     12  C   UNL A   1      29.599  26.819  23.769  1.00  0.00     0.282 C 
ATOM     13  O   UNL A   1      32.542  27.712  22.205  1.00  0.00    -0.267 OA
ATOM     14  C   UNL A   1      30.338  28.557  22.475  1.00  0.00     0.160 A 
ATOM     15  C   UNL A   1      29.235  28.084  23.135  1.00  0.00     0.160 A 
ATOM     16  O   UNL A   1      28.858  26.118  24.437  1.00  0.00    -0.267 OA
ATOM     17  N   UNL A   1      30.341  29.654  21.691  1.00  0.00    -0.247 NA
ATOM     18  N   UNL A   1      28.016  28.659  23.082  1.00  0.00    -0.247 NA
ATOM     19  C   UNL A   1      29.128  30.262  21.637  1.00  0.00     0.132 A 
ATOM     20  C   UNL A   1      27.998  29.779  22.312  1.00  0.00     0.132 A 
ENDBRANCH   8  10
ENDBRANCH   5   8
ENDBRANCH   3   4
ENDBRANCH   2   3
ENDBRANCH   1   2
BRANCH   1  21
ATOM     21  C   UNL A   1      32.737  30.042  25.807  1.00  0.00     0.116 C 
BRANCH  21  22
ATOM     22  N   UNL A   1      32.490  31.399  26.266  1.00  0.00    -0.352 N 
ATOM     23  C   UNL A   1      33.169  32.143  27.201  1.00  0.00     0.251 C 
ATOM     24  H   UNL A   1      31.723  31.852  25.846  1.00  0.00     0.163 HD
ATOM     25  O   UNL A   1      32.703  33.222  27.561  1.00  0.00    -0.269 OA
BRANCH  23  26
ATOM     26  C   UNL A   1      34.429  31.638  27.797  1.00  0.00     0.039 A 
ATOM     27  C   UNL A   1      35.508  32.515  27.926  1.00  0.00     0.014 A 
ATOM     28  C   UNL A   1      34.558  30.311  28.220  1.00  0.00     0.014 A 
ATOM     29  C   UNL A   1      36.688  32.081  28.534  1.00  0.00     0.010 A 
ATOM     30  C   UNL A   1      35.705  29.904  28.901  1.00  0.00     0.010 A 
ATOM     31  C   UNL A   1      36.785  30.783  29.065  1.00  0.00    -0.014 A 
BRANCH  31  32
ATOM     32  C   UNL A   1      38.012  30.349  29.789  1.00  0.00     0.031 A 
ATOM     33  C   UNL A   1      38.304  30.857  31.177  1.00  0.00     0.074 A 
ATOM     34  C   UNL A   1      38.879  29.510  29.185  1.00  0.00     0.049 A 
ATOM     35  N   UNL A   1      39.325  30.601  31.954  1.00  0.00    -0.248 NA
ATOM     36  C   UNL A   1      37.332  31.797  31.757  1.00  0.00     0.031 C 
ATOM     37  C   UNL A   1      38.733  28.983  27.825  1.00  0.00     0.029 A 
ATOM     38  N   UNL A   1      40.049  28.948  29.631  1.00  0.00    -0.354 N 
ATOM     39  C   UNL A   1      39.114  31.335  33.116  1.00  0.00     0.074 A 
ATOM     40  C   UNL A   1      37.911  32.111  32.906  1.00  0.00     0.031 C 
ATOM     41  C   UNL A   1      39.752  28.150  27.564  1.00  0.00     0.029 A 
ATOM     42  C   UNL A   1      40.653  28.119  28.711  1.00  0.00     0.049 A 
ATOM     43  H   UNL A   1      40.423  29.121  30.524  1.00  0.00     0.167 HD
ATOM     44  C   UNL A   1      39.836  31.337  34.266  1.00  0.00     0.034 A 
ATOM     45  C   UNL A   1      41.805  27.423  28.777  1.00  0.00     0.034 A 
ATOM     46  C   UNL A   1      41.040  30.564  34.461  1.00  0.00     0.049 A 
ATOM     47  C   UNL A   1      42.616  27.481  30.049  1.00  0.00     0.074 A 
ATOM     48  C   UNL A   1      41.835  30.479  35.590  1.00  0.00     0.029 A 
ATOM     49  N   UNL A   1      41.627  29.747  33.503  1.00  0.00    -0.354 N 
ATOM     50  N   UNL A   1      42.374  28.144  31.156  1.00  0.00    -0.248 NA
ATOM     51  C   UNL A   1      43.846  26.681  30.086  1.00  0.00     0.031 C 
ATOM     52  C   UNL A   1      42.938  29.673  35.292  1.00  0.00     0.029 A 
ATOM     53  C   UNL A   1      42.788  29.179  34.007  1.00  0.00     0.049 A 
ATOM     54  H   UNL A   1      41.272  29.595  32.597  1.00  0.00     0.167 HD
ATOM     55  C   UNL A   1      43.405  27.812  32.032  1.00  0.00     0.074 A 
ATOM     56  C   UNL A   1      44.252  26.869  31.332  1.00  0.00     0.031 C 
ATOM     57  C   UNL A   1      43.632  28.245  33.298  1.00  0.00     0.034 A 
BRANCH  44  58
ATOM     58  C   UNL A   1      39.343  32.212  35.394  1.00  0.00     0.023 A 
ATOM     59  C   UNL A   1      39.742  33.557  35.509  1.00  0.00     0.031 A 
ATOM     60  C   UNL A   1      38.472  31.702  36.374  1.00  0.00     0.131 A 
ATOM     61  C   UNL A   1      39.335  34.319  36.613  1.00  0.00     0.055 A 
ATOM     62  C   UNL A   1      37.999  32.494  37.424  1.00  0.00     0.041 A 
ATOM     63  F   UNL A   1      38.072  30.422  36.333  1.00  0.00    -0.206 F 
ATOM     64  C   UNL A   1      38.442  33.806  37.556  1.00  0.00     0.022 A 
BRANCH  61  65
ATOM     65  S   UNL A   1      40.104  35.941  36.874  1.00  0.00     0.124 S 
ATOM     66  O   UNL A   1      41.500  35.572  37.099  1.00  0.00    -0.237 OA
ATOM     67  O   UNL A   1      39.819  36.632  35.622  1.00  0.00    -0.237 OA
ATOM     68  O   UNL A   1      39.408  36.464  38.049  1.00  0.00    -0.744 OA
ENDBRANCH  61  65
ENDBRANCH  44  58
BRANCH  45  69
ATOM     69  C   UNL A   1      42.284  26.627  27.606  1.00  0.00     0.023 A 
ATOM     70  C   UNL A   1      41.904  25.287  27.432  1.00  0.00     0.031 A 
ATOM     71  C   UNL A   1      43.192  27.177  26.682  1.00  0.00     0.131 A 
ATOM     72  C   UNL A   1      42.480  24.525  26.403  1.00  0.00     0.055 A 
ATOM     73  C   UNL A   1      43.707  26.435  25.619  1.00  0.00     0.041 A 
ATOM     74  F   UNL A   1      43.591  28.455  26.800  1.00  0.00    -0.206 F 
ATOM     75  C   UNL A   1      43.366  25.094  25.485  1.00  0.00     0.022 A 
BRANCH  72  76
ATOM     76  S   UNL A   1      42.154  22.739  26.359  1.00  0.00     0.124 S 
ATOM     77  O   UNL A   1      42.752  22.361  25.085  1.00  0.00    -0.237 OA
ATOM     78  O   UNL A   1      42.849  22.276  27.556  1.00  0.00    -0.237 OA
ATOM     79  O   UNL A   1      40.697  22.659  26.415  1.00  0.00    -0.744 OA
ENDBRANCH  72  76
ENDBRANCH  45  69
BRANCH  57  80
ATOM     80  C   UNL A   1      44.823  27.658  34.021  1.00  0.00     0.023 A 
ATOM     81  C   UNL A   1      44.793  26.367  34.578  1.00  0.00     0.031 A 
ATOM     82  C   UNL A   1      45.996  28.418  34.185  1.00  0.00     0.131 A 
ATOM     83  C   UNL A   1      45.879  25.906  35.337  1.00  0.00     0.055 A 
ATOM     84  C   UNL A   1      47.103  27.923  34.875  1.00  0.00     0.041 A 
ATOM     85  F   UNL A   1      46.084  29.659  33.680  1.00  0.00    -0.206 F 
ATOM     86  C   UNL A   1      47.042  26.668  35.472  1.00  0.00     0.022 A 
BRANCH  83  87
ATOM     87  S   UNL A   1      45.701  24.352  36.254  1.00  0.00     0.124 S 
ATOM     88  O   UNL A   1      45.858  23.358  35.197  1.00  0.00    -0.237 OA
ATOM     89  O   UNL A   1      46.792  24.433  37.219  1.00  0.00    -0.237 OA
ATOM     90  O   UNL A   1      44.359  24.442  36.826  1.00  0.00    -0.744 OA
ENDBRANCH  83  87
ENDBRANCH  57  80
ENDBRANCH  31  32
ENDBRANCH  23  26
ENDBRANCH  21  22
ENDBRANCH   1  21
TORSDOF 15
ENDMDL
MODEL 3
REMARK VINA RESULT:     -11.7      1.845      3.374
REMARK SMILES C[C@@H](C(=O)NCCCCNC(=O)c1ccc(-c2c3nc(c(-c4cc(S(=O)(=O)[O-])ccc4F)c4ccc([nH]4)c(-c4cc(S(=O)(=O)[O-])ccc4F)c4nc(c(-c5cc(S(=O)(=O)[O-])ccc5F)c5ccc2[nH]5)C=C4)C=C3)cc1)N1C(=O)c2nccnc2C1=O
REMARK SMILES IDX 8 1 7 2 6 3 5 4 3 5 4 6 2 8 1 9 76 10 77 11 85 12 78 13
REMARK SMILES IDX 79 14 84 15 86 16 80 17 83 18 81 19 82 20 9 21 10 22 11 23
REMARK SMILES IDX 12 25 13 26 14 27 75 28 15 29 74 30 16 31 17 32 18 33 68 34
REMARK SMILES IDX 19 35 73 36 67 37 69 38 20 39 72 40 66 41 65 42 21 44 53 45
REMARK SMILES IDX 33 46 52 47 34 48 37 49 51 50 70 51 35 52 36 53 50 55 71 56
REMARK SMILES IDX 38 57 22 58 23 59 31 60 24 61 30 62 32 63 29 64 25 65 26 66
REMARK SMILES IDX 27 67 28 68 54 69 55 70 63 71 56 72 62 73 64 74 61 75 57 76
REMARK SMILES IDX 58 77 59 78 60 79 39 80 40 81 48 82 41 83 47 84 49 85 46 86
REMARK SMILES IDX 42 87 43 88 44 89 45 90
REMARK H PARENT 5 7 10 24 69 43 37 54
REMARK Flexibility Score: inf
ROOT
ATOM      1  C   UNL A   1      31.740  28.930  25.768  1.00  0.00     0.023 C 
ENDROOT
BRANCH   1   2
ATOM      2  C   UNL A   1      31.627  27.861  26.858  1.00  0.00     0.023 C 
BRANCH   2   3
ATOM      3  C   UNL A   1      32.260  26.516  26.502  1.00  0.00     0.116 C 
BRANCH   3   4
ATOM      4  N   UNL A   1      31.351  25.412  26.749  1.00  0.00    -0.354 N 
ATOM      5  C   UNL A   1      31.047  24.340  25.957  1.00  0.00     0.243 C 
ATOM      6  O   UNL A   1      30.278  23.488  26.412  1.00  0.00    -0.273 OA
ATOM      7  H   UNL A   1      30.885  25.439  27.615  1.00  0.00     0.163 HD
BRANCH   5   8
ATOM      8  C   UNL A   1      31.678  24.213  24.556  1.00  0.00     0.180 C 
ATOM      9  C   UNL A   1      30.700  23.701  23.501  1.00  0.00     0.042 C 
BRANCH   8  10
ATOM     10  N   UNL A   1      32.873  23.373  24.661  1.00  0.00    -0.259 N 
ATOM     11  C   UNL A   1      32.881  22.022  24.914  1.00  0.00     0.282 C 
ATOM     12  C   UNL A   1      34.146  23.881  24.612  1.00  0.00     0.282 C 
ATOM     13  O   UNL A   1      31.941  21.259  25.020  1.00  0.00    -0.267 OA
ATOM     14  C   UNL A   1      34.288  21.626  24.982  1.00  0.00     0.160 A 
ATOM     15  C   UNL A   1      35.051  22.748  24.798  1.00  0.00     0.160 A 
ATOM     16  O   UNL A   1      34.483  25.036  24.419  1.00  0.00    -0.267 OA
ATOM     17  N   UNL A   1      34.786  20.377  25.081  1.00  0.00    -0.247 NA
ATOM     18  N   UNL A   1      36.396  22.742  24.697  1.00  0.00    -0.247 NA
ATOM     19  C   UNL A   1      36.141  20.346  25.001  1.00  0.00     0.132 A 
ATOM     20  C   UNL A   1      36.924  21.494  24.814  1.00  0.00     0.132 A 
ENDBRANCH   8  10
ENDBRANCH   5   8
ENDBRANCH   3   4
ENDBRANCH   2   3
ENDBRANCH   1   2
BRANCH   1  21
ATOM     21  C   UNL A   1      33.007  29.780  25.814  1.00  0.00     0.116 C 
BRANCH  21  22
ATOM     22  N   UNL A   1      32.772  31.114  26.341  1.00  0.00    -0.352 N 
ATOM     23  C   UNL A   1      33.465  31.808  27.304  1.00  0.00     0.251 C 
ATOM     24  H   UNL A   1      32.004  31.591  25.952  1.00  0.00     0.163 HD
ATOM     25  O   UNL A   1      33.008  32.870  27.721  1.00  0.00    -0.269 OA
BRANCH  23  26
ATOM     26  C   UNL A   1      34.727  31.267  27.862  1.00  0.00     0.039 A 
ATOM     27  C   UNL A   1      35.820  32.124  28.001  1.00  0.00     0.014 A 
ATOM     28  C   UNL A   1      34.844  29.925  28.241  1.00  0.00     0.014 A 
ATOM     29  C   UNL A   1      37.005  31.655  28.575  1.00  0.00     0.010 A 
ATOM     30  C   UNL A   1      35.997  29.481  28.890  1.00  0.00     0.010 A 
ATOM     31  C   UNL A   1      37.092  30.340  29.062  1.00  0.00    -0.014 A 
BRANCH  31  32
ATOM     32  C   UNL A   1      38.325  29.866  29.751  1.00  0.00     0.031 A 
ATOM     33  C   UNL A   1      38.699  30.403  31.108  1.00  0.00     0.074 A 
ATOM     34  C   UNL A   1      39.122  28.965  29.142  1.00  0.00     0.049 A 
ATOM     35  N   UNL A   1      39.738  30.119  31.852  1.00  0.00    -0.248 NA
ATOM     36  C   UNL A   1      37.801  31.409  31.695  1.00  0.00     0.031 C 
ATOM     37  C   UNL A   1      38.894  28.403  27.807  1.00  0.00     0.029 A 
ATOM     38  N   UNL A   1      40.281  28.359  29.559  1.00  0.00    -0.354 N 
ATOM     39  C   UNL A   1      39.612  30.900  32.996  1.00  0.00     0.074 A 
ATOM     40  C   UNL A   1      38.442  31.730  32.808  1.00  0.00     0.031 C 
ATOM     41  C   UNL A   1      39.858  27.512  27.534  1.00  0.00     0.029 A 
ATOM     42  C   UNL A   1      40.803  27.471  28.645  1.00  0.00     0.049 A 
ATOM     43  H   UNL A   1      40.700  28.540  30.431  1.00  0.00     0.167 HD
ATOM     44  C   UNL A   1      40.381  30.901  34.115  1.00  0.00     0.034 A 
ATOM     45  C   UNL A   1      41.921  26.718  28.688  1.00  0.00     0.034 A 
ATOM     46  C   UNL A   1      41.551  30.074  34.288  1.00  0.00     0.049 A 
ATOM     47  C   UNL A   1      42.786  26.775  29.924  1.00  0.00     0.074 A 
ATOM     48  C   UNL A   1      42.387  29.984  35.387  1.00  0.00     0.029 A 
ATOM     49  N   UNL A   1      42.056  29.198  33.336  1.00  0.00    -0.354 N 
ATOM     50  N   UNL A   1      42.623  27.485  31.017  1.00  0.00    -0.248 NA
ATOM     51  C   UNL A   1      43.975  25.914  29.939  1.00  0.00     0.031 C 
ATOM     52  C   UNL A   1      43.435  29.113  35.073  1.00  0.00     0.029 A 
ATOM     53  C   UNL A   1      43.207  28.587  33.812  1.00  0.00     0.049 A 
ATOM     54  H   UNL A   1      41.656  29.035  32.451  1.00  0.00     0.167 HD
ATOM     55  C   UNL A   1      43.672  27.128  31.861  1.00  0.00     0.074 A 
ATOM     56  C   UNL A   1      44.441  26.120  31.161  1.00  0.00     0.031 C 
ATOM     57  C   UNL A   1      43.973  27.589  33.102  1.00  0.00     0.034 A 
BRANCH  44  58
ATOM     58  C   UNL A   1      39.979  31.836  35.232  1.00  0.00     0.023 A 
ATOM     59  C   UNL A   1      39.135  31.413  36.276  1.00  0.00     0.031 A 
ATOM     60  C   UNL A   1      40.430  33.168  35.254  1.00  0.00     0.131 A 
ATOM     61  C   UNL A   1      38.713  32.327  37.252  1.00  0.00     0.055 A 
ATOM     62  C   UNL A   1      40.076  34.049  36.279  1.00  0.00     0.041 A 
ATOM     63  F   UNL A   1      41.219  33.639  34.276  1.00  0.00    -0.206 F 
ATOM     64  C   UNL A   1      39.200  33.635  37.278  1.00  0.00     0.022 A 
BRANCH  61  65
ATOM     65  S   UNL A   1      37.404  31.820  38.401  1.00  0.00     0.124 S 
ATOM     66  O   UNL A   1      37.146  30.448  37.967  1.00  0.00    -0.237 OA
ATOM     67  O   UNL A   1      38.047  31.970  39.700  1.00  0.00    -0.237 OA
ATOM     68  O   UNL A   1      36.323  32.765  38.126  1.00  0.00    -0.744 OA
ENDBRANCH  61  65
ENDBRANCH  44  58
BRANCH  45  69
ATOM     69  C   UNL A   1      42.310  25.862  27.527  1.00  0.00     0.023 A 
ATOM     70  C   UNL A   1      41.861  24.537  27.416  1.00  0.00     0.031 A 
ATOM     71  C   UNL A   1      43.201  26.337  26.547  1.00  0.00     0.131 A 
ATOM     72  C   UNL A   1      42.355  23.714  26.391  1.00  0.00     0.055 A 
ATOM     73  C   UNL A   1      43.633  25.536  25.489  1.00  0.00     0.041 A 
ATOM     74  F   UNL A   1      43.665  27.597  26.602  1.00  0.00    -0.206 F 
ATOM     75  C   UNL A   1      43.225  24.209  25.417  1.00  0.00     0.022 A 
BRANCH  72  76
ATOM     76  S   UNL A   1      41.944  21.946  26.424  1.00  0.00     0.124 S 
ATOM     77  O   UNL A   1      40.518  21.969  26.125  1.00  0.00    -0.237 OA
ATOM     78  O   UNL A   1      42.811  21.415  25.376  1.00  0.00    -0.237 OA
ATOM     79  O   UNL A   1      42.293  21.542  27.783  1.00  0.00    -0.744 OA
ENDBRANCH  72  76
ENDBRANCH  45  69
BRANCH  57  80
ATOM     80  C   UNL A   1      45.162  26.965  33.797  1.00  0.00     0.023 A 
ATOM     81  C   UNL A   1      45.044  25.791  34.563  1.00  0.00     0.031 A 
ATOM     82  C   UNL A   1      46.428  27.574  33.718  1.00  0.00     0.131 A 
ATOM     83  C   UNL A   1      46.149  25.310  35.281  1.00  0.00     0.055 A 
ATOM     84  C   UNL A   1      47.541  27.047  34.372  1.00  0.00     0.041 A 
ATOM     85  F   UNL A   1      46.603  28.699  33.005  1.00  0.00    -0.206 F 
ATOM     86  C   UNL A   1      47.402  25.918  35.175  1.00  0.00     0.022 A 
BRANCH  83  87
ATOM     87  S   UNL A   1      45.896  23.955  36.460  1.00  0.00     0.124 S 
ATOM     88  O   UNL A   1      44.488  23.632  36.252  1.00  0.00    -0.237 OA
ATOM     89  O   UNL A   1      46.853  22.956  35.995  1.00  0.00    -0.237 OA
ATOM     90  O   UNL A   1      46.210  24.559  37.752  1.00  0.00    -0.744 OA
ENDBRANCH  83  87
ENDBRANCH  57  80
ENDBRANCH  31  32
ENDBRANCH  23  26
ENDBRANCH  21  22
ENDBRANCH   1  21
TORSDOF 15
ENDMDL
