MODEL 1
REMARK VINA RESULT:     -11.6      0.000      0.000
REMARK SMILES C[C@@H](C(=O)NCCCCNC(=O)c1ccc(-c2c3nc(c(-c4cc(S(=O)(=O)[O-])ccc4F)c4ccc([nH]4)c(-c4cc(S(=O)(=O)[O-])ccc4F)c4nc(c(-c5cc(S(=O)(=O)[O-])ccc5F)c5ccc2[nH]5)C=C4)C=C3)cc1)c1ccc(C[C@H]2CCC[C@@H]2O)cc1
REMARK SMILES IDX 7 1 6 2 5 3 3 4 4 5 2 7 1 8 76 9 77 10 88 11 78 12 87 13
REMARK SMILES IDX 79 14 80 15 81 16 82 17 85 18 83 19 84 20 86 21 8 23 9 24
REMARK SMILES IDX 10 25 11 26 12 28 13 29 14 30 75 31 15 32 74 33 16 34 17 35
REMARK SMILES IDX 18 36 68 37 19 38 73 39 67 40 69 41 20 42 72 43 66 44 65 45
REMARK SMILES IDX 21 47 53 48 33 49 52 50 34 51 37 52 51 53 70 54 35 55 36 56
REMARK SMILES IDX 50 58 71 59 38 60 22 61 23 62 31 63 24 64 30 65 32 66 29 67
REMARK SMILES IDX 25 68 26 69 27 70 28 71 54 72 55 73 63 74 56 75 62 76 64 77
REMARK SMILES IDX 61 78 57 79 58 80 59 81 60 82 39 83 40 84 48 85 41 86 47 87
REMARK SMILES IDX 49 88 46 89 42 90 43 91 44 92 45 93
REMARK H PARENT 5 6 86 22 10 27 69 46 37 57
REMARK Flexibility Score: inf
ROOT
ATOM      1  C   UNL A   1      32.664  27.114  26.450  1.00  0.00     0.023 C 
ENDROOT
BRANCH   1   2
ATOM      2  C   UNL A   1      33.404  26.216  25.456  1.00  0.00     0.116 C 
BRANCH   2   3
ATOM      3  N   UNL A   1      32.899  24.860  25.516  1.00  0.00    -0.356 N 
ATOM      4  C   UNL A   1      32.164  24.160  24.603  1.00  0.00     0.227 C 
ATOM      5  O   UNL A   1      31.706  23.075  24.967  1.00  0.00    -0.274 OA
ATOM      6  H   UNL A   1      33.119  24.369  26.340  1.00  0.00     0.163 HD
BRANCH   4   7
ATOM      7  C   UNL A   1      31.984  24.714  23.181  1.00  0.00     0.105 C 
ATOM      8  C   UNL A   1      33.324  24.994  22.491  1.00  0.00     0.023 C 
BRANCH   7   9
ATOM      9  C   UNL A   1      31.064  25.933  23.166  1.00  0.00    -0.036 A 
ATOM     10  C   UNL A   1      29.878  25.905  23.914  1.00  0.00     0.005 A 
ATOM     11  C   UNL A   1      31.367  27.094  22.443  1.00  0.00     0.005 A 
ATOM     12  C   UNL A   1      28.985  26.976  23.875  1.00  0.00     0.004 A 
ATOM     13  C   UNL A   1      30.460  28.152  22.381  1.00  0.00     0.004 A 
ATOM     14  C   UNL A   1      29.240  28.086  23.062  1.00  0.00    -0.048 A 
BRANCH  14  15
ATOM     15  C   UNL A   1      28.214  29.178  22.882  1.00  0.00     0.041 C 
BRANCH  15  16
ATOM     16  C   UNL A   1      28.769  30.539  22.424  1.00  0.00     0.022 C 
ATOM     17  C   UNL A   1      28.065  31.202  21.226  1.00  0.00     0.007 C 
ATOM     18  C   UNL A   1      28.808  31.626  23.503  1.00  0.00     0.117 C 
ATOM     19  C   UNL A   1      28.027  32.703  21.527  1.00  0.00     0.003 C 
ATOM     20  C   UNL A   1      28.972  32.906  22.698  1.00  0.00     0.032 C 
BRANCH  18  21
ATOM     21  O   UNL A   1      29.903  31.421  24.378  1.00  0.00    -0.393 OA
ATOM     22  H   UNL A   1      29.694  30.703  24.996  1.00  0.00     0.210 HD
ENDBRANCH  18  21
ENDBRANCH  15  16
ENDBRANCH  14  15
ENDBRANCH   7   9
ENDBRANCH   4   7
ENDBRANCH   2   3
ENDBRANCH   1   2
BRANCH   1  23
ATOM     23  C   UNL A   1      31.976  28.328  25.818  1.00  0.00     0.023 C 
BRANCH  23  24
ATOM     24  C   UNL A   1      32.908  29.476  25.452  1.00  0.00     0.116 C 
BRANCH  24  25
ATOM     25  N   UNL A   1      32.438  30.760  25.949  1.00  0.00    -0.352 N 
ATOM     26  C   UNL A   1      32.974  31.543  26.942  1.00  0.00     0.251 C 
ATOM     27  H   UNL A   1      31.628  31.114  25.517  1.00  0.00     0.163 HD
ATOM     28  O   UNL A   1      32.362  32.532  27.335  1.00  0.00    -0.269 OA
BRANCH  26  29
ATOM     29  C   UNL A   1      34.266  31.163  27.552  1.00  0.00     0.039 A 
ATOM     30  C   UNL A   1      35.258  32.136  27.694  1.00  0.00     0.014 A 
ATOM     31  C   UNL A   1      34.485  29.860  28.009  1.00  0.00     0.014 A 
ATOM     32  C   UNL A   1      36.445  31.819  28.356  1.00  0.00     0.010 A 
ATOM     33  C   UNL A   1      35.638  29.567  28.731  1.00  0.00     0.010 A 
ATOM     34  C   UNL A   1      36.629  30.543  28.914  1.00  0.00    -0.014 A 
BRANCH  34  35
ATOM     35  C   UNL A   1      37.852  30.209  29.690  1.00  0.00     0.031 A 
ATOM     36  C   UNL A   1      38.869  29.258  29.121  1.00  0.00     0.074 A 
ATOM     37  C   UNL A   1      38.015  30.716  30.928  1.00  0.00     0.049 A 
ATOM     38  N   UNL A   1      39.955  28.781  29.671  1.00  0.00    -0.248 NA
ATOM     39  C   UNL A   1      38.611  28.757  27.763  1.00  0.00     0.031 C 
ATOM     40  C   UNL A   1      37.081  31.621  31.602  1.00  0.00     0.029 A 
ATOM     41  N   UNL A   1      39.019  30.537  31.846  1.00  0.00    -0.354 N 
ATOM     42  C   UNL A   1      40.507  27.916  28.731  1.00  0.00     0.074 A 
ATOM     43  C   UNL A   1      39.597  27.887  27.606  1.00  0.00     0.031 C 
ATOM     44  C   UNL A   1      37.571  31.940  32.810  1.00  0.00     0.029 A 
ATOM     45  C   UNL A   1      38.825  31.226  33.021  1.00  0.00     0.049 A 
ATOM     46  H   UNL A   1      39.806  29.969  31.679  1.00  0.00     0.167 HD
ATOM     47  C   UNL A   1      41.675  27.229  28.792  1.00  0.00     0.034 A 
ATOM     48  C   UNL A   1      39.569  31.269  34.144  1.00  0.00     0.034 A 
ATOM     49  C   UNL A   1      42.574  27.275  29.920  1.00  0.00     0.049 A 
ATOM     50  C   UNL A   1      40.845  30.469  34.203  1.00  0.00     0.074 A 
ATOM     51  C   UNL A   1      43.801  26.653  30.072  1.00  0.00     0.029 A 
ATOM     52  N   UNL A   1      42.339  27.978  31.096  1.00  0.00    -0.354 N 
ATOM     53  N   UNL A   1      41.373  29.685  33.291  1.00  0.00    -0.248 NA
ATOM     54  C   UNL A   1      41.631  30.566  35.441  1.00  0.00     0.031 C 
ATOM     55  C   UNL A   1      44.277  26.926  31.359  1.00  0.00     0.029 A 
ATOM     56  C   UNL A   1      43.386  27.782  31.985  1.00  0.00     0.049 A 
ATOM     57  H   UNL A   1      41.547  28.534  31.273  1.00  0.00     0.167 HD
ATOM     58  C   UNL A   1      42.570  29.224  33.833  1.00  0.00     0.074 A 
ATOM     59  C   UNL A   1      42.690  29.828  35.145  1.00  0.00     0.031 C 
ATOM     60  C   UNL A   1      43.489  28.382  33.295  1.00  0.00     0.034 A 
BRANCH  47  61
ATOM     61  C   UNL A   1      42.027  26.356  27.611  1.00  0.00     0.023 A 
ATOM     62  C   UNL A   1      41.606  25.015  27.536  1.00  0.00     0.031 A 
ATOM     63  C   UNL A   1      42.815  26.856  26.561  1.00  0.00     0.131 A 
ATOM     64  C   UNL A   1      42.042  24.202  26.478  1.00  0.00     0.055 A 
ATOM     65  C   UNL A   1      43.175  26.066  25.468  1.00  0.00     0.041 A 
ATOM     66  F   UNL A   1      43.265  28.121  26.586  1.00  0.00    -0.206 F 
ATOM     67  C   UNL A   1      42.801  24.725  25.430  1.00  0.00     0.022 A 
BRANCH  64  68
ATOM     68  S   UNL A   1      41.725  22.419  26.572  1.00  0.00     0.124 S 
ATOM     69  O   UNL A   1      42.369  22.072  27.837  1.00  0.00    -0.237 OA
ATOM     70  O   UNL A   1      40.269  22.355  26.557  1.00  0.00    -0.237 OA
ATOM     71  O   UNL A   1      42.387  21.890  25.381  1.00  0.00    -0.744 OA
ENDBRANCH  64  68
ENDBRANCH  47  61
BRANCH  48  72
ATOM     72  C   UNL A   1      39.132  32.089  35.311  1.00  0.00     0.023 A 
ATOM     73  C   UNL A   1      39.607  33.398  35.489  1.00  0.00     0.031 A 
ATOM     74  C   UNL A   1      38.268  31.563  36.287  1.00  0.00     0.131 A 
ATOM     75  C   UNL A   1      39.255  34.119  36.641  1.00  0.00     0.055 A 
ATOM     76  C   UNL A   1      37.878  32.303  37.404  1.00  0.00     0.041 A 
ATOM     77  F   UNL A   1      37.780  30.317  36.162  1.00  0.00    -0.206 F 
ATOM     78  C   UNL A   1      38.383  33.586  37.592  1.00  0.00     0.022 A 
BRANCH  75  79
ATOM     79  S   UNL A   1      40.024  35.739  36.919  1.00  0.00     0.124 S 
ATOM     80  O   UNL A   1      41.432  35.381  37.049  1.00  0.00    -0.237 OA
ATOM     81  O   UNL A   1      39.654  36.462  35.707  1.00  0.00    -0.237 OA
ATOM     82  O   UNL A   1      39.385  36.212  38.144  1.00  0.00    -0.744 OA
ENDBRANCH  75  79
ENDBRANCH  48  72
BRANCH  60  83
ATOM     83  C   UNL A   1      44.729  28.110  34.110  1.00  0.00     0.023 A 
ATOM     84  C   UNL A   1      44.808  27.026  35.002  1.00  0.00     0.031 A 
ATOM     85  C   UNL A   1      45.847  28.957  33.999  1.00  0.00     0.131 A 
ATOM     86  C   UNL A   1      45.957  26.851  35.788  1.00  0.00     0.055 A 
ATOM     87  C   UNL A   1      47.010  28.741  34.737  1.00  0.00     0.041 A 
ATOM     88  F   UNL A   1      45.825  30.008  33.163  1.00  0.00    -0.206 F 
ATOM     89  C   UNL A   1      47.065  27.691  35.649  1.00  0.00     0.022 A 
BRANCH  86  90
ATOM     90  S   UNL A   1      45.952  25.562  37.064  1.00  0.00     0.124 S 
ATOM     91  O   UNL A   1      45.100  24.542  36.462  1.00  0.00    -0.237 OA
ATOM     92  O   UNL A   1      47.368  25.225  37.173  1.00  0.00    -0.237 OA
ATOM     93  O   UNL A   1      45.384  26.234  38.231  1.00  0.00    -0.744 OA
ENDBRANCH  86  90
ENDBRANCH  60  83
ENDBRANCH  34  35
ENDBRANCH  26  29
ENDBRANCH  24  25
ENDBRANCH  23  24
ENDBRANCH   1  23
TORSDOF 18
ENDMDL
MODEL 2
REMARK VINA RESULT:     -11.6      5.452     10.622
REMARK SMILES C[C@@H](C(=O)NCCCCNC(=O)c1ccc(-c2c3nc(c(-c4cc(S(=O)(=O)[O-])ccc4F)c4ccc([nH]4)c(-c4cc(S(=O)(=O)[O-])ccc4F)c4nc(c(-c5cc(S(=O)(=O)[O-])ccc5F)c5ccc2[nH]5)C=C4)C=C3)cc1)c1ccc(C[C@H]2CCC[C@@H]2O)cc1
REMARK SMILES IDX 7 1 6 2 5 3 3 4 4 5 2 7 1 8 76 9 77 10 88 11 78 12 87 13
REMARK SMILES IDX 79 14 80 15 81 16 82 17 85 18 83 19 84 20 86 21 8 23 9 24
REMARK SMILES IDX 10 25 11 26 12 28 13 29 14 30 75 31 15 32 74 33 16 34 17 35
REMARK SMILES IDX 18 36 68 37 19 38 73 39 67 40 69 41 20 42 72 43 66 44 65 45
REMARK SMILES IDX 21 47 53 48 33 49 52 50 34 51 37 52 51 53 70 54 35 55 36 56
REMARK SMILES IDX 50 58 71 59 38 60 22 61 23 62 31 63 24 64 30 65 32 66 29 67
REMARK SMILES IDX 25 68 26 69 27 70 28 71 54 72 55 73 63 74 56 75 62 76 64 77
REMARK SMILES IDX 61 78 57 79 58 80 59 81 60 82 39 83 40 84 48 85 41 86 47 87
REMARK SMILES IDX 49 88 46 89 42 90 43 91 44 92 45 93
REMARK H PARENT 5 6 86 22 10 27 69 46 37 57
REMARK Flexibility Score: inf
ROOT
ATOM      1  C   UNL A   1      35.483  23.611  23.857  1.00  0.00     0.023 C 
ENDROOT
BRANCH   1   2
ATOM      2  C   UNL A   1      34.763  24.489  24.883  1.00  0.00     0.116 C 
BRANCH   2   3
ATOM      3  N   UNL A   1      33.853  25.404  24.226  1.00  0.00    -0.356 N 
ATOM      4  C   UNL A   1      32.490  25.377  24.151  1.00  0.00     0.227 C 
ATOM      5  O   UNL A   1      31.957  26.178  23.379  1.00  0.00    -0.274 OA
ATOM      6  H   UNL A   1      34.282  26.160  23.764  1.00  0.00     0.163 HD
BRANCH   4   7
ATOM      7  C   UNL A   1      31.694  24.412  25.042  1.00  0.00     0.105 C 
ATOM      8  C   UNL A   1      31.997  24.610  26.532  1.00  0.00     0.023 C 
BRANCH   7   9
ATOM      9  C   UNL A   1      31.882  22.961  24.605  1.00  0.00    -0.036 A 
ATOM     10  C   UNL A   1      32.075  21.971  25.580  1.00  0.00     0.005 A 
ATOM     11  C   UNL A   1      31.851  22.571  23.259  1.00  0.00     0.005 A 
ATOM     12  C   UNL A   1      32.311  20.646  25.213  1.00  0.00     0.004 A 
ATOM     13  C   UNL A   1      32.115  21.252  22.893  1.00  0.00     0.004 A 
ATOM     14  C   UNL A   1      32.391  20.284  23.865  1.00  0.00    -0.048 A 
BRANCH  14  15
ATOM     15  C   UNL A   1      32.803  18.893  23.450  1.00  0.00     0.041 C 
BRANCH  15  16
ATOM     16  C   UNL A   1      33.290  17.978  24.589  1.00  0.00     0.022 C 
ATOM     17  C   UNL A   1      32.401  16.767  24.927  1.00  0.00     0.007 C 
ATOM     18  C   UNL A   1      34.693  17.391  24.403  1.00  0.00     0.117 C 
ATOM     19  C   UNL A   1      33.354  15.612  25.246  1.00  0.00     0.003 C 
ATOM     20  C   UNL A   1      34.724  16.246  25.403  1.00  0.00     0.032 C 
BRANCH  18  21
ATOM     21  O   UNL A   1      35.682  18.362  24.697  1.00  0.00    -0.393 OA
ATOM     22  H   UNL A   1      35.736  18.488  25.657  1.00  0.00     0.210 HD
ENDBRANCH  18  21
ENDBRANCH  15  16
ENDBRANCH  14  15
ENDBRANCH   7   9
ENDBRANCH   4   7
ENDBRANCH   2   3
ENDBRANCH   1   2
BRANCH   1  23
ATOM     23  C   UNL A   1      35.617  22.141  24.262  1.00  0.00     0.023 C 
BRANCH  23  24
ATOM     24  C   UNL A   1      36.316  21.901  25.594  1.00  0.00     0.116 C 
BRANCH  24  25
ATOM     25  N   UNL A   1      37.284  20.817  25.533  1.00  0.00    -0.352 N 
ATOM     26  C   UNL A   1      38.636  20.860  25.770  1.00  0.00     0.251 C 
ATOM     27  H   UNL A   1      36.922  19.935  25.288  1.00  0.00     0.163 HD
ATOM     28  O   UNL A   1      39.329  19.876  25.529  1.00  0.00    -0.269 OA
BRANCH  26  29
ATOM     29  C   UNL A   1      39.248  22.106  26.279  1.00  0.00     0.039 A 
ATOM     30  C   UNL A   1      40.420  22.024  27.032  1.00  0.00     0.014 A 
ATOM     31  C   UNL A   1      38.682  23.351  25.985  1.00  0.00     0.014 A 
ATOM     32  C   UNL A   1      41.064  23.196  27.436  1.00  0.00     0.010 A 
ATOM     33  C   UNL A   1      39.363  24.515  26.327  1.00  0.00     0.010 A 
ATOM     34  C   UNL A   1      40.562  24.450  27.054  1.00  0.00    -0.014 A 
BRANCH  34  35
ATOM     35  C   UNL A   1      41.274  25.706  27.406  1.00  0.00     0.031 A 
ATOM     36  C   UNL A   1      40.584  26.757  28.233  1.00  0.00     0.074 A 
ATOM     37  C   UNL A   1      42.517  25.924  26.933  1.00  0.00     0.049 A 
ATOM     38  N   UNL A   1      41.003  27.946  28.577  1.00  0.00    -0.248 NA
ATOM     39  C   UNL A   1      39.231  26.433  28.709  1.00  0.00     0.031 C 
ATOM     40  C   UNL A   1      43.276  24.995  26.092  1.00  0.00     0.029 A 
ATOM     41  N   UNL A   1      43.359  26.997  27.082  1.00  0.00    -0.354 N 
ATOM     42  C   UNL A   1      39.963  28.519  29.303  1.00  0.00     0.074 A 
ATOM     43  C   UNL A   1      38.872  27.568  29.289  1.00  0.00     0.031 C 
ATOM     44  C   UNL A   1      44.480  25.526  25.826  1.00  0.00     0.029 A 
ATOM     45  C   UNL A   1      44.563  26.851  26.431  1.00  0.00     0.049 A 
ATOM     46  H   UNL A   1      43.124  27.797  27.606  1.00  0.00     0.167 HD
ATOM     47  C   UNL A   1      39.931  29.715  29.941  1.00  0.00     0.034 A 
ATOM     48  C   UNL A   1      45.609  27.694  26.327  1.00  0.00     0.034 A 
ATOM     49  C   UNL A   1      41.032  30.649  29.951  1.00  0.00     0.049 A 
ATOM     50  C   UNL A   1      45.537  29.033  27.014  1.00  0.00     0.074 A 
ATOM     51  C   UNL A   1      41.123  31.869  30.598  1.00  0.00     0.029 A 
ATOM     52  N   UNL A   1      42.232  30.469  29.274  1.00  0.00    -0.354 N 
ATOM     53  N   UNL A   1      44.561  29.544  27.729  1.00  0.00    -0.248 NA
ATOM     54  C   UNL A   1      46.712  29.906  26.888  1.00  0.00     0.031 C 
ATOM     55  C   UNL A   1      42.348  32.455  30.261  1.00  0.00     0.029 A 
ATOM     56  C   UNL A   1      43.056  31.568  29.467  1.00  0.00     0.049 A 
ATOM     57  H   UNL A   1      42.465  29.678  28.736  1.00  0.00     0.167 HD
ATOM     58  C   UNL A   1      45.020  30.784  28.165  1.00  0.00     0.074 A 
ATOM     59  C   UNL A   1      46.363  30.936  27.644  1.00  0.00     0.031 C 
ATOM     60  C   UNL A   1      44.391  31.712  28.932  1.00  0.00     0.034 A 
BRANCH  47  61
ATOM     61  C   UNL A   1      38.654  30.083  30.660  1.00  0.00     0.023 A 
ATOM     62  C   UNL A   1      37.623  30.789  30.014  1.00  0.00     0.031 A 
ATOM     63  C   UNL A   1      38.473  29.749  32.013  1.00  0.00     0.131 A 
ATOM     64  C   UNL A   1      36.499  31.209  30.741  1.00  0.00     0.055 A 
ATOM     65  C   UNL A   1      37.313  30.095  32.709  1.00  0.00     0.041 A 
ATOM     66  F   UNL A   1      39.430  29.094  32.690  1.00  0.00    -0.206 F 
ATOM     67  C   UNL A   1      36.324  30.844  32.077  1.00  0.00     0.022 A 
BRANCH  64  68
ATOM     68  S   UNL A   1      35.342  32.363  29.954  1.00  0.00     0.124 S 
ATOM     69  O   UNL A   1      36.229  33.464  29.587  1.00  0.00    -0.237 OA
ATOM     70  O   UNL A   1      34.811  31.574  28.849  1.00  0.00    -0.237 OA
ATOM     71  O   UNL A   1      34.387  32.670  31.018  1.00  0.00    -0.744 OA
ENDBRANCH  64  68
ENDBRANCH  47  61
BRANCH  48  72
ATOM     72  C   UNL A   1      46.815  27.309  25.538  1.00  0.00     0.023 A 
ATOM     73  C   UNL A   1      47.001  27.781  24.228  1.00  0.00     0.031 A 
ATOM     74  C   UNL A   1      47.778  26.430  26.064  1.00  0.00     0.131 A 
ATOM     75  C   UNL A   1      48.095  27.333  23.472  1.00  0.00     0.055 A 
ATOM     76  C   UNL A   1      48.894  26.030  25.327  1.00  0.00     0.041 A 
ATOM     77  F   UNL A   1      47.652  25.953  27.314  1.00  0.00    -0.206 F 
ATOM     78  C   UNL A   1      49.050  26.472  24.017  1.00  0.00     0.022 A 
BRANCH  75  79
ATOM     79  S   UNL A   1      48.206  27.830  21.730  1.00  0.00     0.124 S 
ATOM     80  O   UNL A   1      46.931  28.510  21.534  1.00  0.00    -0.237 OA
ATOM     81  O   UNL A   1      49.394  28.678  21.733  1.00  0.00    -0.237 OA
ATOM     82  O   UNL A   1      48.352  26.559  21.024  1.00  0.00    -0.744 OA
ENDBRANCH  75  79
ENDBRANCH  48  72
BRANCH  60  83
ATOM     83  C   UNL A   1      45.175  32.949  29.292  1.00  0.00     0.023 A 
ATOM     84  C   UNL A   1      45.350  34.008  28.383  1.00  0.00     0.031 A 
ATOM     85  C   UNL A   1      45.766  33.065  30.563  1.00  0.00     0.131 A 
ATOM     86  C   UNL A   1      46.143  35.109  28.738  1.00  0.00     0.055 A 
ATOM     87  C   UNL A   1      46.502  34.191  30.933  1.00  0.00     0.041 A 
ATOM     88  F   UNL A   1      45.633  32.083  31.470  1.00  0.00    -0.206 F 
ATOM     89  C   UNL A   1      46.706  35.216  30.013  1.00  0.00     0.022 A 
BRANCH  86  90
ATOM     90  S   UNL A   1      46.507  36.364  27.480  1.00  0.00     0.124 S 
ATOM     91  O   UNL A   1      47.907  36.090  27.175  1.00  0.00    -0.237 OA
ATOM     92  O   UNL A   1      45.550  36.038  26.428  1.00  0.00    -0.237 OA
ATOM     93  O   UNL A   1      46.259  37.627  28.172  1.00  0.00    -0.744 OA
ENDBRANCH  86  90
ENDBRANCH  60  83
ENDBRANCH  34  35
ENDBRANCH  26  29
ENDBRANCH  24  25
ENDBRANCH  23  24
ENDBRANCH   1  23
TORSDOF 18
ENDMDL
MODEL 3
REMARK VINA RESULT:     -11.4      1.561      7.761
REMARK SMILES C[C@@H](C(=O)NCCCCNC(=O)c1ccc(-c2c3nc(c(-c4cc(S(=O)(=O)[O-])ccc4F)c4ccc([nH]4)c(-c4cc(S(=O)(=O)[O-])ccc4F)c4nc(c(-c5cc(S(=O)(=O)[O-])ccc5F)c5ccc2[nH]5)C=C4)C=C3)cc1)c1ccc(C[C@H]2CCC[C@@H]2O)cc1
REMARK SMILES IDX 7 1 6 2 5 3 3 4 4 5 2 7 1 8 76 9 77 10 88 11 78 12 87 13
REMARK SMILES IDX 79 14 80 15 81 16 82 17 85 18 83 19 84 20 86 21 8 23 9 24
REMARK SMILES IDX 10 25 11 26 12 28 13 29 14 30 75 31 15 32 74 33 16 34 17 35
REMARK SMILES IDX 18 36 68 37 19 38 73 39 67 40 69 41 20 42 72 43 66 44 65 45
REMARK SMILES IDX 21 47 53 48 33 49 52 50 34 51 37 52 51 53 70 54 35 55 36 56
REMARK SMILES IDX 50 58 71 59 38 60 22 61 23 62 31 63 24 64 30 65 32 66 29 67
REMARK SMILES IDX 25 68 26 69 27 70 28 71 54 72 55 73 63 74 56 75 62 76 64 77
REMARK SMILES IDX 61 78 57 79 58 80 59 81 60 82 39 83 40 84 48 85 41 86 47 87
REMARK SMILES IDX 49 88 46 89 42 90 43 91 44 92 45 93
REMARK H PARENT 5 6 86 22 10 27 69 46 37 57
REMARK Flexibility Score: inf
ROOT
ATOM      1  C   UNL A   1      32.808  27.219  26.559  1.00  0.00     0.023 C 
ENDROOT
BRANCH   1   2
ATOM      2  C   UNL A   1      33.629  26.299  25.651  1.00  0.00     0.116 C 
BRANCH   2   3
ATOM      3  N   UNL A   1      33.221  24.920  25.815  1.00  0.00    -0.356 N 
ATOM      4  C   UNL A   1      32.543  24.102  24.959  1.00  0.00     0.227 C 
ATOM      5  O   UNL A   1      32.160  23.018  25.405  1.00  0.00    -0.274 OA
ATOM      6  H   UNL A   1      33.471  24.510  26.675  1.00  0.00     0.163 HD
BRANCH   4   7
ATOM      7  C   UNL A   1      32.332  24.530  23.498  1.00  0.00     0.105 C 
ATOM      8  C   UNL A   1      33.656  24.815  22.777  1.00  0.00     0.023 C 
BRANCH   7   9
ATOM      9  C   UNL A   1      31.357  25.701  23.392  1.00  0.00    -0.036 A 
ATOM     10  C   UNL A   1      30.180  25.683  24.153  1.00  0.00     0.005 A 
ATOM     11  C   UNL A   1      31.601  26.810  22.571  1.00  0.00     0.005 A 
ATOM     12  C   UNL A   1      29.238  26.706  24.035  1.00  0.00     0.004 A 
ATOM     13  C   UNL A   1      30.647  27.817  22.432  1.00  0.00     0.004 A 
ATOM     14  C   UNL A   1      29.436  27.753  23.130  1.00  0.00    -0.048 A 
BRANCH  14  15
ATOM     15  C   UNL A   1      28.360  28.779  22.871  1.00  0.00     0.041 C 
BRANCH  15  16
ATOM     16  C   UNL A   1      28.859  30.165  22.421  1.00  0.00     0.022 C 
ATOM     17  C   UNL A   1      28.036  30.872  21.329  1.00  0.00     0.007 C 
ATOM     18  C   UNL A   1      28.999  31.204  23.538  1.00  0.00     0.117 C 
ATOM     19  C   UNL A   1      28.021  32.358  21.699  1.00  0.00     0.003 C 
ATOM     20  C   UNL A   1      29.076  32.520  22.779  1.00  0.00     0.032 C 
BRANCH  18  21
ATOM     21  O   UNL A   1      30.177  30.972  24.291  1.00  0.00    -0.393 OA
ATOM     22  H   UNL A   1      29.938  30.753  25.205  1.00  0.00     0.210 HD
ENDBRANCH  18  21
ENDBRANCH  15  16
ENDBRANCH  14  15
ENDBRANCH   7   9
ENDBRANCH   4   7
ENDBRANCH   2   3
ENDBRANCH   1   2
BRANCH   1  23
ATOM     23  C   UNL A   1      32.290  28.487  25.875  1.00  0.00     0.023 C 
BRANCH  23  24
ATOM     24  C   UNL A   1      33.345  29.555  25.615  1.00  0.00     0.116 C 
BRANCH  24  25
ATOM     25  N   UNL A   1      33.025  30.825  26.248  1.00  0.00    -0.352 N 
ATOM     26  C   UNL A   1      33.681  31.461  27.273  1.00  0.00     0.251 C 
ATOM     27  H   UNL A   1      32.234  31.290  25.894  1.00  0.00     0.163 HD
ATOM     28  O   UNL A   1      33.186  32.461  27.785  1.00  0.00    -0.269 OA
BRANCH  26  29
ATOM     29  C   UNL A   1      34.958  30.910  27.775  1.00  0.00     0.039 A 
ATOM     30  C   UNL A   1      36.079  31.740  27.822  1.00  0.00     0.014 A 
ATOM     31  C   UNL A   1      35.037  29.589  28.225  1.00  0.00     0.014 A 
ATOM     32  C   UNL A   1      37.266  31.265  28.384  1.00  0.00     0.010 A 
ATOM     33  C   UNL A   1      36.199  29.142  28.849  1.00  0.00     0.010 A 
ATOM     34  C   UNL A   1      37.324  29.975  28.936  1.00  0.00    -0.014 A 
BRANCH  34  35
ATOM     35  C   UNL A   1      38.553  29.479  29.609  1.00  0.00     0.031 A 
ATOM     36  C   UNL A   1      38.961  30.041  30.942  1.00  0.00     0.074 A 
ATOM     37  C   UNL A   1      39.329  28.566  28.991  1.00  0.00     0.049 A 
ATOM     38  N   UNL A   1      40.034  29.799  31.650  1.00  0.00    -0.248 NA
ATOM     39  C   UNL A   1      38.054  31.029  31.544  1.00  0.00     0.031 C 
ATOM     40  C   UNL A   1      39.056  27.972  27.680  1.00  0.00     0.029 A 
ATOM     41  N   UNL A   1      40.510  27.983  29.377  1.00  0.00    -0.354 N 
ATOM     42  C   UNL A   1      39.936  30.611  32.776  1.00  0.00     0.074 A 
ATOM     43  C   UNL A   1      38.732  31.398  32.620  1.00  0.00     0.031 C 
ATOM     44  C   UNL A   1      40.025  27.090  27.386  1.00  0.00     0.029 A 
ATOM     45  C   UNL A   1      41.013  27.090  28.459  1.00  0.00     0.049 A 
ATOM     46  H   UNL A   1      40.956  28.185  30.231  1.00  0.00     0.167 HD
ATOM     47  C   UNL A   1      40.762  30.675  33.850  1.00  0.00     0.034 A 
ATOM     48  C   UNL A   1      42.147  26.362  28.477  1.00  0.00     0.034 A 
ATOM     49  C   UNL A   1      41.956  29.877  33.993  1.00  0.00     0.049 A 
ATOM     50  C   UNL A   1      43.068  26.476  29.665  1.00  0.00     0.074 A 
ATOM     51  C   UNL A   1      42.841  29.831  35.056  1.00  0.00     0.029 A 
ATOM     52  N   UNL A   1      42.437  28.988  33.039  1.00  0.00    -0.354 N 
ATOM     53  N   UNL A   1      42.942  27.220  30.740  1.00  0.00    -0.248 NA
ATOM     54  C   UNL A   1      44.279  25.645  29.646  1.00  0.00     0.031 C 
ATOM     55  C   UNL A   1      43.889  28.967  34.719  1.00  0.00     0.029 A 
ATOM     56  C   UNL A   1      43.620  28.412  33.478  1.00  0.00     0.049 A 
ATOM     57  H   UNL A   1      42.002  28.795  32.177  1.00  0.00     0.167 HD
ATOM     58  C   UNL A   1      44.041  26.920  31.539  1.00  0.00     0.074 A 
ATOM     59  C   UNL A   1      44.810  25.919  30.828  1.00  0.00     0.031 C 
ATOM     60  C   UNL A   1      44.383  27.422  32.754  1.00  0.00     0.034 A 
BRANCH  47  61
ATOM     61  C   UNL A   1      40.405  31.659  34.939  1.00  0.00     0.023 A 
ATOM     62  C   UNL A   1      39.477  31.338  35.947  1.00  0.00     0.031 A 
ATOM     63  C   UNL A   1      40.976  32.943  34.958  1.00  0.00     0.131 A 
ATOM     64  C   UNL A   1      39.089  32.313  36.878  1.00  0.00     0.055 A 
ATOM     65  C   UNL A   1      40.650  33.881  35.939  1.00  0.00     0.041 A 
ATOM     66  F   UNL A   1      41.853  33.316  34.011  1.00  0.00    -0.206 F 
ATOM     67  C   UNL A   1      39.688  33.574  36.898  1.00  0.00     0.022 A 
BRANCH  64  68
ATOM     68  S   UNL A   1      37.683  31.956  37.968  1.00  0.00     0.124 S 
ATOM     69  O   UNL A   1      38.250  32.244  39.283  1.00  0.00    -0.237 OA
ATOM     70  O   UNL A   1      36.669  32.888  37.490  1.00  0.00    -0.237 OA
ATOM     71  O   UNL A   1      37.403  30.544  37.715  1.00  0.00    -0.744 OA
ENDBRANCH  64  68
ENDBRANCH  47  61
BRANCH  48  72
ATOM     72  C   UNL A   1      42.487  25.463  27.336  1.00  0.00     0.023 A 
ATOM     73  C   UNL A   1      42.038  24.133  27.308  1.00  0.00     0.031 A 
ATOM     74  C   UNL A   1      43.300  25.906  26.278  1.00  0.00     0.131 A 
ATOM     75  C   UNL A   1      42.445  23.278  26.271  1.00  0.00     0.055 A 
ATOM     76  C   UNL A   1      43.658  25.068  25.222  1.00  0.00     0.041 A 
ATOM     77  F   UNL A   1      43.752  27.171  26.253  1.00  0.00    -0.206 F 
ATOM     78  C   UNL A   1      43.241  23.741  25.221  1.00  0.00     0.022 A 
BRANCH  75  79
ATOM     79  S   UNL A   1      41.987  21.525  26.362  1.00  0.00     0.124 S 
ATOM     80  O   UNL A   1      40.575  21.569  26.000  1.00  0.00    -0.237 OA
ATOM     81  O   UNL A   1      42.884  20.927  25.380  1.00  0.00    -0.237 OA
ATOM     82  O   UNL A   1      42.264  21.173  27.752  1.00  0.00    -0.744 OA
ENDBRANCH  75  79
ENDBRANCH  48  72
BRANCH  60  83
ATOM     83  C   UNL A   1      45.618  26.853  33.408  1.00  0.00     0.023 A 
ATOM     84  C   UNL A   1      45.572  25.687  34.194  1.00  0.00     0.031 A 
ATOM     85  C   UNL A   1      46.859  27.495  33.250  1.00  0.00     0.131 A 
ATOM     86  C   UNL A   1      46.733  25.232  34.836  1.00  0.00     0.055 A 
ATOM     87  C   UNL A   1      48.023  27.002  33.841  1.00  0.00     0.041 A 
ATOM     88  F   UNL A   1      46.960  28.612  32.512  1.00  0.00    -0.206 F 
ATOM     89  C   UNL A   1      47.961  25.872  34.651  1.00  0.00     0.022 A 
BRANCH  86  90
ATOM     90  S   UNL A   1      46.601  23.842  35.993  1.00  0.00     0.124 S 
ATOM     91  O   UNL A   1      47.070  24.439  37.239  1.00  0.00    -0.237 OA
ATOM     92  O   UNL A   1      45.179  23.521  35.936  1.00  0.00    -0.237 OA
ATOM     93  O   UNL A   1      47.487  22.831  35.419  1.00  0.00    -0.744 OA
ENDBRANCH  86  90
ENDBRANCH  60  83
ENDBRANCH  34  35
ENDBRANCH  26  29
ENDBRANCH  24  25
ENDBRANCH  23  24
ENDBRANCH   1  23
TORSDOF 18
ENDMDL
