MODEL 1
REMARK VINA RESULT:     -12.7      0.000      0.000
REMARK SMILES O=C1CCCC2=C1[C@H](c1ccc([N+](=O)[O-])cc1)CC(=O)N2c1ccccc1C(=O)NCCCCNC(=O)c1ccc(-c2c3nc(c(-c4cc(S(=O)(=O)[O-])ccc4F)c4ccc([nH]4)c(-c4cc(S(=O)(=O)[O-])ccc4F)c4nc(c(-c5cc(S(=O)(=O)[O-])ccc5F)c5ccc2[nH]5)C=C4)C=C3)cc1
REMARK SMILES IDX 32 1 31 2 30 3 28 4 29 5 27 7 22 8 23 9 24 10 26 11 25 12
REMARK SMILES IDX 21 13 1 14 2 15 3 16 7 17 4 18 6 19 8 20 5 21 18 22 19 23
REMARK SMILES IDX 20 24 9 25 10 26 17 27 11 28 16 29 12 30 13 31 14 32 15 33
REMARK SMILES IDX 33 34 34 35 35 36 36 37 37 39 38 40 39 41 100 42 40 43 99 44
REMARK SMILES IDX 41 45 42 46 43 47 93 48 44 49 98 50 92 51 94 52 45 53 97 54
REMARK SMILES IDX 91 55 90 56 46 58 78 59 58 60 77 61 59 62 62 63 76 64 95 65
REMARK SMILES IDX 60 66 61 67 75 69 96 70 63 71 47 72 48 73 56 74 49 75 55 76
REMARK SMILES IDX 57 77 54 78 50 79 51 80 52 81 53 82 79 83 80 84 88 85 81 86
REMARK SMILES IDX 87 87 89 88 86 89 82 90 83 91 84 92 85 93 64 94 65 95 73 96
REMARK SMILES IDX 66 97 72 98 74 99 71 100 67 101 68 102 69 103 70 104
REMARK H PARENT 30 6 35 38 94 57 62 68
REMARK Flexibility Score: inf
ROOT
ATOM      1  C   UNL A   1      38.184  21.524  25.522  1.00  0.00     0.023 C 
ENDROOT
BRANCH   1   2
ATOM      2  C   UNL A   1      37.318  22.739  25.220  1.00  0.00     0.116 C 
BRANCH   2   3
ATOM      3  N   UNL A   1      36.409  23.090  26.272  1.00  0.00    -0.352 N 
ATOM      4  C   UNL A   1      35.085  22.859  26.528  1.00  0.00     0.253 C 
ATOM      5  O   UNL A   1      34.753  23.310  27.636  1.00  0.00    -0.269 OA
ATOM      6  H   UNL A   1      36.840  23.626  26.978  1.00  0.00     0.163 HD
BRANCH   4   7
ATOM      7  C   UNL A   1      34.011  22.166  25.702  1.00  0.00     0.063 A 
ATOM      8  C   UNL A   1      32.847  22.597  25.020  1.00  0.00     0.061 A 
ATOM      9  C   UNL A   1      32.060  21.636  24.308  1.00  0.00     0.027 A 
ATOM     10  C   UNL A   1      32.364  20.283  24.263  1.00  0.00     0.002 A 
ATOM     11  C   UNL A   1      34.268  20.758  25.636  1.00  0.00     0.016 A 
ATOM     12  C   UNL A   1      33.476  19.839  24.939  1.00  0.00     0.001 A 
BRANCH   8  13
ATOM     13  N   UNL A   1      32.332  23.931  24.864  1.00  0.00    -0.284 N 
ATOM     14  O   UNL A   1      30.737  26.994  21.896  1.00  0.00    -0.294 OA
ATOM     15  C   UNL A   1      31.783  26.448  22.232  1.00  0.00     0.161 C 
ATOM     16  C   UNL A   1      32.883  26.100  21.254  1.00  0.00     0.081 C 
ATOM     17  C   UNL A   1      31.931  25.910  23.615  1.00  0.00     0.023 C 
ATOM     18  C   UNL A   1      32.852  24.599  21.078  1.00  0.00     0.015 C 
ATOM     19  C   UNL A   1      32.390  24.635  23.651  1.00  0.00     0.033 C 
ATOM     20  C   UNL A   1      31.246  26.613  24.784  1.00  0.00     0.064 C 
ATOM     21  C   UNL A   1      32.919  23.877  22.427  1.00  0.00     0.055 C 
ATOM     22  C   UNL A   1      30.557  25.525  25.591  1.00  0.00     0.114 C 
ATOM     23  C   UNL A   1      31.504  24.388  25.922  1.00  0.00     0.232 C 
ATOM     24  O   UNL A   1      31.458  23.872  27.042  1.00  0.00    -0.274 OA
BRANCH  20  25
ATOM     25  C   UNL A   1      32.103  27.547  25.675  1.00  0.00    -0.039 A 
ATOM     26  C   UNL A   1      33.512  27.571  25.682  1.00  0.00     0.011 A 
ATOM     27  C   UNL A   1      31.465  28.401  26.593  1.00  0.00     0.011 A 
ATOM     28  C   UNL A   1      34.238  28.499  26.452  1.00  0.00     0.086 A 
ATOM     29  C   UNL A   1      32.168  29.375  27.322  1.00  0.00     0.086 A 
ATOM     30  C   UNL A   1      33.554  29.446  27.212  1.00  0.00     0.269 A 
BRANCH  30  31
ATOM     31  N   UNL A   1      34.289  30.565  27.814  1.00  0.00     0.062 N 
ATOM     32  O   UNL A   1      35.185  30.290  28.626  1.00  0.00    -0.258 OA
ATOM     33  O   UNL A   1      33.999  31.708  27.439  1.00  0.00    -0.258 OA
ENDBRANCH  30  31
ENDBRANCH  20  25
ENDBRANCH   8  13
ENDBRANCH   4   7
ENDBRANCH   2   3
ENDBRANCH   1   2
BRANCH   1  34
ATOM     34  C   UNL A   1      39.588  21.702  26.088  1.00  0.00     0.023 C 
BRANCH  34  35
ATOM     35  C   UNL A   1      40.321  20.531  26.738  1.00  0.00     0.116 C 
BRANCH  35  36
ATOM     36  N   UNL A   1      41.219  19.757  25.899  1.00  0.00    -0.352 N 
ATOM     37  C   UNL A   1      42.577  19.904  25.678  1.00  0.00     0.251 C 
ATOM     38  H   UNL A   1      40.796  19.014  25.412  1.00  0.00     0.163 HD
ATOM     39  O   UNL A   1      43.246  18.990  25.228  1.00  0.00    -0.269 OA
BRANCH  37  40
ATOM     40  C   UNL A   1      43.211  21.209  25.845  1.00  0.00     0.039 A 
ATOM     41  C   UNL A   1      43.228  22.074  24.742  1.00  0.00     0.014 A 
ATOM     42  C   UNL A   1      43.679  21.606  27.087  1.00  0.00     0.014 A 
ATOM     43  C   UNL A   1      43.589  23.400  24.927  1.00  0.00     0.010 A 
ATOM     44  C   UNL A   1      43.925  22.946  27.295  1.00  0.00     0.010 A 
ATOM     45  C   UNL A   1      43.872  23.851  26.220  1.00  0.00    -0.014 A 
BRANCH  45  46
ATOM     46  C   UNL A   1      44.182  25.264  26.504  1.00  0.00     0.031 A 
ATOM     47  C   UNL A   1      45.584  25.728  26.254  1.00  0.00     0.074 A 
ATOM     48  C   UNL A   1      43.260  26.042  27.099  1.00  0.00     0.049 A 
ATOM     49  N   UNL A   1      46.190  26.801  26.677  1.00  0.00    -0.248 NA
ATOM     50  C   UNL A   1      46.444  24.805  25.491  1.00  0.00     0.031 C 
ATOM     51  C   UNL A   1      41.886  25.644  27.422  1.00  0.00     0.029 A 
ATOM     52  N   UNL A   1      43.350  27.324  27.565  1.00  0.00    -0.354 N 
ATOM     53  C   UNL A   1      47.512  26.663  26.269  1.00  0.00     0.074 A 
ATOM     54  C   UNL A   1      47.632  25.364  25.644  1.00  0.00     0.031 C 
ATOM     55  C   UNL A   1      41.260  26.669  28.022  1.00  0.00     0.029 A 
ATOM     56  C   UNL A   1      42.198  27.774  28.169  1.00  0.00     0.049 A 
ATOM     57  H   UNL A   1      44.162  27.874  27.477  1.00  0.00     0.167 HD
ATOM     58  C   UNL A   1      48.521  27.558  26.380  1.00  0.00     0.034 A 
ATOM     59  C   UNL A   1      41.952  28.948  28.782  1.00  0.00     0.034 A 
ATOM     60  C   UNL A   1      48.340  28.858  26.974  1.00  0.00     0.049 A 
ATOM     61  C   UNL A   1      43.074  29.954  28.835  1.00  0.00     0.074 A 
ATOM     62  C   UNL A   1      49.260  29.876  27.141  1.00  0.00     0.029 A 
ATOM     63  N   UNL A   1      47.131  29.324  27.482  1.00  0.00    -0.354 N 
ATOM     64  N   UNL A   1      44.323  29.822  28.441  1.00  0.00    -0.248 NA
ATOM     65  C   UNL A   1      42.753  31.271  29.393  1.00  0.00     0.031 C 
ATOM     66  C   UNL A   1      48.614  30.945  27.773  1.00  0.00     0.029 A 
ATOM     67  C   UNL A   1      47.277  30.618  27.951  1.00  0.00     0.049 A 
ATOM     68  H   UNL A   1      46.293  28.808  27.505  1.00  0.00     0.167 HD
ATOM     69  C   UNL A   1      44.929  31.050  28.682  1.00  0.00     0.074 A 
ATOM     70  C   UNL A   1      43.898  31.915  29.225  1.00  0.00     0.031 C 
ATOM     71  C   UNL A   1      46.216  31.437  28.487  1.00  0.00     0.034 A 
BRANCH  58  72
ATOM     72  C   UNL A   1      49.871  27.139  25.852  1.00  0.00     0.023 A 
ATOM     73  C   UNL A   1      50.299  27.508  24.563  1.00  0.00     0.031 A 
ATOM     74  C   UNL A   1      50.705  26.291  26.600  1.00  0.00     0.131 A 
ATOM     75  C   UNL A   1      51.467  26.951  24.023  1.00  0.00     0.055 A 
ATOM     76  C   UNL A   1      51.917  25.815  26.091  1.00  0.00     0.041 A 
ATOM     77  F   UNL A   1      50.343  25.881  27.826  1.00  0.00    -0.206 F 
ATOM     78  C   UNL A   1      52.294  26.128  24.789  1.00  0.00     0.022 A 
BRANCH  75  79
ATOM     79  S   UNL A   1      51.799  27.187  22.256  1.00  0.00     0.124 S 
ATOM     80  O   UNL A   1      52.870  26.218  22.028  1.00  0.00    -0.237 OA
ATOM     81  O   UNL A   1      50.512  26.871  21.646  1.00  0.00    -0.237 OA
ATOM     82  O   UNL A   1      52.205  28.588  22.168  1.00  0.00    -0.744 OA
ENDBRANCH  75  79
ENDBRANCH  58  72
BRANCH  59  83
ATOM     83  C   UNL A   1      40.616  29.241  29.375  1.00  0.00     0.023 A 
ATOM     84  C   UNL A   1      40.406  29.141  30.760  1.00  0.00     0.031 A 
ATOM     85  C   UNL A   1      39.517  29.586  28.569  1.00  0.00     0.131 A 
ATOM     86  C   UNL A   1      39.120  29.322  31.292  1.00  0.00     0.055 A 
ATOM     87  C   UNL A   1      38.250  29.819  29.109  1.00  0.00     0.041 A 
ATOM     88  F   UNL A   1      39.661  29.708  27.240  1.00  0.00    -0.206 F 
ATOM     89  C   UNL A   1      38.041  29.670  30.477  1.00  0.00     0.022 A 
BRANCH  86  90
ATOM     90  S   UNL A   1      38.858  28.995  33.058  1.00  0.00     0.124 S 
ATOM     91  O   UNL A   1      38.938  30.337  33.625  1.00  0.00    -0.237 OA
ATOM     92  O   UNL A   1      37.536  28.379  33.058  1.00  0.00    -0.237 OA
ATOM     93  O   UNL A   1      39.962  28.103  33.407  1.00  0.00    -0.744 OA
ENDBRANCH  86  90
ENDBRANCH  59  83
BRANCH  71  94
ATOM     94  C   UNL A   1      46.541  32.866  28.830  1.00  0.00     0.023 A 
ATOM     95  C   UNL A   1      46.365  33.900  27.897  1.00  0.00     0.031 A 
ATOM     96  C   UNL A   1      47.063  33.188  30.094  1.00  0.00     0.131 A 
ATOM     97  C   UNL A   1      46.779  35.200  28.214  1.00  0.00     0.055 A 
ATOM     98  C   UNL A   1      47.413  34.496  30.427  1.00  0.00     0.041 A 
ATOM     99  F   UNL A   1      47.247  32.235  31.022  1.00  0.00    -0.206 F 
ATOM    100  C   UNL A   1      47.288  35.507  29.478  1.00  0.00     0.022 A 
BRANCH  97 101
ATOM    101  S   UNL A   1      46.749  36.458  26.909  1.00  0.00     0.124 S 
ATOM    102  O   UNL A   1      45.320  36.599  26.655  1.00  0.00    -0.237 OA
ATOM    103  O   UNL A   1      47.396  37.594  27.559  1.00  0.00    -0.237 OA
ATOM    104  O   UNL A   1      47.516  35.845  25.825  1.00  0.00    -0.744 OA
ENDBRANCH  97 101
ENDBRANCH  71  94
ENDBRANCH  45  46
ENDBRANCH  37  40
ENDBRANCH  35  36
ENDBRANCH  34  35
ENDBRANCH   1  34
TORSDOF 17
ENDMDL
MODEL 2
REMARK VINA RESULT:     -12.6      0.483      7.355
REMARK SMILES O=C1CCCC2=C1[C@H](c1ccc([N+](=O)[O-])cc1)CC(=O)N2c1ccccc1C(=O)NCCCCNC(=O)c1ccc(-c2c3nc(c(-c4cc(S(=O)(=O)[O-])ccc4F)c4ccc([nH]4)c(-c4cc(S(=O)(=O)[O-])ccc4F)c4nc(c(-c5cc(S(=O)(=O)[O-])ccc5F)c5ccc2[nH]5)C=C4)C=C3)cc1
REMARK SMILES IDX 32 1 31 2 30 3 28 4 29 5 27 7 22 8 23 9 24 10 26 11 25 12
REMARK SMILES IDX 21 13 1 14 2 15 3 16 7 17 4 18 6 19 8 20 5 21 18 22 19 23
REMARK SMILES IDX 20 24 9 25 10 26 17 27 11 28 16 29 12 30 13 31 14 32 15 33
REMARK SMILES IDX 33 34 34 35 35 36 36 37 37 39 38 40 39 41 100 42 40 43 99 44
REMARK SMILES IDX 41 45 42 46 43 47 93 48 44 49 98 50 92 51 94 52 45 53 97 54
REMARK SMILES IDX 91 55 90 56 46 58 78 59 58 60 77 61 59 62 62 63 76 64 95 65
REMARK SMILES IDX 60 66 61 67 75 69 96 70 63 71 47 72 48 73 56 74 49 75 55 76
REMARK SMILES IDX 57 77 54 78 50 79 51 80 52 81 53 82 79 83 80 84 88 85 81 86
REMARK SMILES IDX 87 87 89 88 86 89 82 90 83 91 84 92 85 93 64 94 65 95 73 96
REMARK SMILES IDX 66 97 72 98 74 99 71 100 67 101 68 102 69 103 70 104
REMARK H PARENT 30 6 35 38 94 57 62 68
REMARK Flexibility Score: inf
ROOT
ATOM      1  C   UNL A   1      38.118  21.962  25.470  1.00  0.00     0.023 C 
ENDROOT
BRANCH   1   2
ATOM      2  C   UNL A   1      37.185  23.156  25.334  1.00  0.00     0.116 C 
BRANCH   2   3
ATOM      3  N   UNL A   1      36.276  23.320  26.431  1.00  0.00    -0.352 N 
ATOM      4  C   UNL A   1      34.987  22.942  26.689  1.00  0.00     0.253 C 
ATOM      5  O   UNL A   1      34.645  23.254  27.841  1.00  0.00    -0.269 OA
ATOM      6  H   UNL A   1      36.675  23.826  27.177  1.00  0.00     0.163 HD
BRANCH   4   7
ATOM      7  C   UNL A   1      33.959  22.230  25.820  1.00  0.00     0.063 A 
ATOM      8  C   UNL A   1      32.822  22.642  25.084  1.00  0.00     0.061 A 
ATOM      9  C   UNL A   1      32.079  21.667  24.344  1.00  0.00     0.027 A 
ATOM     10  C   UNL A   1      32.401  20.317  24.323  1.00  0.00     0.002 A 
ATOM     11  C   UNL A   1      34.235  20.825  25.777  1.00  0.00     0.016 A 
ATOM     12  C   UNL A   1      33.486  19.892  25.052  1.00  0.00     0.001 A 
BRANCH   8  13
ATOM     13  N   UNL A   1      32.299  23.969  24.894  1.00  0.00    -0.284 N 
ATOM     14  O   UNL A   1      30.708  26.955  21.847  1.00  0.00    -0.294 OA
ATOM     15  C   UNL A   1      31.754  26.424  22.203  1.00  0.00     0.161 C 
ATOM     16  C   UNL A   1      32.865  26.063  21.242  1.00  0.00     0.081 C 
ATOM     17  C   UNL A   1      31.895  25.917  23.598  1.00  0.00     0.023 C 
ATOM     18  C   UNL A   1      32.845  24.558  21.099  1.00  0.00     0.015 C 
ATOM     19  C   UNL A   1      32.362  24.647  23.666  1.00  0.00     0.033 C 
ATOM     20  C   UNL A   1      31.196  26.641  24.746  1.00  0.00     0.064 C 
ATOM     21  C   UNL A   1      32.906  23.866  22.464  1.00  0.00     0.055 C 
ATOM     22  C   UNL A   1      30.507  25.566  25.571  1.00  0.00     0.114 C 
ATOM     23  C   UNL A   1      31.459  24.443  25.935  1.00  0.00     0.232 C 
ATOM     24  O   UNL A   1      31.408  23.952  27.066  1.00  0.00    -0.274 OA
BRANCH  20  25
ATOM     25  C   UNL A   1      32.039  27.600  25.624  1.00  0.00    -0.039 A 
ATOM     26  C   UNL A   1      33.448  27.628  25.648  1.00  0.00     0.011 A 
ATOM     27  C   UNL A   1      31.387  28.477  26.511  1.00  0.00     0.011 A 
ATOM     28  C   UNL A   1      34.161  28.578  26.402  1.00  0.00     0.086 A 
ATOM     29  C   UNL A   1      32.079  29.471  27.223  1.00  0.00     0.086 A 
ATOM     30  C   UNL A   1      33.466  29.543  27.129  1.00  0.00     0.269 A 
BRANCH  30  31
ATOM     31  N   UNL A   1      34.191  30.679  27.711  1.00  0.00     0.062 N 
ATOM     32  O   UNL A   1      33.585  31.757  27.803  1.00  0.00    -0.258 OA
ATOM     33  O   UNL A   1      35.344  30.476  28.113  1.00  0.00    -0.258 OA
ENDBRANCH  30  31
ENDBRANCH  20  25
ENDBRANCH   8  13
ENDBRANCH   4   7
ENDBRANCH   2   3
ENDBRANCH   1   2
BRANCH   1  34
ATOM     34  C   UNL A   1      39.410  22.083  26.272  1.00  0.00     0.023 C 
BRANCH  34  35
ATOM     35  C   UNL A   1      40.094  20.842  26.839  1.00  0.00     0.116 C 
BRANCH  35  36
ATOM     36  N   UNL A   1      40.884  20.038  25.923  1.00  0.00    -0.352 N 
ATOM     37  C   UNL A   1      42.249  20.033  25.694  1.00  0.00     0.251 C 
ATOM     38  H   UNL A   1      40.369  19.398  25.381  1.00  0.00     0.163 HD
ATOM     39  O   UNL A   1      42.795  19.086  25.158  1.00  0.00    -0.269 OA
BRANCH  37  40
ATOM     40  C   UNL A   1      43.042  21.230  25.963  1.00  0.00     0.039 A 
ATOM     41  C   UNL A   1      43.054  22.238  24.988  1.00  0.00     0.014 A 
ATOM     42  C   UNL A   1      43.667  21.395  27.187  1.00  0.00     0.014 A 
ATOM     43  C   UNL A   1      43.582  23.481  25.307  1.00  0.00     0.010 A 
ATOM     44  C   UNL A   1      44.084  22.660  27.543  1.00  0.00     0.010 A 
ATOM     45  C   UNL A   1      44.035  23.711  26.610  1.00  0.00    -0.014 A 
BRANCH  45  46
ATOM     46  C   UNL A   1      44.532  25.029  27.042  1.00  0.00     0.031 A 
ATOM     47  C   UNL A   1      43.543  25.976  27.651  1.00  0.00     0.074 A 
ATOM     48  C   UNL A   1      45.795  25.392  26.757  1.00  0.00     0.049 A 
ATOM     49  N   UNL A   1      43.635  27.261  27.843  1.00  0.00    -0.248 NA
ATOM     50  C   UNL A   1      42.234  25.400  28.011  1.00  0.00     0.031 C 
ATOM     51  C   UNL A   1      46.804  24.541  26.118  1.00  0.00     0.029 A 
ATOM     52  N   UNL A   1      46.439  26.584  26.942  1.00  0.00    -0.354 N 
ATOM     53  C   UNL A   1      42.385  27.655  28.306  1.00  0.00     0.074 A 
ATOM     54  C   UNL A   1      41.532  26.487  28.280  1.00  0.00     0.031 C 
ATOM     55  C   UNL A   1      47.943  25.238  25.978  1.00  0.00     0.029 A 
ATOM     56  C   UNL A   1      47.731  26.593  26.470  1.00  0.00     0.049 A 
ATOM     57  H   UNL A   1      46.016  27.363  27.373  1.00  0.00     0.167 HD
ATOM     58  C   UNL A   1      42.000  28.877  28.744  1.00  0.00     0.034 A 
ATOM     59  C   UNL A   1      48.625  27.600  26.434  1.00  0.00     0.034 A 
ATOM     60  C   UNL A   1      42.900  30.000  28.790  1.00  0.00     0.049 A 
ATOM     61  C   UNL A   1      48.192  28.935  26.987  1.00  0.00     0.074 A 
ATOM     62  C   UNL A   1      42.662  31.291  29.222  1.00  0.00     0.029 A 
ATOM     63  N   UNL A   1      44.236  29.949  28.402  1.00  0.00    -0.354 N 
ATOM     64  N   UNL A   1      47.010  29.302  27.431  1.00  0.00    -0.248 NA
ATOM     65  C   UNL A   1      49.215  29.983  27.055  1.00  0.00     0.031 C 
ATOM     66  C   UNL A   1      43.845  32.025  29.072  1.00  0.00     0.029 A 
ATOM     67  C   UNL A   1      44.838  31.179  28.597  1.00  0.00     0.049 A 
ATOM     68  H   UNL A   1      44.688  29.152  28.041  1.00  0.00     0.167 HD
ATOM     69  C   UNL A   1      47.155  30.619  27.854  1.00  0.00     0.074 A 
ATOM     70  C   UNL A   1      48.548  30.965  27.641  1.00  0.00     0.031 C 
ATOM     71  C   UNL A   1      46.232  31.474  28.365  1.00  0.00     0.034 A 
BRANCH  58  72
ATOM     72  C   UNL A   1      40.565  29.026  29.187  1.00  0.00     0.023 A 
ATOM     73  C   UNL A   1      40.214  28.983  30.549  1.00  0.00     0.031 A 
ATOM     74  C   UNL A   1      39.527  29.124  28.246  1.00  0.00     0.131 A 
ATOM     75  C   UNL A   1      38.864  28.931  30.926  1.00  0.00     0.055 A 
ATOM     76  C   UNL A   1      38.185  29.168  28.634  1.00  0.00     0.041 A 
ATOM     77  F   UNL A   1      39.795  29.143  26.930  1.00  0.00    -0.206 F 
ATOM     78  C   UNL A   1      37.846  29.051  29.978  1.00  0.00     0.022 A 
BRANCH  75  79
ATOM     79  S   UNL A   1      38.463  28.540  32.651  1.00  0.00     0.124 S 
ATOM     80  O   UNL A   1      39.674  28.981  33.339  1.00  0.00    -0.237 OA
ATOM     81  O   UNL A   1      37.267  29.340  32.888  1.00  0.00    -0.237 OA
ATOM     82  O   UNL A   1      38.254  27.094  32.633  1.00  0.00    -0.744 OA
ENDBRANCH  75  79
ENDBRANCH  58  72
BRANCH  59  83
ATOM     83  C   UNL A   1      49.992  27.395  25.877  1.00  0.00     0.023 A 
ATOM     84  C   UNL A   1      50.241  27.553  24.504  1.00  0.00     0.031 A 
ATOM     85  C   UNL A   1      51.065  26.999  26.696  1.00  0.00     0.131 A 
ATOM     86  C   UNL A   1      51.510  27.260  23.980  1.00  0.00     0.055 A 
ATOM     87  C   UNL A   1      52.340  26.760  26.178  1.00  0.00     0.041 A 
ATOM     88  F   UNL A   1      50.889  26.843  28.017  1.00  0.00    -0.206 F 
ATOM     89  C   UNL A   1      52.565  26.873  24.809  1.00  0.00     0.022 A 
BRANCH  86  90
ATOM     90  S   UNL A   1      51.733  27.294  22.180  1.00  0.00     0.124 S 
ATOM     91  O   UNL A   1      50.431  26.837  21.708  1.00  0.00    -0.237 OA
ATOM     92  O   UNL A   1      52.044  28.699  21.940  1.00  0.00    -0.237 OA
ATOM     93  O   UNL A   1      52.839  26.364  21.955  1.00  0.00    -0.744 OA
ENDBRANCH  86  90
ENDBRANCH  59  83
BRANCH  71  94
ATOM     94  C   UNL A   1      46.733  32.839  28.755  1.00  0.00     0.023 A 
ATOM     95  C   UNL A   1      46.749  33.901  27.838  1.00  0.00     0.031 A 
ATOM     96  C   UNL A   1      47.231  33.065  30.050  1.00  0.00     0.131 A 
ATOM     97  C   UNL A   1      47.322  35.126  28.203  1.00  0.00     0.055 A 
ATOM     98  C   UNL A   1      47.741  34.306  30.428  1.00  0.00     0.041 A 
ATOM     99  F   UNL A   1      47.235  32.082  30.964  1.00  0.00    -0.206 F 
ATOM    100  C   UNL A   1      47.804  35.340  29.497  1.00  0.00     0.022 A 
BRANCH  97 101
ATOM    101  S   UNL A   1      47.532  36.396  26.927  1.00  0.00     0.124 S 
ATOM    102  O   UNL A   1      48.913  36.181  26.509  1.00  0.00    -0.237 OA
ATOM    103  O   UNL A   1      46.508  36.031  25.954  1.00  0.00    -0.237 OA
ATOM    104  O   UNL A   1      47.288  37.646  27.646  1.00  0.00    -0.744 OA
ENDBRANCH  97 101
ENDBRANCH  71  94
ENDBRANCH  45  46
ENDBRANCH  37  40
ENDBRANCH  35  36
ENDBRANCH  34  35
ENDBRANCH   1  34
TORSDOF 17
ENDMDL
MODEL 3
REMARK VINA RESULT:     -12.1      5.210     13.888
REMARK SMILES O=C1CCCC2=C1[C@H](c1ccc([N+](=O)[O-])cc1)CC(=O)N2c1ccccc1C(=O)NCCCCNC(=O)c1ccc(-c2c3nc(c(-c4cc(S(=O)(=O)[O-])ccc4F)c4ccc([nH]4)c(-c4cc(S(=O)(=O)[O-])ccc4F)c4nc(c(-c5cc(S(=O)(=O)[O-])ccc5F)c5ccc2[nH]5)C=C4)C=C3)cc1
REMARK SMILES IDX 32 1 31 2 30 3 28 4 29 5 27 7 22 8 23 9 24 10 26 11 25 12
REMARK SMILES IDX 21 13 1 14 2 15 3 16 7 17 4 18 6 19 8 20 5 21 18 22 19 23
REMARK SMILES IDX 20 24 9 25 10 26 17 27 11 28 16 29 12 30 13 31 14 32 15 33
REMARK SMILES IDX 33 34 34 35 35 36 36 37 37 39 38 40 39 41 100 42 40 43 99 44
REMARK SMILES IDX 41 45 42 46 43 47 93 48 44 49 98 50 92 51 94 52 45 53 97 54
REMARK SMILES IDX 91 55 90 56 46 58 78 59 58 60 77 61 59 62 62 63 76 64 95 65
REMARK SMILES IDX 60 66 61 67 75 69 96 70 63 71 47 72 48 73 56 74 49 75 55 76
REMARK SMILES IDX 57 77 54 78 50 79 51 80 52 81 53 82 79 83 80 84 88 85 81 86
REMARK SMILES IDX 87 87 89 88 86 89 82 90 83 91 84 92 85 93 64 94 65 95 73 96
REMARK SMILES IDX 66 97 72 98 74 99 71 100 67 101 68 102 69 103 70 104
REMARK H PARENT 30 6 35 38 94 57 62 68
REMARK Flexibility Score: inf
ROOT
ATOM      1  C   UNL A   1      48.712  25.283  31.394  1.00  0.00     0.023 C 
ENDROOT
BRANCH   1   2
ATOM      2  C   UNL A   1      48.715  26.107  30.113  1.00  0.00     0.116 C 
BRANCH   2   3
ATOM      3  N   UNL A   1      49.118  27.471  30.293  1.00  0.00    -0.352 N 
ATOM      4  C   UNL A   1      48.539  28.691  30.074  1.00  0.00     0.253 C 
ATOM      5  O   UNL A   1      49.267  29.616  30.470  1.00  0.00    -0.269 OA
ATOM      6  H   UNL A   1      50.028  27.549  30.661  1.00  0.00     0.163 HD
BRANCH   4   7
ATOM      7  C   UNL A   1      47.201  29.069  29.452  1.00  0.00     0.063 A 
ATOM      8  C   UNL A   1      46.561  28.785  28.221  1.00  0.00     0.061 A 
ATOM      9  C   UNL A   1      45.252  29.311  27.978  1.00  0.00     0.027 A 
ATOM     10  C   UNL A   1      44.571  30.112  28.885  1.00  0.00     0.002 A 
ATOM     11  C   UNL A   1      46.461  29.912  30.342  1.00  0.00     0.016 A 
ATOM     12  C   UNL A   1      45.185  30.421  30.075  1.00  0.00     0.001 A 
BRANCH   8  13
ATOM     13  N   UNL A   1      47.012  27.952  27.138  1.00  0.00    -0.284 N 
ATOM     14  O   UNL A   1      46.138  24.213  24.690  1.00  0.00    -0.294 OA
ATOM     15  C   UNL A   1      46.520  24.554  25.805  1.00  0.00     0.161 C 
ATOM     16  C   UNL A   1      46.180  23.787  27.063  1.00  0.00     0.081 C 
ATOM     17  C   UNL A   1      47.179  25.879  25.993  1.00  0.00     0.023 C 
ATOM     18  C   UNL A   1      45.159  24.611  27.814  1.00  0.00     0.015 C 
ATOM     19  C   UNL A   1      46.658  26.599  27.017  1.00  0.00     0.033 C 
ATOM     20  C   UNL A   1      48.048  26.463  24.883  1.00  0.00     0.064 C 
ATOM     21  C   UNL A   1      45.649  26.046  28.030  1.00  0.00     0.055 C 
ATOM     22  C   UNL A   1      47.614  27.910  24.718  1.00  0.00     0.114 C 
ATOM     23  C   UNL A   1      47.595  28.643  26.045  1.00  0.00     0.232 C 
ATOM     24  O   UNL A   1      48.005  29.807  26.097  1.00  0.00    -0.274 OA
BRANCH  20  25
ATOM     25  C   UNL A   1      49.586  26.326  25.013  1.00  0.00    -0.039 A 
ATOM     26  C   UNL A   1      50.238  25.579  26.015  1.00  0.00     0.011 A 
ATOM     27  C   UNL A   1      50.419  27.028  24.123  1.00  0.00     0.011 A 
ATOM     28  C   UNL A   1      51.636  25.422  26.036  1.00  0.00     0.086 A 
ATOM     29  C   UNL A   1      51.811  26.833  24.090  1.00  0.00     0.086 A 
ATOM     30  C   UNL A   1      52.408  25.992  25.024  1.00  0.00     0.269 A 
BRANCH  30  31
ATOM     31  N   UNL A   1      53.825  25.629  24.897  1.00  0.00     0.062 N 
ATOM     32  O   UNL A   1      54.106  24.422  24.877  1.00  0.00    -0.258 OA
ATOM     33  O   UNL A   1      54.642  26.550  24.772  1.00  0.00    -0.258 OA
ENDBRANCH  30  31
ENDBRANCH  20  25
ENDBRANCH   8  13
ENDBRANCH   4   7
ENDBRANCH   2   3
ENDBRANCH   1   2
BRANCH   1  34
ATOM     34  C   UNL A   1      48.353  25.934  32.725  1.00  0.00     0.023 C 
BRANCH  34  35
ATOM     35  C   UNL A   1      47.961  25.081  33.929  1.00  0.00     0.116 C 
BRANCH  35  36
ATOM     36  N   UNL A   1      48.181  25.647  35.248  1.00  0.00    -0.352 N 
ATOM     37  C   UNL A   1      47.301  26.297  36.095  1.00  0.00     0.251 C 
ATOM     38  H   UNL A   1      49.098  25.554  35.593  1.00  0.00     0.163 HD
ATOM     39  O   UNL A   1      47.536  26.407  37.285  1.00  0.00    -0.269 OA
BRANCH  37  40
ATOM     40  C   UNL A   1      46.137  26.991  35.551  1.00  0.00     0.039 A 
ATOM     41  C   UNL A   1      46.348  28.223  34.916  1.00  0.00     0.014 A 
ATOM     42  C   UNL A   1      44.889  26.390  35.574  1.00  0.00     0.014 A 
ATOM     43  C   UNL A   1      45.321  28.787  34.174  1.00  0.00     0.010 A 
ATOM     44  C   UNL A   1      43.908  26.888  34.744  1.00  0.00     0.010 A 
ATOM     45  C   UNL A   1      44.121  28.083  34.033  1.00  0.00    -0.014 A 
BRANCH  45  46
ATOM     46  C   UNL A   1      43.017  28.580  33.193  1.00  0.00     0.031 A 
ATOM     47  C   UNL A   1      41.996  29.463  33.843  1.00  0.00     0.074 A 
ATOM     48  C   UNL A   1      42.880  28.127  31.934  1.00  0.00     0.049 A 
ATOM     49  N   UNL A   1      40.804  29.792  33.434  1.00  0.00    -0.248 NA
ATOM     50  C   UNL A   1      42.341  29.971  35.183  1.00  0.00     0.031 C 
ATOM     51  C   UNL A   1      43.809  27.222  31.247  1.00  0.00     0.029 A 
ATOM     52  N   UNL A   1      41.890  28.342  31.016  1.00  0.00    -0.354 N 
ATOM     53  C   UNL A   1      40.240  30.510  34.483  1.00  0.00     0.074 A 
ATOM     54  C   UNL A   1      41.190  30.489  35.573  1.00  0.00     0.031 C 
ATOM     55  C   UNL A   1      43.346  26.973  30.011  1.00  0.00     0.029 A 
ATOM     56  C   UNL A   1      42.072  27.657  29.837  1.00  0.00     0.049 A 
ATOM     57  H   UNL A   1      41.118  28.931  31.184  1.00  0.00     0.167 HD
ATOM     58  C   UNL A   1      39.050  31.154  34.513  1.00  0.00     0.034 A 
ATOM     59  C   UNL A   1      41.276  27.589  28.752  1.00  0.00     0.034 A 
ATOM     60  C   UNL A   1      38.156  31.181  33.384  1.00  0.00     0.049 A 
ATOM     61  C   UNL A   1      39.985  28.368  28.786  1.00  0.00     0.074 A 
ATOM     62  C   UNL A   1      36.928  31.803  33.258  1.00  0.00     0.029 A 
ATOM     63  N   UNL A   1      38.418  30.563  32.164  1.00  0.00    -0.354 N 
ATOM     64  N   UNL A   1      39.458  29.053  29.778  1.00  0.00    -0.248 NA
ATOM     65  C   UNL A   1      39.193  28.386  27.552  1.00  0.00     0.031 C 
ATOM     66  C   UNL A   1      36.438  31.540  31.973  1.00  0.00     0.029 A 
ATOM     67  C   UNL A   1      37.383  30.800  31.276  1.00  0.00     0.049 A 
ATOM     68  H   UNL A   1      39.224  30.034  31.961  1.00  0.00     0.167 HD
ATOM     69  C   UNL A   1      38.283  29.603  29.278  1.00  0.00     0.074 A 
ATOM     70  C   UNL A   1      38.200  29.195  27.888  1.00  0.00     0.031 C 
ATOM     71  C   UNL A   1      37.348  30.367  29.900  1.00  0.00     0.034 A 
BRANCH  58  72
ATOM     72  C   UNL A   1      38.681  31.855  35.798  1.00  0.00     0.023 A 
ATOM     73  C   UNL A   1      38.114  31.152  36.877  1.00  0.00     0.031 A 
ATOM     74  C   UNL A   1      38.812  33.248  35.921  1.00  0.00     0.131 A 
ATOM     75  C   UNL A   1      37.606  31.849  37.981  1.00  0.00     0.055 A 
ATOM     76  C   UNL A   1      38.390  33.928  37.067  1.00  0.00     0.041 A 
ATOM     77  F   UNL A   1      39.322  33.980  34.917  1.00  0.00    -0.206 F 
ATOM     78  C   UNL A   1      37.764  33.231  38.097  1.00  0.00     0.022 A 
BRANCH  75  79
ATOM     79  S   UNL A   1      36.591  30.945  39.182  1.00  0.00     0.124 S 
ATOM     80  O   UNL A   1      35.448  31.844  39.333  1.00  0.00    -0.237 OA
ATOM     81  O   UNL A   1      36.327  29.687  38.491  1.00  0.00    -0.237 OA
ATOM     82  O   UNL A   1      37.457  30.844  40.355  1.00  0.00    -0.744 OA
ENDBRANCH  75  79
ENDBRANCH  58  72
BRANCH  59  83
ATOM     83  C   UNL A   1      41.666  26.782  27.561  1.00  0.00     0.023 A 
ATOM     84  C   UNL A   1      41.411  25.402  27.512  1.00  0.00     0.031 A 
ATOM     85  C   UNL A   1      42.336  27.364  26.469  1.00  0.00     0.131 A 
ATOM     86  C   UNL A   1      41.874  24.639  26.428  1.00  0.00     0.055 A 
ATOM     87  C   UNL A   1      42.747  26.609  25.368  1.00  0.00     0.041 A 
ATOM     88  F   UNL A   1      42.597  28.681  26.456  1.00  0.00    -0.206 F 
ATOM     89  C   UNL A   1      42.532  25.234  25.351  1.00  0.00     0.022 A 
BRANCH  86  90
ATOM     90  S   UNL A   1      41.690  22.835  26.498  1.00  0.00     0.124 S 
ATOM     91  O   UNL A   1      40.239  22.681  26.500  1.00  0.00    -0.237 OA
ATOM     92  O   UNL A   1      42.377  22.414  25.282  1.00  0.00    -0.237 OA
ATOM     93  O   UNL A   1      42.357  22.472  27.748  1.00  0.00    -0.744 OA
ENDBRANCH  86  90
ENDBRANCH  59  83
BRANCH  71  94
ATOM     94  C   UNL A   1      36.193  30.828  29.051  1.00  0.00     0.023 A 
ATOM     95  C   UNL A   1      35.261  29.918  28.528  1.00  0.00     0.031 A 
ATOM     96  C   UNL A   1      36.048  32.190  28.736  1.00  0.00     0.131 A 
ATOM     97  C   UNL A   1      34.265  30.370  27.654  1.00  0.00     0.055 A 
ATOM     98  C   UNL A   1      35.014  32.642  27.918  1.00  0.00     0.041 A 
ATOM     99  F   UNL A   1      36.912  33.100  29.214  1.00  0.00    -0.206 F 
ATOM    100  C   UNL A   1      34.125  31.728  27.358  1.00  0.00     0.022 A 
BRANCH  97 101
ATOM    101  S   UNL A   1      33.225  29.141  26.820  1.00  0.00     0.124 S 
ATOM    102  O   UNL A   1      32.355  29.982  26.005  1.00  0.00    -0.237 OA
ATOM    103  O   UNL A   1      34.208  28.345  26.092  1.00  0.00    -0.237 OA
ATOM    104  O   UNL A   1      32.562  28.448  27.924  1.00  0.00    -0.744 OA
ENDBRANCH  97 101
ENDBRANCH  71  94
ENDBRANCH  45  46
ENDBRANCH  37  40
ENDBRANCH  35  36
ENDBRANCH  34  35
ENDBRANCH   1  34
TORSDOF 17
ENDMDL
