MODEL 1
REMARK VINA RESULT:     -12.7      0.000      0.000
REMARK SMILES CC(C)[C@@H]1C(=O)Nc2ccccc2N1C(=O)N[C@H](Cc1ccccc1)C(=O)NCCCCNC(=O)c1ccc(-c2c3nc(c(-c4cc(S(=O)(=O)[O-])ccc4F)c4ccc([nH]4)c(-c4cc(S(=O)(=O)[O-])ccc4F)c4nc(c(-c5cc(S(=O)(=O)[O-])ccc5F)c5ccc2[nH]5)C=C4)C=C3)cc1
REMARK SMILES IDX 30 1 29 2 28 3 26 4 27 5 18 7 17 8 15 9 16 10 14 12 4 13
REMARK SMILES IDX 5 14 6 15 7 16 13 17 8 18 12 20 9 21 11 22 10 23 2 24 1 25
REMARK SMILES IDX 3 26 19 27 20 28 21 29 25 30 22 31 24 32 23 33 31 34 32 35
REMARK SMILES IDX 33 36 34 37 35 39 36 40 37 41 98 42 38 43 97 44 39 45 40 46
REMARK SMILES IDX 41 47 91 48 42 49 96 50 90 51 92 52 43 53 95 54 89 55 88 56
REMARK SMILES IDX 44 58 76 59 56 60 75 61 57 62 60 63 74 64 93 65 58 66 59 67
REMARK SMILES IDX 73 69 94 70 61 71 45 72 46 73 54 74 47 75 53 76 55 77 52 78
REMARK SMILES IDX 48 79 49 80 50 81 51 82 77 83 78 84 86 85 79 86 85 87 87 88
REMARK SMILES IDX 84 89 80 90 81 91 82 92 83 93 62 94 63 95 71 96 64 97 70 98
REMARK SMILES IDX 72 99 69 100 65 101 66 102 67 103 68 104
REMARK H PARENT 28 6 17 11 7 19 33 38 92 57 60 68
REMARK Flexibility Score: inf
ROOT
ATOM      1  C   UNL A   1      32.943  28.346  24.379  1.00  0.00     0.023 C 
ENDROOT
BRANCH   1   2
ATOM      2  C   UNL A   1      32.477  28.266  22.906  1.00  0.00     0.116 C 
BRANCH   2   3
ATOM      3  N   UNL A   1      33.326  27.495  22.018  1.00  0.00    -0.354 N 
ATOM      4  C   UNL A   1      33.168  26.212  21.590  1.00  0.00     0.242 C 
ATOM      5  O   UNL A   1      33.243  26.063  20.360  1.00  0.00    -0.273 OA
ATOM      6  H   UNL A   1      34.123  27.962  21.679  1.00  0.00     0.163 HD
BRANCH   4   7
ATOM      7  C   UNL A   1      33.119  24.938  22.500  1.00  0.00     0.177 C 
BRANCH   7   8
ATOM      8  N   UNL A   1      31.919  24.133  22.766  1.00  0.00    -0.326 N 
ATOM      9  C   UNL A   1      31.304  23.237  23.538  1.00  0.00     0.323 C 
ATOM     10  O   UNL A   1      30.147  23.026  23.137  1.00  0.00    -0.248 OA
ATOM     11  H   UNL A   1      31.280  24.357  22.051  1.00  0.00     0.166 HD
BRANCH   9  12
ATOM     12  N   UNL A   1      31.761  22.659  24.685  1.00  0.00    -0.280 N 
ATOM     13  C   UNL A   1      31.521  23.036  26.113  1.00  0.00     0.184 C 
ATOM     14  C   UNL A   1      32.535  22.485  27.148  1.00  0.00     0.247 C 
ATOM     15  O   UNL A   1      32.445  22.721  28.357  1.00  0.00    -0.272 OA
ATOM     16  N   UNL A   1      33.483  21.614  26.740  1.00  0.00    -0.322 N 
ATOM     17  C   UNL A   1      32.535  21.421  24.517  1.00  0.00     0.070 A 
ATOM     18  C   UNL A   1      33.413  20.977  25.512  1.00  0.00     0.065 A 
ATOM     19  H   UNL A   1      34.246  21.427  27.333  1.00  0.00     0.170 HD
ATOM     20  C   UNL A   1      32.329  20.548  23.430  1.00  0.00     0.028 A 
ATOM     21  C   UNL A   1      34.137  19.785  25.389  1.00  0.00     0.028 A 
ATOM     22  C   UNL A   1      32.958  19.294  23.365  1.00  0.00     0.002 A 
ATOM     23  C   UNL A   1      33.879  18.922  24.335  1.00  0.00     0.002 A 
BRANCH  13  24
ATOM     24  C   UNL A   1      31.371  24.520  26.540  1.00  0.00     0.015 C 
ATOM     25  C   UNL A   1      32.598  25.382  26.332  1.00  0.00     0.010 C 
ATOM     26  C   UNL A   1      29.995  25.051  26.114  1.00  0.00     0.010 C 
ENDBRANCH  13  24
ENDBRANCH   9  12
ENDBRANCH   7   8
BRANCH   7  27
ATOM     27  C   UNL A   1      34.237  25.120  23.614  1.00  0.00     0.070 C 
BRANCH  27  28
ATOM     28  C   UNL A   1      35.305  24.160  24.121  1.00  0.00    -0.045 A 
ATOM     29  C   UNL A   1      35.669  23.075  23.288  1.00  0.00     0.004 A 
ATOM     30  C   UNL A   1      35.808  24.148  25.424  1.00  0.00     0.004 A 
ATOM     31  C   UNL A   1      36.550  22.070  23.692  1.00  0.00     0.000 A 
ATOM     32  C   UNL A   1      36.661  23.108  25.851  1.00  0.00     0.000 A 
ATOM     33  C   UNL A   1      37.042  22.081  24.985  1.00  0.00     0.000 A 
ENDBRANCH  27  28
ENDBRANCH   7  27
ENDBRANCH   4   7
ENDBRANCH   2   3
ENDBRANCH   1   2
BRANCH   1  34
ATOM     34  C   UNL A   1      33.108  29.732  25.026  1.00  0.00     0.023 C 
BRANCH  34  35
ATOM     35  C   UNL A   1      32.806  29.736  26.536  1.00  0.00     0.116 C 
BRANCH  35  36
ATOM     36  N   UNL A   1      32.840  31.064  27.155  1.00  0.00    -0.352 N 
ATOM     37  C   UNL A   1      33.845  31.705  27.854  1.00  0.00     0.251 C 
ATOM     38  H   UNL A   1      32.010  31.584  27.057  1.00  0.00     0.163 HD
ATOM     39  O   UNL A   1      33.586  32.702  28.528  1.00  0.00    -0.269 OA
BRANCH  37  40
ATOM     40  C   UNL A   1      35.205  31.135  27.869  1.00  0.00     0.039 A 
ATOM     41  C   UNL A   1      36.298  32.001  27.961  1.00  0.00     0.014 A 
ATOM     42  C   UNL A   1      35.387  29.759  27.960  1.00  0.00     0.014 A 
ATOM     43  C   UNL A   1      37.537  31.493  28.350  1.00  0.00     0.010 A 
ATOM     44  C   UNL A   1      36.578  29.276  28.480  1.00  0.00     0.010 A 
ATOM     45  C   UNL A   1      37.651  30.145  28.727  1.00  0.00    -0.014 A 
BRANCH  45  46
ATOM     46  C   UNL A   1      38.850  29.657  29.461  1.00  0.00     0.031 A 
ATOM     47  C   UNL A   1      39.183  30.208  30.819  1.00  0.00     0.074 A 
ATOM     48  C   UNL A   1      39.679  28.782  28.851  1.00  0.00     0.049 A 
ATOM     49  N   UNL A   1      40.201  29.940  31.593  1.00  0.00    -0.248 NA
ATOM     50  C   UNL A   1      38.275  31.234  31.355  1.00  0.00     0.031 C 
ATOM     51  C   UNL A   1      39.505  28.259  27.490  1.00  0.00     0.029 A 
ATOM     52  N   UNL A   1      40.827  28.169  29.285  1.00  0.00    -0.354 N 
ATOM     53  C   UNL A   1      40.063  30.770  32.699  1.00  0.00     0.074 A 
ATOM     54  C   UNL A   1      38.916  31.615  32.448  1.00  0.00     0.031 C 
ATOM     55  C   UNL A   1      40.468  27.361  27.231  1.00  0.00     0.029 A 
ATOM     56  C   UNL A   1      41.358  27.274  28.382  1.00  0.00     0.049 A 
ATOM     57  H   UNL A   1      41.235  28.352  30.163  1.00  0.00     0.167 HD
ATOM     58  C   UNL A   1      40.799  30.795  33.837  1.00  0.00     0.034 A 
ATOM     59  C   UNL A   1      42.433  26.466  28.477  1.00  0.00     0.034 A 
ATOM     60  C   UNL A   1      41.930  29.930  34.064  1.00  0.00     0.049 A 
ATOM     61  C   UNL A   1      43.220  26.489  29.763  1.00  0.00     0.074 A 
ATOM     62  C   UNL A   1      42.738  29.832  35.182  1.00  0.00     0.029 A 
ATOM     63  N   UNL A   1      42.415  29.006  33.142  1.00  0.00    -0.354 N 
ATOM     64  N   UNL A   1      43.034  27.233  30.831  1.00  0.00    -0.248 NA
ATOM     65  C   UNL A   1      44.346  25.555  29.866  1.00  0.00     0.031 C 
ATOM     66  C   UNL A   1      43.742  28.894  34.915  1.00  0.00     0.029 A 
ATOM     67  C   UNL A   1      43.519  28.349  33.661  1.00  0.00     0.049 A 
ATOM     68  H   UNL A   1      42.030  28.846  32.250  1.00  0.00     0.167 HD
ATOM     69  C   UNL A   1      44.000  26.829  31.746  1.00  0.00     0.074 A 
ATOM     70  C   UNL A   1      44.750  25.764  31.109  1.00  0.00     0.031 C 
ATOM     71  C   UNL A   1      44.249  27.291  32.999  1.00  0.00     0.034 A 
BRANCH  58  72
ATOM     72  C   UNL A   1      40.397  31.798  34.895  1.00  0.00     0.023 A 
ATOM     73  C   UNL A   1      39.548  31.442  35.959  1.00  0.00     0.031 A 
ATOM     74  C   UNL A   1      40.804  33.140  34.805  1.00  0.00     0.131 A 
ATOM     75  C   UNL A   1      39.050  32.428  36.822  1.00  0.00     0.055 A 
ATOM     76  C   UNL A   1      40.381  34.101  35.727  1.00  0.00     0.041 A 
ATOM     77  F   UNL A   1      41.595  33.550  33.802  1.00  0.00    -0.206 F 
ATOM     78  C   UNL A   1      39.481  33.752  36.731  1.00  0.00     0.022 A 
BRANCH  75  79
ATOM     79  S   UNL A   1      37.696  31.987  37.948  1.00  0.00     0.124 S 
ATOM     80  O   UNL A   1      38.332  32.160  39.252  1.00  0.00    -0.237 OA
ATOM     81  O   UNL A   1      36.668  32.961  37.604  1.00  0.00    -0.237 OA
ATOM     82  O   UNL A   1      37.391  30.603  37.590  1.00  0.00    -0.744 OA
ENDBRANCH  75  79
ENDBRANCH  58  72
BRANCH  59  83
ATOM     83  C   UNL A   1      42.814  25.557  27.355  1.00  0.00     0.023 A 
ATOM     84  C   UNL A   1      42.279  24.261  27.254  1.00  0.00     0.031 A 
ATOM     85  C   UNL A   1      43.749  25.953  26.381  1.00  0.00     0.131 A 
ATOM     86  C   UNL A   1      42.716  23.393  26.240  1.00  0.00     0.055 A 
ATOM     87  C   UNL A   1      44.141  25.106  25.341  1.00  0.00     0.041 A 
ATOM     88  F   UNL A   1      44.290  27.181  26.418  1.00  0.00    -0.206 F 
ATOM     89  C   UNL A   1      43.634  23.812  25.275  1.00  0.00     0.022 A 
BRANCH  86  90
ATOM     90  S   UNL A   1      42.133  21.674  26.251  1.00  0.00     0.124 S 
ATOM     91  O   UNL A   1      40.710  21.842  25.984  1.00  0.00    -0.237 OA
ATOM     92  O   UNL A   1      42.922  21.082  25.176  1.00  0.00    -0.237 OA
ATOM     93  O   UNL A   1      42.466  21.210  27.596  1.00  0.00    -0.744 OA
ENDBRANCH  86  90
ENDBRANCH  59  83
BRANCH  71  94
ATOM     94  C   UNL A   1      45.350  26.606  33.768  1.00  0.00     0.023 A 
ATOM     95  C   UNL A   1      45.138  25.388  34.436  1.00  0.00     0.031 A 
ATOM     96  C   UNL A   1      46.624  27.194  33.848  1.00  0.00     0.131 A 
ATOM     97  C   UNL A   1      46.164  24.831  35.212  1.00  0.00     0.055 A 
ATOM     98  C   UNL A   1      47.663  26.599  34.565  1.00  0.00     0.041 A 
ATOM     99  F   UNL A   1      46.881  28.357  33.229  1.00  0.00    -0.206 F 
ATOM    100  C   UNL A   1      47.430  25.418  35.265  1.00  0.00     0.022 A 
BRANCH  97 101
ATOM    101  S   UNL A   1      45.787  23.386  36.239  1.00  0.00     0.124 S 
ATOM    102  O   UNL A   1      45.967  23.917  37.587  1.00  0.00    -0.237 OA
ATOM    103  O   UNL A   1      44.412  23.081  35.855  1.00  0.00    -0.237 OA
ATOM    104  O   UNL A   1      46.782  22.400  35.823  1.00  0.00    -0.744 OA
ENDBRANCH  97 101
ENDBRANCH  71  94
ENDBRANCH  45  46
ENDBRANCH  37  40
ENDBRANCH  35  36
ENDBRANCH  34  35
ENDBRANCH   1  34
TORSDOF 19
ENDMDL
MODEL 2
REMARK VINA RESULT:     -12.5      1.770      2.108
REMARK SMILES CC(C)[C@@H]1C(=O)Nc2ccccc2N1C(=O)N[C@H](Cc1ccccc1)C(=O)NCCCCNC(=O)c1ccc(-c2c3nc(c(-c4cc(S(=O)(=O)[O-])ccc4F)c4ccc([nH]4)c(-c4cc(S(=O)(=O)[O-])ccc4F)c4nc(c(-c5cc(S(=O)(=O)[O-])ccc5F)c5ccc2[nH]5)C=C4)C=C3)cc1
REMARK SMILES IDX 30 1 29 2 28 3 26 4 27 5 18 7 17 8 15 9 16 10 14 12 4 13
REMARK SMILES IDX 5 14 6 15 7 16 13 17 8 18 12 20 9 21 11 22 10 23 2 24 1 25
REMARK SMILES IDX 3 26 19 27 20 28 21 29 25 30 22 31 24 32 23 33 31 34 32 35
REMARK SMILES IDX 33 36 34 37 35 39 36 40 37 41 98 42 38 43 97 44 39 45 40 46
REMARK SMILES IDX 41 47 91 48 42 49 96 50 90 51 92 52 43 53 95 54 89 55 88 56
REMARK SMILES IDX 44 58 76 59 56 60 75 61 57 62 60 63 74 64 93 65 58 66 59 67
REMARK SMILES IDX 73 69 94 70 61 71 45 72 46 73 54 74 47 75 53 76 55 77 52 78
REMARK SMILES IDX 48 79 49 80 50 81 51 82 77 83 78 84 86 85 79 86 85 87 87 88
REMARK SMILES IDX 84 89 80 90 81 91 82 92 83 93 62 94 63 95 71 96 64 97 70 98
REMARK SMILES IDX 72 99 69 100 65 101 66 102 67 103 68 104
REMARK H PARENT 28 6 17 11 7 19 33 38 92 57 60 68
REMARK Flexibility Score: inf
ROOT
ATOM      1  C   UNL A   1      33.194  28.308  24.272  1.00  0.00     0.023 C 
ENDROOT
BRANCH   1   2
ATOM      2  C   UNL A   1      32.645  28.263  22.826  1.00  0.00     0.116 C 
BRANCH   2   3
ATOM      3  N   UNL A   1      33.411  27.467  21.885  1.00  0.00    -0.354 N 
ATOM      4  C   UNL A   1      33.173  26.199  21.451  1.00  0.00     0.242 C 
ATOM      5  O   UNL A   1      33.178  26.066  20.217  1.00  0.00    -0.273 OA
ATOM      6  H   UNL A   1      34.211  27.902  21.511  1.00  0.00     0.163 HD
BRANCH   4   7
ATOM      7  C   UNL A   1      33.111  24.916  22.346  1.00  0.00     0.177 C 
BRANCH   7   8
ATOM      8  N   UNL A   1      31.890  24.165  22.667  1.00  0.00    -0.326 N 
ATOM      9  C   UNL A   1      31.264  23.314  23.480  1.00  0.00     0.323 C 
ATOM     10  O   UNL A   1      30.089  23.137  23.117  1.00  0.00    -0.248 OA
ATOM     11  H   UNL A   1      31.240  24.394  21.964  1.00  0.00     0.166 HD
BRANCH   9  12
ATOM     12  N   UNL A   1      31.731  22.750  24.630  1.00  0.00    -0.280 N 
ATOM     13  C   UNL A   1      31.517  23.153  26.055  1.00  0.00     0.184 C 
ATOM     14  C   UNL A   1      32.540  22.608  27.084  1.00  0.00     0.247 C 
ATOM     15  O   UNL A   1      32.472  22.864  28.290  1.00  0.00    -0.272 OA
ATOM     16  N   UNL A   1      33.472  21.719  26.676  1.00  0.00    -0.322 N 
ATOM     17  C   UNL A   1      32.489  21.501  24.471  1.00  0.00     0.070 A 
ATOM     18  C   UNL A   1      33.376  21.063  25.460  1.00  0.00     0.065 A 
ATOM     19  H   UNL A   1      34.242  21.533  27.261  1.00  0.00     0.170 HD
ATOM     20  C   UNL A   1      32.256  20.612  23.402  1.00  0.00     0.028 A 
ATOM     21  C   UNL A   1      34.085  19.860  25.347  1.00  0.00     0.028 A 
ATOM     22  C   UNL A   1      32.870  19.350  23.349  1.00  0.00     0.002 A 
ATOM     23  C   UNL A   1      33.801  18.983  24.311  1.00  0.00     0.002 A 
BRANCH  13  24
ATOM     24  C   UNL A   1      31.391  24.645  26.459  1.00  0.00     0.015 C 
ATOM     25  C   UNL A   1      32.617  25.494  26.199  1.00  0.00     0.010 C 
ATOM     26  C   UNL A   1      30.007  25.179  26.066  1.00  0.00     0.010 C 
ENDBRANCH  13  24
ENDBRANCH   9  12
ENDBRANCH   7   8
BRANCH   7  27
ATOM     27  C   UNL A   1      34.295  25.028  23.400  1.00  0.00     0.070 C 
BRANCH  27  28
ATOM     28  C   UNL A   1      35.208  23.961  23.990  1.00  0.00    -0.045 A 
ATOM     29  C   UNL A   1      35.717  24.173  25.293  1.00  0.00     0.004 A 
ATOM     30  C   UNL A   1      35.744  22.889  23.272  1.00  0.00     0.004 A 
ATOM     31  C   UNL A   1      36.650  23.324  25.891  1.00  0.00     0.000 A 
ATOM     32  C   UNL A   1      36.723  22.057  23.855  1.00  0.00     0.000 A 
ATOM     33  C   UNL A   1      37.164  22.264  25.164  1.00  0.00     0.000 A 
ENDBRANCH  27  28
ENDBRANCH   7  27
ENDBRANCH   4   7
ENDBRANCH   2   3
ENDBRANCH   1   2
BRANCH   1  34
ATOM     34  C   UNL A   1      33.344  29.674  24.961  1.00  0.00     0.023 C 
BRANCH  34  35
ATOM     35  C   UNL A   1      32.556  29.777  26.281  1.00  0.00     0.116 C 
BRANCH  35  36
ATOM     36  N   UNL A   1      32.549  31.115  26.877  1.00  0.00    -0.352 N 
ATOM     37  C   UNL A   1      33.506  31.771  27.626  1.00  0.00     0.251 C 
ATOM     38  H   UNL A   1      31.726  31.631  26.718  1.00  0.00     0.163 HD
ATOM     39  O   UNL A   1      33.204  32.779  28.265  1.00  0.00    -0.269 OA
BRANCH  37  40
ATOM     40  C   UNL A   1      34.864  31.205  27.737  1.00  0.00     0.039 A 
ATOM     41  C   UNL A   1      35.955  32.076  27.796  1.00  0.00     0.014 A 
ATOM     42  C   UNL A   1      35.039  29.841  27.948  1.00  0.00     0.014 A 
ATOM     43  C   UNL A   1      37.178  31.603  28.270  1.00  0.00     0.010 A 
ATOM     44  C   UNL A   1      36.210  29.404  28.549  1.00  0.00     0.010 A 
ATOM     45  C   UNL A   1      37.276  30.291  28.761  1.00  0.00    -0.014 A 
BRANCH  45  46
ATOM     46  C   UNL A   1      38.446  29.866  29.575  1.00  0.00     0.031 A 
ATOM     47  C   UNL A   1      38.633  30.398  30.967  1.00  0.00     0.074 A 
ATOM     48  C   UNL A   1      39.380  29.068  29.011  1.00  0.00     0.049 A 
ATOM     49  N   UNL A   1      39.606  30.178  31.812  1.00  0.00    -0.248 NA
ATOM     50  C   UNL A   1      37.617  31.343  31.455  1.00  0.00     0.031 C 
ATOM     51  C   UNL A   1      39.349  28.574  27.629  1.00  0.00     0.029 A 
ATOM     52  N   UNL A   1      40.532  28.524  29.520  1.00  0.00    -0.354 N 
ATOM     53  C   UNL A   1      39.324  30.964  32.924  1.00  0.00     0.074 A 
ATOM     54  C   UNL A   1      38.143  31.735  32.604  1.00  0.00     0.031 C 
ATOM     55  C   UNL A   1      40.390  27.753  27.425  1.00  0.00     0.029 A 
ATOM     56  C   UNL A   1      41.193  27.694  28.640  1.00  0.00     0.049 A 
ATOM     57  H   UNL A   1      40.857  28.709  30.431  1.00  0.00     0.167 HD
ATOM     58  C   UNL A   1      39.967  31.007  34.117  1.00  0.00     0.034 A 
ATOM     59  C   UNL A   1      42.312  26.961  28.800  1.00  0.00     0.034 A 
ATOM     60  C   UNL A   1      41.137  30.216  34.411  1.00  0.00     0.049 A 
ATOM     61  C   UNL A   1      42.995  27.000  30.144  1.00  0.00     0.074 A 
ATOM     62  C   UNL A   1      41.861  30.142  35.587  1.00  0.00     0.029 A 
ATOM     63  N   UNL A   1      41.756  29.356  33.509  1.00  0.00    -0.354 N 
ATOM     64  N   UNL A   1      42.675  27.698  31.212  1.00  0.00    -0.248 NA
ATOM     65  C   UNL A   1      44.174  26.144  30.313  1.00  0.00     0.031 C 
ATOM     66  C   UNL A   1      42.947  29.283  35.377  1.00  0.00     0.029 A 
ATOM     67  C   UNL A   1      42.860  28.761  34.096  1.00  0.00     0.049 A 
ATOM     68  H   UNL A   1      41.452  29.195  32.586  1.00  0.00     0.167 HD
ATOM     69  C   UNL A   1      43.594  27.335  32.190  1.00  0.00     0.074 A 
ATOM     70  C   UNL A   1      44.465  26.344  31.589  1.00  0.00     0.031 C 
ATOM     71  C   UNL A   1      43.712  27.777  33.469  1.00  0.00     0.034 A 
BRANCH  58  72
ATOM     72  C   UNL A   1      39.415  31.949  35.164  1.00  0.00     0.023 A 
ATOM     73  C   UNL A   1      39.844  33.286  35.246  1.00  0.00     0.031 A 
ATOM     74  C   UNL A   1      38.506  31.492  36.134  1.00  0.00     0.131 A 
ATOM     75  C   UNL A   1      39.451  34.085  36.330  1.00  0.00     0.055 A 
ATOM     76  C   UNL A   1      38.043  32.323  37.157  1.00  0.00     0.041 A 
ATOM     77  F   UNL A   1      38.075  30.222  36.125  1.00  0.00    -0.206 F 
ATOM     78  C   UNL A   1      38.532  33.622  37.272  1.00  0.00     0.022 A 
BRANCH  75  79
ATOM     79  S   UNL A   1      40.298  35.670  36.585  1.00  0.00     0.124 S 
ATOM     80  O   UNL A   1      39.567  36.542  35.669  1.00  0.00    -0.237 OA
ATOM     81  O   UNL A   1      40.087  35.916  38.007  1.00  0.00    -0.237 OA
ATOM     82  O   UNL A   1      41.679  35.387  36.198  1.00  0.00    -0.744 OA
ENDBRANCH  75  79
ENDBRANCH  58  72
BRANCH  59  83
ATOM     83  C   UNL A   1      42.843  26.113  27.690  1.00  0.00     0.023 A 
ATOM     84  C   UNL A   1      42.312  24.837  27.432  1.00  0.00     0.031 A 
ATOM     85  C   UNL A   1      43.914  26.548  26.889  1.00  0.00     0.131 A 
ATOM     86  C   UNL A   1      42.883  24.024  26.439  1.00  0.00     0.055 A 
ATOM     87  C   UNL A   1      44.443  25.757  25.866  1.00  0.00     0.041 A 
ATOM     88  F   UNL A   1      44.458  27.760  27.081  1.00  0.00    -0.206 F 
ATOM     89  C   UNL A   1      43.937  24.480  25.646  1.00  0.00     0.022 A 
BRANCH  86  90
ATOM     90  S   UNL A   1      42.284  22.320  26.256  1.00  0.00     0.124 S 
ATOM     91  O   UNL A   1      42.962  21.896  25.037  1.00  0.00    -0.237 OA
ATOM     92  O   UNL A   1      42.747  21.703  27.495  1.00  0.00    -0.237 OA
ATOM     93  O   UNL A   1      40.836  22.478  26.143  1.00  0.00    -0.744 OA
ENDBRANCH  86  90
ENDBRANCH  59  83
BRANCH  71  94
ATOM     94  C   UNL A   1      44.797  27.147  34.306  1.00  0.00     0.023 A 
ATOM     95  C   UNL A   1      46.089  27.694  34.375  1.00  0.00     0.031 A 
ATOM     96  C   UNL A   1      44.536  25.970  35.028  1.00  0.00     0.131 A 
ATOM     97  C   UNL A   1      47.091  27.028  35.094  1.00  0.00     0.055 A 
ATOM     98  C   UNL A   1      45.518  25.349  35.799  1.00  0.00     0.041 A 
ATOM     99  F   UNL A   1      43.318  25.405  34.998  1.00  0.00    -0.206 F 
ATOM    100  C   UNL A   1      46.809  25.869  35.821  1.00  0.00     0.022 A 
BRANCH  97 101
ATOM    101  S   UNL A   1      48.795  27.636  34.975  1.00  0.00     0.124 S 
ATOM    102  O   UNL A   1      48.593  29.028  34.583  1.00  0.00    -0.237 OA
ATOM    103  O   UNL A   1      49.296  27.423  36.329  1.00  0.00    -0.237 OA
ATOM    104  O   UNL A   1      49.392  26.783  33.950  1.00  0.00    -0.744 OA
ENDBRANCH  97 101
ENDBRANCH  71  94
ENDBRANCH  45  46
ENDBRANCH  37  40
ENDBRANCH  35  36
ENDBRANCH  34  35
ENDBRANCH   1  34
TORSDOF 19
ENDMDL
MODEL 3
REMARK VINA RESULT:     -12.4      2.820      3.649
REMARK SMILES CC(C)[C@@H]1C(=O)Nc2ccccc2N1C(=O)N[C@H](Cc1ccccc1)C(=O)NCCCCNC(=O)c1ccc(-c2c3nc(c(-c4cc(S(=O)(=O)[O-])ccc4F)c4ccc([nH]4)c(-c4cc(S(=O)(=O)[O-])ccc4F)c4nc(c(-c5cc(S(=O)(=O)[O-])ccc5F)c5ccc2[nH]5)C=C4)C=C3)cc1
REMARK SMILES IDX 30 1 29 2 28 3 26 4 27 5 18 7 17 8 15 9 16 10 14 12 4 13
REMARK SMILES IDX 5 14 6 15 7 16 13 17 8 18 12 20 9 21 11 22 10 23 2 24 1 25
REMARK SMILES IDX 3 26 19 27 20 28 21 29 25 30 22 31 24 32 23 33 31 34 32 35
REMARK SMILES IDX 33 36 34 37 35 39 36 40 37 41 98 42 38 43 97 44 39 45 40 46
REMARK SMILES IDX 41 47 91 48 42 49 96 50 90 51 92 52 43 53 95 54 89 55 88 56
REMARK SMILES IDX 44 58 76 59 56 60 75 61 57 62 60 63 74 64 93 65 58 66 59 67
REMARK SMILES IDX 73 69 94 70 61 71 45 72 46 73 54 74 47 75 53 76 55 77 52 78
REMARK SMILES IDX 48 79 49 80 50 81 51 82 77 83 78 84 86 85 79 86 85 87 87 88
REMARK SMILES IDX 84 89 80 90 81 91 82 92 83 93 62 94 63 95 71 96 64 97 70 98
REMARK SMILES IDX 72 99 69 100 65 101 66 102 67 103 68 104
REMARK H PARENT 28 6 17 11 7 19 33 38 92 57 60 68
REMARK Flexibility Score: inf
ROOT
ATOM      1  C   UNL A   1      33.131  29.214  27.482  1.00  0.00     0.023 C 
ENDROOT
BRANCH   1   2
ATOM      2  C   UNL A   1      34.162  28.341  26.728  1.00  0.00     0.116 C 
BRANCH   2   3
ATOM      3  N   UNL A   1      34.293  28.606  25.307  1.00  0.00    -0.354 N 
ATOM      4  C   UNL A   1      33.640  28.017  24.268  1.00  0.00     0.242 C 
ATOM      5  O   UNL A   1      33.112  28.811  23.473  1.00  0.00    -0.273 OA
ATOM      6  H   UNL A   1      34.941  29.304  25.062  1.00  0.00     0.163 HD
BRANCH   4   7
ATOM      7  C   UNL A   1      33.683  26.497  23.896  1.00  0.00     0.177 C 
BRANCH   7   8
ATOM      8  N   UNL A   1      32.643  25.778  23.147  1.00  0.00    -0.326 N 
ATOM      9  C   UNL A   1      31.707  24.829  23.136  1.00  0.00     0.323 C 
ATOM     10  O   UNL A   1      31.119  24.800  22.041  1.00  0.00    -0.248 OA
ATOM     11  H   UNL A   1      32.634  26.177  22.247  1.00  0.00     0.166 HD
BRANCH   9  12
ATOM     12  N   UNL A   1      31.307  24.028  24.163  1.00  0.00    -0.280 N 
ATOM     13  C   UNL A   1      30.273  24.264  25.220  1.00  0.00     0.184 C 
ATOM     14  C   UNL A   1      30.381  23.387  26.493  1.00  0.00     0.247 C 
ATOM     15  O   UNL A   1      29.588  23.481  27.435  1.00  0.00    -0.272 OA
ATOM     16  N   UNL A   1      31.297  22.395  26.532  1.00  0.00    -0.322 N 
ATOM     17  C   UNL A   1      31.906  22.687  24.205  1.00  0.00     0.070 A 
ATOM     18  C   UNL A   1      31.942  21.947  25.391  1.00  0.00     0.065 A 
ATOM     19  H   UNL A   1      31.513  21.978  27.398  1.00  0.00     0.170 HD
ATOM     20  C   UNL A   1      32.336  22.021  23.039  1.00  0.00     0.028 A 
ATOM     21  C   UNL A   1      32.478  20.655  25.448  1.00  0.00     0.028 A 
ATOM     22  C   UNL A   1      32.758  20.682  23.072  1.00  0.00     0.002 A 
ATOM     23  C   UNL A   1      32.849  20.005  24.280  1.00  0.00     0.002 A 
BRANCH  13  24
ATOM     24  C   UNL A   1      30.025  25.680  25.802  1.00  0.00     0.015 C 
ATOM     25  C   UNL A   1      31.200  26.298  26.529  1.00  0.00     0.010 C 
ATOM     26  C   UNL A   1      29.228  26.526  24.800  1.00  0.00     0.010 C 
ENDBRANCH  13  24
ENDBRANCH   9  12
ENDBRANCH   7   8
BRANCH   7  27
ATOM     27  C   UNL A   1      34.517  25.764  25.033  1.00  0.00     0.070 C 
BRANCH  27  28
ATOM     28  C   UNL A   1      35.168  24.388  25.061  1.00  0.00    -0.045 A 
ATOM     29  C   UNL A   1      35.500  23.787  23.824  1.00  0.00     0.004 A 
ATOM     30  C   UNL A   1      35.280  23.586  26.200  1.00  0.00     0.004 A 
ATOM     31  C   UNL A   1      35.994  22.485  23.721  1.00  0.00     0.000 A 
ATOM     32  C   UNL A   1      35.734  22.254  26.094  1.00  0.00     0.000 A 
ATOM     33  C   UNL A   1      36.102  21.709  24.862  1.00  0.00     0.000 A 
ENDBRANCH  27  28
ENDBRANCH   7  27
ENDBRANCH   4   7
ENDBRANCH   2   3
ENDBRANCH   1   2
BRANCH   1  34
ATOM     34  C   UNL A   1      32.834  30.627  26.954  1.00  0.00     0.023 C 
BRANCH  34  35
ATOM     35  C   UNL A   1      33.705  31.715  27.609  1.00  0.00     0.116 C 
BRANCH  35  36
ATOM     36  N   UNL A   1      33.089  33.043  27.645  1.00  0.00    -0.352 N 
ATOM     37  C   UNL A   1      33.322  34.121  28.475  1.00  0.00     0.251 C 
ATOM     38  H   UNL A   1      32.393  33.191  26.964  1.00  0.00     0.163 HD
ATOM     39  O   UNL A   1      32.514  35.049  28.523  1.00  0.00    -0.269 OA
BRANCH  37  40
ATOM     40  C   UNL A   1      34.490  34.112  29.376  1.00  0.00     0.039 A 
ATOM     41  C   UNL A   1      34.345  33.590  30.664  1.00  0.00     0.014 A 
ATOM     42  C   UNL A   1      35.749  34.461  28.895  1.00  0.00     0.014 A 
ATOM     43  C   UNL A   1      35.483  33.228  31.383  1.00  0.00     0.010 A 
ATOM     44  C   UNL A   1      36.871  33.974  29.548  1.00  0.00     0.010 A 
ATOM     45  C   UNL A   1      36.747  33.309  30.777  1.00  0.00    -0.014 A 
BRANCH  45  46
ATOM     46  C   UNL A   1      37.925  32.624  31.373  1.00  0.00     0.031 A 
ATOM     47  C   UNL A   1      38.537  33.139  32.645  1.00  0.00     0.074 A 
ATOM     48  C   UNL A   1      38.488  31.592  30.708  1.00  0.00     0.049 A 
ATOM     49  N   UNL A   1      39.586  32.705  33.293  1.00  0.00    -0.248 NA
ATOM     50  C   UNL A   1      37.916  34.333  33.240  1.00  0.00     0.031 C 
ATOM     51  C   UNL A   1      38.036  31.073  29.411  1.00  0.00     0.029 A 
ATOM     52  N   UNL A   1      39.553  30.785  31.021  1.00  0.00    -0.354 N 
ATOM     53  C   UNL A   1      39.755  33.576  34.363  1.00  0.00     0.074 A 
ATOM     54  C   UNL A   1      38.760  34.615  34.219  1.00  0.00     0.031 C 
ATOM     55  C   UNL A   1      38.773  30.004  29.076  1.00  0.00     0.029 A 
ATOM     56  C   UNL A   1      39.781  29.781  30.105  1.00  0.00     0.049 A 
ATOM     57  H   UNL A   1      40.105  30.912  31.827  1.00  0.00     0.167 HD
ATOM     58  C   UNL A   1      40.633  33.494  35.393  1.00  0.00     0.034 A 
ATOM     59  C   UNL A   1      40.693  28.789  30.102  1.00  0.00     0.034 A 
ATOM     60  C   UNL A   1      41.607  32.437  35.516  1.00  0.00     0.049 A 
ATOM     61  C   UNL A   1      41.640  28.698  31.271  1.00  0.00     0.074 A 
ATOM     62  C   UNL A   1      42.530  32.219  36.523  1.00  0.00     0.029 A 
ATOM     63  N   UNL A   1      41.783  31.414  34.589  1.00  0.00    -0.354 N 
ATOM     64  N   UNL A   1      41.742  29.492  32.314  1.00  0.00    -0.248 NA
ATOM     65  C   UNL A   1      42.579  27.571  31.276  1.00  0.00     0.031 C 
ATOM     66  C   UNL A   1      43.298  31.101  36.178  1.00  0.00     0.029 A 
ATOM     67  C   UNL A   1      42.808  30.574  34.994  1.00  0.00     0.049 A 
ATOM     68  H   UNL A   1      41.256  31.304  33.765  1.00  0.00     0.167 HD
ATOM     69  C   UNL A   1      42.735  28.939  33.116  1.00  0.00     0.074 A 
ATOM     70  C   UNL A   1      43.182  27.734  32.444  1.00  0.00     0.031 C 
ATOM     71  C   UNL A   1      43.234  29.380  34.299  1.00  0.00     0.034 A 
BRANCH  58  72
ATOM     72  C   UNL A   1      40.571  34.583  36.440  1.00  0.00     0.023 A 
ATOM     73  C   UNL A   1      41.606  35.528  36.578  1.00  0.00     0.031 A 
ATOM     74  C   UNL A   1      39.508  34.640  37.357  1.00  0.00     0.131 A 
ATOM     75  C   UNL A   1      41.609  36.413  37.665  1.00  0.00     0.055 A 
ATOM     76  C   UNL A   1      39.470  35.590  38.381  1.00  0.00     0.041 A 
ATOM     77  F   UNL A   1      38.502  33.755  37.295  1.00  0.00    -0.206 F 
ATOM     78  C   UNL A   1      40.535  36.470  38.553  1.00  0.00     0.022 A 
BRANCH  75  79
ATOM     79  S   UNL A   1      43.119  37.362  38.000  1.00  0.00     0.124 S 
ATOM     80  O   UNL A   1      43.970  36.350  38.621  1.00  0.00    -0.237 OA
ATOM     81  O   UNL A   1      43.519  37.803  36.668  1.00  0.00    -0.237 OA
ATOM     82  O   UNL A   1      42.665  38.422  38.899  1.00  0.00    -0.744 OA
ENDBRANCH  75  79
ENDBRANCH  58  72
BRANCH  59  83
ATOM     83  C   UNL A   1      40.743  27.793  28.989  1.00  0.00     0.023 A 
ATOM     84  C   UNL A   1      41.672  27.919  27.941  1.00  0.00     0.031 A 
ATOM     85  C   UNL A   1      39.839  26.716  28.932  1.00  0.00     0.131 A 
ATOM     86  C   UNL A   1      41.645  27.021  26.862  1.00  0.00     0.055 A 
ATOM     87  C   UNL A   1      39.851  25.793  27.884  1.00  0.00     0.041 A 
ATOM     88  F   UNL A   1      38.933  26.538  29.907  1.00  0.00    -0.206 F 
ATOM     89  C   UNL A   1      40.749  25.951  26.833  1.00  0.00     0.022 A 
BRANCH  86  90
ATOM     90  S   UNL A   1      42.742  27.322  25.448  1.00  0.00     0.124 S 
ATOM     91  O   UNL A   1      42.633  26.067  24.714  1.00  0.00    -0.237 OA
ATOM     92  O   UNL A   1      42.119  28.485  24.825  1.00  0.00    -0.237 OA
ATOM     93  O   UNL A   1      44.041  27.571  26.071  1.00  0.00    -0.744 OA
ENDBRANCH  86  90
ENDBRANCH  59  83
BRANCH  71  94
ATOM     94  C   UNL A   1      44.286  28.521  34.954  1.00  0.00     0.023 A 
ATOM     95  C   UNL A   1      43.953  27.535  35.898  1.00  0.00     0.031 A 
ATOM     96  C   UNL A   1      45.643  28.708  34.640  1.00  0.00     0.131 A 
ATOM     97  C   UNL A   1      44.969  26.819  36.546  1.00  0.00     0.055 A 
ATOM     98  C   UNL A   1      46.646  27.944  35.238  1.00  0.00     0.041 A 
ATOM     99  F   UNL A   1      46.017  29.636  33.745  1.00  0.00    -0.206 F 
ATOM    100  C   UNL A   1      46.312  27.005  36.209  1.00  0.00     0.022 A 
BRANCH  97 101
ATOM    101  S   UNL A   1      44.518  25.722  37.917  1.00  0.00     0.124 S 
ATOM    102  O   UNL A   1      43.545  24.834  37.286  1.00  0.00    -0.237 OA
ATOM    103  O   UNL A   1      45.799  25.117  38.266  1.00  0.00    -0.237 OA
ATOM    104  O   UNL A   1      43.968  26.633  38.919  1.00  0.00    -0.744 OA
ENDBRANCH  97 101
ENDBRANCH  71  94
ENDBRANCH  45  46
ENDBRANCH  37  40
ENDBRANCH  35  36
ENDBRANCH  34  35
ENDBRANCH   1  34
TORSDOF 19
ENDMDL
