MODEL 1
REMARK VINA RESULT:     -11.9      0.000      0.000
REMARK SMILES C[C@@H](C(=O)NCCCCNC(=O)c1ccc(-c2c3nc(c(-c4cc(S(=O)(=O)[O-])ccc4F)c4ccc([nH]4)c(-c4cc(S(=O)(=O)[O-])ccc4F)c4nc(c(-c5cc(S(=O)(=O)[O-])ccc5F)c5ccc2[nH]5)C=C4)C=C3)cc1)c1ccc(NC2CCCC2)cc1F
REMARK SMILES IDX 7 1 6 2 5 3 3 4 4 5 2 7 1 8 76 9 77 10 87 11 78 12 86 13
REMARK SMILES IDX 88 14 79 15 80 16 81 18 82 19 85 20 83 21 84 22 8 23 9 24
REMARK SMILES IDX 10 25 11 26 12 28 13 29 14 30 75 31 15 32 74 33 16 34 17 35
REMARK SMILES IDX 18 36 68 37 19 38 73 39 67 40 69 41 20 42 72 43 66 44 65 45
REMARK SMILES IDX 21 47 53 48 33 49 52 50 34 51 37 52 51 53 70 54 35 55 36 56
REMARK SMILES IDX 50 58 71 59 38 60 22 61 23 62 31 63 24 64 30 65 32 66 29 67
REMARK SMILES IDX 25 68 26 69 27 70 28 71 54 72 55 73 63 74 56 75 62 76 64 77
REMARK SMILES IDX 61 78 57 79 58 80 59 81 60 82 39 83 40 84 48 85 41 86 47 87
REMARK SMILES IDX 49 88 46 89 42 90 43 91 44 92 45 93
REMARK H PARENT 5 6 80 17 10 27 69 46 37 57
REMARK Flexibility Score: inf
ROOT
ATOM      1  C   UNL A   1      31.836  27.715  26.965  1.00  0.00     0.023 C 
ENDROOT
BRANCH   1   2
ATOM      2  C   UNL A   1      32.224  26.358  26.375  1.00  0.00     0.116 C 
BRANCH   2   3
ATOM      3  N   UNL A   1      31.357  25.316  26.876  1.00  0.00    -0.356 N 
ATOM      4  C   UNL A   1      30.600  24.406  26.207  1.00  0.00     0.227 C 
ATOM      5  O   UNL A   1      29.884  23.685  26.907  1.00  0.00    -0.274 OA
ATOM      6  H   UNL A   1      31.307  25.256  27.857  1.00  0.00     0.163 HD
BRANCH   4   7
ATOM      7  C   UNL A   1      30.694  24.279  24.673  1.00  0.00     0.108 C 
ATOM      8  C   UNL A   1      32.021  23.688  24.181  1.00  0.00     0.023 C 
BRANCH   7   9
ATOM      9  C   UNL A   1      30.507  25.619  23.980  1.00  0.00     0.000 A 
ATOM     10  C   UNL A   1      31.474  26.099  23.094  1.00  0.00     0.009 A 
ATOM     11  C   UNL A   1      29.363  26.389  24.171  1.00  0.00     0.129 A 
ATOM     12  C   UNL A   1      31.303  27.318  22.442  1.00  0.00     0.026 A 
ATOM     13  C   UNL A   1      29.190  27.608  23.510  1.00  0.00     0.065 A 
ATOM     14  F   UNL A   1      28.389  25.953  24.983  1.00  0.00    -0.207 F 
ATOM     15  C   UNL A   1      30.165  28.105  22.635  1.00  0.00     0.037 A 
BRANCH  15  16
ATOM     16  N   UNL A   1      29.944  29.304  21.986  1.00  0.00    -0.382 N 
ATOM     17  H   UNL A   1      30.614  29.558  21.310  1.00  0.00     0.160 HD
BRANCH  16  18
ATOM     18  C   UNL A   1      28.845  30.239  22.177  1.00  0.00     0.079 C 
ATOM     19  C   UNL A   1      29.116  31.317  23.223  1.00  0.00     0.025 C 
ATOM     20  C   UNL A   1      28.410  30.960  20.901  1.00  0.00     0.025 C 
ATOM     21  C   UNL A   1      28.181  32.452  22.836  1.00  0.00     0.002 C 
ATOM     22  C   UNL A   1      28.028  32.376  21.322  1.00  0.00     0.002 C 
ENDBRANCH  16  18
ENDBRANCH  15  16
ENDBRANCH   7   9
ENDBRANCH   4   7
ENDBRANCH   2   3
ENDBRANCH   1   2
BRANCH   1  23
ATOM     23  C   UNL A   1      31.691  28.839  25.934  1.00  0.00     0.023 C 
BRANCH  23  24
ATOM     24  C   UNL A   1      32.893  29.765  25.821  1.00  0.00     0.116 C 
BRANCH  24  25
ATOM     25  N   UNL A   1      32.568  31.137  26.166  1.00  0.00    -0.352 N 
ATOM     26  C   UNL A   1      33.148  31.953  27.102  1.00  0.00     0.251 C 
ATOM     27  H   UNL A   1      31.828  31.539  25.656  1.00  0.00     0.163 HD
ATOM     28  O   UNL A   1      32.617  33.030  27.373  1.00  0.00    -0.269 OA
BRANCH  26  29
ATOM     29  C   UNL A   1      34.381  31.528  27.798  1.00  0.00     0.039 A 
ATOM     30  C   UNL A   1      34.474  30.212  28.254  1.00  0.00     0.014 A 
ATOM     31  C   UNL A   1      35.434  32.421  28.018  1.00  0.00     0.014 A 
ATOM     32  C   UNL A   1      35.632  29.787  28.907  1.00  0.00     0.010 A 
ATOM     33  C   UNL A   1      36.621  31.972  28.586  1.00  0.00     0.010 A 
ATOM     34  C   UNL A   1      36.724  30.658  29.064  1.00  0.00    -0.014 A 
BRANCH  34  35
ATOM     35  C   UNL A   1      37.949  30.220  29.783  1.00  0.00     0.031 A 
ATOM     36  C   UNL A   1      38.191  30.677  31.199  1.00  0.00     0.074 A 
ATOM     37  C   UNL A   1      38.846  29.430  29.161  1.00  0.00     0.049 A 
ATOM     38  N   UNL A   1      39.192  30.407  31.997  1.00  0.00    -0.248 NA
ATOM     39  C   UNL A   1      37.191  31.583  31.784  1.00  0.00     0.031 C 
ATOM     40  C   UNL A   1      38.739  28.958  27.779  1.00  0.00     0.029 A 
ATOM     41  N   UNL A   1      40.018  28.878  29.609  1.00  0.00    -0.354 N 
ATOM     42  C   UNL A   1      38.948  31.118  33.168  1.00  0.00     0.074 A 
ATOM     43  C   UNL A   1      37.745  31.889  32.945  1.00  0.00     0.031 C 
ATOM     44  C   UNL A   1      39.778  28.151  27.508  1.00  0.00     0.029 A 
ATOM     45  C   UNL A   1      40.647  28.083  28.679  1.00  0.00     0.049 A 
ATOM     46  H   UNL A   1      40.376  29.034  30.513  1.00  0.00     0.167 HD
ATOM     47  C   UNL A   1      39.646  31.107  34.331  1.00  0.00     0.034 A 
ATOM     48  C   UNL A   1      41.793  27.378  28.762  1.00  0.00     0.034 A 
ATOM     49  C   UNL A   1      40.837  30.320  34.538  1.00  0.00     0.049 A 
ATOM     50  C   UNL A   1      42.560  27.393  30.061  1.00  0.00     0.074 A 
ATOM     51  C   UNL A   1      41.596  30.191  35.688  1.00  0.00     0.029 A 
ATOM     52  N   UNL A   1      41.449  29.532  33.570  1.00  0.00    -0.354 N 
ATOM     53  N   UNL A   1      42.284  28.025  31.180  1.00  0.00    -0.248 NA
ATOM     54  C   UNL A   1      43.782  26.581  30.114  1.00  0.00     0.031 C 
ATOM     55  C   UNL A   1      42.706  29.392  35.394  1.00  0.00     0.029 A 
ATOM     56  C   UNL A   1      42.591  28.941  34.088  1.00  0.00     0.049 A 
ATOM     57  H   UNL A   1      41.120  29.411  32.650  1.00  0.00     0.167 HD
ATOM     58  C   UNL A   1      43.277  27.648  32.082  1.00  0.00     0.074 A 
ATOM     59  C   UNL A   1      44.144  26.725  31.379  1.00  0.00     0.031 C 
ATOM     60  C   UNL A   1      43.452  28.024  33.376  1.00  0.00     0.034 A 
BRANCH  47  61
ATOM     61  C   UNL A   1      39.151  31.998  35.449  1.00  0.00     0.023 A 
ATOM     62  C   UNL A   1      39.572  33.334  35.578  1.00  0.00     0.031 A 
ATOM     63  C   UNL A   1      38.266  31.495  36.419  1.00  0.00     0.131 A 
ATOM     64  C   UNL A   1      39.180  34.090  36.694  1.00  0.00     0.055 A 
ATOM     65  C   UNL A   1      37.806  32.281  37.478  1.00  0.00     0.041 A 
ATOM     66  F   UNL A   1      37.845  30.221  36.367  1.00  0.00    -0.206 F 
ATOM     67  C   UNL A   1      38.277  33.582  37.629  1.00  0.00     0.022 A 
BRANCH  64  68
ATOM     68  S   UNL A   1      39.994  35.684  36.989  1.00  0.00     0.124 S 
ATOM     69  O   UNL A   1      39.338  36.127  38.217  1.00  0.00    -0.237 OA
ATOM     70  O   UNL A   1      41.396  35.304  37.114  1.00  0.00    -0.237 OA
ATOM     71  O   UNL A   1      39.662  36.464  35.798  1.00  0.00    -0.744 OA
ENDBRANCH  64  68
ENDBRANCH  47  61
BRANCH  48  72
ATOM     72  C   UNL A   1      42.286  26.589  27.595  1.00  0.00     0.023 A 
ATOM     73  C   UNL A   1      41.929  25.241  27.430  1.00  0.00     0.031 A 
ATOM     74  C   UNL A   1      43.166  27.155  26.656  1.00  0.00     0.131 A 
ATOM     75  C   UNL A   1      42.493  24.489  26.387  1.00  0.00     0.055 A 
ATOM     76  C   UNL A   1      43.676  26.420  25.584  1.00  0.00     0.041 A 
ATOM     77  F   UNL A   1      43.538  28.441  26.762  1.00  0.00    -0.206 F 
ATOM     78  C   UNL A   1      43.352  25.073  25.455  1.00  0.00     0.022 A 
BRANCH  75  79
ATOM     79  S   UNL A   1      42.163  22.706  26.326  1.00  0.00     0.124 S 
ATOM     80  O   UNL A   1      42.949  22.221  27.454  1.00  0.00    -0.237 OA
ATOM     81  O   UNL A   1      40.714  22.660  26.486  1.00  0.00    -0.237 OA
ATOM     82  O   UNL A   1      42.656  22.315  25.007  1.00  0.00    -0.744 OA
ENDBRANCH  75  79
ENDBRANCH  48  72
BRANCH  60  83
ATOM     83  C   UNL A   1      44.590  27.379  34.132  1.00  0.00     0.023 A 
ATOM     84  C   UNL A   1      44.436  26.160  34.817  1.00  0.00     0.031 A 
ATOM     85  C   UNL A   1      45.844  28.014  34.192  1.00  0.00     0.131 A 
ATOM     86  C   UNL A   1      45.490  25.657  35.594  1.00  0.00     0.055 A 
ATOM     87  C   UNL A   1      46.913  27.468  34.903  1.00  0.00     0.041 A 
ATOM     88  F   UNL A   1      46.051  29.181  33.561  1.00  0.00    -0.206 F 
ATOM     89  C   UNL A   1      46.734  26.294  35.626  1.00  0.00     0.022 A 
BRANCH  86  90
ATOM     90  S   UNL A   1      45.173  24.232  36.671  1.00  0.00     0.124 S 
ATOM     91  O   UNL A   1      46.511  23.925  37.167  1.00  0.00    -0.237 OA
ATOM     92  O   UNL A   1      44.243  24.783  37.651  1.00  0.00    -0.237 OA
ATOM     93  O   UNL A   1      44.603  23.237  35.765  1.00  0.00    -0.744 OA
ENDBRANCH  86  90
ENDBRANCH  60  83
ENDBRANCH  34  35
ENDBRANCH  26  29
ENDBRANCH  24  25
ENDBRANCH  23  24
ENDBRANCH   1  23
TORSDOF 17
ENDMDL
MODEL 2
REMARK VINA RESULT:     -11.9      3.102      5.210
REMARK SMILES C[C@@H](C(=O)NCCCCNC(=O)c1ccc(-c2c3nc(c(-c4cc(S(=O)(=O)[O-])ccc4F)c4ccc([nH]4)c(-c4cc(S(=O)(=O)[O-])ccc4F)c4nc(c(-c5cc(S(=O)(=O)[O-])ccc5F)c5ccc2[nH]5)C=C4)C=C3)cc1)c1ccc(NC2CCCC2)cc1F
REMARK SMILES IDX 7 1 6 2 5 3 3 4 4 5 2 7 1 8 76 9 77 10 87 11 78 12 86 13
REMARK SMILES IDX 88 14 79 15 80 16 81 18 82 19 85 20 83 21 84 22 8 23 9 24
REMARK SMILES IDX 10 25 11 26 12 28 13 29 14 30 75 31 15 32 74 33 16 34 17 35
REMARK SMILES IDX 18 36 68 37 19 38 73 39 67 40 69 41 20 42 72 43 66 44 65 45
REMARK SMILES IDX 21 47 53 48 33 49 52 50 34 51 37 52 51 53 70 54 35 55 36 56
REMARK SMILES IDX 50 58 71 59 38 60 22 61 23 62 31 63 24 64 30 65 32 66 29 67
REMARK SMILES IDX 25 68 26 69 27 70 28 71 54 72 55 73 63 74 56 75 62 76 64 77
REMARK SMILES IDX 61 78 57 79 58 80 59 81 60 82 39 83 40 84 48 85 41 86 47 87
REMARK SMILES IDX 49 88 46 89 42 90 43 91 44 92 45 93
REMARK H PARENT 5 6 80 17 10 27 69 46 37 57
REMARK Flexibility Score: inf
ROOT
ATOM      1  C   UNL A   1      31.499  28.693  26.053  1.00  0.00     0.023 C 
ENDROOT
BRANCH   1   2
ATOM      2  C   UNL A   1      31.727  27.585  27.083  1.00  0.00     0.116 C 
BRANCH   2   3
ATOM      3  N   UNL A   1      31.103  26.354  26.655  1.00  0.00    -0.356 N 
ATOM      4  C   UNL A   1      31.647  25.243  26.090  1.00  0.00     0.227 C 
ATOM      5  O   UNL A   1      30.847  24.369  25.745  1.00  0.00    -0.274 OA
ATOM      6  H   UNL A   1      30.129  26.313  26.795  1.00  0.00     0.163 HD
BRANCH   4   7
ATOM      7  C   UNL A   1      33.177  25.099  25.951  1.00  0.00     0.108 C 
ATOM      8  C   UNL A   1      33.776  25.935  24.814  1.00  0.00     0.023 C 
BRANCH   7   9
ATOM      9  C   UNL A   1      33.592  23.655  25.723  1.00  0.00     0.000 A 
ATOM     10  C   UNL A   1      33.812  23.177  24.429  1.00  0.00     0.009 A 
ATOM     11  C   UNL A   1      33.804  22.777  26.783  1.00  0.00     0.129 A 
ATOM     12  C   UNL A   1      34.209  21.860  24.213  1.00  0.00     0.026 A 
ATOM     13  C   UNL A   1      34.210  21.459  26.564  1.00  0.00     0.065 A 
ATOM     14  F   UNL A   1      33.642  23.200  28.046  1.00  0.00    -0.207 F 
ATOM     15  C   UNL A   1      34.413  20.967  25.267  1.00  0.00     0.037 A 
BRANCH  15  16
ATOM     16  N   UNL A   1      34.834  19.663  25.096  1.00  0.00    -0.382 N 
ATOM     17  H   UNL A   1      35.749  19.462  25.399  1.00  0.00     0.160 HD
BRANCH  16  18
ATOM     18  C   UNL A   1      34.093  18.548  24.525  1.00  0.00     0.079 C 
ATOM     19  C   UNL A   1      34.911  17.270  24.367  1.00  0.00     0.025 C 
ATOM     20  C   UNL A   1      32.831  18.174  25.302  1.00  0.00     0.025 C 
ATOM     21  C   UNL A   1      33.868  16.162  24.352  1.00  0.00     0.002 C 
ATOM     22  C   UNL A   1      32.717  16.654  25.221  1.00  0.00     0.002 C 
ENDBRANCH  16  18
ENDBRANCH  15  16
ENDBRANCH   7   9
ENDBRANCH   4   7
ENDBRANCH   2   3
ENDBRANCH   1   2
BRANCH   1  23
ATOM     23  C   UNL A   1      32.782  29.263  25.439  1.00  0.00     0.023 C 
BRANCH  23  24
ATOM     24  C   UNL A   1      33.866  29.629  26.443  1.00  0.00     0.116 C 
BRANCH  24  25
ATOM     25  N   UNL A   1      33.664  30.947  27.019  1.00  0.00    -0.352 N 
ATOM     26  C   UNL A   1      34.394  31.587  27.986  1.00  0.00     0.251 C 
ATOM     27  H   UNL A   1      32.897  31.452  26.665  1.00  0.00     0.163 HD
ATOM     28  O   UNL A   1      33.962  32.632  28.472  1.00  0.00    -0.269 OA
BRANCH  26  29
ATOM     29  C   UNL A   1      35.670  31.010  28.460  1.00  0.00     0.039 A 
ATOM     30  C   UNL A   1      35.632  29.893  29.296  1.00  0.00     0.014 A 
ATOM     31  C   UNL A   1      36.898  31.575  28.099  1.00  0.00     0.014 A 
ATOM     32  C   UNL A   1      36.825  29.328  29.748  1.00  0.00     0.010 A 
ATOM     33  C   UNL A   1      38.085  30.956  28.477  1.00  0.00     0.010 A 
ATOM     34  C   UNL A   1      38.064  29.843  29.330  1.00  0.00    -0.014 A 
BRANCH  34  35
ATOM     35  C   UNL A   1      39.337  29.264  29.830  1.00  0.00     0.031 A 
ATOM     36  C   UNL A   1      39.981  29.827  31.071  1.00  0.00     0.074 A 
ATOM     37  C   UNL A   1      39.920  28.248  29.164  1.00  0.00     0.049 A 
ATOM     38  N   UNL A   1      41.086  29.463  31.670  1.00  0.00    -0.248 NA
ATOM     39  C   UNL A   1      39.309  30.972  31.706  1.00  0.00     0.031 C 
ATOM     40  C   UNL A   1      39.412  27.648  27.928  1.00  0.00     0.029 A 
ATOM     41  N   UNL A   1      41.060  27.535  29.433  1.00  0.00    -0.354 N 
ATOM     42  C   UNL A   1      41.246  30.340  32.739  1.00  0.00     0.074 A 
ATOM     43  C   UNL A   1      40.166  31.298  32.659  1.00  0.00     0.031 C 
ATOM     44  C   UNL A   1      40.212  26.630  27.573  1.00  0.00     0.029 A 
ATOM     45  C   UNL A   1      41.312  26.531  28.527  1.00  0.00     0.049 A 
ATOM     46  H   UNL A   1      41.644  27.724  30.203  1.00  0.00     0.167 HD
ATOM     47  C   UNL A   1      42.191  30.330  33.713  1.00  0.00     0.034 A 
ATOM     48  C   UNL A   1      42.316  25.633  28.473  1.00  0.00     0.034 A 
ATOM     49  C   UNL A   1      43.253  29.356  33.783  1.00  0.00     0.049 A 
ATOM     50  C   UNL A   1      43.362  25.650  29.560  1.00  0.00     0.074 A 
ATOM     51  C   UNL A   1      44.233  29.218  34.750  1.00  0.00     0.029 A 
ATOM     52  N   UNL A   1      43.481  28.358  32.843  1.00  0.00    -0.354 N 
ATOM     53  N   UNL A   1      43.467  26.450  30.598  1.00  0.00    -0.248 NA
ATOM     54  C   UNL A   1      44.414  24.629  29.478  1.00  0.00     0.031 C 
ATOM     55  C   UNL A   1      45.097  28.191  34.356  1.00  0.00     0.029 A 
ATOM     56  C   UNL A   1      44.603  27.621  33.192  1.00  0.00     0.049 A 
ATOM     57  H   UNL A   1      42.927  28.197  32.046  1.00  0.00     0.167 HD
ATOM     58  C   UNL A   1      44.572  25.995  31.315  1.00  0.00     0.074 A 
ATOM     59  C   UNL A   1      45.086  24.846  30.598  1.00  0.00     0.031 C 
ATOM     60  C   UNL A   1      45.109  26.479  32.466  1.00  0.00     0.034 A 
BRANCH  47  61
ATOM     61  C   UNL A   1      42.127  31.423  34.756  1.00  0.00     0.023 A 
ATOM     62  C   UNL A   1      41.122  31.455  35.741  1.00  0.00     0.031 A 
ATOM     63  C   UNL A   1      43.066  32.469  34.747  1.00  0.00     0.131 A 
ATOM     64  C   UNL A   1      41.030  32.548  36.616  1.00  0.00     0.055 A 
ATOM     65  C   UNL A   1      43.024  33.508  35.680  1.00  0.00     0.041 A 
ATOM     66  F   UNL A   1      44.036  32.511  33.820  1.00  0.00    -0.206 F 
ATOM     67  C   UNL A   1      41.991  33.560  36.611  1.00  0.00     0.022 A 
BRANCH  64  68
ATOM     68  S   UNL A   1      39.547  32.708  37.647  1.00  0.00     0.124 S 
ATOM     69  O   UNL A   1      39.051  34.024  37.250  1.00  0.00    -0.237 OA
ATOM     70  O   UNL A   1      38.743  31.567  37.224  1.00  0.00    -0.237 OA
ATOM     71  O   UNL A   1      40.067  32.633  39.011  1.00  0.00    -0.744 OA
ENDBRANCH  64  68
ENDBRANCH  47  61
BRANCH  48  72
ATOM     72  C   UNL A   1      42.382  24.632  27.367  1.00  0.00     0.023 A 
ATOM     73  C   UNL A   1      41.600  23.466  27.399  1.00  0.00     0.031 A 
ATOM     74  C   UNL A   1      43.268  24.801  26.289  1.00  0.00     0.131 A 
ATOM     75  C   UNL A   1      41.761  22.488  26.405  1.00  0.00     0.055 A 
ATOM     76  C   UNL A   1      43.380  23.854  25.270  1.00  0.00     0.041 A 
ATOM     77  F   UNL A   1      44.036  25.899  26.206  1.00  0.00    -0.206 F 
ATOM     78  C   UNL A   1      42.634  22.681  25.333  1.00  0.00     0.022 A 
BRANCH  75  79
ATOM     79  S   UNL A   1      40.881  20.912  26.588  1.00  0.00     0.124 S 
ATOM     80  O   UNL A   1      39.583  21.228  26.003  1.00  0.00    -0.237 OA
ATOM     81  O   UNL A   1      41.727  20.003  25.821  1.00  0.00    -0.237 OA
ATOM     82  O   UNL A   1      40.879  20.690  28.032  1.00  0.00    -0.744 OA
ENDBRANCH  75  79
ENDBRANCH  48  72
BRANCH  60  83
ATOM     83  C   UNL A   1      46.275  25.717  33.054  1.00  0.00     0.023 A 
ATOM     84  C   UNL A   1      47.581  25.847  32.550  1.00  0.00     0.031 A 
ATOM     85  C   UNL A   1      46.066  24.821  34.118  1.00  0.00     0.131 A 
ATOM     86  C   UNL A   1      48.610  25.038  33.055  1.00  0.00     0.055 A 
ATOM     87  C   UNL A   1      47.109  24.077  34.669  1.00  0.00     0.041 A 
ATOM     88  F   UNL A   1      44.840  24.652  34.639  1.00  0.00    -0.206 F 
ATOM     89  C   UNL A   1      48.385  24.167  34.125  1.00  0.00     0.022 A 
BRANCH  86  90
ATOM     90  S   UNL A   1      50.214  25.039  32.208  1.00  0.00     0.124 S 
ATOM     91  O   UNL A   1      49.848  25.481  30.867  1.00  0.00    -0.237 OA
ATOM     92  O   UNL A   1      50.985  25.989  33.004  1.00  0.00    -0.237 OA
ATOM     93  O   UNL A   1      50.654  23.648  32.304  1.00  0.00    -0.744 OA
ENDBRANCH  86  90
ENDBRANCH  60  83
ENDBRANCH  34  35
ENDBRANCH  26  29
ENDBRANCH  24  25
ENDBRANCH  23  24
ENDBRANCH   1  23
TORSDOF 17
ENDMDL
MODEL 3
REMARK VINA RESULT:     -11.7      4.870      9.583
REMARK SMILES C[C@@H](C(=O)NCCCCNC(=O)c1ccc(-c2c3nc(c(-c4cc(S(=O)(=O)[O-])ccc4F)c4ccc([nH]4)c(-c4cc(S(=O)(=O)[O-])ccc4F)c4nc(c(-c5cc(S(=O)(=O)[O-])ccc5F)c5ccc2[nH]5)C=C4)C=C3)cc1)c1ccc(NC2CCCC2)cc1F
REMARK SMILES IDX 7 1 6 2 5 3 3 4 4 5 2 7 1 8 76 9 77 10 87 11 78 12 86 13
REMARK SMILES IDX 88 14 79 15 80 16 81 18 82 19 85 20 83 21 84 22 8 23 9 24
REMARK SMILES IDX 10 25 11 26 12 28 13 29 14 30 75 31 15 32 74 33 16 34 17 35
REMARK SMILES IDX 18 36 68 37 19 38 73 39 67 40 69 41 20 42 72 43 66 44 65 45
REMARK SMILES IDX 21 47 53 48 33 49 52 50 34 51 37 52 51 53 70 54 35 55 36 56
REMARK SMILES IDX 50 58 71 59 38 60 22 61 23 62 31 63 24 64 30 65 32 66 29 67
REMARK SMILES IDX 25 68 26 69 27 70 28 71 54 72 55 73 63 74 56 75 62 76 64 77
REMARK SMILES IDX 61 78 57 79 58 80 59 81 60 82 39 83 40 84 48 85 41 86 47 87
REMARK SMILES IDX 49 88 46 89 42 90 43 91 44 92 45 93
REMARK H PARENT 5 6 80 17 10 27 69 46 37 57
REMARK Flexibility Score: inf
ROOT
ATOM      1  C   UNL A   1      35.540  22.823  23.667  1.00  0.00     0.023 C 
ENDROOT
BRANCH   1   2
ATOM      2  C   UNL A   1      34.344  23.472  22.968  1.00  0.00     0.116 C 
BRANCH   2   3
ATOM      3  N   UNL A   1      33.102  23.013  23.547  1.00  0.00    -0.356 N 
ATOM      4  C   UNL A   1      32.321  23.574  24.509  1.00  0.00     0.227 C 
ATOM      5  O   UNL A   1      31.350  22.903  24.870  1.00  0.00    -0.274 OA
ATOM      6  H   UNL A   1      32.769  22.159  23.188  1.00  0.00     0.163 HD
BRANCH   4   7
ATOM      7  C   UNL A   1      32.633  24.982  25.055  1.00  0.00     0.108 C 
ATOM      8  C   UNL A   1      32.159  25.206  26.496  1.00  0.00     0.023 C 
BRANCH   7   9
ATOM      9  C   UNL A   1      32.014  26.072  24.196  1.00  0.00     0.000 A 
ATOM     10  C   UNL A   1      30.634  26.107  23.981  1.00  0.00     0.009 A 
ATOM     11  C   UNL A   1      32.784  27.087  23.633  1.00  0.00     0.129 A 
ATOM     12  C   UNL A   1      30.057  27.112  23.209  1.00  0.00     0.026 A 
ATOM     13  C   UNL A   1      32.201  28.099  22.866  1.00  0.00     0.065 A 
ATOM     14  F   UNL A   1      34.108  27.119  23.842  1.00  0.00    -0.207 F 
ATOM     15  C   UNL A   1      30.821  28.128  22.629  1.00  0.00     0.037 A 
BRANCH  15  16
ATOM     16  N   UNL A   1      30.283  29.158  21.881  1.00  0.00    -0.382 N 
ATOM     17  H   UNL A   1      30.764  29.385  21.053  1.00  0.00     0.160 HD
BRANCH  16  18
ATOM     18  C   UNL A   1      29.093  29.947  22.166  1.00  0.00     0.079 C 
ATOM     19  C   UNL A   1      29.080  30.579  23.555  1.00  0.00     0.025 C 
ATOM     20  C   UNL A   1      28.838  31.074  21.164  1.00  0.00     0.025 C 
ATOM     21  C   UNL A   1      28.140  31.765  23.413  1.00  0.00     0.002 C 
ATOM     22  C   UNL A   1      28.269  32.238  21.971  1.00  0.00     0.002 C 
ENDBRANCH  16  18
ENDBRANCH  15  16
ENDBRANCH   7   9
ENDBRANCH   4   7
ENDBRANCH   2   3
ENDBRANCH   1   2
BRANCH   1  23
ATOM     23  C   UNL A   1      36.303  23.752  24.617  1.00  0.00     0.023 C 
BRANCH  23  24
ATOM     24  C   UNL A   1      36.495  23.210  26.026  1.00  0.00     0.116 C 
BRANCH  24  25
ATOM     25  N   UNL A   1      37.595  22.266  26.110  1.00  0.00    -0.352 N 
ATOM     26  C   UNL A   1      38.912  22.499  26.409  1.00  0.00     0.251 C 
ATOM     27  H   UNL A   1      37.362  21.327  25.928  1.00  0.00     0.163 HD
ATOM     28  O   UNL A   1      39.732  21.594  26.257  1.00  0.00    -0.269 OA
BRANCH  26  29
ATOM     29  C   UNL A   1      39.344  23.832  26.879  1.00  0.00     0.039 A 
ATOM     30  C   UNL A   1      39.795  24.761  25.941  1.00  0.00     0.014 A 
ATOM     31  C   UNL A   1      39.324  24.162  28.238  1.00  0.00     0.014 A 
ATOM     32  C   UNL A   1      40.200  26.028  26.362  1.00  0.00     0.010 A 
ATOM     33  C   UNL A   1      39.641  25.454  28.645  1.00  0.00     0.010 A 
ATOM     34  C   UNL A   1      40.111  26.393  27.716  1.00  0.00    -0.014 A 
BRANCH  34  35
ATOM     35  C   UNL A   1      40.568  27.731  28.176  1.00  0.00     0.031 A 
ATOM     36  C   UNL A   1      42.028  28.093  28.095  1.00  0.00     0.074 A 
ATOM     37  C   UNL A   1      39.677  28.608  28.677  1.00  0.00     0.049 A 
ATOM     38  N   UNL A   1      42.627  29.204  28.441  1.00  0.00    -0.248 NA
ATOM     39  C   UNL A   1      42.942  27.057  27.588  1.00  0.00     0.031 C 
ATOM     40  C   UNL A   1      38.244  28.354  28.843  1.00  0.00     0.029 A 
ATOM     41  N   UNL A   1      39.839  29.891  29.132  1.00  0.00    -0.354 N 
ATOM     42  C   UNL A   1      43.983  28.996  28.205  1.00  0.00     0.074 A 
ATOM     43  C   UNL A   1      44.123  27.627  27.760  1.00  0.00     0.031 C 
ATOM     44  C   UNL A   1      37.653  29.462  29.319  1.00  0.00     0.029 A 
ATOM     45  C   UNL A   1      38.667  30.489  29.536  1.00  0.00     0.049 A 
ATOM     46  H   UNL A   1      40.713  30.344  29.168  1.00  0.00     0.167 HD
ATOM     47  C   UNL A   1      45.011  29.873  28.323  1.00  0.00     0.034 A 
ATOM     48  C   UNL A   1      38.438  31.725  30.022  1.00  0.00     0.034 A 
ATOM     49  C   UNL A   1      44.848  31.239  28.756  1.00  0.00     0.049 A 
ATOM     50  C   UNL A   1      39.599  32.678  30.156  1.00  0.00     0.074 A 
ATOM     51  C   UNL A   1      45.808  32.230  28.862  1.00  0.00     0.029 A 
ATOM     52  N   UNL A   1      43.646  31.807  29.162  1.00  0.00    -0.354 N 
ATOM     53  N   UNL A   1      40.868  32.484  29.874  1.00  0.00    -0.248 NA
ATOM     54  C   UNL A   1      39.293  34.024  30.656  1.00  0.00     0.031 C 
ATOM     55  C   UNL A   1      45.205  33.368  29.406  1.00  0.00     0.029 A 
ATOM     56  C   UNL A   1      43.848  33.123  29.549  1.00  0.00     0.049 A 
ATOM     57  H   UNL A   1      42.778  31.343  29.174  1.00  0.00     0.167 HD
ATOM     58  C   UNL A   1      41.501  33.701  30.120  1.00  0.00     0.074 A 
ATOM     59  C   UNL A   1      40.471  34.620  30.558  1.00  0.00     0.031 C 
ATOM     60  C   UNL A   1      42.813  34.030  29.988  1.00  0.00     0.034 A 
BRANCH  47  61
ATOM     61  C   UNL A   1      46.400  29.363  28.006  1.00  0.00     0.023 A 
ATOM     62  C   UNL A   1      46.782  29.005  26.700  1.00  0.00     0.031 A 
ATOM     63  C   UNL A   1      47.348  29.202  29.031  1.00  0.00     0.131 A 
ATOM     64  C   UNL A   1      48.040  28.428  26.469  1.00  0.00     0.055 A 
ATOM     65  C   UNL A   1      48.632  28.712  28.779  1.00  0.00     0.041 A 
ATOM     66  F   UNL A   1      47.040  29.502  30.303  1.00  0.00    -0.206 F 
ATOM     67  C   UNL A   1      48.977  28.305  27.495  1.00  0.00     0.022 A 
BRANCH  64  68
ATOM     68  S   UNL A   1      48.368  27.691  24.844  1.00  0.00     0.124 S 
ATOM     69  O   UNL A   1      47.291  28.261  24.038  1.00  0.00    -0.237 OA
ATOM     70  O   UNL A   1      49.713  28.171  24.545  1.00  0.00    -0.237 OA
ATOM     71  O   UNL A   1      48.258  26.254  25.090  1.00  0.00    -0.744 OA
ENDBRANCH  64  68
ENDBRANCH  47  61
BRANCH  48  72
ATOM     72  C   UNL A   1      37.058  32.146  30.407  1.00  0.00     0.023 A 
ATOM     73  C   UNL A   1      36.164  32.656  29.452  1.00  0.00     0.031 A 
ATOM     74  C   UNL A   1      36.631  32.094  31.745  1.00  0.00     0.131 A 
ATOM     75  C   UNL A   1      34.913  33.149  29.856  1.00  0.00     0.055 A 
ATOM     76  C   UNL A   1      35.363  32.528  32.134  1.00  0.00     0.041 A 
ATOM     77  F   UNL A   1      37.443  31.611  32.700  1.00  0.00    -0.206 F 
ATOM     78  C   UNL A   1      34.501  33.074  31.188  1.00  0.00     0.022 A 
BRANCH  75  79
ATOM     79  S   UNL A   1      33.869  33.981  28.627  1.00  0.00     0.124 S 
ATOM     80  O   UNL A   1      32.858  34.605  29.472  1.00  0.00    -0.237 OA
ATOM     81  O   UNL A   1      34.818  34.885  27.986  1.00  0.00    -0.237 OA
ATOM     82  O   UNL A   1      33.392  32.883  27.788  1.00  0.00    -0.744 OA
ENDBRANCH  75  79
ENDBRANCH  48  72
BRANCH  60  83
ATOM     83  C   UNL A   1      43.190  35.469  30.259  1.00  0.00     0.023 A 
ATOM     84  C   UNL A   1      43.087  36.466  29.273  1.00  0.00     0.031 A 
ATOM     85  C   UNL A   1      43.692  35.840  31.520  1.00  0.00     0.131 A 
ATOM     86  C   UNL A   1      43.553  37.762  29.538  1.00  0.00     0.055 A 
ATOM     87  C   UNL A   1      44.080  37.149  31.803  1.00  0.00     0.041 A 
ATOM     88  F   UNL A   1      43.817  34.930  32.501  1.00  0.00    -0.206 F 
ATOM     89  C   UNL A   1      44.031  38.115  30.803  1.00  0.00     0.022 A 
BRANCH  86  90
ATOM     90  S   UNL A   1      43.651  38.949  28.169  1.00  0.00     0.124 S 
ATOM     91  O   UNL A   1      42.303  38.882  27.614  1.00  0.00    -0.237 OA
ATOM     92  O   UNL A   1      43.995  40.189  28.857  1.00  0.00    -0.237 OA
ATOM     93  O   UNL A   1      44.703  38.401  27.315  1.00  0.00    -0.744 OA
ENDBRANCH  86  90
ENDBRANCH  60  83
ENDBRANCH  34  35
ENDBRANCH  26  29
ENDBRANCH  24  25
ENDBRANCH  23  24
ENDBRANCH   1  23
TORSDOF 17
ENDMDL
