MODEL 1
REMARK VINA RESULT:     -11.5      0.000      0.000
REMARK SMILES COc1ccc(C(=O)NCCCCNC(=O)c2ccc(-c3c4nc(c(-c5cc(S(=O)(=O)[O-])ccc5F)c5ccc([nH]5)c(-c5cc(S(=O)(=O)[O-])ccc5F)c5nc(c(-c6cc(S(=O)(=O)[O-])ccc6F)c6ccc3[nH]6)C=C5)C=C4)cc2)cc1NCc1cc(C#N)cs1
REMARK SMILES IDX 11 1 10 2 9 3 7 4 8 5 6 7 3 8 4 9 81 10 5 11 80 12 2 13 1 14
REMARK SMILES IDX 82 15 83 17 84 18 85 19 90 20 86 21 89 22 87 23 88 24 12 25
REMARK SMILES IDX 13 26 14 27 15 28 16 30 17 31 18 32 79 33 19 34 78 35 20 36
REMARK SMILES IDX 21 37 22 38 72 39 23 40 77 41 71 42 73 43 24 44 76 45 70 46
REMARK SMILES IDX 69 47 25 49 57 50 37 51 56 52 38 53 41 54 55 55 74 56 39 57
REMARK SMILES IDX 40 58 54 60 75 61 42 62 26 63 27 64 35 65 28 66 34 67 36 68
REMARK SMILES IDX 33 69 29 70 30 71 31 72 32 73 58 74 59 75 67 76 60 77 66 78
REMARK SMILES IDX 68 79 65 80 61 81 62 82 63 83 64 84 43 85 44 86 52 87 45 88
REMARK SMILES IDX 51 89 53 90 50 91 46 92 47 93 48 94 49 95
REMARK H PARENT 9 6 82 16 14 29 73 48 41 59
REMARK Flexibility Score: inf
ROOT
ATOM      1  C   UNL A   1      33.376  29.306  24.295  1.00  0.00     0.023 C 
ENDROOT
BRANCH   1   2
ATOM      2  C   UNL A   1      33.242  28.949  22.812  1.00  0.00     0.116 C 
BRANCH   2   3
ATOM      3  N   UNL A   1      31.880  29.172  22.367  1.00  0.00    -0.352 N 
ATOM      4  C   UNL A   1      30.756  28.383  22.413  1.00  0.00     0.251 C 
ATOM      5  O   UNL A   1      29.714  28.840  21.943  1.00  0.00    -0.269 OA
ATOM      6  H   UNL A   1      31.732  30.054  21.956  1.00  0.00     0.163 HD
BRANCH   4   7
ATOM      7  C   UNL A   1      30.733  27.042  23.063  1.00  0.00     0.042 A 
ATOM      8  C   UNL A   1      30.803  24.572  24.414  1.00  0.00     0.142 A 
ATOM      9  C   UNL A   1      30.276  25.730  25.023  1.00  0.00     0.049 A 
ATOM     10  C   UNL A   1      31.320  24.638  23.104  1.00  0.00     0.078 A 
ATOM     11  C   UNL A   1      30.284  26.962  24.375  1.00  0.00     0.018 A 
ATOM     12  C   UNL A   1      31.135  25.861  22.433  1.00  0.00     0.043 A 
BRANCH   8  13
ATOM     13  O   UNL A   1      30.635  23.482  25.227  1.00  0.00    -0.495 OA
ATOM     14  C   UNL A   1      30.725  23.625  26.629  1.00  0.00     0.278 C 
ENDBRANCH   8  13
BRANCH  10  15
ATOM     15  N   UNL A   1      31.920  23.583  22.433  1.00  0.00    -0.377 N 
ATOM     16  H   UNL A   1      31.393  23.143  21.727  1.00  0.00     0.161 HD
BRANCH  15  17
ATOM     17  C   UNL A   1      33.268  23.061  22.676  1.00  0.00     0.160 C 
BRANCH  17  18
ATOM     18  C   UNL A   1      33.353  22.036  23.780  1.00  0.00     0.025 A 
ATOM     19  C   UNL A   1      32.813  20.761  23.830  1.00  0.00     0.036 A 
ATOM     20  S   UNL A   1      34.178  22.420  25.237  1.00  0.00    -0.146 S 
ATOM     21  C   UNL A   1      33.095  20.098  25.064  1.00  0.00     0.063 A 
ATOM     22  C   UNL A   1      33.832  20.889  25.916  1.00  0.00     0.084 A 
BRANCH  21  23
ATOM     23  C   UNL A   1      32.686  18.767  25.413  1.00  0.00     0.100 C 
ATOM     24  N   UNL A   1      32.386  17.691  25.712  1.00  0.00    -0.192 NA
ENDBRANCH  21  23
ENDBRANCH  17  18
ENDBRANCH  15  17
ENDBRANCH  10  15
ENDBRANCH   4   7
ENDBRANCH   2   3
ENDBRANCH   1   2
BRANCH   1  25
ATOM     25  C   UNL A   1      33.752  28.113  25.172  1.00  0.00     0.023 C 
BRANCH  25  26
ATOM     26  C   UNL A   1      33.899  28.455  26.648  1.00  0.00     0.116 C 
BRANCH  26  27
ATOM     27  N   UNL A   1      33.680  29.866  26.919  1.00  0.00    -0.352 N 
ATOM     28  C   UNL A   1      34.450  30.713  27.676  1.00  0.00     0.251 C 
ATOM     29  H   UNL A   1      32.880  30.264  26.507  1.00  0.00     0.163 HD
ATOM     30  O   UNL A   1      34.028  31.832  27.950  1.00  0.00    -0.269 OA
BRANCH  28  31
ATOM     31  C   UNL A   1      35.756  30.243  28.181  1.00  0.00     0.039 A 
ATOM     32  C   UNL A   1      35.819  29.659  29.445  1.00  0.00     0.014 A 
ATOM     33  C   UNL A   1      36.909  30.360  27.398  1.00  0.00     0.014 A 
ATOM     34  C   UNL A   1      37.038  29.172  29.912  1.00  0.00     0.010 A 
ATOM     35  C   UNL A   1      38.095  29.771  27.818  1.00  0.00     0.010 A 
ATOM     36  C   UNL A   1      38.183  29.205  29.097  1.00  0.00    -0.014 A 
BRANCH  36  37
ATOM     37  C   UNL A   1      39.487  28.707  29.603  1.00  0.00     0.031 A 
ATOM     38  C   UNL A   1      40.163  29.401  30.755  1.00  0.00     0.074 A 
ATOM     39  C   UNL A   1      40.062  27.637  29.024  1.00  0.00     0.049 A 
ATOM     40  N   UNL A   1      41.282  29.100  31.361  1.00  0.00    -0.248 NA
ATOM     41  C   UNL A   1      39.510  30.614  31.271  1.00  0.00     0.031 C 
ATOM     42  C   UNL A   1      39.532  26.921  27.863  1.00  0.00     0.029 A 
ATOM     43  N   UNL A   1      41.214  26.960  29.335  1.00  0.00    -0.354 N 
ATOM     44  C   UNL A   1      41.469  30.088  32.323  1.00  0.00     0.074 A 
ATOM     45  C   UNL A   1      40.400  31.045  32.150  1.00  0.00     0.031 C 
ATOM     46  C   UNL A   1      40.329  25.879  27.589  1.00  0.00     0.029 A 
ATOM     47  C   UNL A   1      41.455  25.882  28.518  1.00  0.00     0.049 A 
ATOM     48  H   UNL A   1      41.810  27.222  30.074  1.00  0.00     0.167 HD
ATOM     49  C   UNL A   1      42.423  30.170  33.284  1.00  0.00     0.034 A 
ATOM     50  C   UNL A   1      42.473  24.999  28.510  1.00  0.00     0.034 A 
ATOM     51  C   UNL A   1      43.489  29.208  33.427  1.00  0.00     0.049 A 
ATOM     52  C   UNL A   1      43.542  25.119  29.564  1.00  0.00     0.074 A 
ATOM     53  C   UNL A   1      44.486  29.162  34.384  1.00  0.00     0.029 A 
ATOM     54  N   UNL A   1      43.713  28.134  32.571  1.00  0.00    -0.354 N 
ATOM     55  N   UNL A   1      43.671  26.019  30.512  1.00  0.00    -0.248 NA
ATOM     56  C   UNL A   1      44.589  24.092  29.559  1.00  0.00     0.031 C 
ATOM     57  C   UNL A   1      45.365  28.126  34.051  1.00  0.00     0.029 A 
ATOM     58  C   UNL A   1      44.856  27.447  32.954  1.00  0.00     0.049 A 
ATOM     59  H   UNL A   1      43.142  27.896  31.805  1.00  0.00     0.167 HD
ATOM     60  C   UNL A   1      44.801  25.647  31.239  1.00  0.00     0.074 A 
ATOM     61  C   UNL A   1      45.300  24.433  30.623  1.00  0.00     0.031 C 
ATOM     62  C   UNL A   1      45.363  26.249  32.320  1.00  0.00     0.034 A 
BRANCH  49  63
ATOM     63  C   UNL A   1      42.366  31.367  34.210  1.00  0.00     0.023 A 
ATOM     64  C   UNL A   1      41.534  31.387  35.345  1.00  0.00     0.031 A 
ATOM     65  C   UNL A   1      43.090  32.535  33.914  1.00  0.00     0.131 A 
ATOM     66  C   UNL A   1      41.350  32.580  36.061  1.00  0.00     0.055 A 
ATOM     67  C   UNL A   1      42.990  33.685  34.700  1.00  0.00     0.041 A 
ATOM     68  F   UNL A   1      43.884  32.594  32.834  1.00  0.00    -0.206 F 
ATOM     69  C   UNL A   1      42.096  33.722  35.765  1.00  0.00     0.022 A 
BRANCH  66  70
ATOM     70  S   UNL A   1      39.962  32.680  37.227  1.00  0.00     0.124 S 
ATOM     71  O   UNL A   1      39.391  33.983  36.893  1.00  0.00    -0.237 OA
ATOM     72  O   UNL A   1      39.161  31.518  36.863  1.00  0.00    -0.237 OA
ATOM     73  O   UNL A   1      40.609  32.610  38.535  1.00  0.00    -0.744 OA
ENDBRANCH  66  70
ENDBRANCH  49  63
BRANCH  50  74
ATOM     74  C   UNL A   1      42.531  23.945  27.456  1.00  0.00     0.023 A 
ATOM     75  C   UNL A   1      41.933  22.687  27.633  1.00  0.00     0.031 A 
ATOM     76  C   UNL A   1      43.192  24.197  26.240  1.00  0.00     0.131 A 
ATOM     77  C   UNL A   1      42.031  21.720  26.618  1.00  0.00     0.055 A 
ATOM     78  C   UNL A   1      43.237  23.254  25.214  1.00  0.00     0.041 A 
ATOM     79  F   UNL A   1      43.780  25.383  26.022  1.00  0.00    -0.206 F 
ATOM     80  C   UNL A   1      42.661  22.003  25.404  1.00  0.00     0.022 A 
BRANCH  77  81
ATOM     81  S   UNL A   1      41.379  20.054  26.928  1.00  0.00     0.124 S 
ATOM     82  O   UNL A   1      40.808  20.202  28.261  1.00  0.00    -0.237 OA
ATOM     83  O   UNL A   1      40.427  19.892  25.835  1.00  0.00    -0.237 OA
ATOM     84  O   UNL A   1      42.566  19.205  26.848  1.00  0.00    -0.744 OA
ENDBRANCH  77  81
ENDBRANCH  50  74
BRANCH  62  85
ATOM     85  C   UNL A   1      46.560  25.564  32.943  1.00  0.00     0.023 A 
ATOM     86  C   UNL A   1      47.864  25.739  32.449  1.00  0.00     0.031 A 
ATOM     87  C   UNL A   1      46.383  24.688  34.031  1.00  0.00     0.131 A 
ATOM     88  C   UNL A   1      48.920  24.982  32.980  1.00  0.00     0.055 A 
ATOM     89  C   UNL A   1      47.453  24.008  34.615  1.00  0.00     0.041 A 
ATOM     90  F   UNL A   1      45.161  24.472  34.545  1.00  0.00    -0.206 F 
ATOM     91  C   UNL A   1      48.727  24.137  34.075  1.00  0.00     0.022 A 
BRANCH  88  92
ATOM     92  S   UNL A   1      50.514  24.992  32.114  1.00  0.00     0.124 S 
ATOM     93  O   UNL A   1      50.160  25.611  30.841  1.00  0.00    -0.237 OA
ATOM     94  O   UNL A   1      51.347  25.795  33.003  1.00  0.00    -0.237 OA
ATOM     95  O   UNL A   1      50.871  23.577  32.037  1.00  0.00    -0.744 OA
ENDBRANCH  88  92
ENDBRANCH  62  85
ENDBRANCH  36  37
ENDBRANCH  28  31
ENDBRANCH  26  27
ENDBRANCH  25  26
ENDBRANCH   1  25
TORSDOF 19
ENDMDL
MODEL 2
REMARK VINA RESULT:     -11.2      1.999      2.629
REMARK SMILES COc1ccc(C(=O)NCCCCNC(=O)c2ccc(-c3c4nc(c(-c5cc(S(=O)(=O)[O-])ccc5F)c5ccc([nH]5)c(-c5cc(S(=O)(=O)[O-])ccc5F)c5nc(c(-c6cc(S(=O)(=O)[O-])ccc6F)c6ccc3[nH]6)C=C5)C=C4)cc2)cc1NCc1cc(C#N)cs1
REMARK SMILES IDX 11 1 10 2 9 3 7 4 8 5 6 7 3 8 4 9 81 10 5 11 80 12 2 13 1 14
REMARK SMILES IDX 82 15 83 17 84 18 85 19 90 20 86 21 89 22 87 23 88 24 12 25
REMARK SMILES IDX 13 26 14 27 15 28 16 30 17 31 18 32 79 33 19 34 78 35 20 36
REMARK SMILES IDX 21 37 22 38 72 39 23 40 77 41 71 42 73 43 24 44 76 45 70 46
REMARK SMILES IDX 69 47 25 49 57 50 37 51 56 52 38 53 41 54 55 55 74 56 39 57
REMARK SMILES IDX 40 58 54 60 75 61 42 62 26 63 27 64 35 65 28 66 34 67 36 68
REMARK SMILES IDX 33 69 29 70 30 71 31 72 32 73 58 74 59 75 67 76 60 77 66 78
REMARK SMILES IDX 68 79 65 80 61 81 62 82 63 83 64 84 43 85 44 86 52 87 45 88
REMARK SMILES IDX 51 89 53 90 50 91 46 92 47 93 48 94 49 95
REMARK H PARENT 9 6 82 16 14 29 73 48 41 59
REMARK Flexibility Score: inf
ROOT
ATOM      1  C   UNL A   1      31.778  28.126  27.039  1.00  0.00     0.023 C 
ENDROOT
BRANCH   1   2
ATOM      2  C   UNL A   1      31.057  26.843  26.615  1.00  0.00     0.116 C 
BRANCH   2   3
ATOM      3  N   UNL A   1      30.981  26.768  25.169  1.00  0.00    -0.352 N 
ATOM      4  C   UNL A   1      31.703  26.052  24.245  1.00  0.00     0.251 C 
ATOM      5  O   UNL A   1      31.417  26.194  23.057  1.00  0.00    -0.269 OA
ATOM      6  H   UNL A   1      30.280  27.336  24.775  1.00  0.00     0.163 HD
BRANCH   4   7
ATOM      7  C   UNL A   1      32.758  25.071  24.626  1.00  0.00     0.042 A 
ATOM      8  C   UNL A   1      34.807  23.219  25.178  1.00  0.00     0.142 A 
ATOM      9  C   UNL A   1      35.096  24.536  24.764  1.00  0.00     0.049 A 
ATOM     10  C   UNL A   1      33.467  22.801  25.313  1.00  0.00     0.078 A 
ATOM     11  C   UNL A   1      34.085  25.438  24.445  1.00  0.00     0.018 A 
ATOM     12  C   UNL A   1      32.493  23.805  25.156  1.00  0.00     0.043 A 
BRANCH   8  13
ATOM     13  O   UNL A   1      35.961  22.545  25.480  1.00  0.00    -0.495 OA
ATOM     14  C   UNL A   1      36.679  21.880  24.460  1.00  0.00     0.278 C 
ENDBRANCH   8  13
BRANCH  10  15
ATOM     15  N   UNL A   1      33.065  21.516  25.648  1.00  0.00    -0.377 N 
ATOM     16  H   UNL A   1      33.449  21.127  26.467  1.00  0.00     0.161 HD
BRANCH  15  17
ATOM     17  C   UNL A   1      32.122  20.684  24.897  1.00  0.00     0.160 C 
BRANCH  17  18
ATOM     18  C   UNL A   1      32.673  19.347  24.463  1.00  0.00     0.025 A 
ATOM     19  C   UNL A   1      33.469  18.461  25.170  1.00  0.00     0.036 A 
ATOM     20  S   UNL A   1      32.362  18.773  22.874  1.00  0.00    -0.146 S 
ATOM     21  C   UNL A   1      33.806  17.302  24.405  1.00  0.00     0.063 A 
ATOM     22  C   UNL A   1      33.266  17.346  23.140  1.00  0.00     0.084 A 
BRANCH  21  23
ATOM     23  C   UNL A   1      34.603  16.199  24.861  1.00  0.00     0.100 C 
ATOM     24  N   UNL A   1      35.227  15.289  25.209  1.00  0.00    -0.192 NA
ENDBRANCH  21  23
ENDBRANCH  17  18
ENDBRANCH  15  17
ENDBRANCH  10  15
ENDBRANCH   4   7
ENDBRANCH   2   3
ENDBRANCH   1   2
BRANCH   1  25
ATOM     25  C   UNL A   1      33.299  27.985  27.060  1.00  0.00     0.023 C 
BRANCH  25  26
ATOM     26  C   UNL A   1      34.028  29.045  26.248  1.00  0.00     0.116 C 
BRANCH  26  27
ATOM     27  N   UNL A   1      33.810  30.389  26.758  1.00  0.00    -0.352 N 
ATOM     28  C   UNL A   1      34.535  31.064  27.708  1.00  0.00     0.251 C 
ATOM     29  H   UNL A   1      33.046  30.876  26.373  1.00  0.00     0.163 HD
ATOM     30  O   UNL A   1      34.109  32.125  28.154  1.00  0.00    -0.269 OA
BRANCH  28  31
ATOM     31  C   UNL A   1      35.795  30.476  28.205  1.00  0.00     0.039 A 
ATOM     32  C   UNL A   1      36.980  30.746  27.523  1.00  0.00     0.014 A 
ATOM     33  C   UNL A   1      35.808  29.679  29.355  1.00  0.00     0.014 A 
ATOM     34  C   UNL A   1      38.181  30.233  28.010  1.00  0.00     0.010 A 
ATOM     35  C   UNL A   1      37.017  29.267  29.900  1.00  0.00     0.010 A 
ATOM     36  C   UNL A   1      38.214  29.505  29.212  1.00  0.00    -0.014 A 
BRANCH  36  37
ATOM     37  C   UNL A   1      39.490  28.939  29.718  1.00  0.00     0.031 A 
ATOM     38  C   UNL A   1      40.161  29.549  30.919  1.00  0.00     0.074 A 
ATOM     39  C   UNL A   1      40.045  27.884  29.093  1.00  0.00     0.049 A 
ATOM     40  N   UNL A   1      41.257  29.179  31.531  1.00  0.00    -0.248 NA
ATOM     41  C   UNL A   1      39.536  30.753  31.486  1.00  0.00     0.031 C 
ATOM     42  C   UNL A   1      39.518  27.247  27.885  1.00  0.00     0.029 A 
ATOM     43  N   UNL A   1      41.167  27.154  29.391  1.00  0.00    -0.354 N 
ATOM     44  C   UNL A   1      41.454  30.108  32.548  1.00  0.00     0.074 A 
ATOM     45  C   UNL A   1      40.419  31.107  32.406  1.00  0.00     0.031 C 
ATOM     46  C   UNL A   1      40.288  26.196  27.571  1.00  0.00     0.029 A 
ATOM     47  C   UNL A   1      41.393  26.113  28.522  1.00  0.00     0.049 A 
ATOM     48  H   UNL A   1      41.755  27.356  30.155  1.00  0.00     0.167 HD
ATOM     49  C   UNL A   1      42.388  30.108  33.532  1.00  0.00     0.034 A 
ATOM     50  C   UNL A   1      42.383  25.200  28.487  1.00  0.00     0.034 A 
ATOM     51  C   UNL A   1      43.420  29.106  33.644  1.00  0.00     0.049 A 
ATOM     52  C   UNL A   1      43.431  25.229  29.568  1.00  0.00     0.074 A 
ATOM     53  C   UNL A   1      44.394  28.976  34.618  1.00  0.00     0.029 A 
ATOM     54  N   UNL A   1      43.629  28.072  32.736  1.00  0.00    -0.354 N 
ATOM     55  N   UNL A   1      43.567  26.072  30.566  1.00  0.00    -0.248 NA
ATOM     56  C   UNL A   1      44.445  24.170  29.529  1.00  0.00     0.031 C 
ATOM     57  C   UNL A   1      45.247  27.932  34.247  1.00  0.00     0.029 A 
ATOM     58  C   UNL A   1      44.742  27.329  33.105  1.00  0.00     0.049 A 
ATOM     59  H   UNL A   1      43.068  27.894  31.947  1.00  0.00     0.167 HD
ATOM     60  C   UNL A   1      44.668  25.626  31.294  1.00  0.00     0.074 A 
ATOM     61  C   UNL A   1      45.143  24.431  30.624  1.00  0.00     0.031 C 
ATOM     62  C   UNL A   1      45.225  26.151  32.418  1.00  0.00     0.034 A 
BRANCH  49  63
ATOM     63  C   UNL A   1      42.348  31.255  34.519  1.00  0.00     0.023 A 
ATOM     64  C   UNL A   1      41.422  31.288  35.579  1.00  0.00     0.031 A 
ATOM     65  C   UNL A   1      43.190  32.369  34.356  1.00  0.00     0.131 A 
ATOM     66  C   UNL A   1      41.274  32.454  36.347  1.00  0.00     0.055 A 
ATOM     67  C   UNL A   1      43.116  33.481  35.199  1.00  0.00     0.041 A 
ATOM     68  F   UNL A   1      44.080  32.414  33.353  1.00  0.00    -0.206 F 
ATOM     69  C   UNL A   1      42.137  33.540  36.184  1.00  0.00     0.022 A 
BRANCH  66  70
ATOM     70  S   UNL A   1      39.801  32.614  37.395  1.00  0.00     0.124 S 
ATOM     71  O   UNL A   1      39.007  31.466  36.963  1.00  0.00    -0.237 OA
ATOM     72  O   UNL A   1      40.361  32.536  38.739  1.00  0.00    -0.237 OA
ATOM     73  O   UNL A   1      39.253  33.916  37.018  1.00  0.00    -0.744 OA
ENDBRANCH  66  70
ENDBRANCH  49  63
BRANCH  50  74
ATOM     74  C   UNL A   1      42.430  24.202  27.380  1.00  0.00     0.023 A 
ATOM     75  C   UNL A   1      41.685  23.013  27.420  1.00  0.00     0.031 A 
ATOM     76  C   UNL A   1      43.234  24.439  26.249  1.00  0.00     0.131 A 
ATOM     77  C   UNL A   1      41.778  22.095  26.360  1.00  0.00     0.055 A 
ATOM     78  C   UNL A   1      43.279  23.552  25.174  1.00  0.00     0.041 A 
ATOM     79  F   UNL A   1      43.966  25.561  26.161  1.00  0.00    -0.206 F 
ATOM     80  C   UNL A   1      42.554  22.367  25.231  1.00  0.00     0.022 A 
BRANCH  77  81
ATOM     81  S   UNL A   1      40.922  20.501  26.502  1.00  0.00     0.124 S 
ATOM     82  O   UNL A   1      40.988  20.256  27.938  1.00  0.00    -0.237 OA
ATOM     83  O   UNL A   1      39.603  20.815  25.964  1.00  0.00    -0.237 OA
ATOM     84  O   UNL A   1      41.732  19.606  25.679  1.00  0.00    -0.744 OA
ENDBRANCH  77  81
ENDBRANCH  50  74
BRANCH  62  85
ATOM     85  C   UNL A   1      46.385  25.394  33.027  1.00  0.00     0.023 A 
ATOM     86  C   UNL A   1      46.198  24.374  33.976  1.00  0.00     0.031 A 
ATOM     87  C   UNL A   1      47.706  25.729  32.675  1.00  0.00     0.131 A 
ATOM     88  C   UNL A   1      47.310  23.793  34.605  1.00  0.00     0.055 A 
ATOM     89  C   UNL A   1      48.808  25.082  33.237  1.00  0.00     0.041 A 
ATOM     90  F   UNL A   1      47.952  26.700  31.781  1.00  0.00    -0.206 F 
ATOM     91  C   UNL A   1      48.613  24.123  34.224  1.00  0.00     0.022 A 
BRANCH  88  92
ATOM     92  S   UNL A   1      47.031  22.722  36.043  1.00  0.00     0.124 S 
ATOM     93  O   UNL A   1      45.749  22.107  35.714  1.00  0.00    -0.237 OA
ATOM     94  O   UNL A   1      48.191  21.837  36.002  1.00  0.00    -0.237 OA
ATOM     95  O   UNL A   1      47.001  23.656  37.166  1.00  0.00    -0.744 OA
ENDBRANCH  88  92
ENDBRANCH  62  85
ENDBRANCH  36  37
ENDBRANCH  28  31
ENDBRANCH  26  27
ENDBRANCH  25  26
ENDBRANCH   1  25
TORSDOF 19
ENDMDL
MODEL 3
REMARK VINA RESULT:     -11.2      1.598      2.064
REMARK SMILES COc1ccc(C(=O)NCCCCNC(=O)c2ccc(-c3c4nc(c(-c5cc(S(=O)(=O)[O-])ccc5F)c5ccc([nH]5)c(-c5cc(S(=O)(=O)[O-])ccc5F)c5nc(c(-c6cc(S(=O)(=O)[O-])ccc6F)c6ccc3[nH]6)C=C5)C=C4)cc2)cc1NCc1cc(C#N)cs1
REMARK SMILES IDX 11 1 10 2 9 3 7 4 8 5 6 7 3 8 4 9 81 10 5 11 80 12 2 13 1 14
REMARK SMILES IDX 82 15 83 17 84 18 85 19 90 20 86 21 89 22 87 23 88 24 12 25
REMARK SMILES IDX 13 26 14 27 15 28 16 30 17 31 18 32 79 33 19 34 78 35 20 36
REMARK SMILES IDX 21 37 22 38 72 39 23 40 77 41 71 42 73 43 24 44 76 45 70 46
REMARK SMILES IDX 69 47 25 49 57 50 37 51 56 52 38 53 41 54 55 55 74 56 39 57
REMARK SMILES IDX 40 58 54 60 75 61 42 62 26 63 27 64 35 65 28 66 34 67 36 68
REMARK SMILES IDX 33 69 29 70 30 71 31 72 32 73 58 74 59 75 67 76 60 77 66 78
REMARK SMILES IDX 68 79 65 80 61 81 62 82 63 83 64 84 43 85 44 86 52 87 45 88
REMARK SMILES IDX 51 89 53 90 50 91 46 92 47 93 48 94 49 95
REMARK H PARENT 9 6 82 16 14 29 73 48 41 59
REMARK Flexibility Score: inf
ROOT
ATOM      1  C   UNL A   1      33.439  29.318  24.135  1.00  0.00     0.023 C 
ENDROOT
BRANCH   1   2
ATOM      2  C   UNL A   1      33.213  28.830  22.701  1.00  0.00     0.116 C 
BRANCH   2   3
ATOM      3  N   UNL A   1      31.835  29.055  22.310  1.00  0.00    -0.352 N 
ATOM      4  C   UNL A   1      30.711  28.270  22.404  1.00  0.00     0.251 C 
ATOM      5  O   UNL A   1      29.653  28.727  21.975  1.00  0.00    -0.269 OA
ATOM      6  H   UNL A   1      31.673  29.936  21.901  1.00  0.00     0.163 HD
BRANCH   4   7
ATOM      7  C   UNL A   1      30.712  26.932  23.061  1.00  0.00     0.042 A 
ATOM      8  C   UNL A   1      30.818  24.472  24.428  1.00  0.00     0.142 A 
ATOM      9  C   UNL A   1      30.237  25.615  25.014  1.00  0.00     0.049 A 
ATOM     10  C   UNL A   1      31.373  24.548  23.133  1.00  0.00     0.078 A 
ATOM     11  C   UNL A   1      30.225  26.844  24.360  1.00  0.00     0.018 A 
ATOM     12  C   UNL A   1      31.169  25.761  22.450  1.00  0.00     0.043 A 
BRANCH   8  13
ATOM     13  O   UNL A   1      30.661  23.381  25.241  1.00  0.00    -0.495 OA
ATOM     14  C   UNL A   1      30.475  23.556  26.631  1.00  0.00     0.278 C 
ENDBRANCH   8  13
BRANCH  10  15
ATOM     15  N   UNL A   1      32.025  23.509  22.486  1.00  0.00    -0.377 N 
ATOM     16  H   UNL A   1      31.472  22.753  22.181  1.00  0.00     0.161 HD
BRANCH  15  17
ATOM     17  C   UNL A   1      33.463  23.431  22.213  1.00  0.00     0.160 C 
BRANCH  17  18
ATOM     18  C   UNL A   1      34.308  23.062  23.408  1.00  0.00     0.025 A 
ATOM     19  C   UNL A   1      35.508  23.611  23.830  1.00  0.00     0.036 A 
ATOM     20  S   UNL A   1      33.824  21.766  24.426  1.00  0.00    -0.146 S 
ATOM     21  C   UNL A   1      36.016  22.972  25.003  1.00  0.00     0.063 A 
ATOM     22  C   UNL A   1      35.195  21.954  25.430  1.00  0.00     0.084 A 
BRANCH  21  23
ATOM     23  C   UNL A   1      37.228  23.321  25.688  1.00  0.00     0.100 C 
ATOM     24  N   UNL A   1      38.212  23.625  26.216  1.00  0.00    -0.192 NA
ENDBRANCH  21  23
ENDBRANCH  17  18
ENDBRANCH  15  17
ENDBRANCH  10  15
ENDBRANCH   4   7
ENDBRANCH   2   3
ENDBRANCH   1   2
BRANCH   1  25
ATOM     25  C   UNL A   1      33.503  28.183  25.156  1.00  0.00     0.023 C 
BRANCH  25  26
ATOM     26  C   UNL A   1      34.129  28.583  26.484  1.00  0.00     0.116 C 
BRANCH  26  27
ATOM     27  N   UNL A   1      33.902  29.981  26.810  1.00  0.00    -0.352 N 
ATOM     28  C   UNL A   1      34.646  30.792  27.630  1.00  0.00     0.251 C 
ATOM     29  H   UNL A   1      33.116  30.399  26.389  1.00  0.00     0.163 HD
ATOM     30  O   UNL A   1      34.216  31.899  27.938  1.00  0.00    -0.269 OA
BRANCH  28  31
ATOM     31  C   UNL A   1      35.933  30.298  28.158  1.00  0.00     0.039 A 
ATOM     32  C   UNL A   1      35.951  29.651  29.392  1.00  0.00     0.014 A 
ATOM     33  C   UNL A   1      37.114  30.453  27.424  1.00  0.00     0.014 A 
ATOM     34  C   UNL A   1      37.154  29.141  29.878  1.00  0.00     0.010 A 
ATOM     35  C   UNL A   1      38.285  29.844  27.856  1.00  0.00     0.010 A 
ATOM     36  C   UNL A   1      38.327  29.215  29.108  1.00  0.00    -0.014 A 
BRANCH  36  37
ATOM     37  C   UNL A   1      39.613  28.692  29.636  1.00  0.00     0.031 A 
ATOM     38  C   UNL A   1      40.232  29.311  30.860  1.00  0.00     0.074 A 
ATOM     39  C   UNL A   1      40.223  27.667  29.011  1.00  0.00     0.049 A 
ATOM     40  N   UNL A   1      41.327  28.976  31.492  1.00  0.00    -0.248 NA
ATOM     41  C   UNL A   1      39.547  30.482  31.428  1.00  0.00     0.031 C 
ATOM     42  C   UNL A   1      39.749  27.028  27.783  1.00  0.00     0.029 A 
ATOM     43  N   UNL A   1      41.366  26.978  29.326  1.00  0.00    -0.354 N 
ATOM     44  C   UNL A   1      41.464  29.898  32.526  1.00  0.00     0.074 A 
ATOM     45  C   UNL A   1      40.394  30.857  32.372  1.00  0.00     0.031 C 
ATOM     46  C   UNL A   1      40.567  26.012  27.474  1.00  0.00     0.029 A 
ATOM     47  C   UNL A   1      41.652  25.959  28.450  1.00  0.00     0.049 A 
ATOM     48  H   UNL A   1      41.927  27.193  30.106  1.00  0.00     0.167 HD
ATOM     49  C   UNL A   1      42.374  29.921  33.531  1.00  0.00     0.034 A 
ATOM     50  C   UNL A   1      42.678  25.085  28.426  1.00  0.00     0.034 A 
ATOM     51  C   UNL A   1      43.443  28.958  33.655  1.00  0.00     0.049 A 
ATOM     52  C   UNL A   1      43.699  25.141  29.531  1.00  0.00     0.074 A 
ATOM     53  C   UNL A   1      44.398  28.853  34.650  1.00  0.00     0.029 A 
ATOM     54  N   UNL A   1      43.712  27.946  32.739  1.00  0.00    -0.354 N 
ATOM     55  N   UNL A   1      43.779  25.975  30.543  1.00  0.00    -0.248 NA
ATOM     56  C   UNL A   1      44.754  24.123  29.502  1.00  0.00     0.031 C 
ATOM     57  C   UNL A   1      45.299  27.848  34.285  1.00  0.00     0.029 A 
ATOM     58  C   UNL A   1      44.844  27.242  33.125  1.00  0.00     0.049 A 
ATOM     59  H   UNL A   1      43.177  27.757  31.935  1.00  0.00     0.167 HD
ATOM     60  C   UNL A   1      44.879  25.562  31.291  1.00  0.00     0.074 A 
ATOM     61  C   UNL A   1      45.417  24.396  30.617  1.00  0.00     0.031 C 
ATOM     62  C   UNL A   1      45.389  26.093  32.434  1.00  0.00     0.034 A 
BRANCH  49  63
ATOM     63  C   UNL A   1      42.266  31.052  34.532  1.00  0.00     0.023 A 
ATOM     64  C   UNL A   1      42.961  32.264  34.359  1.00  0.00     0.031 A 
ATOM     65  C   UNL A   1      41.524  30.891  35.715  1.00  0.00     0.131 A 
ATOM     66  C   UNL A   1      43.004  33.205  35.400  1.00  0.00     0.055 A 
ATOM     67  C   UNL A   1      41.477  31.883  36.698  1.00  0.00     0.041 A 
ATOM     68  F   UNL A   1      40.856  29.752  35.956  1.00  0.00    -0.206 F 
ATOM     69  C   UNL A   1      42.240  33.036  36.557  1.00  0.00     0.022 A 
BRANCH  66  70
ATOM     70  S   UNL A   1      44.242  34.528  35.314  1.00  0.00     0.124 S 
ATOM     71  O   UNL A   1      43.652  35.540  36.189  1.00  0.00    -0.237 OA
ATOM     72  O   UNL A   1      45.442  33.870  35.816  1.00  0.00    -0.237 OA
ATOM     73  O   UNL A   1      44.268  34.883  33.897  1.00  0.00    -0.744 OA
ENDBRANCH  66  70
ENDBRANCH  49  63
BRANCH  50  74
ATOM     74  C   UNL A   1      42.790  24.105  27.307  1.00  0.00     0.023 A 
ATOM     75  C   UNL A   1      42.139  22.862  27.342  1.00  0.00     0.031 A 
ATOM     76  C   UNL A   1      43.559  24.416  26.171  1.00  0.00     0.131 A 
ATOM     77  C   UNL A   1      42.292  21.965  26.272  1.00  0.00     0.055 A 
ATOM     78  C   UNL A   1      43.661  23.545  25.086  1.00  0.00     0.041 A 
ATOM     79  F   UNL A   1      44.202  25.592  26.087  1.00  0.00    -0.206 F 
ATOM     80  C   UNL A   1      43.031  22.307  25.137  1.00  0.00     0.022 A 
BRANCH  77  81
ATOM     81  S   UNL A   1      41.563  20.307  26.406  1.00  0.00     0.124 S 
ATOM     82  O   UNL A   1      42.209  19.609  25.301  1.00  0.00    -0.237 OA
ATOM     83  O   UNL A   1      41.971  19.903  27.748  1.00  0.00    -0.237 OA
ATOM     84  O   UNL A   1      40.132  20.551  26.240  1.00  0.00    -0.744 OA
ENDBRANCH  77  81
ENDBRANCH  50  74
BRANCH  62  85
ATOM     85  C   UNL A   1      46.565  25.374  33.061  1.00  0.00     0.023 A 
ATOM     86  C   UNL A   1      47.888  25.603  32.648  1.00  0.00     0.031 A 
ATOM     87  C   UNL A   1      46.348  24.415  34.067  1.00  0.00     0.131 A 
ATOM     88  C   UNL A   1      48.928  24.819  33.170  1.00  0.00     0.055 A 
ATOM     89  C   UNL A   1      47.398  23.703  34.649  1.00  0.00     0.041 A 
ATOM     90  F   UNL A   1      45.106  24.144  34.501  1.00  0.00    -0.206 F 
ATOM     91  C   UNL A   1      48.695  23.888  34.185  1.00  0.00     0.022 A 
BRANCH  88  92
ATOM     92  S   UNL A   1      50.563  24.914  32.388  1.00  0.00     0.124 S 
ATOM     93  O   UNL A   1      50.876  23.505  32.174  1.00  0.00    -0.237 OA
ATOM     94  O   UNL A   1      50.289  25.695  31.187  1.00  0.00    -0.237 OA
ATOM     95  O   UNL A   1      51.384  25.586  33.393  1.00  0.00    -0.744 OA
ENDBRANCH  88  92
ENDBRANCH  62  85
ENDBRANCH  36  37
ENDBRANCH  28  31
ENDBRANCH  26  27
ENDBRANCH  25  26
ENDBRANCH   1  25
TORSDOF 19
ENDMDL
