MODEL 1
REMARK VINA RESULT:     -12.4      0.000      0.000
REMARK SMILES COc1cc(C(=O)NC2(C(=O)NCCCCNC(=O)c3ccc(-c4c5nc(c(-c6cc(S(=O)(=O)[O-])ccc6F)c6ccc([nH]6)c(-c6cc(S(=O)(=O)[O-])ccc6F)c6nc(c(-c7cc(S(=O)(=O)[O-])ccc7F)c7ccc4[nH]7)C=C6)C=C5)cc3)CCCCC2)cc2c1OCCO2
REMARK SMILES IDX 14 1 13 2 12 3 10 4 11 5 9 7 83 8 87 9 84 10 86 11 85 12
REMARK SMILES IDX 8 13 6 14 7 15 5 17 3 18 4 19 90 20 89 21 91 22 88 23 94 24
REMARK SMILES IDX 92 25 93 26 2 27 1 28 15 29 16 30 17 31 18 32 19 34 20 35
REMARK SMILES IDX 21 36 82 37 22 38 81 39 23 40 24 41 25 42 75 43 26 44 80 45
REMARK SMILES IDX 74 46 76 47 27 48 79 49 73 50 72 51 28 53 60 54 40 55 59 56
REMARK SMILES IDX 41 57 44 58 58 59 77 60 42 61 43 62 57 64 78 65 45 66 29 67
REMARK SMILES IDX 30 68 38 69 31 70 37 71 39 72 36 73 32 74 33 75 34 76 35 77
REMARK SMILES IDX 61 78 62 79 70 80 63 81 69 82 71 83 68 84 64 85 65 86 66 87
REMARK SMILES IDX 67 88 46 89 47 90 55 91 48 92 54 93 56 94 53 95 49 96 50 97
REMARK SMILES IDX 51 98 52 99
REMARK H PARENT 12 6 8 16 17 33 76 52 44 63
REMARK Flexibility Score: inf
ROOT
ATOM      1  C   UNL A   1      37.337  20.311  25.013  1.00  0.00     0.023 C 
ENDROOT
BRANCH   1   2
ATOM      2  C   UNL A   1      35.897  20.664  24.635  1.00  0.00     0.116 C 
BRANCH   2   3
ATOM      3  N   UNL A   1      34.947  20.421  25.703  1.00  0.00    -0.354 N 
ATOM      4  C   UNL A   1      33.860  21.114  26.138  1.00  0.00     0.245 C 
ATOM      5  O   UNL A   1      33.155  20.545  26.985  1.00  0.00    -0.272 OA
ATOM      6  H   UNL A   1      35.123  19.595  26.210  1.00  0.00     0.163 HD
BRANCH   4   7
ATOM      7  C   UNL A   1      33.499  22.575  25.647  1.00  0.00     0.119 C 
ATOM      8  C   UNL A   1      33.134  22.511  24.154  1.00  0.00     0.038 C 
ATOM      9  C   UNL A   1      34.635  23.494  26.118  1.00  0.00     0.038 C 
ATOM     10  C   UNL A   1      33.979  23.283  23.142  1.00  0.00     0.003 C 
ATOM     11  C   UNL A   1      35.440  24.270  25.088  1.00  0.00     0.003 C 
ATOM     12  C   UNL A   1      35.246  23.982  23.609  1.00  0.00     0.000 C 
BRANCH   7  13
ATOM     13  N   UNL A   1      32.245  22.871  26.442  1.00  0.00    -0.338 N 
ATOM     14  C   UNL A   1      31.336  23.883  26.628  1.00  0.00     0.252 C 
ATOM     15  O   UNL A   1      30.413  23.664  27.416  1.00  0.00    -0.269 OA
ATOM     16  H   UNL A   1      32.005  22.095  26.999  1.00  0.00     0.164 HD
BRANCH  14  17
ATOM     17  C   UNL A   1      31.384  25.232  25.988  1.00  0.00     0.047 A 
ATOM     18  C   UNL A   1      32.403  27.412  25.602  1.00  0.00     0.165 A 
ATOM     19  C   UNL A   1      32.418  26.136  26.163  1.00  0.00     0.064 A 
ATOM     20  C   UNL A   1      31.367  27.789  24.760  1.00  0.00     0.203 A 
ATOM     21  C   UNL A   1      30.348  26.866  24.500  1.00  0.00     0.166 A 
ATOM     22  O   UNL A   1      31.416  29.035  24.194  1.00  0.00    -0.483 OA
ATOM     23  C   UNL A   1      30.339  25.614  25.132  1.00  0.00     0.064 A 
ATOM     24  O   UNL A   1      29.321  27.123  23.624  1.00  0.00    -0.486 OA
ATOM     25  C   UNL A   1      30.181  29.384  23.565  1.00  0.00     0.271 C 
ATOM     26  C   UNL A   1      29.652  28.214  22.756  1.00  0.00     0.271 C 
BRANCH  18  27
ATOM     27  O   UNL A   1      33.480  28.211  25.884  1.00  0.00    -0.493 OA
ATOM     28  C   UNL A   1      33.467  28.644  27.245  1.00  0.00     0.278 C 
ENDBRANCH  18  27
ENDBRANCH  14  17
ENDBRANCH   7  13
ENDBRANCH   4   7
ENDBRANCH   2   3
ENDBRANCH   1   2
BRANCH   1  29
ATOM     29  C   UNL A   1      38.209  21.521  25.337  1.00  0.00     0.023 C 
BRANCH  29  30
ATOM     30  C   UNL A   1      39.379  21.251  26.279  1.00  0.00     0.116 C 
BRANCH  30  31
ATOM     31  N   UNL A   1      40.077  19.995  26.042  1.00  0.00    -0.352 N 
ATOM     32  C   UNL A   1      41.446  19.796  26.030  1.00  0.00     0.251 C 
ATOM     33  H   UNL A   1      39.516  19.205  25.872  1.00  0.00     0.163 HD
ATOM     34  O   UNL A   1      41.918  18.698  25.771  1.00  0.00    -0.269 OA
BRANCH  32  35
ATOM     35  C   UNL A   1      42.320  20.966  26.278  1.00  0.00     0.039 A 
ATOM     36  C   UNL A   1      42.611  21.828  25.220  1.00  0.00     0.014 A 
ATOM     37  C   UNL A   1      42.707  21.284  27.582  1.00  0.00     0.014 A 
ATOM     38  C   UNL A   1      43.197  23.068  25.488  1.00  0.00     0.010 A 
ATOM     39  C   UNL A   1      43.210  22.552  27.854  1.00  0.00     0.010 A 
ATOM     40  C   UNL A   1      43.444  23.466  26.813  1.00  0.00    -0.014 A 
BRANCH  40  41
ATOM     41  C   UNL A   1      43.931  24.835  27.139  1.00  0.00     0.031 A 
ATOM     42  C   UNL A   1      42.977  25.852  27.703  1.00  0.00     0.074 A 
ATOM     43  C   UNL A   1      45.200  25.187  26.848  1.00  0.00     0.049 A 
ATOM     44  N   UNL A   1      43.163  27.127  27.932  1.00  0.00    -0.248 NA
ATOM     45  C   UNL A   1      41.618  25.378  28.010  1.00  0.00     0.031 C 
ATOM     46  C   UNL A   1      46.210  24.311  26.247  1.00  0.00     0.029 A 
ATOM     47  N   UNL A   1      45.859  26.383  27.005  1.00  0.00    -0.354 N 
ATOM     48  C   UNL A   1      41.942  27.609  28.392  1.00  0.00     0.074 A 
ATOM     49  C   UNL A   1      41.009  26.504  28.343  1.00  0.00     0.031 C 
ATOM     50  C   UNL A   1      47.360  24.991  26.108  1.00  0.00     0.029 A 
ATOM     51  C   UNL A   1      47.166  26.362  26.568  1.00  0.00     0.049 A 
ATOM     52  H   UNL A   1      45.436  27.182  27.395  1.00  0.00     0.167 HD
ATOM     53  C   UNL A   1      41.634  28.852  28.842  1.00  0.00     0.034 A 
ATOM     54  C   UNL A   1      48.095  27.338  26.531  1.00  0.00     0.034 A 
ATOM     55  C   UNL A   1      42.580  29.936  28.914  1.00  0.00     0.049 A 
ATOM     56  C   UNL A   1      47.732  28.708  27.049  1.00  0.00     0.074 A 
ATOM     57  C   UNL A   1      42.385  31.221  29.390  1.00  0.00     0.029 A 
ATOM     58  N   UNL A   1      43.904  29.862  28.505  1.00  0.00    -0.354 N 
ATOM     59  N   UNL A   1      46.582  29.135  27.517  1.00  0.00    -0.248 NA
ATOM     60  C   UNL A   1      48.795  29.723  27.047  1.00  0.00     0.031 C 
ATOM     61  C   UNL A   1      43.577  31.935  29.227  1.00  0.00     0.029 A 
ATOM     62  C   UNL A   1      44.534  31.080  28.707  1.00  0.00     0.049 A 
ATOM     63  H   UNL A   1      44.334  29.060  28.125  1.00  0.00     0.167 HD
ATOM     64  C   UNL A   1      46.795  30.458  27.896  1.00  0.00     0.074 A 
ATOM     65  C   UNL A   1      48.184  30.752  27.617  1.00  0.00     0.031 C 
ATOM     66  C   UNL A   1      45.922  31.351  28.428  1.00  0.00     0.034 A 
BRANCH  53  67
ATOM     67  C   UNL A   1      40.212  29.091  29.283  1.00  0.00     0.023 A 
ATOM     68  C   UNL A   1      39.843  29.023  30.638  1.00  0.00     0.031 A 
ATOM     69  C   UNL A   1      39.205  29.362  28.340  1.00  0.00     0.131 A 
ATOM     70  C   UNL A   1      38.496  29.143  31.005  1.00  0.00     0.055 A 
ATOM     71  C   UNL A   1      37.877  29.564  28.720  1.00  0.00     0.041 A 
ATOM     72  F   UNL A   1      39.494  29.421  27.030  1.00  0.00    -0.206 F 
ATOM     73  C   UNL A   1      37.513  29.439  30.059  1.00  0.00     0.022 A 
BRANCH  70  74
ATOM     74  S   UNL A   1      38.031  28.774  32.718  1.00  0.00     0.124 S 
ATOM     75  O   UNL A   1      39.059  29.502  33.461  1.00  0.00    -0.237 OA
ATOM     76  O   UNL A   1      36.681  29.314  32.804  1.00  0.00    -0.237 OA
ATOM     77  O   UNL A   1      38.129  27.318  32.795  1.00  0.00    -0.744 OA
ENDBRANCH  70  74
ENDBRANCH  53  67
BRANCH  54  78
ATOM     78  C   UNL A   1      49.458  27.077  25.981  1.00  0.00     0.023 A 
ATOM     79  C   UNL A   1      49.833  27.564  24.719  1.00  0.00     0.031 A 
ATOM     80  C   UNL A   1      50.380  26.277  26.678  1.00  0.00     0.131 A 
ATOM     81  C   UNL A   1      51.070  27.199  24.165  1.00  0.00     0.055 A 
ATOM     82  C   UNL A   1      51.632  25.961  26.147  1.00  0.00     0.041 A 
ATOM     83  F   UNL A   1      50.076  25.791  27.892  1.00  0.00    -0.206 F 
ATOM     84  C   UNL A   1      51.977  26.409  24.875  1.00  0.00     0.022 A 
BRANCH  81  85
ATOM     85  S   UNL A   1      51.432  27.683  22.455  1.00  0.00     0.124 S 
ATOM     86  O   UNL A   1      52.890  27.666  22.442  1.00  0.00    -0.237 OA
ATOM     87  O   UNL A   1      50.771  26.625  21.697  1.00  0.00    -0.237 OA
ATOM     88  O   UNL A   1      50.821  29.005  22.339  1.00  0.00    -0.744 OA
ENDBRANCH  81  85
ENDBRANCH  54  78
BRANCH  66  89
ATOM     89  C   UNL A   1      46.469  32.707  28.792  1.00  0.00     0.023 A 
ATOM     90  C   UNL A   1      46.485  33.770  27.873  1.00  0.00     0.031 A 
ATOM     91  C   UNL A   1      46.988  32.933  30.079  1.00  0.00     0.131 A 
ATOM     92  C   UNL A   1      47.059  34.998  28.238  1.00  0.00     0.055 A 
ATOM     93  C   UNL A   1      47.508  34.172  30.454  1.00  0.00     0.041 A 
ATOM     94  F   UNL A   1      46.995  31.952  30.995  1.00  0.00    -0.206 F 
ATOM     95  C   UNL A   1      47.557  35.210  29.526  1.00  0.00     0.022 A 
BRANCH  92  96
ATOM     96  S   UNL A   1      47.216  36.293  26.978  1.00  0.00     0.124 S 
ATOM     97  O   UNL A   1      46.299  35.825  25.944  1.00  0.00    -0.237 OA
ATOM     98  O   UNL A   1      46.800  37.488  27.705  1.00  0.00    -0.237 OA
ATOM     99  O   UNL A   1      48.632  36.251  26.618  1.00  0.00    -0.744 OA
ENDBRANCH  92  96
ENDBRANCH  66  89
ENDBRANCH  40  41
ENDBRANCH  32  35
ENDBRANCH  30  31
ENDBRANCH  29  30
ENDBRANCH   1  29
TORSDOF 17
ENDMDL
MODEL 2
REMARK VINA RESULT:     -12.3      2.006      2.717
REMARK SMILES COc1cc(C(=O)NC2(C(=O)NCCCCNC(=O)c3ccc(-c4c5nc(c(-c6cc(S(=O)(=O)[O-])ccc6F)c6ccc([nH]6)c(-c6cc(S(=O)(=O)[O-])ccc6F)c6nc(c(-c7cc(S(=O)(=O)[O-])ccc7F)c7ccc4[nH]7)C=C6)C=C5)cc3)CCCCC2)cc2c1OCCO2
REMARK SMILES IDX 14 1 13 2 12 3 10 4 11 5 9 7 83 8 87 9 84 10 86 11 85 12
REMARK SMILES IDX 8 13 6 14 7 15 5 17 3 18 4 19 90 20 89 21 91 22 88 23 94 24
REMARK SMILES IDX 92 25 93 26 2 27 1 28 15 29 16 30 17 31 18 32 19 34 20 35
REMARK SMILES IDX 21 36 82 37 22 38 81 39 23 40 24 41 25 42 75 43 26 44 80 45
REMARK SMILES IDX 74 46 76 47 27 48 79 49 73 50 72 51 28 53 60 54 40 55 59 56
REMARK SMILES IDX 41 57 44 58 58 59 77 60 42 61 43 62 57 64 78 65 45 66 29 67
REMARK SMILES IDX 30 68 38 69 31 70 37 71 39 72 36 73 32 74 33 75 34 76 35 77
REMARK SMILES IDX 61 78 62 79 70 80 63 81 69 82 71 83 68 84 64 85 65 86 66 87
REMARK SMILES IDX 67 88 46 89 47 90 55 91 48 92 54 93 56 94 53 95 49 96 50 97
REMARK SMILES IDX 51 98 52 99
REMARK H PARENT 12 6 8 16 17 33 76 52 44 63
REMARK Flexibility Score: inf
ROOT
ATOM      1  C   UNL A   1      36.122  22.557  23.522  1.00  0.00     0.023 C 
ENDROOT
BRANCH   1   2
ATOM      2  C   UNL A   1      34.858  23.410  23.637  1.00  0.00     0.116 C 
BRANCH   2   3
ATOM      3  N   UNL A   1      34.479  23.693  25.008  1.00  0.00    -0.354 N 
ATOM      4  C   UNL A   1      33.438  23.271  25.778  1.00  0.00     0.245 C 
ATOM      5  O   UNL A   1      33.491  23.576  26.978  1.00  0.00    -0.272 OA
ATOM      6  H   UNL A   1      35.093  24.308  25.470  1.00  0.00     0.163 HD
BRANCH   4   7
ATOM      7  C   UNL A   1      32.199  22.468  25.209  1.00  0.00     0.119 C 
ATOM      8  C   UNL A   1      32.459  20.965  25.408  1.00  0.00     0.038 C 
ATOM      9  C   UNL A   1      31.923  23.017  23.803  1.00  0.00     0.038 C 
ATOM     10  C   UNL A   1      32.546  20.051  24.186  1.00  0.00     0.003 C 
ATOM     11  C   UNL A   1      31.991  22.077  22.610  1.00  0.00     0.003 C 
ATOM     12  C   UNL A   1      32.518  20.663  22.795  1.00  0.00     0.000 C 
BRANCH   7  13
ATOM     13  N   UNL A   1      31.091  22.898  26.148  1.00  0.00    -0.338 N 
ATOM     14  C   UNL A   1      30.394  24.027  26.498  1.00  0.00     0.252 C 
ATOM     15  O   UNL A   1      29.521  23.897  27.360  1.00  0.00    -0.269 OA
ATOM     16  H   UNL A   1      30.771  22.127  26.671  1.00  0.00     0.164 HD
BRANCH  14  17
ATOM     17  C   UNL A   1      30.618  25.400  25.953  1.00  0.00     0.047 A 
ATOM     18  C   UNL A   1      31.670  27.598  25.985  1.00  0.00     0.165 A 
ATOM     19  C   UNL A   1      31.529  26.302  26.477  1.00  0.00     0.064 A 
ATOM     20  C   UNL A   1      30.947  28.002  24.872  1.00  0.00     0.203 A 
ATOM     21  C   UNL A   1      30.078  27.084  24.271  1.00  0.00     0.166 A 
ATOM     22  O   UNL A   1      31.151  29.269  24.393  1.00  0.00    -0.483 OA
ATOM     23  C   UNL A   1      29.891  25.808  24.823  1.00  0.00     0.064 A 
ATOM     24  O   UNL A   1      29.377  27.368  23.124  1.00  0.00    -0.486 OA
ATOM     25  C   UNL A   1      30.172  29.634  23.418  1.00  0.00     0.271 C 
ATOM     26  C   UNL A   1      29.946  28.493  22.444  1.00  0.00     0.271 C 
BRANCH  18  27
ATOM     27  O   UNL A   1      32.589  28.391  26.620  1.00  0.00    -0.493 OA
ATOM     28  C   UNL A   1      33.923  27.943  26.377  1.00  0.00     0.278 C 
ENDBRANCH  18  27
ENDBRANCH  14  17
ENDBRANCH   7  13
ENDBRANCH   4   7
ENDBRANCH   2   3
ENDBRANCH   1   2
BRANCH   1  29
ATOM     29  C   UNL A   1      36.169  21.381  24.494  1.00  0.00     0.023 C 
BRANCH  29  30
ATOM     30  C   UNL A   1      37.179  21.509  25.630  1.00  0.00     0.116 C 
BRANCH  30  31
ATOM     31  N   UNL A   1      38.242  20.514  25.618  1.00  0.00    -0.352 N 
ATOM     32  C   UNL A   1      39.521  20.659  26.124  1.00  0.00     0.251 C 
ATOM     33  H   UNL A   1      38.027  19.646  25.206  1.00  0.00     0.163 HD
ATOM     34  O   UNL A   1      40.345  19.763  26.012  1.00  0.00    -0.269 OA
BRANCH  32  35
ATOM     35  C   UNL A   1      39.879  21.955  26.746  1.00  0.00     0.039 A 
ATOM     36  C   UNL A   1      40.870  21.982  27.729  1.00  0.00     0.014 A 
ATOM     37  C   UNL A   1      39.348  23.142  26.239  1.00  0.00     0.014 A 
ATOM     38  C   UNL A   1      41.408  23.209  28.124  1.00  0.00     0.010 A 
ATOM     39  C   UNL A   1      39.945  24.354  26.572  1.00  0.00     0.010 A 
ATOM     40  C   UNL A   1      40.994  24.400  27.505  1.00  0.00    -0.014 A 
BRANCH  40  41
ATOM     41  C   UNL A   1      41.651  25.704  27.800  1.00  0.00     0.031 A 
ATOM     42  C   UNL A   1      40.893  26.769  28.544  1.00  0.00     0.074 A 
ATOM     43  C   UNL A   1      42.887  25.960  27.325  1.00  0.00     0.049 A 
ATOM     44  N   UNL A   1      41.230  28.010  28.788  1.00  0.00    -0.248 NA
ATOM     45  C   UNL A   1      39.560  26.399  29.045  1.00  0.00     0.031 C 
ATOM     46  C   UNL A   1      43.706  25.032  26.541  1.00  0.00     0.029 A 
ATOM     47  N   UNL A   1      43.671  27.085  27.420  1.00  0.00    -0.354 N 
ATOM     48  C   UNL A   1      40.145  28.572  29.452  1.00  0.00     0.074 A 
ATOM     49  C   UNL A   1      39.117  27.555  29.511  1.00  0.00     0.031 C 
ATOM     50  C   UNL A   1      44.880  25.616  26.247  1.00  0.00     0.029 A 
ATOM     51  C   UNL A   1      44.887  26.973  26.782  1.00  0.00     0.049 A 
ATOM     52  H   UNL A   1      43.389  27.897  27.901  1.00  0.00     0.167 HD
ATOM     53  C   UNL A   1      40.027  29.812  29.991  1.00  0.00     0.034 A 
ATOM     54  C   UNL A   1      45.886  27.867  26.634  1.00  0.00     0.034 A 
ATOM     55  C   UNL A   1      41.070  30.806  29.953  1.00  0.00     0.049 A 
ATOM     56  C   UNL A   1      45.736  29.235  27.253  1.00  0.00     0.074 A 
ATOM     57  C   UNL A   1      41.070  32.076  30.500  1.00  0.00     0.029 A 
ATOM     58  N   UNL A   1      42.302  30.639  29.337  1.00  0.00    -0.354 N 
ATOM     59  N   UNL A   1      44.716  29.735  27.913  1.00  0.00    -0.248 NA
ATOM     60  C   UNL A   1      46.875  30.153  27.121  1.00  0.00     0.031 C 
ATOM     61  C   UNL A   1      42.285  32.693  30.177  1.00  0.00     0.029 A 
ATOM     62  C   UNL A   1      43.066  31.786  29.481  1.00  0.00     0.049 A 
ATOM     63  H   UNL A   1      42.592  29.823  28.864  1.00  0.00     0.167 HD
ATOM     64  C   UNL A   1      45.107  31.013  28.301  1.00  0.00     0.074 A 
ATOM     65  C   UNL A   1      46.458  31.201  27.817  1.00  0.00     0.031 C 
ATOM     66  C   UNL A   1      44.414  31.951  28.997  1.00  0.00     0.034 A 
BRANCH  53  67
ATOM     67  C   UNL A   1      38.718  30.150  30.660  1.00  0.00     0.023 A 
ATOM     68  C   UNL A   1      37.691  30.814  29.968  1.00  0.00     0.031 A 
ATOM     69  C   UNL A   1      38.503  29.833  32.012  1.00  0.00     0.131 A 
ATOM     70  C   UNL A   1      36.531  31.210  30.647  1.00  0.00     0.055 A 
ATOM     71  C   UNL A   1      37.310  30.157  32.662  1.00  0.00     0.041 A 
ATOM     72  F   UNL A   1      39.456  29.216  32.730  1.00  0.00    -0.206 F 
ATOM     73  C   UNL A   1      36.321  30.863  31.983  1.00  0.00     0.022 A 
BRANCH  70  74
ATOM     74  S   UNL A   1      35.359  32.300  29.793  1.00  0.00     0.124 S 
ATOM     75  O   UNL A   1      36.229  33.405  29.392  1.00  0.00    -0.237 OA
ATOM     76  O   UNL A   1      34.866  31.453  28.715  1.00  0.00    -0.237 OA
ATOM     77  O   UNL A   1      34.381  32.629  30.827  1.00  0.00    -0.744 OA
ENDBRANCH  70  74
ENDBRANCH  53  67
BRANCH  54  78
ATOM     78  C   UNL A   1      47.117  27.518  25.867  1.00  0.00     0.023 A 
ATOM     79  C   UNL A   1      47.242  27.853  24.509  1.00  0.00     0.031 A 
ATOM     80  C   UNL A   1      48.157  26.782  26.460  1.00  0.00     0.131 A 
ATOM     81  C   UNL A   1      48.350  27.402  23.774  1.00  0.00     0.055 A 
ATOM     82  C   UNL A   1      49.284  26.382  25.738  1.00  0.00     0.041 A 
ATOM     83  F   UNL A   1      48.093  26.440  27.757  1.00  0.00    -0.206 F 
ATOM     84  C   UNL A   1      49.377  26.678  24.382  1.00  0.00     0.022 A 
BRANCH  81  85
ATOM     85  S   UNL A   1      48.375  27.685  21.982  1.00  0.00     0.124 S 
ATOM     86  O   UNL A   1      47.046  28.238  21.748  1.00  0.00    -0.237 OA
ATOM     87  O   UNL A   1      49.491  28.614  21.841  1.00  0.00    -0.237 OA
ATOM     88  O   UNL A   1      48.603  26.351  21.431  1.00  0.00    -0.744 OA
ENDBRANCH  81  85
ENDBRANCH  54  78
BRANCH  66  89
ATOM     89  C   UNL A   1      45.134  33.234  29.320  1.00  0.00     0.023 A 
ATOM     90  C   UNL A   1      45.049  34.361  28.485  1.00  0.00     0.031 A 
ATOM     91  C   UNL A   1      45.923  33.325  30.480  1.00  0.00     0.131 A 
ATOM     92  C   UNL A   1      45.785  35.515  28.795  1.00  0.00     0.055 A 
ATOM     93  C   UNL A   1      46.609  34.493  30.812  1.00  0.00     0.041 A 
ATOM     94  F   UNL A   1      46.037  32.277  31.312  1.00  0.00    -0.206 F 
ATOM     95  C   UNL A   1      46.552  35.593  29.960  1.00  0.00     0.022 A 
BRANCH  92  96
ATOM     96  S   UNL A   1      45.787  36.890  27.611  1.00  0.00     0.124 S 
ATOM     97  O   UNL A   1      44.468  36.765  26.998  1.00  0.00    -0.237 OA
ATOM     98  O   UNL A   1      45.979  38.047  28.479  1.00  0.00    -0.237 OA
ATOM     99  O   UNL A   1      46.912  36.583  26.732  1.00  0.00    -0.744 OA
ENDBRANCH  92  96
ENDBRANCH  66  89
ENDBRANCH  40  41
ENDBRANCH  32  35
ENDBRANCH  30  31
ENDBRANCH  29  30
ENDBRANCH   1  29
TORSDOF 17
ENDMDL
MODEL 3
REMARK VINA RESULT:     -12.3      2.295      7.899
REMARK SMILES COc1cc(C(=O)NC2(C(=O)NCCCCNC(=O)c3ccc(-c4c5nc(c(-c6cc(S(=O)(=O)[O-])ccc6F)c6ccc([nH]6)c(-c6cc(S(=O)(=O)[O-])ccc6F)c6nc(c(-c7cc(S(=O)(=O)[O-])ccc7F)c7ccc4[nH]7)C=C6)C=C5)cc3)CCCCC2)cc2c1OCCO2
REMARK SMILES IDX 14 1 13 2 12 3 10 4 11 5 9 7 83 8 87 9 84 10 86 11 85 12
REMARK SMILES IDX 8 13 6 14 7 15 5 17 3 18 4 19 90 20 89 21 91 22 88 23 94 24
REMARK SMILES IDX 92 25 93 26 2 27 1 28 15 29 16 30 17 31 18 32 19 34 20 35
REMARK SMILES IDX 21 36 82 37 22 38 81 39 23 40 24 41 25 42 75 43 26 44 80 45
REMARK SMILES IDX 74 46 76 47 27 48 79 49 73 50 72 51 28 53 60 54 40 55 59 56
REMARK SMILES IDX 41 57 44 58 58 59 77 60 42 61 43 62 57 64 78 65 45 66 29 67
REMARK SMILES IDX 30 68 38 69 31 70 37 71 39 72 36 73 32 74 33 75 34 76 35 77
REMARK SMILES IDX 61 78 62 79 70 80 63 81 69 82 71 83 68 84 64 85 65 86 66 87
REMARK SMILES IDX 67 88 46 89 47 90 55 91 48 92 54 93 56 94 53 95 49 96 50 97
REMARK SMILES IDX 51 98 52 99
REMARK H PARENT 12 6 8 16 17 33 76 52 44 63
REMARK Flexibility Score: inf
ROOT
ATOM      1  C   UNL A   1      36.342  22.755  23.465  1.00  0.00     0.023 C 
ENDROOT
BRANCH   1   2
ATOM      2  C   UNL A   1      34.936  23.343  23.604  1.00  0.00     0.116 C 
BRANCH   2   3
ATOM      3  N   UNL A   1      34.557  23.602  24.980  1.00  0.00    -0.354 N 
ATOM      4  C   UNL A   1      33.503  23.186  25.735  1.00  0.00     0.245 C 
ATOM      5  O   UNL A   1      33.556  23.461  26.942  1.00  0.00    -0.272 OA
ATOM      6  H   UNL A   1      35.183  24.191  25.460  1.00  0.00     0.163 HD
BRANCH   4   7
ATOM      7  C   UNL A   1      32.248  22.425  25.141  1.00  0.00     0.119 C 
ATOM      8  C   UNL A   1      32.485  20.912  25.281  1.00  0.00     0.038 C 
ATOM      9  C   UNL A   1      31.976  23.033  23.758  1.00  0.00     0.038 C 
ATOM     10  C   UNL A   1      32.552  20.045  24.024  1.00  0.00     0.003 C 
ATOM     11  C   UNL A   1      32.024  22.138  22.530  1.00  0.00     0.003 C 
ATOM     12  C   UNL A   1      32.528  20.710  22.658  1.00  0.00     0.000 C 
BRANCH   7  13
ATOM     13  N   UNL A   1      31.152  22.836  26.101  1.00  0.00    -0.338 N 
ATOM     14  C   UNL A   1      30.460  23.959  26.482  1.00  0.00     0.252 C 
ATOM     15  O   UNL A   1      29.596  23.812  27.351  1.00  0.00    -0.269 OA
ATOM     16  H   UNL A   1      30.836  22.055  26.610  1.00  0.00     0.164 HD
BRANCH  14  17
ATOM     17  C   UNL A   1      30.681  25.343  25.965  1.00  0.00     0.047 A 
ATOM     18  C   UNL A   1      31.757  27.529  26.017  1.00  0.00     0.165 A 
ATOM     19  C   UNL A   1      31.618  26.222  26.481  1.00  0.00     0.064 A 
ATOM     20  C   UNL A   1      31.002  27.968  24.939  1.00  0.00     0.203 A 
ATOM     21  C   UNL A   1      30.103  27.074  24.345  1.00  0.00     0.166 A 
ATOM     22  O   UNL A   1      31.203  29.245  24.486  1.00  0.00    -0.483 OA
ATOM     23  C   UNL A   1      29.921  25.787  24.871  1.00  0.00     0.064 A 
ATOM     24  O   UNL A   1      29.367  27.395  23.230  1.00  0.00    -0.486 OA
ATOM     25  C   UNL A   1      30.197  29.645  23.554  1.00  0.00     0.271 C 
ATOM     26  C   UNL A   1      29.926  28.531  22.559  1.00  0.00     0.271 C 
BRANCH  18  27
ATOM     27  O   UNL A   1      32.705  28.297  26.640  1.00  0.00    -0.493 OA
ATOM     28  C   UNL A   1      34.011  28.034  26.125  1.00  0.00     0.278 C 
ENDBRANCH  18  27
ENDBRANCH  14  17
ENDBRANCH   7  13
ENDBRANCH   4   7
ENDBRANCH   2   3
ENDBRANCH   1   2
BRANCH   1  29
ATOM     29  C   UNL A   1      36.601  21.544  24.356  1.00  0.00     0.023 C 
BRANCH  29  30
ATOM     30  C   UNL A   1      37.480  21.803  25.575  1.00  0.00     0.116 C 
BRANCH  30  31
ATOM     31  N   UNL A   1      38.632  20.921  25.697  1.00  0.00    -0.352 N 
ATOM     32  C   UNL A   1      39.842  21.214  26.302  1.00  0.00     0.251 C 
ATOM     33  H   UNL A   1      38.541  20.022  25.308  1.00  0.00     0.163 HD
ATOM     34  O   UNL A   1      40.756  20.403  26.299  1.00  0.00    -0.269 OA
BRANCH  32  35
ATOM     35  C   UNL A   1      40.014  22.561  26.893  1.00  0.00     0.039 A 
ATOM     36  C   UNL A   1      40.917  22.727  27.945  1.00  0.00     0.014 A 
ATOM     37  C   UNL A   1      39.406  23.668  26.297  1.00  0.00     0.014 A 
ATOM     38  C   UNL A   1      41.293  24.017  28.327  1.00  0.00     0.010 A 
ATOM     39  C   UNL A   1      39.847  24.946  26.622  1.00  0.00     0.010 A 
ATOM     40  C   UNL A   1      40.809  25.136  27.628  1.00  0.00    -0.014 A 
BRANCH  40  41
ATOM     41  C   UNL A   1      41.303  26.511  27.916  1.00  0.00     0.031 A 
ATOM     42  C   UNL A   1      42.714  26.887  27.557  1.00  0.00     0.074 A 
ATOM     43  C   UNL A   1      40.516  27.386  28.576  1.00  0.00     0.049 A 
ATOM     44  N   UNL A   1      43.378  27.980  27.837  1.00  0.00    -0.248 NA
ATOM     45  C   UNL A   1      43.495  25.882  26.821  1.00  0.00     0.031 C 
ATOM     46  C   UNL A   1      39.147  27.124  29.030  1.00  0.00     0.029 A 
ATOM     47  N   UNL A   1      40.758  28.672  28.995  1.00  0.00    -0.354 N 
ATOM     48  C   UNL A   1      44.658  27.785  27.328  1.00  0.00     0.074 A 
ATOM     49  C   UNL A   1      44.693  26.444  26.784  1.00  0.00     0.031 C 
ATOM     50  C   UNL A   1      38.667  28.220  29.641  1.00  0.00     0.029 A 
ATOM     51  C   UNL A   1      39.700  29.249  29.664  1.00  0.00     0.049 A 
ATOM     52  H   UNL A   1      41.609  29.140  28.831  1.00  0.00     0.167 HD
ATOM     53  C   UNL A   1      45.699  28.653  27.290  1.00  0.00     0.034 A 
ATOM     54  C   UNL A   1      39.583  30.463  30.239  1.00  0.00     0.034 A 
ATOM     55  C   UNL A   1      45.642  29.997  27.807  1.00  0.00     0.049 A 
ATOM     56  C   UNL A   1      40.752  31.416  30.172  1.00  0.00     0.074 A 
ATOM     57  C   UNL A   1      46.624  30.972  27.784  1.00  0.00     0.029 A 
ATOM     58  N   UNL A   1      44.540  30.559  28.436  1.00  0.00    -0.354 N 
ATOM     59  N   UNL A   1      41.942  31.227  29.651  1.00  0.00    -0.248 NA
ATOM     60  C   UNL A   1      40.556  32.750  30.757  1.00  0.00     0.031 C 
ATOM     61  C   UNL A   1      46.130  32.107  28.438  1.00  0.00     0.029 A 
ATOM     62  C   UNL A   1      44.820  31.862  28.815  1.00  0.00     0.049 A 
ATOM     63  H   UNL A   1      43.683  30.098  28.592  1.00  0.00     0.167 HD
ATOM     64  C   UNL A   1      42.623  32.430  29.817  1.00  0.00     0.074 A 
ATOM     65  C   UNL A   1      41.707  33.340  30.471  1.00  0.00     0.031 C 
ATOM     66  C   UNL A   1      43.891  32.756  29.461  1.00  0.00     0.034 A 
BRANCH  53  67
ATOM     67  C   UNL A   1      46.983  28.163  26.668  1.00  0.00     0.023 A 
ATOM     68  C   UNL A   1      47.188  28.206  25.279  1.00  0.00     0.031 A 
ATOM     69  C   UNL A   1      48.002  27.618  27.468  1.00  0.00     0.131 A 
ATOM     70  C   UNL A   1      48.346  27.643  24.724  1.00  0.00     0.055 A 
ATOM     71  C   UNL A   1      49.190  27.134  26.916  1.00  0.00     0.041 A 
ATOM     72  F   UNL A   1      47.855  27.532  28.800  1.00  0.00    -0.206 F 
ATOM     73  C   UNL A   1      49.361  27.131  25.534  1.00  0.00     0.022 A 
BRANCH  70  74
ATOM     74  S   UNL A   1      48.443  27.472  22.921  1.00  0.00     0.124 S 
ATOM     75  O   UNL A   1      47.198  28.113  22.500  1.00  0.00    -0.237 OA
ATOM     76  O   UNL A   1      49.670  28.190  22.600  1.00  0.00    -0.237 OA
ATOM     77  O   UNL A   1      48.493  26.026  22.716  1.00  0.00    -0.744 OA
ENDBRANCH  70  74
ENDBRANCH  53  67
BRANCH  54  78
ATOM     78  C   UNL A   1      38.326  30.860  30.938  1.00  0.00     0.023 A 
ATOM     79  C   UNL A   1      37.288  31.506  30.247  1.00  0.00     0.031 A 
ATOM     80  C   UNL A   1      38.171  30.663  32.321  1.00  0.00     0.131 A 
ATOM     81  C   UNL A   1      36.171  31.987  30.948  1.00  0.00     0.055 A 
ATOM     82  C   UNL A   1      37.033  31.095  33.006  1.00  0.00     0.041 A 
ATOM     83  F   UNL A   1      39.129  30.045  33.030  1.00  0.00    -0.206 F 
ATOM     84  C   UNL A   1      36.032  31.777  32.321  1.00  0.00     0.022 A 
BRANCH  81  85
ATOM     85  S   UNL A   1      34.951  32.989  30.054  1.00  0.00     0.124 S 
ATOM     86  O   UNL A   1      34.093  33.452  31.138  1.00  0.00    -0.237 OA
ATOM     87  O   UNL A   1      35.797  34.001  29.427  1.00  0.00    -0.237 OA
ATOM     88  O   UNL A   1      34.337  32.036  29.133  1.00  0.00    -0.744 OA
ENDBRANCH  81  85
ENDBRANCH  54  78
BRANCH  66  89
ATOM     89  C   UNL A   1      44.332  34.173  29.723  1.00  0.00     0.023 A 
ATOM     90  C   UNL A   1      44.139  35.195  28.777  1.00  0.00     0.031 A 
ATOM     91  C   UNL A   1      44.962  34.501  30.936  1.00  0.00     0.131 A 
ATOM     92  C   UNL A   1      44.619  36.487  29.039  1.00  0.00     0.055 A 
ATOM     93  C   UNL A   1      45.389  35.799  31.214  1.00  0.00     0.041 A 
ATOM     94  F   UNL A   1      45.169  33.562  31.873  1.00  0.00    -0.206 F 
ATOM     95  C   UNL A   1      45.230  36.798  30.257  1.00  0.00     0.022 A 
BRANCH  92  96
ATOM     96  S   UNL A   1      44.505  37.740  27.733  1.00  0.00     0.124 S 
ATOM     97  O   UNL A   1      44.435  38.977  28.504  1.00  0.00    -0.237 OA
ATOM     98  O   UNL A   1      45.740  37.524  26.986  1.00  0.00    -0.237 OA
ATOM     99  O   UNL A   1      43.281  37.382  27.021  1.00  0.00    -0.744 OA
ENDBRANCH  92  96
ENDBRANCH  66  89
ENDBRANCH  40  41
ENDBRANCH  32  35
ENDBRANCH  30  31
ENDBRANCH  29  30
ENDBRANCH   1  29
TORSDOF 17
ENDMDL
