MODEL 1
REMARK VINA RESULT:     -12.5      0.000      0.000
REMARK SMILES O=C(Cc1ccc(F)c(F)c1)NC1(C(=O)NCCCCNC(=O)c2ccc(-c3c4nc(c(-c5cc(S(=O)(=O)[O-])ccc5F)c5ccc([nH]5)c(-c5cc(S(=O)(=O)[O-])ccc5F)c5nc(c(-c6cc(S(=O)(=O)[O-])ccc6F)c6ccc3[nH]6)C=C5)C=C4)cc2)CCCC1
REMARK SMILES IDX 18 1 17 2 16 3 14 4 15 5 13 7 87 8 90 9 88 10 89 11 12 12
REMARK SMILES IDX 1 13 2 14 3 16 4 17 5 18 11 19 6 20 9 21 7 22 10 23 8 24
REMARK SMILES IDX 19 25 20 26 21 27 22 28 23 30 24 31 25 32 86 33 26 34 85 35
REMARK SMILES IDX 27 36 28 37 29 38 79 39 30 40 84 41 78 42 80 43 31 44 83 45
REMARK SMILES IDX 77 46 76 47 32 49 64 50 44 51 63 52 45 53 48 54 62 55 81 56
REMARK SMILES IDX 46 57 47 58 61 60 82 61 49 62 33 63 34 64 42 65 35 66 41 67
REMARK SMILES IDX 43 68 40 69 36 70 37 71 38 72 39 73 65 74 66 75 74 76 67 77
REMARK SMILES IDX 73 78 75 79 72 80 68 81 69 82 70 83 71 84 50 85 51 86 59 87
REMARK SMILES IDX 52 88 58 89 60 90 57 91 53 92 54 93 55 94 56 95
REMARK H PARENT 16 6 12 15 21 29 80 48 48 59
REMARK Flexibility Score: inf
ROOT
ATOM      1  C   UNL A   1      31.443  30.850  25.762  1.00  0.00     0.023 C 
ENDROOT
BRANCH   1   2
ATOM      2  C   UNL A   1      32.629  29.920  25.993  1.00  0.00     0.116 C 
BRANCH   2   3
ATOM      3  N   UNL A   1      33.391  29.693  24.789  1.00  0.00    -0.354 N 
ATOM      4  C   UNL A   1      33.411  28.641  23.926  1.00  0.00     0.245 C 
ATOM      5  O   UNL A   1      34.068  28.817  22.888  1.00  0.00    -0.272 OA
ATOM      6  H   UNL A   1      34.002  30.427  24.550  1.00  0.00     0.163 HD
BRANCH   4   7
ATOM      7  C   UNL A   1      32.576  27.328  24.134  1.00  0.00     0.119 C 
ATOM      8  C   UNL A   1      32.788  26.754  25.549  1.00  0.00     0.038 C 
ATOM      9  C   UNL A   1      32.873  26.171  23.167  1.00  0.00     0.038 C 
ATOM     10  C   UNL A   1      33.366  25.350  25.426  1.00  0.00     0.003 C 
ATOM     11  C   UNL A   1      33.475  25.014  23.951  1.00  0.00     0.003 C 
BRANCH   7  12
ATOM     12  N   UNL A   1      31.165  27.779  24.054  1.00  0.00    -0.341 N 
ATOM     13  O   UNL A   1      30.775  27.529  21.796  1.00  0.00    -0.275 OA
ATOM     14  C   UNL A   1      30.393  27.853  22.916  1.00  0.00     0.225 C 
ATOM     15  H   UNL A   1      30.738  28.052  24.899  1.00  0.00     0.164 HD
BRANCH  14  16
ATOM     16  C   UNL A   1      28.995  28.397  23.155  1.00  0.00     0.135 C 
BRANCH  16  17
ATOM     17  C   UNL A   1      28.684  29.791  22.632  1.00  0.00    -0.036 A 
ATOM     18  C   UNL A   1      28.706  30.856  23.556  1.00  0.00     0.007 A 
ATOM     19  C   UNL A   1      28.337  30.080  21.302  1.00  0.00     0.046 A 
ATOM     20  C   UNL A   1      28.371  32.157  23.166  1.00  0.00     0.043 A 
ATOM     21  C   UNL A   1      27.985  31.374  20.926  1.00  0.00     0.159 A 
ATOM     22  C   UNL A   1      28.000  32.405  21.851  1.00  0.00     0.158 A 
ATOM     23  F   UNL A   1      27.620  31.610  19.658  1.00  0.00    -0.204 F 
ATOM     24  F   UNL A   1      27.656  33.648  21.486  1.00  0.00    -0.204 F 
ENDBRANCH  16  17
ENDBRANCH  14  16
ENDBRANCH   7  12
ENDBRANCH   4   7
ENDBRANCH   2   3
ENDBRANCH   1   2
BRANCH   1  25
ATOM     25  C   UNL A   1      31.352  32.009  26.755  1.00  0.00     0.023 C 
BRANCH  25  26
ATOM     26  C   UNL A   1      32.660  32.750  27.020  1.00  0.00     0.116 C 
BRANCH  26  27
ATOM     27  N   UNL A   1      32.484  34.040  27.669  1.00  0.00    -0.352 N 
ATOM     28  C   UNL A   1      33.225  34.584  28.693  1.00  0.00     0.251 C 
ATOM     29  H   UNL A   1      31.742  34.593  27.333  1.00  0.00     0.163 HD
ATOM     30  O   UNL A   1      32.893  35.655  29.194  1.00  0.00    -0.269 OA
BRANCH  28  31
ATOM     31  C   UNL A   1      34.389  33.835  29.208  1.00  0.00     0.039 A 
ATOM     32  C   UNL A   1      35.674  34.299  28.917  1.00  0.00     0.014 A 
ATOM     33  C   UNL A   1      34.205  32.724  30.035  1.00  0.00     0.014 A 
ATOM     34  C   UNL A   1      36.775  33.693  29.524  1.00  0.00     0.010 A 
ATOM     35  C   UNL A   1      35.298  32.170  30.692  1.00  0.00     0.010 A 
ATOM     36  C   UNL A   1      36.593  32.653  30.449  1.00  0.00    -0.014 A 
BRANCH  36  37
ATOM     37  C   UNL A   1      37.744  32.059  31.177  1.00  0.00     0.031 A 
ATOM     38  C   UNL A   1      38.520  30.930  30.557  1.00  0.00     0.074 A 
ATOM     39  C   UNL A   1      38.039  32.485  32.421  1.00  0.00     0.049 A 
ATOM     40  N   UNL A   1      39.498  30.223  31.060  1.00  0.00    -0.248 NA
ATOM     41  C   UNL A   1      38.115  30.520  29.204  1.00  0.00     0.031 C 
ATOM     42  C   UNL A   1      37.322  33.535  33.148  1.00  0.00     0.029 A 
ATOM     43  N   UNL A   1      39.012  32.080  33.300  1.00  0.00    -0.354 N 
ATOM     44  C   UNL A   1      39.815  29.274  30.094  1.00  0.00     0.074 A 
ATOM     45  C   UNL A   1      38.879  29.458  29.005  1.00  0.00     0.031 C 
ATOM     46  C   UNL A   1      37.895  33.707  34.351  1.00  0.00     0.029 A 
ATOM     47  C   UNL A   1      38.994  32.758  34.497  1.00  0.00     0.049 A 
ATOM     48  H   UNL A   1      39.663  31.372  33.093  1.00  0.00     0.167 HD
ATOM     49  C   UNL A   1      40.810  28.351  30.103  1.00  0.00     0.034 A 
ATOM     50  C   UNL A   1      39.770  32.624  35.590  1.00  0.00     0.034 A 
ATOM     51  C   UNL A   1      41.746  28.195  31.189  1.00  0.00     0.049 A 
ATOM     52  C   UNL A   1      40.873  31.598  35.576  1.00  0.00     0.074 A 
ATOM     53  C   UNL A   1      42.826  27.334  31.282  1.00  0.00     0.029 A 
ATOM     54  N   UNL A   1      41.712  28.916  32.377  1.00  0.00    -0.354 N 
ATOM     55  N   UNL A   1      41.193  30.741  34.633  1.00  0.00    -0.248 NA
ATOM     56  C   UNL A   1      41.728  31.529  36.768  1.00  0.00     0.031 C 
ATOM     57  C   UNL A   1      43.410  27.497  32.544  1.00  0.00     0.029 A 
ATOM     58  C   UNL A   1      42.737  28.506  33.214  1.00  0.00     0.049 A 
ATOM     59  H   UNL A   1      41.056  29.619  32.592  1.00  0.00     0.167 HD
ATOM     60  C   UNL A   1      42.306  30.053  35.108  1.00  0.00     0.074 A 
ATOM     61  C   UNL A   1      42.609  30.605  36.413  1.00  0.00     0.031 C 
ATOM     62  C   UNL A   1      43.018  29.060  34.518  1.00  0.00     0.034 A 
BRANCH  49  63
ATOM     63  C   UNL A   1      40.912  27.435  28.907  1.00  0.00     0.023 A 
ATOM     64  C   UNL A   1      41.896  27.621  27.920  1.00  0.00     0.031 A 
ATOM     65  C   UNL A   1      39.989  26.390  28.727  1.00  0.00     0.131 A 
ATOM     66  C   UNL A   1      41.880  26.835  26.758  1.00  0.00     0.055 A 
ATOM     67  C   UNL A   1      40.033  25.555  27.608  1.00  0.00     0.041 A 
ATOM     68  F   UNL A   1      39.015  26.175  29.624  1.00  0.00    -0.206 F 
ATOM     69  C   UNL A   1      40.972  25.786  26.607  1.00  0.00     0.022 A 
BRANCH  66  70
ATOM     70  S   UNL A   1      42.967  27.306  25.383  1.00  0.00     0.124 S 
ATOM     71  O   UNL A   1      44.148  27.788  26.095  1.00  0.00    -0.237 OA
ATOM     72  O   UNL A   1      43.124  26.050  24.660  1.00  0.00    -0.237 OA
ATOM     73  O   UNL A   1      42.205  28.339  24.684  1.00  0.00    -0.744 OA
ENDBRANCH  66  70
ENDBRANCH  49  63
BRANCH  50  74
ATOM     74  C   UNL A   1      39.542  33.478  36.789  1.00  0.00     0.023 A 
ATOM     75  C   UNL A   1      38.894  32.969  37.926  1.00  0.00     0.031 A 
ATOM     76  C   UNL A   1      39.933  34.829  36.802  1.00  0.00     0.131 A 
ATOM     77  C   UNL A   1      38.614  33.814  39.010  1.00  0.00     0.055 A 
ATOM     78  C   UNL A   1      39.695  35.655  37.903  1.00  0.00     0.041 A 
ATOM     79  F   UNL A   1      40.564  35.363  35.745  1.00  0.00    -0.206 F 
ATOM     80  C   UNL A   1      39.020  35.151  39.010  1.00  0.00     0.022 A 
BRANCH  77  81
ATOM     81  S   UNL A   1      37.641  33.159  40.393  1.00  0.00     0.124 S 
ATOM     82  O   UNL A   1      38.458  32.031  40.823  1.00  0.00    -0.237 OA
ATOM     83  O   UNL A   1      37.597  34.302  41.299  1.00  0.00    -0.237 OA
ATOM     84  O   UNL A   1      36.364  32.808  39.774  1.00  0.00    -0.744 OA
ENDBRANCH  77  81
ENDBRANCH  50  74
BRANCH  62  85
ATOM     85  C   UNL A   1      44.220  28.544  35.269  1.00  0.00     0.023 A 
ATOM     86  C   UNL A   1      44.104  27.559  36.264  1.00  0.00     0.031 A 
ATOM     87  C   UNL A   1      45.498  29.062  34.993  1.00  0.00     0.131 A 
ATOM     88  C   UNL A   1      45.237  27.161  36.989  1.00  0.00     0.055 A 
ATOM     89  C   UNL A   1      46.631  28.621  35.679  1.00  0.00     0.041 A 
ATOM     90  F   UNL A   1      45.665  30.006  34.053  1.00  0.00    -0.206 F 
ATOM     91  C   UNL A   1      46.502  27.674  36.691  1.00  0.00     0.022 A 
BRANCH  88  92
ATOM     92  S   UNL A   1      45.023  26.024  38.385  1.00  0.00     0.124 S 
ATOM     93  O   UNL A   1      44.562  24.810  37.720  1.00  0.00    -0.237 OA
ATOM     94  O   UNL A   1      46.366  25.971  38.952  1.00  0.00    -0.237 OA
ATOM     95  O   UNL A   1      44.025  26.691  39.220  1.00  0.00    -0.744 OA
ENDBRANCH  88  92
ENDBRANCH  62  85
ENDBRANCH  36  37
ENDBRANCH  28  31
ENDBRANCH  26  27
ENDBRANCH  25  26
ENDBRANCH   1  25
TORSDOF 17
ENDMDL
MODEL 2
REMARK VINA RESULT:     -12.1      5.908      8.842
REMARK SMILES O=C(Cc1ccc(F)c(F)c1)NC1(C(=O)NCCCCNC(=O)c2ccc(-c3c4nc(c(-c5cc(S(=O)(=O)[O-])ccc5F)c5ccc([nH]5)c(-c5cc(S(=O)(=O)[O-])ccc5F)c5nc(c(-c6cc(S(=O)(=O)[O-])ccc6F)c6ccc3[nH]6)C=C5)C=C4)cc2)CCCC1
REMARK SMILES IDX 18 1 17 2 16 3 14 4 15 5 13 7 87 8 90 9 88 10 89 11 12 12
REMARK SMILES IDX 1 13 2 14 3 16 4 17 5 18 11 19 6 20 9 21 7 22 10 23 8 24
REMARK SMILES IDX 19 25 20 26 21 27 22 28 23 30 24 31 25 32 86 33 26 34 85 35
REMARK SMILES IDX 27 36 28 37 29 38 79 39 30 40 84 41 78 42 80 43 31 44 83 45
REMARK SMILES IDX 77 46 76 47 32 49 64 50 44 51 63 52 45 53 48 54 62 55 81 56
REMARK SMILES IDX 46 57 47 58 61 60 82 61 49 62 33 63 34 64 42 65 35 66 41 67
REMARK SMILES IDX 43 68 40 69 36 70 37 71 38 72 39 73 65 74 66 75 74 76 67 77
REMARK SMILES IDX 73 78 75 79 72 80 68 81 69 82 70 83 71 84 50 85 51 86 59 87
REMARK SMILES IDX 52 88 58 89 60 90 57 91 53 92 54 93 55 94 56 95
REMARK H PARENT 16 6 12 15 21 29 80 48 48 59
REMARK Flexibility Score: inf
ROOT
ATOM      1  C   UNL A   1      35.207  22.930  23.292  1.00  0.00     0.023 C 
ENDROOT
BRANCH   1   2
ATOM      2  C   UNL A   1      34.691  24.250  23.853  1.00  0.00     0.116 C 
BRANCH   2   3
ATOM      3  N   UNL A   1      33.950  25.010  22.875  1.00  0.00    -0.354 N 
ATOM      4  C   UNL A   1      33.009  25.981  23.020  1.00  0.00     0.245 C 
ATOM      5  O   UNL A   1      32.668  26.553  21.974  1.00  0.00    -0.272 OA
ATOM      6  H   UNL A   1      34.163  24.785  21.940  1.00  0.00     0.163 HD
BRANCH   4   7
ATOM      7  C   UNL A   1      32.456  26.457  24.410  1.00  0.00     0.119 C 
ATOM      8  C   UNL A   1      31.279  27.436  24.234  1.00  0.00     0.038 C 
ATOM      9  C   UNL A   1      33.456  27.169  25.334  1.00  0.00     0.038 C 
ATOM     10  C   UNL A   1      31.645  28.764  24.887  1.00  0.00     0.003 C 
ATOM     11  C   UNL A   1      33.018  28.616  25.514  1.00  0.00     0.003 C 
BRANCH   7  12
ATOM     12  N   UNL A   1      31.905  25.222  25.024  1.00  0.00    -0.341 N 
ATOM     13  O   UNL A   1      31.191  26.050  27.054  1.00  0.00    -0.275 OA
ATOM     14  C   UNL A   1      31.338  25.114  26.275  1.00  0.00     0.225 C 
ATOM     15  H   UNL A   1      31.951  24.401  24.484  1.00  0.00     0.164 HD
BRANCH  14  16
ATOM     16  C   UNL A   1      30.907  23.703  26.634  1.00  0.00     0.135 C 
BRANCH  16  17
ATOM     17  C   UNL A   1      31.818  22.560  26.212  1.00  0.00    -0.036 A 
ATOM     18  C   UNL A   1      32.981  22.334  26.975  1.00  0.00     0.007 A 
ATOM     19  C   UNL A   1      31.597  21.745  25.089  1.00  0.00     0.046 A 
ATOM     20  C   UNL A   1      33.900  21.343  26.614  1.00  0.00     0.043 A 
ATOM     21  C   UNL A   1      32.527  20.774  24.724  1.00  0.00     0.159 A 
ATOM     22  C   UNL A   1      33.672  20.575  25.479  1.00  0.00     0.158 A 
ATOM     23  F   UNL A   1      32.308  20.039  23.624  1.00  0.00    -0.204 F 
ATOM     24  F   UNL A   1      34.566  19.643  25.122  1.00  0.00    -0.204 F 
ENDBRANCH  16  17
ENDBRANCH  14  16
ENDBRANCH   7  12
ENDBRANCH   4   7
ENDBRANCH   2   3
ENDBRANCH   1   2
BRANCH   1  25
ATOM     25  C   UNL A   1      36.665  22.626  23.642  1.00  0.00     0.023 C 
BRANCH  25  26
ATOM     26  C   UNL A   1      36.954  22.428  25.128  1.00  0.00     0.116 C 
BRANCH  26  27
ATOM     27  N   UNL A   1      37.912  21.368  25.403  1.00  0.00    -0.352 N 
ATOM     28  C   UNL A   1      39.117  21.462  26.060  1.00  0.00     0.251 C 
ATOM     29  H   UNL A   1      37.667  20.471  25.080  1.00  0.00     0.163 HD
ATOM     30  O   UNL A   1      39.858  20.485  26.136  1.00  0.00    -0.269 OA
BRANCH  28  31
ATOM     31  C   UNL A   1      39.524  22.766  26.622  1.00  0.00     0.039 A 
ATOM     32  C   UNL A   1      40.526  22.799  27.595  1.00  0.00     0.014 A 
ATOM     33  C   UNL A   1      38.968  23.951  26.135  1.00  0.00     0.014 A 
ATOM     34  C   UNL A   1      41.028  24.031  28.020  1.00  0.00     0.010 A 
ATOM     35  C   UNL A   1      39.518  25.172  26.507  1.00  0.00     0.010 A 
ATOM     36  C   UNL A   1      40.558  25.225  27.449  1.00  0.00    -0.014 A 
BRANCH  36  37
ATOM     37  C   UNL A   1      41.144  26.539  27.818  1.00  0.00     0.031 A 
ATOM     38  C   UNL A   1      42.574  26.846  27.467  1.00  0.00     0.074 A 
ATOM     39  C   UNL A   1      40.414  27.418  28.532  1.00  0.00     0.049 A 
ATOM     40  N   UNL A   1      43.295  27.894  27.771  1.00  0.00    -0.248 NA
ATOM     41  C   UNL A   1      43.297  25.819  26.703  1.00  0.00     0.031 C 
ATOM     42  C   UNL A   1      39.035  27.209  28.979  1.00  0.00     0.029 A 
ATOM     43  N   UNL A   1      40.734  28.662  29.017  1.00  0.00    -0.354 N 
ATOM     44  C   UNL A   1      44.560  27.646  27.251  1.00  0.00     0.074 A 
ATOM     45  C   UNL A   1      44.522  26.321  26.671  1.00  0.00     0.031 C 
ATOM     46  C   UNL A   1      38.620  28.295  29.650  1.00  0.00     0.029 A 
ATOM     47  C   UNL A   1      39.711  29.262  29.716  1.00  0.00     0.049 A 
ATOM     48  H   UNL A   1      41.611  29.085  28.878  1.00  0.00     0.167 HD
ATOM     49  C   UNL A   1      45.647  28.459  27.236  1.00  0.00     0.034 A 
ATOM     50  C   UNL A   1      39.663  30.453  30.344  1.00  0.00     0.034 A 
ATOM     51  C   UNL A   1      45.661  29.786  27.802  1.00  0.00     0.049 A 
ATOM     52  C   UNL A   1      40.878  31.343  30.309  1.00  0.00     0.074 A 
ATOM     53  C   UNL A   1      46.685  30.718  27.795  1.00  0.00     0.029 A 
ATOM     54  N   UNL A   1      44.599  30.371  28.481  1.00  0.00    -0.354 N 
ATOM     55  N   UNL A   1      42.053  31.115  29.769  1.00  0.00    -0.248 NA
ATOM     56  C   UNL A   1      40.757  32.655  30.958  1.00  0.00     0.031 C 
ATOM     57  C   UNL A   1      46.261  31.841  28.515  1.00  0.00     0.029 A 
ATOM     58  C   UNL A   1      44.950  31.640  28.915  1.00  0.00     0.049 A 
ATOM     59  H   UNL A   1      43.723  29.947  28.632  1.00  0.00     0.167 HD
ATOM     60  C   UNL A   1      42.800  32.270  29.986  1.00  0.00     0.074 A 
ATOM     61  C   UNL A   1      41.938  33.194  30.695  1.00  0.00     0.031 C 
ATOM     62  C   UNL A   1      44.080  32.544  29.629  1.00  0.00     0.034 A 
BRANCH  49  63
ATOM     63  C   UNL A   1      46.905  27.916  26.604  1.00  0.00     0.023 A 
ATOM     64  C   UNL A   1      47.191  28.119  25.241  1.00  0.00     0.031 A 
ATOM     65  C   UNL A   1      47.811  27.150  27.357  1.00  0.00     0.131 A 
ATOM     66  C   UNL A   1      48.300  27.491  24.656  1.00  0.00     0.055 A 
ATOM     67  C   UNL A   1      48.961  26.599  26.787  1.00  0.00     0.041 A 
ATOM     68  F   UNL A   1      47.584  26.904  28.657  1.00  0.00    -0.206 F 
ATOM     69  C   UNL A   1      49.202  26.753  25.425  1.00  0.00     0.022 A 
BRANCH  66  70
ATOM     70  S   UNL A   1      48.459  27.527  22.850  1.00  0.00     0.124 S 
ATOM     71  O   UNL A   1      49.712  28.260  22.680  1.00  0.00    -0.237 OA
ATOM     72  O   UNL A   1      48.496  26.112  22.507  1.00  0.00    -0.237 OA
ATOM     73  O   UNL A   1      47.263  28.246  22.415  1.00  0.00    -0.744 OA
ENDBRANCH  66  70
ENDBRANCH  49  63
BRANCH  50  74
ATOM     74  C   UNL A   1      38.426  30.882  31.056  1.00  0.00     0.023 A 
ATOM     75  C   UNL A   1      37.399  31.558  30.376  1.00  0.00     0.031 A 
ATOM     76  C   UNL A   1      38.269  30.659  32.435  1.00  0.00     0.131 A 
ATOM     77  C   UNL A   1      36.283  32.028  31.083  1.00  0.00     0.055 A 
ATOM     78  C   UNL A   1      37.133  31.087  33.126  1.00  0.00     0.041 A 
ATOM     79  F   UNL A   1      39.216  30.010  33.130  1.00  0.00    -0.206 F 
ATOM     80  C   UNL A   1      36.138  31.788  32.452  1.00  0.00     0.022 A 
BRANCH  77  81
ATOM     81  S   UNL A   1      35.055  33.029  30.201  1.00  0.00     0.124 S 
ATOM     82  O   UNL A   1      35.889  34.063  29.600  1.00  0.00    -0.237 OA
ATOM     83  O   UNL A   1      34.478  32.055  29.281  1.00  0.00    -0.237 OA
ATOM     84  O   UNL A   1      34.161  33.485  31.264  1.00  0.00    -0.744 OA
ENDBRANCH  77  81
ENDBRANCH  50  74
BRANCH  62  85
ATOM     85  C   UNL A   1      44.601  33.919  29.964  1.00  0.00     0.023 A 
ATOM     86  C   UNL A   1      44.414  35.013  29.101  1.00  0.00     0.031 A 
ATOM     87  C   UNL A   1      45.310  34.132  31.160  1.00  0.00     0.131 A 
ATOM     88  C   UNL A   1      44.979  36.257  29.418  1.00  0.00     0.055 A 
ATOM     89  C   UNL A   1      45.820  35.386  31.497  1.00  0.00     0.041 A 
ATOM     90  F   UNL A   1      45.517  33.122  32.020  1.00  0.00    -0.206 F 
ATOM     91  C   UNL A   1      45.667  36.454  30.618  1.00  0.00     0.022 A 
BRANCH  88  92
ATOM     92  S   UNL A   1      44.876  37.596  28.199  1.00  0.00     0.124 S 
ATOM     93  O   UNL A   1      43.813  38.429  28.752  1.00  0.00    -0.237 OA
ATOM     94  O   UNL A   1      46.220  38.163  28.244  1.00  0.00    -0.237 OA
ATOM     95  O   UNL A   1      44.539  36.903  26.956  1.00  0.00    -0.744 OA
ENDBRANCH  88  92
ENDBRANCH  62  85
ENDBRANCH  36  37
ENDBRANCH  28  31
ENDBRANCH  26  27
ENDBRANCH  25  26
ENDBRANCH   1  25
TORSDOF 17
ENDMDL
MODEL 3
REMARK VINA RESULT:     -12.1      6.270      9.340
REMARK SMILES O=C(Cc1ccc(F)c(F)c1)NC1(C(=O)NCCCCNC(=O)c2ccc(-c3c4nc(c(-c5cc(S(=O)(=O)[O-])ccc5F)c5ccc([nH]5)c(-c5cc(S(=O)(=O)[O-])ccc5F)c5nc(c(-c6cc(S(=O)(=O)[O-])ccc6F)c6ccc3[nH]6)C=C5)C=C4)cc2)CCCC1
REMARK SMILES IDX 18 1 17 2 16 3 14 4 15 5 13 7 87 8 90 9 88 10 89 11 12 12
REMARK SMILES IDX 1 13 2 14 3 16 4 17 5 18 11 19 6 20 9 21 7 22 10 23 8 24
REMARK SMILES IDX 19 25 20 26 21 27 22 28 23 30 24 31 25 32 86 33 26 34 85 35
REMARK SMILES IDX 27 36 28 37 29 38 79 39 30 40 84 41 78 42 80 43 31 44 83 45
REMARK SMILES IDX 77 46 76 47 32 49 64 50 44 51 63 52 45 53 48 54 62 55 81 56
REMARK SMILES IDX 46 57 47 58 61 60 82 61 49 62 33 63 34 64 42 65 35 66 41 67
REMARK SMILES IDX 43 68 40 69 36 70 37 71 38 72 39 73 65 74 66 75 74 76 67 77
REMARK SMILES IDX 73 78 75 79 72 80 68 81 69 82 70 83 71 84 50 85 51 86 59 87
REMARK SMILES IDX 52 88 58 89 60 90 57 91 53 92 54 93 55 94 56 95
REMARK H PARENT 16 6 12 15 21 29 80 48 48 59
REMARK Flexibility Score: inf
ROOT
ATOM      1  C   UNL A   1      35.196  23.282  26.432  1.00  0.00     0.023 C 
ENDROOT
BRANCH   1   2
ATOM      2  C   UNL A   1      35.199  24.415  25.412  1.00  0.00     0.116 C 
BRANCH   2   3
ATOM      3  N   UNL A   1      34.222  25.432  25.719  1.00  0.00    -0.354 N 
ATOM      4  C   UNL A   1      33.012  25.709  25.163  1.00  0.00     0.245 C 
ATOM      5  O   UNL A   1      32.334  26.560  25.759  1.00  0.00    -0.272 OA
ATOM      6  H   UNL A   1      34.475  26.029  26.460  1.00  0.00     0.163 HD
BRANCH   4   7
ATOM      7  C   UNL A   1      32.426  24.941  23.925  1.00  0.00     0.119 C 
ATOM      8  C   UNL A   1      33.462  24.851  22.787  1.00  0.00     0.038 C 
ATOM      9  C   UNL A   1      31.160  25.536  23.290  1.00  0.00     0.038 C 
ATOM     10  C   UNL A   1      32.892  25.537  21.551  1.00  0.00     0.003 C 
ATOM     11  C   UNL A   1      31.491  26.014  21.883  1.00  0.00     0.003 C 
BRANCH   7  12
ATOM     12  N   UNL A   1      32.209  23.560  24.424  1.00  0.00    -0.341 N 
ATOM     13  O   UNL A   1      33.244  22.348  22.758  1.00  0.00    -0.275 OA
ATOM     14  C   UNL A   1      32.616  22.395  23.811  1.00  0.00     0.225 C 
ATOM     15  H   UNL A   1      31.726  23.468  25.277  1.00  0.00     0.164 HD
BRANCH  14  16
ATOM     16  C   UNL A   1      32.204  21.134  24.550  1.00  0.00     0.135 C 
BRANCH  16  17
ATOM     17  C   UNL A   1      32.834  19.822  24.108  1.00  0.00    -0.036 A 
ATOM     18  C   UNL A   1      32.180  19.090  23.096  1.00  0.00     0.007 A 
ATOM     19  C   UNL A   1      33.999  19.274  24.669  1.00  0.00     0.046 A 
ATOM     20  C   UNL A   1      32.662  17.845  22.679  1.00  0.00     0.043 A 
ATOM     21  C   UNL A   1      34.462  18.025  24.263  1.00  0.00     0.159 A 
ATOM     22  C   UNL A   1      33.798  17.314  23.276  1.00  0.00     0.158 A 
ATOM     23  F   UNL A   1      35.555  17.511  24.846  1.00  0.00    -0.204 F 
ATOM     24  F   UNL A   1      34.244  16.110  22.891  1.00  0.00    -0.204 F 
ENDBRANCH  16  17
ENDBRANCH  14  16
ENDBRANCH   7  12
ENDBRANCH   4   7
ENDBRANCH   2   3
ENDBRANCH   1   2
BRANCH   1  25
ATOM     25  C   UNL A   1      35.797  21.973  25.919  1.00  0.00     0.023 C 
BRANCH  25  26
ATOM     26  C   UNL A   1      37.114  22.111  25.159  1.00  0.00     0.116 C 
BRANCH  26  27
ATOM     27  N   UNL A   1      38.080  21.066  25.464  1.00  0.00    -0.352 N 
ATOM     28  C   UNL A   1      39.282  21.186  26.123  1.00  0.00     0.251 C 
ATOM     29  H   UNL A   1      37.844  20.159  25.162  1.00  0.00     0.163 HD
ATOM     30  O   UNL A   1      40.030  20.218  26.226  1.00  0.00    -0.269 OA
BRANCH  28  31
ATOM     31  C   UNL A   1      39.675  22.507  26.655  1.00  0.00     0.039 A 
ATOM     32  C   UNL A   1      40.688  22.575  27.614  1.00  0.00     0.014 A 
ATOM     33  C   UNL A   1      39.096  23.674  26.150  1.00  0.00     0.014 A 
ATOM     34  C   UNL A   1      41.176  23.822  28.009  1.00  0.00     0.010 A 
ATOM     35  C   UNL A   1      39.632  24.910  26.492  1.00  0.00     0.010 A 
ATOM     36  C   UNL A   1      40.682  24.997  27.420  1.00  0.00    -0.014 A 
BRANCH  36  37
ATOM     37  C   UNL A   1      41.252  26.327  27.757  1.00  0.00     0.031 A 
ATOM     38  C   UNL A   1      42.664  26.657  27.360  1.00  0.00     0.074 A 
ATOM     39  C   UNL A   1      40.526  27.201  28.481  1.00  0.00     0.049 A 
ATOM     40  N   UNL A   1      43.373  27.723  27.631  1.00  0.00    -0.248 NA
ATOM     41  C   UNL A   1      43.386  25.635  26.588  1.00  0.00     0.031 C 
ATOM     42  C   UNL A   1      39.165  26.970  28.970  1.00  0.00     0.029 A 
ATOM     43  N   UNL A   1      40.834  28.456  28.942  1.00  0.00    -0.354 N 
ATOM     44  C   UNL A   1      44.628  27.493  27.077  1.00  0.00     0.074 A 
ATOM     45  C   UNL A   1      44.599  26.160  26.515  1.00  0.00     0.031 C 
ATOM     46  C   UNL A   1      38.748  28.056  29.641  1.00  0.00     0.029 A 
ATOM     47  C   UNL A   1      39.821  29.045  29.663  1.00  0.00     0.049 A 
ATOM     48  H   UNL A   1      41.698  28.894  28.773  1.00  0.00     0.167 HD
ATOM     49  C   UNL A   1      45.697  28.327  27.022  1.00  0.00     0.034 A 
ATOM     50  C   UNL A   1      39.767  30.242  30.278  1.00  0.00     0.034 A 
ATOM     51  C   UNL A   1      45.701  29.660  27.571  1.00  0.00     0.049 A 
ATOM     52  C   UNL A   1      40.963  31.155  30.198  1.00  0.00     0.074 A 
ATOM     53  C   UNL A   1      46.706  30.612  27.524  1.00  0.00     0.029 A 
ATOM     54  N   UNL A   1      44.648  30.233  28.274  1.00  0.00    -0.354 N 
ATOM     55  N   UNL A   1      42.126  30.944  29.626  1.00  0.00    -0.248 NA
ATOM     56  C   UNL A   1      40.834  32.472  30.834  1.00  0.00     0.031 C 
ATOM     57  C   UNL A   1      46.281  31.735  28.242  1.00  0.00     0.029 A 
ATOM     58  C   UNL A   1      44.986  31.514  28.682  1.00  0.00     0.049 A 
ATOM     59  H   UNL A   1      43.785  29.794  28.455  1.00  0.00     0.167 HD
ATOM     60  C   UNL A   1      42.856  32.115  29.808  1.00  0.00     0.074 A 
ATOM     61  C   UNL A   1      41.997  33.031  30.530  1.00  0.00     0.031 C 
ATOM     62  C   UNL A   1      44.120  32.410  29.410  1.00  0.00     0.034 A 
BRANCH  49  63
ATOM     63  C   UNL A   1      46.947  27.801  26.359  1.00  0.00     0.023 A 
ATOM     64  C   UNL A   1      47.224  28.053  25.003  1.00  0.00     0.031 A 
ATOM     65  C   UNL A   1      47.854  27.001  27.076  1.00  0.00     0.131 A 
ATOM     66  C   UNL A   1      48.325  27.441  24.386  1.00  0.00     0.055 A 
ATOM     67  C   UNL A   1      48.996  26.465  26.477  1.00  0.00     0.041 A 
ATOM     68  F   UNL A   1      47.635  26.708  28.367  1.00  0.00    -0.206 F 
ATOM     69  C   UNL A   1      49.227  26.669  25.120  1.00  0.00     0.022 A 
BRANCH  66  70
ATOM     70  S   UNL A   1      48.470  27.544  22.581  1.00  0.00     0.124 S 
ATOM     71  O   UNL A   1      47.253  28.272  22.230  1.00  0.00    -0.237 OA
ATOM     72  O   UNL A   1      49.722  28.269  22.405  1.00  0.00    -0.237 OA
ATOM     73  O   UNL A   1      48.493  26.144  22.159  1.00  0.00    -0.744 OA
ENDBRANCH  66  70
ENDBRANCH  49  63
BRANCH  50  74
ATOM     74  C   UNL A   1      38.543  30.657  31.021  1.00  0.00     0.023 A 
ATOM     75  C   UNL A   1      37.497  31.330  30.370  1.00  0.00     0.031 A 
ATOM     76  C   UNL A   1      38.418  30.421  32.401  1.00  0.00     0.131 A 
ATOM     77  C   UNL A   1      36.393  31.786  31.105  1.00  0.00     0.055 A 
ATOM     78  C   UNL A   1      37.295  30.835  33.121  1.00  0.00     0.041 A 
ATOM     79  F   UNL A   1      39.385  29.774  33.070  1.00  0.00    -0.206 F 
ATOM     80  C   UNL A   1      36.280  31.533  32.474  1.00  0.00     0.022 A 
BRANCH  77  81
ATOM     81  S   UNL A   1      35.138  32.784  30.258  1.00  0.00     0.124 S 
ATOM     82  O   UNL A   1      34.704  31.880  29.199  1.00  0.00    -0.237 OA
ATOM     83  O   UNL A   1      34.176  33.030  31.327  1.00  0.00    -0.237 OA
ATOM     84  O   UNL A   1      35.883  33.959  29.810  1.00  0.00    -0.744 OA
ENDBRANCH  77  81
ENDBRANCH  50  74
BRANCH  62  85
ATOM     85  C   UNL A   1      44.622  33.799  29.714  1.00  0.00     0.023 A 
ATOM     86  C   UNL A   1      44.340  34.889  28.873  1.00  0.00     0.031 A 
ATOM     87  C   UNL A   1      45.412  34.028  30.855  1.00  0.00     0.131 A 
ATOM     88  C   UNL A   1      44.889  36.149  29.154  1.00  0.00     0.055 A 
ATOM     89  C   UNL A   1      45.909  35.297  31.161  1.00  0.00     0.041 A 
ATOM     90  F   UNL A   1      45.713  33.022  31.691  1.00  0.00    -0.206 F 
ATOM     91  C   UNL A   1      45.659  36.363  30.301  1.00  0.00     0.022 A 
BRANCH  88  92
ATOM     92  S   UNL A   1      44.656  37.488  27.954  1.00  0.00     0.124 S 
ATOM     93  O   UNL A   1      43.626  36.937  27.080  1.00  0.00    -0.237 OA
ATOM     94  O   UNL A   1      44.243  38.600  28.804  1.00  0.00    -0.237 OA
ATOM     95  O   UNL A   1      45.976  37.634  27.342  1.00  0.00    -0.744 OA
ENDBRANCH  88  92
ENDBRANCH  62  85
ENDBRANCH  36  37
ENDBRANCH  28  31
ENDBRANCH  26  27
ENDBRANCH  25  26
ENDBRANCH   1  25
TORSDOF 17
ENDMDL
