MODEL 1
REMARK VINA RESULT:     -12.0      0.000      0.000
REMARK SMILES [NH3+]C1(C(=O)N2[C@@H](C(=O)NCCCCNC(=O)c3ccc(-c4c5nc(c(-c6cc(S(=O)(=O)[O-])ccc6F)c6ccc([nH]6)c(-c6cc(S(=O)(=O)[O-])ccc6F)c6nc(c(-c7cc(S(=O)(=O)[O-])ccc7F)c7ccc4[nH]7)C=C6)C=C5)cc3)CC[C@@H]3CCCC[C@@H]32)CC1
REMARK SMILES IDX 11 1 10 2 9 3 7 4 8 5 6 7 5 8 87 9 80 10 82 11 86 12 81 13
REMARK SMILES IDX 83 14 85 15 84 16 3 17 4 18 2 19 88 20 89 21 1 22 12 26
REMARK SMILES IDX 13 27 14 28 15 29 16 31 17 32 18 33 79 34 19 35 78 36 20 37
REMARK SMILES IDX 21 38 22 39 72 40 23 41 77 42 71 43 73 44 24 45 76 46 70 47
REMARK SMILES IDX 69 48 25 50 57 51 37 52 56 53 38 54 41 55 55 56 74 57 39 58
REMARK SMILES IDX 40 59 54 61 75 62 42 63 26 64 27 65 35 66 28 67 34 68 36 69
REMARK SMILES IDX 33 70 29 71 30 72 31 73 32 74 58 75 59 76 67 77 60 78 66 79
REMARK SMILES IDX 68 80 65 81 61 82 62 83 63 84 64 85 43 86 44 87 52 88 45 89
REMARK SMILES IDX 51 90 53 91 50 92 46 93 47 94 48 95 49 96
REMARK H PARENT 9 6 1 23 1 24 1 25 14 30 73 49 41 60
REMARK Flexibility Score: inf
ROOT
ATOM      1  C   UNL A   1      31.902  27.712  27.080  1.00  0.00     0.023 C 
ENDROOT
BRANCH   1   2
ATOM      2  C   UNL A   1      32.083  26.457  26.227  1.00  0.00     0.116 C 
BRANCH   2   3
ATOM      3  N   UNL A   1      31.430  25.331  26.864  1.00  0.00    -0.354 N 
ATOM      4  C   UNL A   1      31.737  24.012  26.779  1.00  0.00     0.242 C 
ATOM      5  O   UNL A   1      30.856  23.203  27.087  1.00  0.00    -0.273 OA
ATOM      6  H   UNL A   1      30.659  25.553  27.434  1.00  0.00     0.163 HD
BRANCH   4   7
ATOM      7  C   UNL A   1      33.071  23.520  26.184  1.00  0.00     0.175 C 
ATOM      8  N   UNL A   1      33.078  22.929  24.819  1.00  0.00    -0.322 N 
ATOM      9  C   UNL A   1      34.327  22.245  24.419  1.00  0.00     0.089 C 
ATOM     10  C   UNL A   1      33.637  22.525  27.238  1.00  0.00     0.036 C 
ATOM     11  C   UNL A   1      34.716  21.169  25.420  1.00  0.00     0.012 C 
ATOM     12  C   UNL A   1      35.458  23.265  24.149  1.00  0.00     0.025 C 
ATOM     13  C   UNL A   1      34.895  21.779  26.812  1.00  0.00     0.008 C 
ATOM     14  C   UNL A   1      35.965  20.458  24.901  1.00  0.00     0.006 C 
ATOM     15  C   UNL A   1      36.900  22.745  24.191  1.00  0.00     0.002 C 
ATOM     16  C   UNL A   1      37.168  21.385  24.836  1.00  0.00     0.000 C 
BRANCH   8  17
ATOM     17  C   UNL A   1      32.233  23.231  23.737  1.00  0.00     0.284 C 
ATOM     18  O   UNL A   1      31.594  22.329  23.189  1.00  0.00    -0.268 OA
BRANCH  17  19
ATOM     19  C   UNL A   1      32.098  24.619  23.128  1.00  0.00     0.174 C 
ATOM     20  C   UNL A   1      32.906  24.754  21.836  1.00  0.00     0.086 C 
ATOM     21  C   UNL A   1      33.166  25.675  22.975  1.00  0.00     0.086 C 
BRANCH  19  22
ATOM     22  N   UNL A   1      30.685  25.073  23.063  1.00  0.00    -0.345 N 
ATOM     23  H   UNL A   1      30.178  24.514  22.377  1.00  0.00     0.345 HD
ATOM     24  H   UNL A   1      30.655  26.056  22.790  1.00  0.00     0.345 HD
ATOM     25  H   UNL A   1      30.250  24.963  23.979  1.00  0.00     0.345 HD
ENDBRANCH  19  22
ENDBRANCH  17  19
ENDBRANCH   8  17
ENDBRANCH   4   7
ENDBRANCH   2   3
ENDBRANCH   1   2
BRANCH   1  26
ATOM     26  C   UNL A   1      31.883  29.015  26.276  1.00  0.00     0.023 C 
BRANCH  26  27
ATOM     27  C   UNL A   1      33.200  29.780  26.285  1.00  0.00     0.116 C 
BRANCH  27  28
ATOM     28  N   UNL A   1      33.028  31.160  26.706  1.00  0.00    -0.352 N 
ATOM     29  C   UNL A   1      33.779  31.889  27.589  1.00  0.00     0.251 C 
ATOM     30  H   UNL A   1      32.267  31.636  26.301  1.00  0.00     0.163 HD
ATOM     31  O   UNL A   1      33.364  32.981  27.980  1.00  0.00    -0.269 OA
BRANCH  29  32
ATOM     32  C   UNL A   1      35.058  31.348  28.089  1.00  0.00     0.039 A 
ATOM     33  C   UNL A   1      36.191  32.159  28.044  1.00  0.00     0.014 A 
ATOM     34  C   UNL A   1      35.138  30.051  28.609  1.00  0.00     0.014 A 
ATOM     35  C   UNL A   1      37.394  31.686  28.567  1.00  0.00     0.010 A 
ATOM     36  C   UNL A   1      36.316  29.616  29.210  1.00  0.00     0.010 A 
ATOM     37  C   UNL A   1      37.459  30.425  29.188  1.00  0.00    -0.014 A 
BRANCH  37  38
ATOM     38  C   UNL A   1      38.726  29.968  29.815  1.00  0.00     0.031 A 
ATOM     39  C   UNL A   1      39.134  30.468  31.174  1.00  0.00     0.074 A 
ATOM     40  C   UNL A   1      39.512  29.100  29.146  1.00  0.00     0.049 A 
ATOM     41  N   UNL A   1      40.169  30.131  31.901  1.00  0.00    -0.248 NA
ATOM     42  C   UNL A   1      38.284  31.500  31.786  1.00  0.00     0.031 C 
ATOM     43  C   UNL A   1      39.250  28.598  27.794  1.00  0.00     0.029 A 
ATOM     44  N   UNL A   1      40.677  28.475  29.510  1.00  0.00    -0.354 N 
ATOM     45  C   UNL A   1      40.095  30.906  33.053  1.00  0.00     0.074 A 
ATOM     46  C   UNL A   1      38.955  31.784  32.893  1.00  0.00     0.031 C 
ATOM     47  C   UNL A   1      40.192  27.700  27.468  1.00  0.00     0.029 A 
ATOM     48  C   UNL A   1      41.149  27.595  28.564  1.00  0.00     0.049 A 
ATOM     49  H   UNL A   1      41.131  28.639  30.368  1.00  0.00     0.167 HD
ATOM     50  C   UNL A   1      40.886  30.868  34.155  1.00  0.00     0.034 A 
ATOM     51  C   UNL A   1      42.230  26.789  28.579  1.00  0.00     0.034 A 
ATOM     52  C   UNL A   1      42.020  29.985  34.294  1.00  0.00     0.049 A 
ATOM     53  C   UNL A   1      43.095  26.767  29.813  1.00  0.00     0.074 A 
ATOM     54  C   UNL A   1      42.863  29.829  35.380  1.00  0.00     0.029 A 
ATOM     55  N   UNL A   1      42.478  29.114  33.311  1.00  0.00    -0.354 N 
ATOM     56  N   UNL A   1      42.971  27.458  30.924  1.00  0.00    -0.248 NA
ATOM     57  C   UNL A   1      44.232  25.841  29.801  1.00  0.00     0.031 C 
ATOM     58  C   UNL A   1      43.874  28.927  35.027  1.00  0.00     0.029 A 
ATOM     59  C   UNL A   1      43.609  28.444  33.755  1.00  0.00     0.049 A 
ATOM     60  H   UNL A   1      42.060  28.991  32.428  1.00  0.00     0.167 HD
ATOM     61  C   UNL A   1      43.999  27.021  31.757  1.00  0.00     0.074 A 
ATOM     62  C   UNL A   1      44.709  25.991  31.027  1.00  0.00     0.031 C 
ATOM     63  C   UNL A   1      44.324  27.433  33.011  1.00  0.00     0.034 A 
BRANCH  50  64
ATOM     64  C   UNL A   1      40.563  31.827  35.279  1.00  0.00     0.023 A 
ATOM     65  C   UNL A   1      39.492  31.600  36.162  1.00  0.00     0.031 A 
ATOM     66  C   UNL A   1      41.322  32.997  35.459  1.00  0.00     0.131 A 
ATOM     67  C   UNL A   1      39.164  32.560  37.133  1.00  0.00     0.055 A 
ATOM     68  C   UNL A   1      41.045  33.906  36.483  1.00  0.00     0.041 A 
ATOM     69  F   UNL A   1      42.341  33.285  34.634  1.00  0.00    -0.206 F 
ATOM     70  C   UNL A   1      39.951  33.699  37.317  1.00  0.00     0.022 A 
BRANCH  67  71
ATOM     71  S   UNL A   1      37.609  32.375  38.046  1.00  0.00     0.124 S 
ATOM     72  O   UNL A   1      36.682  33.132  37.207  1.00  0.00    -0.237 OA
ATOM     73  O   UNL A   1      37.422  30.929  38.062  1.00  0.00    -0.237 OA
ATOM     74  O   UNL A   1      37.899  32.981  39.344  1.00  0.00    -0.744 OA
ENDBRANCH  67  71
ENDBRANCH  50  64
BRANCH  51  75
ATOM     75  C   UNL A   1      42.550  25.930  27.402  1.00  0.00     0.023 A 
ATOM     76  C   UNL A   1      42.101  24.602  27.324  1.00  0.00     0.031 A 
ATOM     77  C   UNL A   1      43.352  26.415  26.353  1.00  0.00     0.131 A 
ATOM     78  C   UNL A   1      42.501  23.789  26.251  1.00  0.00     0.055 A 
ATOM     79  C   UNL A   1      43.696  25.622  25.258  1.00  0.00     0.041 A 
ATOM     80  F   UNL A   1      43.806  27.679  26.373  1.00  0.00    -0.206 F 
ATOM     81  C   UNL A   1      43.281  24.295  25.211  1.00  0.00     0.022 A 
BRANCH  78  82
ATOM     82  S   UNL A   1      42.065  22.028  26.285  1.00  0.00     0.124 S 
ATOM     83  O   UNL A   1      42.501  21.640  27.622  1.00  0.00    -0.237 OA
ATOM     84  O   UNL A   1      40.623  22.069  26.067  1.00  0.00    -0.237 OA
ATOM     85  O   UNL A   1      42.844  21.464  25.185  1.00  0.00    -0.744 OA
ENDBRANCH  78  82
ENDBRANCH  51  75
BRANCH  63  86
ATOM     86  C   UNL A   1      45.481  26.724  33.680  1.00  0.00     0.023 A 
ATOM     87  C   UNL A   1      45.291  25.578  34.471  1.00  0.00     0.031 A 
ATOM     88  C   UNL A   1      46.787  27.235  33.566  1.00  0.00     0.131 A 
ATOM     89  C   UNL A   1      46.366  25.039  35.194  1.00  0.00     0.055 A 
ATOM     90  C   UNL A   1      47.868  26.645  34.221  1.00  0.00     0.041 A 
ATOM     91  F   UNL A   1      47.033  28.329  32.828  1.00  0.00    -0.206 F 
ATOM     92  C   UNL A   1      47.658  25.553  35.059  1.00  0.00     0.022 A 
BRANCH  89  93
ATOM     93  S   UNL A   1      46.023  23.758  36.432  1.00  0.00     0.124 S 
ATOM     94  O   UNL A   1      46.378  22.539  35.712  1.00  0.00    -0.237 OA
ATOM     95  O   UNL A   1      46.915  24.135  37.524  1.00  0.00    -0.237 OA
ATOM     96  O   UNL A   1      44.598  23.922  36.709  1.00  0.00    -0.744 OA
ENDBRANCH  89  93
ENDBRANCH  63  86
ENDBRANCH  37  38
ENDBRANCH  29  32
ENDBRANCH  27  28
ENDBRANCH  26  27
ENDBRANCH   1  26
TORSDOF 17
ENDMDL
MODEL 2
REMARK VINA RESULT:     -11.9      1.330      1.564
REMARK SMILES [NH3+]C1(C(=O)N2[C@@H](C(=O)NCCCCNC(=O)c3ccc(-c4c5nc(c(-c6cc(S(=O)(=O)[O-])ccc6F)c6ccc([nH]6)c(-c6cc(S(=O)(=O)[O-])ccc6F)c6nc(c(-c7cc(S(=O)(=O)[O-])ccc7F)c7ccc4[nH]7)C=C6)C=C5)cc3)CC[C@@H]3CCCC[C@@H]32)CC1
REMARK SMILES IDX 11 1 10 2 9 3 7 4 8 5 6 7 5 8 87 9 80 10 82 11 86 12 81 13
REMARK SMILES IDX 83 14 85 15 84 16 3 17 4 18 2 19 88 20 89 21 1 22 12 26
REMARK SMILES IDX 13 27 14 28 15 29 16 31 17 32 18 33 79 34 19 35 78 36 20 37
REMARK SMILES IDX 21 38 22 39 72 40 23 41 77 42 71 43 73 44 24 45 76 46 70 47
REMARK SMILES IDX 69 48 25 50 57 51 37 52 56 53 38 54 41 55 55 56 74 57 39 58
REMARK SMILES IDX 40 59 54 61 75 62 42 63 26 64 27 65 35 66 28 67 34 68 36 69
REMARK SMILES IDX 33 70 29 71 30 72 31 73 32 74 58 75 59 76 67 77 60 78 66 79
REMARK SMILES IDX 68 80 65 81 61 82 62 83 63 84 64 85 43 86 44 87 52 88 45 89
REMARK SMILES IDX 51 90 53 91 50 92 46 93 47 94 48 95 49 96
REMARK H PARENT 9 6 1 23 1 24 1 25 14 30 73 49 41 60
REMARK Flexibility Score: inf
ROOT
ATOM      1  C   UNL A   1      31.322  27.579  26.268  1.00  0.00     0.023 C 
ENDROOT
BRANCH   1   2
ATOM      2  C   UNL A   1      32.217  26.346  26.376  1.00  0.00     0.116 C 
BRANCH   2   3
ATOM      3  N   UNL A   1      31.419  25.187  26.724  1.00  0.00    -0.354 N 
ATOM      4  C   UNL A   1      31.661  23.879  26.460  1.00  0.00     0.242 C 
ATOM      5  O   UNL A   1      30.702  23.102  26.511  1.00  0.00    -0.273 OA
ATOM      6  H   UNL A   1      30.589  25.376  27.218  1.00  0.00     0.163 HD
BRANCH   4   7
ATOM      7  C   UNL A   1      33.036  23.384  25.971  1.00  0.00     0.175 C 
ATOM      8  N   UNL A   1      33.138  22.741  24.634  1.00  0.00    -0.322 N 
ATOM      9  C   UNL A   1      34.418  22.061  24.340  1.00  0.00     0.089 C 
ATOM     10  C   UNL A   1      33.547  22.439  27.096  1.00  0.00     0.036 C 
ATOM     11  C   UNL A   1      34.757  21.030  25.406  1.00  0.00     0.012 C 
ATOM     12  C   UNL A   1      35.551  23.086  24.102  1.00  0.00     0.025 C 
ATOM     13  C   UNL A   1      34.839  21.697  26.780  1.00  0.00     0.008 C 
ATOM     14  C   UNL A   1      36.045  20.319  24.995  1.00  0.00     0.006 C 
ATOM     15  C   UNL A   1      36.994  22.591  24.255  1.00  0.00     0.002 C 
ATOM     16  C   UNL A   1      37.237  21.261  24.969  1.00  0.00     0.000 C 
BRANCH   8  17
ATOM     17  C   UNL A   1      32.359  22.987  23.489  1.00  0.00     0.284 C 
ATOM     18  O   UNL A   1      31.889  22.040  22.852  1.00  0.00    -0.268 OA
BRANCH  17  19
ATOM     19  C   UNL A   1      32.105  24.376  22.920  1.00  0.00     0.174 C 
ATOM     20  C   UNL A   1      32.986  24.661  21.702  1.00  0.00     0.086 C 
ATOM     21  C   UNL A   1      33.046  25.555  22.890  1.00  0.00     0.086 C 
BRANCH  19  22
ATOM     22  N   UNL A   1      30.656  24.663  22.758  1.00  0.00    -0.345 N 
ATOM     23  H   UNL A   1      30.535  25.592  22.354  1.00  0.00     0.345 HD
ATOM     24  H   UNL A   1      30.198  24.627  23.670  1.00  0.00     0.345 HD
ATOM     25  H   UNL A   1      30.238  23.967  22.141  1.00  0.00     0.345 HD
ENDBRANCH  19  22
ENDBRANCH  17  19
ENDBRANCH   8  17
ENDBRANCH   4   7
ENDBRANCH   2   3
ENDBRANCH   1   2
BRANCH   1  26
ATOM     26  C   UNL A   1      31.790  28.765  27.117  1.00  0.00     0.023 C 
BRANCH  26  27
ATOM     27  C   UNL A   1      32.981  29.520  26.542  1.00  0.00     0.116 C 
BRANCH  27  28
ATOM     28  N   UNL A   1      32.885  30.951  26.775  1.00  0.00    -0.352 N 
ATOM     29  C   UNL A   1      33.708  31.759  27.513  1.00  0.00     0.251 C 
ATOM     30  H   UNL A   1      32.123  31.402  26.343  1.00  0.00     0.163 HD
ATOM     31  O   UNL A   1      33.357  32.912  27.768  1.00  0.00    -0.269 OA
BRANCH  29  32
ATOM     32  C   UNL A   1      34.988  31.232  28.026  1.00  0.00     0.039 A 
ATOM     33  C   UNL A   1      36.100  32.074  28.041  1.00  0.00     0.014 A 
ATOM     34  C   UNL A   1      35.091  29.918  28.498  1.00  0.00     0.014 A 
ATOM     35  C   UNL A   1      37.302  31.612  28.576  1.00  0.00     0.010 A 
ATOM     36  C   UNL A   1      36.265  29.492  29.113  1.00  0.00     0.010 A 
ATOM     37  C   UNL A   1      37.386  30.331  29.150  1.00  0.00    -0.014 A 
BRANCH  37  38
ATOM     38  C   UNL A   1      38.649  29.883  29.792  1.00  0.00     0.031 A 
ATOM     39  C   UNL A   1      39.036  30.385  31.157  1.00  0.00     0.074 A 
ATOM     40  C   UNL A   1      39.450  29.023  29.132  1.00  0.00     0.049 A 
ATOM     41  N   UNL A   1      40.066  30.056  31.895  1.00  0.00    -0.248 NA
ATOM     42  C   UNL A   1      38.171  31.409  31.760  1.00  0.00     0.031 C 
ATOM     43  C   UNL A   1      39.209  28.520  27.776  1.00  0.00     0.029 A 
ATOM     44  N   UNL A   1      40.615  28.407  29.509  1.00  0.00    -0.354 N 
ATOM     45  C   UNL A   1      39.971  30.828  33.048  1.00  0.00     0.074 A 
ATOM     46  C   UNL A   1      38.826  31.697  32.875  1.00  0.00     0.031 C 
ATOM     47  C   UNL A   1      40.162  27.631  27.461  1.00  0.00     0.029 A 
ATOM     48  C   UNL A   1      41.106  27.532  28.568  1.00  0.00     0.049 A 
ATOM     49  H   UNL A   1      41.058  28.574  30.373  1.00  0.00     0.167 HD
ATOM     50  C   UNL A   1      40.748  30.795  34.159  1.00  0.00     0.034 A 
ATOM     51  C   UNL A   1      42.193  26.734  28.595  1.00  0.00     0.034 A 
ATOM     52  C   UNL A   1      41.888  29.921  34.311  1.00  0.00     0.049 A 
ATOM     53  C   UNL A   1      43.044  26.719  29.839  1.00  0.00     0.074 A 
ATOM     54  C   UNL A   1      42.719  29.771  35.407  1.00  0.00     0.029 A 
ATOM     55  N   UNL A   1      42.365  29.055  33.332  1.00  0.00    -0.354 N 
ATOM     56  N   UNL A   1      42.900  27.406  30.950  1.00  0.00    -0.248 NA
ATOM     57  C   UNL A   1      44.188  25.802  29.840  1.00  0.00     0.031 C 
ATOM     58  C   UNL A   1      43.741  28.878  35.065  1.00  0.00     0.029 A 
ATOM     59  C   UNL A   1      43.496  28.394  33.789  1.00  0.00     0.049 A 
ATOM     60  H   UNL A   1      41.959  28.930  32.445  1.00  0.00     0.167 HD
ATOM     61  C   UNL A   1      43.922  26.977  31.795  1.00  0.00     0.074 A 
ATOM     62  C   UNL A   1      44.649  25.953  31.072  1.00  0.00     0.031 C 
ATOM     63  C   UNL A   1      44.229  27.390  33.053  1.00  0.00     0.034 A 
BRANCH  50  64
ATOM     64  C   UNL A   1      40.404  31.750  35.280  1.00  0.00     0.023 A 
ATOM     65  C   UNL A   1      39.431  31.438  36.247  1.00  0.00     0.031 A 
ATOM     66  C   UNL A   1      41.041  33.000  35.373  1.00  0.00     0.131 A 
ATOM     67  C   UNL A   1      39.071  32.388  37.216  1.00  0.00     0.055 A 
ATOM     68  C   UNL A   1      40.741  33.907  36.393  1.00  0.00     0.041 A 
ATOM     69  F   UNL A   1      41.960  33.369  34.467  1.00  0.00    -0.206 F 
ATOM     70  C   UNL A   1      39.739  33.611  37.312  1.00  0.00     0.022 A 
BRANCH  67  71
ATOM     71  S   UNL A   1      37.615  32.067  38.249  1.00  0.00     0.124 S 
ATOM     72  O   UNL A   1      38.143  32.319  39.588  1.00  0.00    -0.237 OA
ATOM     73  O   UNL A   1      36.652  33.040  37.747  1.00  0.00    -0.237 OA
ATOM     74  O   UNL A   1      37.296  30.670  37.966  1.00  0.00    -0.744 OA
ENDBRANCH  67  71
ENDBRANCH  50  64
BRANCH  51  75
ATOM     75  C   UNL A   1      42.535  25.880  27.421  1.00  0.00     0.023 A 
ATOM     76  C   UNL A   1      42.123  24.540  27.349  1.00  0.00     0.031 A 
ATOM     77  C   UNL A   1      43.321  26.382  26.369  1.00  0.00     0.131 A 
ATOM     78  C   UNL A   1      42.542  23.733  26.279  1.00  0.00     0.055 A 
ATOM     79  C   UNL A   1      43.685  25.594  25.276  1.00  0.00     0.041 A 
ATOM     80  F   UNL A   1      43.741  27.658  26.382  1.00  0.00    -0.206 F 
ATOM     81  C   UNL A   1      43.306  24.256  25.235  1.00  0.00     0.022 A 
BRANCH  78  82
ATOM     82  S   UNL A   1      42.155  21.962  26.321  1.00  0.00     0.124 S 
ATOM     83  O   UNL A   1      42.624  21.587  27.651  1.00  0.00    -0.237 OA
ATOM     84  O   UNL A   1      40.709  21.963  26.127  1.00  0.00    -0.237 OA
ATOM     85  O   UNL A   1      42.931  21.418  25.208  1.00  0.00    -0.744 OA
ENDBRANCH  78  82
ENDBRANCH  51  75
BRANCH  63  86
ATOM     86  C   UNL A   1      45.383  26.689  33.735  1.00  0.00     0.023 A 
ATOM     87  C   UNL A   1      46.707  27.139  33.601  1.00  0.00     0.031 A 
ATOM     88  C   UNL A   1      45.158  25.521  34.486  1.00  0.00     0.131 A 
ATOM     89  C   UNL A   1      47.763  26.378  34.125  1.00  0.00     0.055 A 
ATOM     90  C   UNL A   1      46.205  24.813  35.077  1.00  0.00     0.041 A 
ATOM     91  F   UNL A   1      43.916  25.038  34.648  1.00  0.00    -0.206 F 
ATOM     92  C   UNL A   1      47.519  25.227  34.878  1.00  0.00     0.022 A 
BRANCH  89  93
ATOM     93  S   UNL A   1      49.462  26.825  33.674  1.00  0.00     0.124 S 
ATOM     94  O   UNL A   1      49.375  26.918  32.220  1.00  0.00    -0.237 OA
ATOM     95  O   UNL A   1      49.650  28.087  34.383  1.00  0.00    -0.237 OA
ATOM     96  O   UNL A   1      50.256  25.706  34.178  1.00  0.00    -0.744 OA
ENDBRANCH  89  93
ENDBRANCH  63  86
ENDBRANCH  37  38
ENDBRANCH  29  32
ENDBRANCH  27  28
ENDBRANCH  26  27
ENDBRANCH   1  26
TORSDOF 17
ENDMDL
MODEL 3
REMARK VINA RESULT:     -11.8      4.742     10.089
REMARK SMILES [NH3+]C1(C(=O)N2[C@@H](C(=O)NCCCCNC(=O)c3ccc(-c4c5nc(c(-c6cc(S(=O)(=O)[O-])ccc6F)c6ccc([nH]6)c(-c6cc(S(=O)(=O)[O-])ccc6F)c6nc(c(-c7cc(S(=O)(=O)[O-])ccc7F)c7ccc4[nH]7)C=C6)C=C5)cc3)CC[C@@H]3CCCC[C@@H]32)CC1
REMARK SMILES IDX 11 1 10 2 9 3 7 4 8 5 6 7 5 8 87 9 80 10 82 11 86 12 81 13
REMARK SMILES IDX 83 14 85 15 84 16 3 17 4 18 2 19 88 20 89 21 1 22 12 26
REMARK SMILES IDX 13 27 14 28 15 29 16 31 17 32 18 33 79 34 19 35 78 36 20 37
REMARK SMILES IDX 21 38 22 39 72 40 23 41 77 42 71 43 73 44 24 45 76 46 70 47
REMARK SMILES IDX 69 48 25 50 57 51 37 52 56 53 38 54 41 55 55 56 74 57 39 58
REMARK SMILES IDX 40 59 54 61 75 62 42 63 26 64 27 65 35 66 28 67 34 68 36 69
REMARK SMILES IDX 33 70 29 71 30 72 31 73 32 74 58 75 59 76 67 77 60 78 66 79
REMARK SMILES IDX 68 80 65 81 61 82 62 83 63 84 64 85 43 86 44 87 52 88 45 89
REMARK SMILES IDX 51 90 53 91 50 92 46 93 47 94 48 95 49 96
REMARK H PARENT 9 6 1 23 1 24 1 25 14 30 73 49 41 60
REMARK Flexibility Score: inf
ROOT
ATOM      1  C   UNL A   1      35.187  22.746  23.615  1.00  0.00     0.023 C 
ENDROOT
BRANCH   1   2
ATOM      2  C   UNL A   1      34.796  24.207  23.835  1.00  0.00     0.116 C 
BRANCH   2   3
ATOM      3  N   UNL A   1      34.104  24.712  22.666  1.00  0.00    -0.354 N 
ATOM      4  C   UNL A   1      33.191  25.713  22.586  1.00  0.00     0.242 C 
ATOM      5  O   UNL A   1      32.463  25.740  21.589  1.00  0.00    -0.273 OA
ATOM      6  H   UNL A   1      34.325  24.269  21.816  1.00  0.00     0.163 HD
BRANCH   4   7
ATOM      7  C   UNL A   1      32.955  26.699  23.747  1.00  0.00     0.175 C 
ATOM      8  N   UNL A   1      31.602  26.786  24.357  1.00  0.00    -0.322 N 
ATOM      9  C   UNL A   1      31.379  27.923  25.276  1.00  0.00     0.089 C 
ATOM     10  C   UNL A   1      33.423  28.080  23.202  1.00  0.00     0.036 C 
ATOM     11  C   UNL A   1      31.699  29.250  24.604  1.00  0.00     0.012 C 
ATOM     12  C   UNL A   1      32.134  27.717  26.610  1.00  0.00     0.025 C 
ATOM     13  C   UNL A   1      33.150  29.263  24.121  1.00  0.00     0.008 C 
ATOM     14  C   UNL A   1      31.371  30.376  25.584  1.00  0.00     0.006 C 
ATOM     15  C   UNL A   1      32.406  28.960  27.465  1.00  0.00     0.002 C 
ATOM     16  C   UNL A   1      32.258  30.337  26.818  1.00  0.00     0.000 C 
BRANCH   8  17
ATOM     17  C   UNL A   1      30.637  25.770  24.478  1.00  0.00     0.284 C 
ATOM     18  O   UNL A   1      29.454  26.016  24.228  1.00  0.00    -0.268 OA
BRANCH  17  19
ATOM     19  C   UNL A   1      30.943  24.366  24.980  1.00  0.00     0.174 C 
ATOM     20  C   UNL A   1      30.395  24.134  26.390  1.00  0.00     0.086 C 
ATOM     21  C   UNL A   1      31.848  23.962  26.118  1.00  0.00     0.086 C 
BRANCH  19  22
ATOM     22  N   UNL A   1      30.616  23.323  23.973  1.00  0.00    -0.345 N 
ATOM     23  H   UNL A   1      30.072  22.581  24.415  1.00  0.00     0.345 HD
ATOM     24  H   UNL A   1      31.480  22.932  23.596  1.00  0.00     0.345 HD
ATOM     25  H   UNL A   1      30.073  23.738  23.217  1.00  0.00     0.345 HD
ENDBRANCH  19  22
ENDBRANCH  17  19
ENDBRANCH   8  17
ENDBRANCH   4   7
ENDBRANCH   2   3
ENDBRANCH   1   2
BRANCH   1  26
ATOM     26  C   UNL A   1      36.657  22.443  23.916  1.00  0.00     0.023 C 
BRANCH  26  27
ATOM     27  C   UNL A   1      37.002  22.410  25.399  1.00  0.00     0.116 C 
BRANCH  27  28
ATOM     28  N   UNL A   1      37.972  21.374  25.712  1.00  0.00    -0.352 N 
ATOM     29  C   UNL A   1      39.235  21.505  26.223  1.00  0.00     0.251 C 
ATOM     30  H   UNL A   1      37.680  20.450  25.532  1.00  0.00     0.163 HD
ATOM     31  O   UNL A   1      39.990  20.532  26.232  1.00  0.00    -0.269 OA
BRANCH  29  32
ATOM     32  C   UNL A   1      39.693  22.815  26.726  1.00  0.00     0.039 A 
ATOM     33  C   UNL A   1      40.649  22.846  27.741  1.00  0.00     0.014 A 
ATOM     34  C   UNL A   1      39.190  24.008  26.194  1.00  0.00     0.014 A 
ATOM     35  C   UNL A   1      41.136  24.074  28.186  1.00  0.00     0.010 A 
ATOM     36  C   UNL A   1      39.743  25.226  26.577  1.00  0.00     0.010 A 
ATOM     37  C   UNL A   1      40.716  25.273  27.585  1.00  0.00    -0.014 A 
BRANCH  37  38
ATOM     38  C   UNL A   1      41.305  26.568  28.011  1.00  0.00     0.031 A 
ATOM     39  C   UNL A   1      42.722  26.922  27.652  1.00  0.00     0.074 A 
ATOM     40  C   UNL A   1      40.553  27.424  28.733  1.00  0.00     0.049 A 
ATOM     41  N   UNL A   1      43.381  28.029  27.885  1.00  0.00    -0.248 NA
ATOM     42  C   UNL A   1      43.514  25.889  26.968  1.00  0.00     0.031 C 
ATOM     43  C   UNL A   1      39.187  27.160  29.195  1.00  0.00     0.029 A 
ATOM     44  N   UNL A   1      40.817  28.689  29.191  1.00  0.00    -0.354 N 
ATOM     45  C   UNL A   1      44.659  27.828  27.374  1.00  0.00     0.074 A 
ATOM     46  C   UNL A   1      44.704  26.465  26.889  1.00  0.00     0.031 C 
ATOM     47  C   UNL A   1      38.715  28.250  29.818  1.00  0.00     0.029 A 
ATOM     48  C   UNL A   1      39.755  29.273  29.842  1.00  0.00     0.049 A 
ATOM     49  H   UNL A   1      41.684  29.138  29.065  1.00  0.00     0.167 HD
ATOM     50  C   UNL A   1      45.689  28.707  27.291  1.00  0.00     0.034 A 
ATOM     51  C   UNL A   1      39.629  30.497  30.391  1.00  0.00     0.034 A 
ATOM     52  C   UNL A   1      45.623  30.064  27.783  1.00  0.00     0.049 A 
ATOM     53  C   UNL A   1      40.788  31.455  30.289  1.00  0.00     0.074 A 
ATOM     54  C   UNL A   1      46.587  31.054  27.713  1.00  0.00     0.029 A 
ATOM     55  N   UNL A   1      44.535  30.619  28.448  1.00  0.00    -0.354 N 
ATOM     56  N   UNL A   1      41.969  31.272  29.741  1.00  0.00    -0.248 NA
ATOM     57  C   UNL A   1      40.589  32.791  30.860  1.00  0.00     0.031 C 
ATOM     58  C   UNL A   1      46.115  32.177  28.401  1.00  0.00     0.029 A 
ATOM     59  C   UNL A   1      44.818  31.926  28.820  1.00  0.00     0.049 A 
ATOM     60  H   UNL A   1      43.687  30.152  28.628  1.00  0.00     0.167 HD
ATOM     61  C   UNL A   1      42.640  32.485  29.874  1.00  0.00     0.074 A 
ATOM     62  C   UNL A   1      41.719  33.394  30.527  1.00  0.00     0.031 C 
ATOM     63  C   UNL A   1      43.900  32.818  29.490  1.00  0.00     0.034 A 
BRANCH  50  64
ATOM     64  C   UNL A   1      46.977  28.216  26.669  1.00  0.00     0.023 A 
ATOM     65  C   UNL A   1      47.179  28.228  25.277  1.00  0.00     0.031 A 
ATOM     66  C   UNL A   1      48.010  27.708  27.476  1.00  0.00     0.131 A 
ATOM     67  C   UNL A   1      48.349  27.676  24.731  1.00  0.00     0.055 A 
ATOM     68  C   UNL A   1      49.209  27.241  26.932  1.00  0.00     0.041 A 
ATOM     69  F   UNL A   1      47.870  27.645  28.809  1.00  0.00    -0.206 F 
ATOM     70  C   UNL A   1      49.378  27.208  25.551  1.00  0.00     0.022 A 
BRANCH  67  71
ATOM     71  S   UNL A   1      48.441  27.438  22.935  1.00  0.00     0.124 S 
ATOM     72  O   UNL A   1      48.322  25.985  22.824  1.00  0.00    -0.237 OA
ATOM     73  O   UNL A   1      47.301  28.211  22.457  1.00  0.00    -0.237 OA
ATOM     74  O   UNL A   1      49.752  27.978  22.585  1.00  0.00    -0.744 OA
ENDBRANCH  67  71
ENDBRANCH  50  64
BRANCH  51  75
ATOM     75  C   UNL A   1      38.363  30.895  31.073  1.00  0.00     0.023 A 
ATOM     76  C   UNL A   1      37.328  31.535  30.374  1.00  0.00     0.031 A 
ATOM     77  C   UNL A   1      38.189  30.679  32.452  1.00  0.00     0.131 A 
ATOM     78  C   UNL A   1      36.190  31.985  31.064  1.00  0.00     0.055 A 
ATOM     79  C   UNL A   1      37.030  31.073  33.122  1.00  0.00     0.041 A 
ATOM     80  F   UNL A   1      39.146  30.067  33.171  1.00  0.00    -0.206 F 
ATOM     81  C   UNL A   1      36.028  31.744  32.429  1.00  0.00     0.022 A 
BRANCH  78  82
ATOM     82  S   UNL A   1      34.966  32.979  30.167  1.00  0.00     0.124 S 
ATOM     83  O   UNL A   1      35.790  34.064  29.644  1.00  0.00    -0.237 OA
ATOM     84  O   UNL A   1      34.462  32.025  29.185  1.00  0.00    -0.237 OA
ATOM     85  O   UNL A   1      34.013  33.363  31.206  1.00  0.00    -0.744 OA
ENDBRANCH  78  82
ENDBRANCH  51  75
BRANCH  63  86
ATOM     86  C   UNL A   1      44.329  34.248  29.734  1.00  0.00     0.023 A 
ATOM     87  C   UNL A   1      44.080  35.267  28.799  1.00  0.00     0.031 A 
ATOM     88  C   UNL A   1      45.047  34.584  30.897  1.00  0.00     0.131 A 
ATOM     89  C   UNL A   1      44.624  36.546  28.995  1.00  0.00     0.055 A 
ATOM     90  C   UNL A   1      45.513  35.878  31.126  1.00  0.00     0.041 A 
ATOM     91  F   UNL A   1      45.319  33.654  31.827  1.00  0.00    -0.206 F 
ATOM     92  C   UNL A   1      45.323  36.864  30.161  1.00  0.00     0.022 A 
BRANCH  89  93
ATOM     93  S   UNL A   1      44.540  37.741  27.632  1.00  0.00     0.124 S 
ATOM     94  O   UNL A   1      44.510  39.013  28.347  1.00  0.00    -0.237 OA
ATOM     95  O   UNL A   1      45.766  37.455  26.893  1.00  0.00    -0.237 OA
ATOM     96  O   UNL A   1      43.302  37.387  26.942  1.00  0.00    -0.744 OA
ENDBRANCH  89  93
ENDBRANCH  63  86
ENDBRANCH  37  38
ENDBRANCH  29  32
ENDBRANCH  27  28
ENDBRANCH  26  27
ENDBRANCH   1  26
TORSDOF 17
ENDMDL
