MODEL 1
REMARK VINA RESULT:     -11.5      0.000      0.000
REMARK SMILES O=C(NCCCCNC(=O)c1c(F)ccc(F)c1Br)c1ccc(-c2c3nc(c(-c4cc(S(=O)(=O)[O-])ccc4F)c4ccc([nH]4)c(-c4cc(S(=O)(=O)[O-])ccc4F)c4nc(c(-c5cc(S(=O)(=O)[O-])ccc5F)c5ccc2[nH]5)C=C4)C=C3)cc1
REMARK SMILES IDX 4 1 3 2 1 3 2 4 20 6 21 7 82 8 22 9 81 10 23 11 24 12 25 13
REMARK SMILES IDX 75 14 26 15 80 16 74 17 76 18 27 19 79 20 73 21 72 22 28 24
REMARK SMILES IDX 60 25 40 26 59 27 41 28 44 29 58 30 77 31 42 32 43 33 57 35
REMARK SMILES IDX 78 36 45 37 29 38 30 39 38 40 31 41 37 42 39 43 36 44 32 45
REMARK SMILES IDX 33 46 34 47 35 48 61 49 62 50 70 51 63 52 69 53 71 54 68 55
REMARK SMILES IDX 64 56 65 57 66 58 67 59 46 60 47 61 55 62 48 63 54 64 56 65
REMARK SMILES IDX 53 66 49 67 50 68 51 69 52 70 5 71 6 72 7 73 8 74 9 75 10 77
REMARK SMILES IDX 11 78 12 79 18 80 13 81 14 82 16 83 19 84 15 85 17 86
REMARK H PARENT 3 5 76 23 44 34 8 76
REMARK Flexibility Score: inf
ROOT
ATOM      1  C   UNL A   1      36.401  21.916  25.403  1.00  0.00     0.116 C 
ENDROOT
BRANCH   1   2
ATOM      2  N   UNL A   1      37.376  20.845  25.519  1.00  0.00    -0.352 N 
ATOM      3  O   UNL A   1      39.390  19.877  25.712  1.00  0.00    -0.269 OA
ATOM      4  C   UNL A   1      38.709  20.892  25.843  1.00  0.00     0.251 C 
ATOM      5  H   UNL A   1      37.025  19.943  25.335  1.00  0.00     0.163 HD
BRANCH   4   6
ATOM      6  C   UNL A   1      39.335  22.140  26.343  1.00  0.00     0.039 A 
ATOM      7  C   UNL A   1      38.865  23.368  25.861  1.00  0.00     0.014 A 
ATOM      8  C   UNL A   1      40.430  22.111  27.211  1.00  0.00     0.014 A 
ATOM      9  C   UNL A   1      39.476  24.561  26.262  1.00  0.00     0.010 A 
ATOM     10  C   UNL A   1      40.997  23.302  27.660  1.00  0.00     0.010 A 
ATOM     11  C   UNL A   1      40.547  24.538  27.167  1.00  0.00    -0.014 A 
BRANCH  11  12
ATOM     12  C   UNL A   1      41.283  25.773  27.543  1.00  0.00     0.031 A 
ATOM     13  C   UNL A   1      40.585  26.815  28.376  1.00  0.00     0.074 A 
ATOM     14  C   UNL A   1      42.536  25.991  27.098  1.00  0.00     0.049 A 
ATOM     15  N   UNL A   1      40.973  28.023  28.686  1.00  0.00    -0.248 NA
ATOM     16  C   UNL A   1      39.260  26.456  28.912  1.00  0.00     0.031 C 
ATOM     17  C   UNL A   1      43.313  25.057  26.283  1.00  0.00     0.029 A 
ATOM     18  N   UNL A   1      43.368  27.074  27.250  1.00  0.00    -0.354 N 
ATOM     19  C   UNL A   1      39.933  28.578  29.422  1.00  0.00     0.074 A 
ATOM     20  C   UNL A   1      38.879  27.591  29.481  1.00  0.00     0.031 C 
ATOM     21  C   UNL A   1      44.507  25.605  26.010  1.00  0.00     0.029 A 
ATOM     22  C   UNL A   1      44.567  26.948  26.585  1.00  0.00     0.049 A 
ATOM     23  H   UNL A   1      43.129  27.865  27.785  1.00  0.00     0.167 HD
ATOM     24  C   UNL A   1      39.872  29.794  30.014  1.00  0.00     0.034 A 
ATOM     25  C   UNL A   1      45.588  27.821  26.438  1.00  0.00     0.034 A 
ATOM     26  C   UNL A   1      40.949  30.746  29.992  1.00  0.00     0.049 A 
ATOM     27  C   UNL A   1      45.498  29.172  27.112  1.00  0.00     0.074 A 
ATOM     28  C   UNL A   1      41.001  31.987  30.600  1.00  0.00     0.029 A 
ATOM     29  N   UNL A   1      42.164  30.561  29.350  1.00  0.00    -0.354 N 
ATOM     30  N   UNL A   1      44.528  29.661  27.849  1.00  0.00    -0.248 NA
ATOM     31  C   UNL A   1      46.637  30.087  26.946  1.00  0.00     0.031 C 
ATOM     32  C   UNL A   1      42.227  32.571  30.289  1.00  0.00     0.029 A 
ATOM     33  C   UNL A   1      42.968  31.671  29.540  1.00  0.00     0.049 A 
ATOM     34  H   UNL A   1      42.417  29.760  28.836  1.00  0.00     0.167 HD
ATOM     35  C   UNL A   1      44.955  30.921  28.261  1.00  0.00     0.074 A 
ATOM     36  C   UNL A   1      46.276  31.116  27.705  1.00  0.00     0.031 C 
ATOM     37  C   UNL A   1      44.307  31.833  29.026  1.00  0.00     0.034 A 
BRANCH  24  38
ATOM     38  C   UNL A   1      38.626  30.174  30.770  1.00  0.00     0.023 A 
ATOM     39  C   UNL A   1      37.619  30.924  30.132  1.00  0.00     0.031 A 
ATOM     40  C   UNL A   1      38.502  29.927  32.148  1.00  0.00     0.131 A 
ATOM     41  C   UNL A   1      36.554  31.435  30.882  1.00  0.00     0.055 A 
ATOM     42  C   UNL A   1      37.417  30.403  32.882  1.00  0.00     0.041 A 
ATOM     43  F   UNL A   1      39.438  29.216  32.799  1.00  0.00    -0.206 F 
ATOM     44  C   UNL A   1      36.443  31.173  32.253  1.00  0.00     0.022 A 
BRANCH  41  45
ATOM     45  S   UNL A   1      35.305  32.510  30.125  1.00  0.00     0.124 S 
ATOM     46  O   UNL A   1      34.329  32.646  31.206  1.00  0.00    -0.237 OA
ATOM     47  O   UNL A   1      36.078  33.713  29.828  1.00  0.00    -0.237 OA
ATOM     48  O   UNL A   1      34.844  31.753  28.969  1.00  0.00    -0.744 OA
ENDBRANCH  41  45
ENDBRANCH  24  38
BRANCH  25  49
ATOM     49  C   UNL A   1      46.793  27.417  25.656  1.00  0.00     0.023 A 
ATOM     50  C   UNL A   1      46.999  27.877  24.342  1.00  0.00     0.031 A 
ATOM     51  C   UNL A   1      47.717  26.497  26.181  1.00  0.00     0.131 A 
ATOM     52  C   UNL A   1      48.066  27.377  23.583  1.00  0.00     0.055 A 
ATOM     53  C   UNL A   1      48.817  26.050  25.446  1.00  0.00     0.041 A 
ATOM     54  F   UNL A   1      47.560  26.018  27.425  1.00  0.00    -0.206 F 
ATOM     55  C   UNL A   1      48.986  26.478  24.133  1.00  0.00     0.022 A 
BRANCH  52  56
ATOM     56  S   UNL A   1      48.219  27.771  21.819  1.00  0.00     0.124 S 
ATOM     57  O   UNL A   1      46.927  28.388  21.532  1.00  0.00    -0.237 OA
ATOM     58  O   UNL A   1      49.366  28.677  21.811  1.00  0.00    -0.237 OA
ATOM     59  O   UNL A   1      48.454  26.473  21.195  1.00  0.00    -0.744 OA
ENDBRANCH  52  56
ENDBRANCH  25  49
BRANCH  37  60
ATOM     60  C   UNL A   1      44.992  33.132  29.370  1.00  0.00     0.023 A 
ATOM     61  C   UNL A   1      44.842  34.243  28.515  1.00  0.00     0.031 A 
ATOM     62  C   UNL A   1      45.949  33.203  30.395  1.00  0.00     0.131 A 
ATOM     63  C   UNL A   1      45.682  35.352  28.663  1.00  0.00     0.055 A 
ATOM     64  C   UNL A   1      46.751  34.332  30.568  1.00  0.00     0.041 A 
ATOM     65  F   UNL A   1      46.136  32.164  31.224  1.00  0.00    -0.206 F 
ATOM     66  C   UNL A   1      46.632  35.405  29.688  1.00  0.00     0.022 A 
BRANCH  63  67
ATOM     67  S   UNL A   1      45.645  36.719  27.469  1.00  0.00     0.124 S 
ATOM     68  O   UNL A   1      46.155  37.832  28.268  1.00  0.00    -0.237 OA
ATOM     69  O   UNL A   1      46.545  36.238  26.425  1.00  0.00    -0.237 OA
ATOM     70  O   UNL A   1      44.240  36.820  27.091  1.00  0.00    -0.744 OA
ENDBRANCH  63  67
ENDBRANCH  37  60
ENDBRANCH  11  12
ENDBRANCH   4   6
ENDBRANCH   1   2
BRANCH   1  71
ATOM     71  C   UNL A   1      35.235  21.550  24.491  1.00  0.00     0.023 C 
BRANCH  71  72
ATOM     72  C   UNL A   1      34.129  20.707  25.129  1.00  0.00     0.023 C 
BRANCH  72  73
ATOM     73  C   UNL A   1      32.713  20.987  24.635  1.00  0.00     0.116 C 
BRANCH  73  74
ATOM     74  N   UNL A   1      31.836  21.479  25.683  1.00  0.00    -0.352 N 
ATOM     75  C   UNL A   1      31.657  22.761  26.134  1.00  0.00     0.255 C 
ATOM     76  H   UNL A   1      31.292  20.794  26.135  1.00  0.00     0.163 HD
ATOM     77  O   UNL A   1      30.825  23.012  27.004  1.00  0.00    -0.269 OA
BRANCH  75  78
ATOM     78  C   UNL A   1      32.460  23.858  25.584  1.00  0.00     0.092 A 
ATOM     79  C   UNL A   1      33.661  24.188  26.217  1.00  0.00     0.137 A 
ATOM     80  C   UNL A   1      32.085  24.528  24.415  1.00  0.00     0.069 A 
ATOM     81  F   UNL A   1      34.047  23.550  27.331  1.00  0.00    -0.206 F 
ATOM     82  C   UNL A   1      34.479  25.201  25.722  1.00  0.00     0.043 A 
ATOM     83  C   UNL A   1      32.918  25.535  23.918  1.00  0.00     0.138 A 
ATOM     84  Br  UNL A   1      30.466  24.163  23.495  1.00  0.00    -0.047 Br
ATOM     85  C   UNL A   1      34.105  25.878  24.565  1.00  0.00     0.043 A 
ATOM     86  F   UNL A   1      32.590  26.208  22.804  1.00  0.00    -0.206 F 
ENDBRANCH  75  78
ENDBRANCH  73  74
ENDBRANCH  72  73
ENDBRANCH  71  72
ENDBRANCH   1  71
TORSDOF 14
ENDMDL
MODEL 2
REMARK VINA RESULT:     -11.4      6.097     10.922
REMARK SMILES O=C(NCCCCNC(=O)c1c(F)ccc(F)c1Br)c1ccc(-c2c3nc(c(-c4cc(S(=O)(=O)[O-])ccc4F)c4ccc([nH]4)c(-c4cc(S(=O)(=O)[O-])ccc4F)c4nc(c(-c5cc(S(=O)(=O)[O-])ccc5F)c5ccc2[nH]5)C=C4)C=C3)cc1
REMARK SMILES IDX 4 1 3 2 1 3 2 4 20 6 21 7 82 8 22 9 81 10 23 11 24 12 25 13
REMARK SMILES IDX 75 14 26 15 80 16 74 17 76 18 27 19 79 20 73 21 72 22 28 24
REMARK SMILES IDX 60 25 40 26 59 27 41 28 44 29 58 30 77 31 42 32 43 33 57 35
REMARK SMILES IDX 78 36 45 37 29 38 30 39 38 40 31 41 37 42 39 43 36 44 32 45
REMARK SMILES IDX 33 46 34 47 35 48 61 49 62 50 70 51 63 52 69 53 71 54 68 55
REMARK SMILES IDX 64 56 65 57 66 58 67 59 46 60 47 61 55 62 48 63 54 64 56 65
REMARK SMILES IDX 53 66 49 67 50 68 51 69 52 70 5 71 6 72 7 73 8 74 9 75 10 77
REMARK SMILES IDX 11 78 12 79 18 80 13 81 14 82 16 83 19 84 15 85 17 86
REMARK H PARENT 3 5 76 23 44 34 8 76
REMARK Flexibility Score: inf
ROOT
ATOM      1  C   UNL A   1      32.611  32.442  27.266  1.00  0.00     0.116 C 
ENDROOT
BRANCH   1   2
ATOM      2  N   UNL A   1      32.605  33.837  27.673  1.00  0.00    -0.352 N 
ATOM      3  O   UNL A   1      33.094  35.646  28.904  1.00  0.00    -0.269 OA
ATOM      4  C   UNL A   1      33.388  34.495  28.588  1.00  0.00     0.251 C 
ATOM      5  H   UNL A   1      31.932  34.398  27.222  1.00  0.00     0.163 HD
BRANCH   4   6
ATOM      6  C   UNL A   1      34.573  33.844  29.196  1.00  0.00     0.039 A 
ATOM      7  C   UNL A   1      34.372  32.803  30.111  1.00  0.00     0.014 A 
ATOM      8  C   UNL A   1      35.869  34.300  28.943  1.00  0.00     0.014 A 
ATOM      9  C   UNL A   1      35.464  32.210  30.754  1.00  0.00     0.010 A 
ATOM     10  C   UNL A   1      36.961  33.667  29.533  1.00  0.00     0.010 A 
ATOM     11  C   UNL A   1      36.769  32.636  30.468  1.00  0.00    -0.014 A 
BRANCH  11  12
ATOM     12  C   UNL A   1      37.947  32.099  31.198  1.00  0.00     0.031 A 
ATOM     13  C   UNL A   1      38.747  30.985  30.575  1.00  0.00     0.074 A 
ATOM     14  C   UNL A   1      38.265  32.555  32.425  1.00  0.00     0.049 A 
ATOM     15  N   UNL A   1      39.706  30.265  31.093  1.00  0.00    -0.248 NA
ATOM     16  C   UNL A   1      38.403  30.617  29.190  1.00  0.00     0.031 C 
ATOM     17  C   UNL A   1      37.564  33.628  33.130  1.00  0.00     0.029 A 
ATOM     18  N   UNL A   1      39.245  32.162  33.304  1.00  0.00    -0.354 N 
ATOM     19  C   UNL A   1      40.058  29.342  30.115  1.00  0.00     0.074 A 
ATOM     20  C   UNL A   1      39.184  29.565  28.985  1.00  0.00     0.031 C 
ATOM     21  C   UNL A   1      38.137  33.809  34.330  1.00  0.00     0.029 A 
ATOM     22  C   UNL A   1      39.214  32.835  34.505  1.00  0.00     0.049 A 
ATOM     23  H   UNL A   1      39.907  31.465  33.094  1.00  0.00     0.167 HD
ATOM     24  C   UNL A   1      41.036  28.408  30.149  1.00  0.00     0.034 A 
ATOM     25  C   UNL A   1      39.953  32.674  35.624  1.00  0.00     0.034 A 
ATOM     26  C   UNL A   1      41.932  28.232  31.259  1.00  0.00     0.049 A 
ATOM     27  C   UNL A   1      41.043  31.625  35.636  1.00  0.00     0.074 A 
ATOM     28  C   UNL A   1      42.985  27.342  31.370  1.00  0.00     0.029 A 
ATOM     29  N   UNL A   1      41.899  28.965  32.435  1.00  0.00    -0.354 N 
ATOM     30  N   UNL A   1      41.396  30.795  34.683  1.00  0.00    -0.248 NA
ATOM     31  C   UNL A   1      41.839  31.492  36.865  1.00  0.00     0.031 C 
ATOM     32  C   UNL A   1      43.560  27.505  32.629  1.00  0.00     0.029 A 
ATOM     33  C   UNL A   1      42.908  28.540  33.281  1.00  0.00     0.049 A 
ATOM     34  H   UNL A   1      41.255  29.682  32.638  1.00  0.00     0.167 HD
ATOM     35  C   UNL A   1      42.475  30.070  35.183  1.00  0.00     0.074 A 
ATOM     36  C   UNL A   1      42.727  30.566  36.518  1.00  0.00     0.031 C 
ATOM     37  C   UNL A   1      43.186  29.080  34.590  1.00  0.00     0.034 A 
BRANCH  24  38
ATOM     38  C   UNL A   1      41.232  27.515  28.951  1.00  0.00     0.023 A 
ATOM     39  C   UNL A   1      42.229  27.818  28.004  1.00  0.00     0.031 A 
ATOM     40  C   UNL A   1      40.345  26.460  28.673  1.00  0.00     0.131 A 
ATOM     41  C   UNL A   1      42.287  27.101  26.804  1.00  0.00     0.055 A 
ATOM     42  C   UNL A   1      40.435  25.721  27.494  1.00  0.00     0.041 A 
ATOM     43  F   UNL A   1      39.379  26.133  29.547  1.00  0.00    -0.206 F 
ATOM     44  C   UNL A   1      41.401  26.049  26.546  1.00  0.00     0.022 A 
BRANCH  41  45
ATOM     45  S   UNL A   1      43.473  27.543  25.505  1.00  0.00     0.124 S 
ATOM     46  O   UNL A   1      42.588  27.973  24.424  1.00  0.00    -0.237 OA
ATOM     47  O   UNL A   1      44.241  28.608  26.143  1.00  0.00    -0.237 OA
ATOM     48  O   UNL A   1      44.197  26.303  25.254  1.00  0.00    -0.744 OA
ENDBRANCH  41  45
ENDBRANCH  24  38
BRANCH  25  49
ATOM     49  C   UNL A   1      39.708  33.559  36.800  1.00  0.00     0.023 A 
ATOM     50  C   UNL A   1      40.520  34.682  37.050  1.00  0.00     0.031 A 
ATOM     51  C   UNL A   1      38.709  33.249  37.739  1.00  0.00     0.131 A 
ATOM     52  C   UNL A   1      40.354  35.416  38.233  1.00  0.00     0.055 A 
ATOM     53  C   UNL A   1      38.503  34.022  38.884  1.00  0.00     0.041 A 
ATOM     54  F   UNL A   1      37.916  32.182  37.553  1.00  0.00    -0.206 F 
ATOM     55  C   UNL A   1      39.340  35.103  39.143  1.00  0.00     0.022 A 
BRANCH  52  56
ATOM     56  S   UNL A   1      41.532  36.718  38.693  1.00  0.00     0.124 S 
ATOM     57  O   UNL A   1      40.643  37.781  39.153  1.00  0.00    -0.237 OA
ATOM     58  O   UNL A   1      42.318  36.060  39.733  1.00  0.00    -0.237 OA
ATOM     59  O   UNL A   1      42.250  36.987  37.452  1.00  0.00    -0.744 OA
ENDBRANCH  52  56
ENDBRANCH  25  49
BRANCH  37  60
ATOM     60  C   UNL A   1      44.346  28.457  35.327  1.00  0.00     0.023 A 
ATOM     61  C   UNL A   1      44.108  27.397  36.225  1.00  0.00     0.031 A 
ATOM     62  C   UNL A   1      45.620  29.046  35.312  1.00  0.00     0.131 A 
ATOM     63  C   UNL A   1      45.112  27.000  37.114  1.00  0.00     0.055 A 
ATOM     64  C   UNL A   1      46.633  28.614  36.168  1.00  0.00     0.041 A 
ATOM     65  F   UNL A   1      45.888  30.068  34.483  1.00  0.00    -0.206 F 
ATOM     66  C   UNL A   1      46.376  27.600  37.087  1.00  0.00     0.022 A 
BRANCH  63  67
ATOM     67  S   UNL A   1      44.786  25.769  38.407  1.00  0.00     0.124 S 
ATOM     68  O   UNL A   1      44.030  24.755  37.675  1.00  0.00    -0.237 OA
ATOM     69  O   UNL A   1      46.135  25.375  38.803  1.00  0.00    -0.237 OA
ATOM     70  O   UNL A   1      44.025  26.505  39.411  1.00  0.00    -0.744 OA
ENDBRANCH  63  67
ENDBRANCH  37  60
ENDBRANCH  11  12
ENDBRANCH   4   6
ENDBRANCH   1   2
BRANCH   1  71
ATOM     71  C   UNL A   1      31.329  32.037  26.545  1.00  0.00     0.023 C 
BRANCH  71  72
ATOM     72  C   UNL A   1      31.405  30.748  25.723  1.00  0.00     0.023 C 
BRANCH  72  73
ATOM     73  C   UNL A   1      32.731  29.996  25.792  1.00  0.00     0.116 C 
BRANCH  73  74
ATOM     74  N   UNL A   1      33.212  29.580  24.485  1.00  0.00    -0.352 N 
ATOM     75  C   UNL A   1      32.934  28.438  23.782  1.00  0.00     0.255 C 
ATOM     76  H   UNL A   1      33.826  30.209  24.042  1.00  0.00     0.163 HD
ATOM     77  O   UNL A   1      33.390  28.268  22.653  1.00  0.00    -0.269 OA
BRANCH  75  78
ATOM     78  C   UNL A   1      32.086  27.396  24.368  1.00  0.00     0.092 A 
ATOM     79  C   UNL A   1      32.668  26.476  25.245  1.00  0.00     0.137 A 
ATOM     80  C   UNL A   1      30.710  27.344  24.122  1.00  0.00     0.069 A 
ATOM     81  F   UNL A   1      33.982  26.515  25.506  1.00  0.00    -0.206 F 
ATOM     82  C   UNL A   1      31.905  25.483  25.854  1.00  0.00     0.043 A 
ATOM     83  C   UNL A   1      29.949  26.351  24.747  1.00  0.00     0.138 A 
ATOM     84  Br  UNL A   1      29.832  28.536  22.934  1.00  0.00    -0.047 Br
ATOM     85  C   UNL A   1      30.537  25.421  25.604  1.00  0.00     0.043 A 
ATOM     86  F   UNL A   1      28.628  26.262  24.531  1.00  0.00    -0.206 F 
ENDBRANCH  75  78
ENDBRANCH  73  74
ENDBRANCH  72  73
ENDBRANCH  71  72
ENDBRANCH   1  71
TORSDOF 14
ENDMDL
MODEL 3
REMARK VINA RESULT:     -11.4      6.039      8.849
REMARK SMILES O=C(NCCCCNC(=O)c1c(F)ccc(F)c1Br)c1ccc(-c2c3nc(c(-c4cc(S(=O)(=O)[O-])ccc4F)c4ccc([nH]4)c(-c4cc(S(=O)(=O)[O-])ccc4F)c4nc(c(-c5cc(S(=O)(=O)[O-])ccc5F)c5ccc2[nH]5)C=C4)C=C3)cc1
REMARK SMILES IDX 4 1 3 2 1 3 2 4 20 6 21 7 82 8 22 9 81 10 23 11 24 12 25 13
REMARK SMILES IDX 75 14 26 15 80 16 74 17 76 18 27 19 79 20 73 21 72 22 28 24
REMARK SMILES IDX 60 25 40 26 59 27 41 28 44 29 58 30 77 31 42 32 43 33 57 35
REMARK SMILES IDX 78 36 45 37 29 38 30 39 38 40 31 41 37 42 39 43 36 44 32 45
REMARK SMILES IDX 33 46 34 47 35 48 61 49 62 50 70 51 63 52 69 53 71 54 68 55
REMARK SMILES IDX 64 56 65 57 66 58 67 59 46 60 47 61 55 62 48 63 54 64 56 65
REMARK SMILES IDX 53 66 49 67 50 68 51 69 52 70 5 71 6 72 7 73 8 74 9 75 10 77
REMARK SMILES IDX 11 78 12 79 18 80 13 81 14 82 16 83 19 84 15 85 17 86
REMARK H PARENT 3 5 76 23 44 34 8 76
REMARK Flexibility Score: inf
ROOT
ATOM      1  C   UNL A   1      32.678  32.529  27.264  1.00  0.00     0.116 C 
ENDROOT
BRANCH   1   2
ATOM      2  N   UNL A   1      32.611  33.932  27.638  1.00  0.00    -0.352 N 
ATOM      3  O   UNL A   1      32.937  35.771  28.880  1.00  0.00    -0.269 OA
ATOM      4  C   UNL A   1      33.276  34.617  28.625  1.00  0.00     0.251 C 
ATOM      5  H   UNL A   1      31.992  34.476  27.100  1.00  0.00     0.163 HD
BRANCH   4   6
ATOM      6  C   UNL A   1      34.387  33.991  29.382  1.00  0.00     0.039 A 
ATOM      7  C   UNL A   1      35.704  34.270  28.997  1.00  0.00     0.014 A 
ATOM      8  C   UNL A   1      34.146  33.070  30.404  1.00  0.00     0.014 A 
ATOM      9  C   UNL A   1      36.774  33.646  29.647  1.00  0.00     0.010 A 
ATOM     10  C   UNL A   1      35.213  32.498  31.095  1.00  0.00     0.010 A 
ATOM     11  C   UNL A   1      36.537  32.755  30.704  1.00  0.00    -0.014 A 
BRANCH  11  12
ATOM     12  C   UNL A   1      37.639  32.000  31.355  1.00  0.00     0.031 A 
ATOM     13  C   UNL A   1      38.123  32.439  32.711  1.00  0.00     0.074 A 
ATOM     14  C   UNL A   1      38.241  30.975  30.722  1.00  0.00     0.049 A 
ATOM     15  N   UNL A   1      39.162  32.033  33.391  1.00  0.00    -0.248 NA
ATOM     16  C   UNL A   1      37.345  33.496  33.383  1.00  0.00     0.031 C 
ATOM     17  C   UNL A   1      37.862  30.461  29.406  1.00  0.00     0.029 A 
ATOM     18  N   UNL A   1      39.311  30.195  31.089  1.00  0.00    -0.354 N 
ATOM     19  C   UNL A   1      39.182  32.801  34.549  1.00  0.00     0.074 A 
ATOM     20  C   UNL A   1      38.075  33.726  34.465  1.00  0.00     0.031 C 
ATOM     21  C   UNL A   1      38.683  29.451  29.077  1.00  0.00     0.029 A 
ATOM     22  C   UNL A   1      39.679  29.275  30.133  1.00  0.00     0.049 A 
ATOM     23  H   UNL A   1      39.770  30.285  31.955  1.00  0.00     0.167 HD
ATOM     24  C   UNL A   1      40.035  32.726  35.597  1.00  0.00     0.034 A 
ATOM     25  C   UNL A   1      40.711  28.404  30.102  1.00  0.00     0.034 A 
ATOM     26  C   UNL A   1      41.100  31.765  35.692  1.00  0.00     0.049 A 
ATOM     27  C   UNL A   1      41.648  28.336  31.287  1.00  0.00     0.074 A 
ATOM     28  C   UNL A   1      41.990  31.580  36.734  1.00  0.00     0.029 A 
ATOM     29  N   UNL A   1      41.409  30.820  34.726  1.00  0.00    -0.354 N 
ATOM     30  N   UNL A   1      41.622  29.035  32.397  1.00  0.00    -0.248 NA
ATOM     31  C   UNL A   1      42.749  27.363  31.225  1.00  0.00     0.031 C 
ATOM     32  C   UNL A   1      42.864  30.555  36.381  1.00  0.00     0.029 A 
ATOM     33  C   UNL A   1      42.483  30.055  35.145  1.00  0.00     0.049 A 
ATOM     34  H   UNL A   1      40.935  30.709  33.870  1.00  0.00     0.167 HD
ATOM     35  C   UNL A   1      42.674  28.561  33.176  1.00  0.00     0.074 A 
ATOM     36  C   UNL A   1      43.312  27.507  32.419  1.00  0.00     0.031 C 
ATOM     37  C   UNL A   1      43.077  28.969  34.405  1.00  0.00     0.034 A 
BRANCH  24  38
ATOM     38  C   UNL A   1      39.852  33.674  36.754  1.00  0.00     0.023 A 
ATOM     39  C   UNL A   1      39.282  33.212  37.957  1.00  0.00     0.031 A 
ATOM     40  C   UNL A   1      40.100  35.050  36.619  1.00  0.00     0.131 A 
ATOM     41  C   UNL A   1      38.941  34.127  38.959  1.00  0.00     0.055 A 
ATOM     42  C   UNL A   1      39.798  35.952  37.638  1.00  0.00     0.041 A 
ATOM     43  F   UNL A   1      40.644  35.537  35.491  1.00  0.00    -0.206 F 
ATOM     44  C   UNL A   1      39.202  35.494  38.810  1.00  0.00     0.022 A 
BRANCH  41  45
ATOM     45  S   UNL A   1      38.090  33.590  40.468  1.00  0.00     0.124 S 
ATOM     46  O   UNL A   1      36.786  33.180  39.948  1.00  0.00    -0.237 OA
ATOM     47  O   UNL A   1      38.947  32.503  40.931  1.00  0.00    -0.237 OA
ATOM     48  O   UNL A   1      38.073  34.784  41.305  1.00  0.00    -0.744 OA
ENDBRANCH  41  45
ENDBRANCH  24  38
BRANCH  25  49
ATOM     49  C   UNL A   1      40.876  27.502  28.923  1.00  0.00     0.023 A 
ATOM     50  C   UNL A   1      41.893  27.718  27.975  1.00  0.00     0.031 A 
ATOM     51  C   UNL A   1      39.965  26.458  28.683  1.00  0.00     0.131 A 
ATOM     52  C   UNL A   1      41.941  26.941  26.810  1.00  0.00     0.055 A 
ATOM     53  C   UNL A   1      40.056  25.642  27.554  1.00  0.00     0.041 A 
ATOM     54  F   UNL A   1      38.970  26.218  29.551  1.00  0.00    -0.206 F 
ATOM     55  C   UNL A   1      41.039  25.893  26.602  1.00  0.00     0.022 A 
BRANCH  52  56
ATOM     56  S   UNL A   1      43.092  27.347  25.466  1.00  0.00     0.124 S 
ATOM     57  O   UNL A   1      42.277  28.216  24.622  1.00  0.00    -0.237 OA
ATOM     58  O   UNL A   1      44.177  28.006  26.188  1.00  0.00    -0.237 OA
ATOM     59  O   UNL A   1      43.429  26.046  24.897  1.00  0.00    -0.744 OA
ENDBRANCH  52  56
ENDBRANCH  25  49
BRANCH  37  60
ATOM     60  C   UNL A   1      44.240  28.275  35.071  1.00  0.00     0.023 A 
ATOM     61  C   UNL A   1      43.994  27.320  36.077  1.00  0.00     0.031 A 
ATOM     62  C   UNL A   1      45.560  28.711  34.872  1.00  0.00     0.131 A 
ATOM     63  C   UNL A   1      45.044  26.879  36.889  1.00  0.00     0.055 A 
ATOM     64  C   UNL A   1      46.611  28.231  35.653  1.00  0.00     0.041 A 
ATOM     65  F   UNL A   1      45.839  29.630  33.934  1.00  0.00    -0.206 F 
ATOM     66  C   UNL A   1      46.353  27.326  36.679  1.00  0.00     0.022 A 
BRANCH  63  67
ATOM     67  S   UNL A   1      44.737  25.794  38.311  1.00  0.00     0.124 S 
ATOM     68  O   UNL A   1      44.138  26.717  39.273  1.00  0.00    -0.237 OA
ATOM     69  O   UNL A   1      43.823  24.802  37.748  1.00  0.00    -0.237 OA
ATOM     70  O   UNL A   1      46.061  25.297  38.669  1.00  0.00    -0.744 OA
ENDBRANCH  63  67
ENDBRANCH  37  60
ENDBRANCH  11  12
ENDBRANCH   4   6
ENDBRANCH   1   2
BRANCH   1  71
ATOM     71  C   UNL A   1      31.401  32.044  26.585  1.00  0.00     0.023 C 
BRANCH  71  72
ATOM     72  C   UNL A   1      31.470  30.652  25.953  1.00  0.00     0.023 C 
BRANCH  72  73
ATOM     73  C   UNL A   1      32.850  30.001  25.932  1.00  0.00     0.116 C 
BRANCH  73  74
ATOM     74  N   UNL A   1      33.277  29.625  24.596  1.00  0.00    -0.352 N 
ATOM     75  C   UNL A   1      32.950  28.516  23.860  1.00  0.00     0.255 C 
ATOM     76  H   UNL A   1      33.889  30.257  24.154  1.00  0.00     0.163 HD
ATOM     77  O   UNL A   1      33.363  28.379  22.711  1.00  0.00    -0.269 OA
BRANCH  75  78
ATOM     78  C   UNL A   1      32.100  27.470  24.437  1.00  0.00     0.092 A 
ATOM     79  C   UNL A   1      32.678  26.549  25.316  1.00  0.00     0.137 A 
ATOM     80  C   UNL A   1      30.726  27.416  24.181  1.00  0.00     0.069 A 
ATOM     81  F   UNL A   1      33.990  26.591  25.587  1.00  0.00    -0.206 F 
ATOM     82  C   UNL A   1      31.913  25.552  25.917  1.00  0.00     0.043 A 
ATOM     83  C   UNL A   1      29.964  26.419  24.798  1.00  0.00     0.138 A 
ATOM     84  Br  UNL A   1      29.854  28.609  22.991  1.00  0.00    -0.047 Br
ATOM     85  C   UNL A   1      30.547  25.487  25.656  1.00  0.00     0.043 A 
ATOM     86  F   UNL A   1      28.644  26.327  24.572  1.00  0.00    -0.206 F 
ENDBRANCH  75  78
ENDBRANCH  73  74
ENDBRANCH  72  73
ENDBRANCH  71  72
ENDBRANCH   1  71
TORSDOF 14
ENDMDL
