MODEL 1
REMARK VINA RESULT:     -13.4      0.000      0.000
REMARK SMILES Cc1ccccc1/[NH+]=C1\S[C@@H](CC(=O)Nc2ccc(C(=O)NCCCCNC(=O)c3ccc(-c4c5nc(c(-c6cc(S(=O)(=O)[O-])ccc6F)c6ccc([nH]6)c(-c6cc(S(=O)(=O)[O-])ccc6F)c6nc(c(-c7cc(S(=O)(=O)[O-])ccc7F)c7ccc4[nH]7)C=C6)C=C5)cc3)cc2)C(=O)N1C
REMARK SMILES IDX 24 1 23 2 22 3 20 4 21 5 19 7 16 8 17 9 94 10 18 11 93 12
REMARK SMILES IDX 15 13 13 14 14 15 12 17 11 18 8 19 9 20 10 22 97 23 95 24
REMARK SMILES IDX 98 25 96 26 7 27 1 28 2 29 3 30 4 31 6 32 5 33 25 34 26 35
REMARK SMILES IDX 27 36 28 37 29 39 30 40 31 41 92 42 32 43 91 44 33 45 34 46
REMARK SMILES IDX 35 47 85 48 36 49 90 50 84 51 86 52 37 53 89 54 83 55 82 56
REMARK SMILES IDX 38 58 70 59 50 60 69 61 51 62 54 63 68 64 87 65 52 66 53 67
REMARK SMILES IDX 67 69 88 70 55 71 39 72 40 73 48 74 41 75 47 76 49 77 46 78
REMARK SMILES IDX 42 79 43 80 44 81 45 82 71 83 72 84 80 85 73 86 79 87 81 88
REMARK SMILES IDX 78 89 74 90 75 91 76 92 77 93 56 94 57 95 65 96 58 97 64 98
REMARK SMILES IDX 66 99 63 100 59 101 60 102 61 103 62 104
REMARK H PARENT 22 6 15 16 8 21 27 38 86 57 54 68
REMARK Flexibility Score: inf
ROOT
ATOM      1  C   UNL A   1      37.845  23.219  25.386  1.00  0.00     0.023 C 
ENDROOT
BRANCH   1   2
ATOM      2  C   UNL A   1      37.084  22.619  24.193  1.00  0.00     0.116 C 
BRANCH   2   3
ATOM      3  N   UNL A   1      36.936  21.170  24.314  1.00  0.00    -0.352 N 
ATOM      4  C   UNL A   1      35.937  20.360  24.801  1.00  0.00     0.251 C 
ATOM      5  O   UNL A   1      36.084  19.141  24.680  1.00  0.00    -0.269 OA
ATOM      6  H   UNL A   1      37.713  20.670  23.975  1.00  0.00     0.163 HD
BRANCH   4   7
ATOM      7  C   UNL A   1      34.688  20.853  25.457  1.00  0.00     0.039 A 
ATOM      8  C   UNL A   1      32.246  21.778  26.548  1.00  0.00     0.041 A 
ATOM      9  C   UNL A   1      33.455  21.959  27.209  1.00  0.00     0.027 A 
ATOM     10  C   UNL A   1      32.233  21.010  25.392  1.00  0.00     0.027 A 
ATOM     11  C   UNL A   1      34.661  21.509  26.678  1.00  0.00     0.016 A 
ATOM     12  C   UNL A   1      33.449  20.573  24.840  1.00  0.00     0.016 A 
BRANCH   8  13
ATOM     13  N   UNL A   1      31.052  22.321  27.051  1.00  0.00    -0.326 N 
ATOM     14  C   UNL A   1      30.388  23.440  26.602  1.00  0.00     0.226 C 
ATOM     15  O   UNL A   1      29.468  23.923  27.264  1.00  0.00    -0.275 OA
ATOM     16  H   UNL A   1      30.644  21.847  27.811  1.00  0.00     0.169 HD
BRANCH  14  17
ATOM     17  C   UNL A   1      30.659  23.912  25.185  1.00  0.00     0.128 C 
BRANCH  17  18
ATOM     18  C   UNL A   1      31.767  24.928  25.030  1.00  0.00     0.183 C 
ATOM     19  N   UNL A   1      33.232  28.203  24.507  1.00  0.00    -0.234 N 
ATOM     20  C   UNL A   1      32.454  27.206  24.285  1.00  0.00     0.319 C 
ATOM     21  H   UNL A   1      34.025  28.246  23.926  1.00  0.00     0.313 HD
ATOM     22  S   UNL A   1      31.069  26.621  25.147  1.00  0.00    -0.022 SA
ATOM     23  N   UNL A   1      32.743  26.277  23.328  1.00  0.00    -0.193 N 
ATOM     24  C   UNL A   1      32.530  24.968  23.709  1.00  0.00     0.324 C 
ATOM     25  C   UNL A   1      33.201  26.634  22.001  1.00  0.00     0.301 C 
ATOM     26  O   UNL A   1      32.948  23.988  23.129  1.00  0.00    -0.245 OA
BRANCH  19  27
ATOM     27  C   UNL A   1      33.129  29.240  25.445  1.00  0.00     0.128 A 
ATOM     28  C   UNL A   1      30.864  30.310  24.802  1.00  0.00     0.049 C 
ATOM     29  C   UNL A   1      32.123  30.210  25.610  1.00  0.00    -0.004 A 
ATOM     30  C   UNL A   1      32.259  31.182  26.630  1.00  0.00     0.008 A 
ATOM     31  C   UNL A   1      33.300  31.134  27.551  1.00  0.00     0.001 A 
ATOM     32  C   UNL A   1      34.135  29.188  26.427  1.00  0.00     0.052 A 
ATOM     33  C   UNL A   1      34.230  30.113  27.467  1.00  0.00     0.004 A 
ENDBRANCH  19  27
ENDBRANCH  17  18
ENDBRANCH  14  17
ENDBRANCH   8  13
ENDBRANCH   4   7
ENDBRANCH   2   3
ENDBRANCH   1   2
BRANCH   1  34
ATOM     34  C   UNL A   1      38.774  22.269  26.151  1.00  0.00     0.023 C 
BRANCH  34  35
ATOM     35  C   UNL A   1      39.709  22.976  27.133  1.00  0.00     0.116 C 
BRANCH  35  36
ATOM     36  N   UNL A   1      40.990  23.370  26.532  1.00  0.00    -0.352 N 
ATOM     37  C   UNL A   1      41.538  24.638  26.430  1.00  0.00     0.251 C 
ATOM     38  H   UNL A   1      41.528  22.638  26.152  1.00  0.00     0.163 HD
ATOM     39  O   UNL A   1      42.686  24.833  26.047  1.00  0.00    -0.269 OA
BRANCH  37  40
ATOM     40  C   UNL A   1      40.717  25.772  26.893  1.00  0.00     0.039 A 
ATOM     41  C   UNL A   1      40.833  26.992  26.218  1.00  0.00     0.014 A 
ATOM     42  C   UNL A   1      40.109  25.689  28.141  1.00  0.00     0.014 A 
ATOM     43  C   UNL A   1      40.562  28.167  26.908  1.00  0.00     0.010 A 
ATOM     44  C   UNL A   1      39.941  26.853  28.858  1.00  0.00     0.010 A 
ATOM     45  C   UNL A   1      40.228  28.088  28.261  1.00  0.00    -0.014 A 
BRANCH  45  46
ATOM     46  C   UNL A   1      40.244  29.245  29.145  1.00  0.00     0.031 A 
ATOM     47  C   UNL A   1      39.159  30.234  29.064  1.00  0.00     0.074 A 
ATOM     48  C   UNL A   1      41.238  29.399  30.045  1.00  0.00     0.049 A 
ATOM     49  N   UNL A   1      39.281  31.486  29.344  1.00  0.00    -0.248 NA
ATOM     50  C   UNL A   1      37.825  29.864  28.608  1.00  0.00     0.031 C 
ATOM     51  C   UNL A   1      41.348  30.396  31.106  1.00  0.00     0.029 A 
ATOM     52  N   UNL A   1      42.505  28.825  29.975  1.00  0.00    -0.354 N 
ATOM     53  C   UNL A   1      38.012  32.015  29.399  1.00  0.00     0.074 A 
ATOM     54  C   UNL A   1      37.150  30.986  28.863  1.00  0.00     0.031 C 
ATOM     55  C   UNL A   1      42.649  30.582  31.383  1.00  0.00     0.029 A 
ATOM     56  C   UNL A   1      43.409  29.807  30.415  1.00  0.00     0.049 A 
ATOM     57  H   UNL A   1      42.723  27.912  29.676  1.00  0.00     0.167 HD
ATOM     58  C   UNL A   1      37.798  33.198  30.041  1.00  0.00     0.034 A 
ATOM     59  C   UNL A   1      44.352  30.304  29.563  1.00  0.00     0.034 A 
ATOM     60  C   UNL A   1      39.050  33.801  30.496  1.00  0.00     0.049 A 
ATOM     61  C   UNL A   1      44.237  31.799  29.359  1.00  0.00     0.074 A 
ATOM     62  C   UNL A   1      39.688  33.821  31.726  1.00  0.00     0.029 A 
ATOM     63  N   UNL A   1      39.993  34.223  29.560  1.00  0.00    -0.354 N 
ATOM     64  N   UNL A   1      43.156  32.492  29.598  1.00  0.00    -0.248 NA
ATOM     65  C   UNL A   1      45.331  32.622  28.854  1.00  0.00     0.031 C 
ATOM     66  C   UNL A   1      41.049  34.161  31.508  1.00  0.00     0.029 A 
ATOM     67  C   UNL A   1      41.231  34.385  30.154  1.00  0.00     0.049 A 
ATOM     68  H   UNL A   1      39.802  34.385  28.608  1.00  0.00     0.167 HD
ATOM     69  C   UNL A   1      43.376  33.807  29.270  1.00  0.00     0.074 A 
ATOM     70  C   UNL A   1      44.763  33.840  28.836  1.00  0.00     0.031 C 
ATOM     71  C   UNL A   1      42.400  34.760  29.369  1.00  0.00     0.034 A 
BRANCH  58  72
ATOM     72  C   UNL A   1      36.429  33.572  30.560  1.00  0.00     0.023 A 
ATOM     73  C   UNL A   1      35.525  34.250  29.719  1.00  0.00     0.031 A 
ATOM     74  C   UNL A   1      35.990  33.370  31.883  1.00  0.00     0.131 A 
ATOM     75  C   UNL A   1      34.330  34.800  30.221  1.00  0.00     0.055 A 
ATOM     76  C   UNL A   1      34.841  33.980  32.403  1.00  0.00     0.041 A 
ATOM     77  F   UNL A   1      36.640  32.541  32.713  1.00  0.00    -0.206 F 
ATOM     78  C   UNL A   1      34.011  34.717  31.573  1.00  0.00     0.022 A 
BRANCH  75  79
ATOM     79  S   UNL A   1      33.184  35.610  29.071  1.00  0.00     0.124 S 
ATOM     80  O   UNL A   1      34.078  36.440  28.272  1.00  0.00    -0.237 OA
ATOM     81  O   UNL A   1      32.578  34.471  28.390  1.00  0.00    -0.237 OA
ATOM     82  O   UNL A   1      32.282  36.347  29.956  1.00  0.00    -0.744 OA
ENDBRANCH  75  79
ENDBRANCH  58  72
BRANCH  59  83
ATOM     83  C   UNL A   1      44.800  29.319  28.530  1.00  0.00     0.023 A 
ATOM     84  C   UNL A   1      45.674  28.286  28.948  1.00  0.00     0.031 A 
ATOM     85  C   UNL A   1      44.160  29.160  27.297  1.00  0.00     0.131 A 
ATOM     86  C   UNL A   1      45.768  27.086  28.232  1.00  0.00     0.055 A 
ATOM     87  C   UNL A   1      44.302  27.980  26.550  1.00  0.00     0.041 A 
ATOM     88  F   UNL A   1      43.302  30.085  26.844  1.00  0.00    -0.206 F 
ATOM     89  C   UNL A   1      45.073  26.921  27.037  1.00  0.00     0.022 A 
BRANCH  86  90
ATOM     90  S   UNL A   1      46.611  25.666  28.988  1.00  0.00     0.124 S 
ATOM     91  O   UNL A   1      47.998  25.843  28.580  1.00  0.00    -0.237 OA
ATOM     92  O   UNL A   1      46.343  25.834  30.417  1.00  0.00    -0.237 OA
ATOM     93  O   UNL A   1      45.948  24.512  28.390  1.00  0.00    -0.744 OA
ENDBRANCH  86  90
ENDBRANCH  59  83
BRANCH  71  94
ATOM     94  C   UNL A   1      42.517  36.166  28.823  1.00  0.00     0.023 A 
ATOM     95  C   UNL A   1      43.177  37.197  29.509  1.00  0.00     0.031 A 
ATOM     96  C   UNL A   1      42.017  36.502  27.544  1.00  0.00     0.131 A 
ATOM     97  C   UNL A   1      43.211  38.505  28.999  1.00  0.00     0.055 A 
ATOM     98  C   UNL A   1      42.136  37.784  26.995  1.00  0.00     0.041 A 
ATOM     99  F   UNL A   1      41.395  35.599  26.770  1.00  0.00    -0.206 F 
ATOM    100  C   UNL A   1      42.714  38.804  27.734  1.00  0.00     0.022 A 
BRANCH  97 101
ATOM    101  S   UNL A   1      43.838  39.823  30.074  1.00  0.00     0.124 S 
ATOM    102  O   UNL A   1      45.078  40.194  29.397  1.00  0.00    -0.237 OA
ATOM    103  O   UNL A   1      42.766  40.812  30.016  1.00  0.00    -0.237 OA
ATOM    104  O   UNL A   1      44.010  39.163  31.365  1.00  0.00    -0.744 OA
ENDBRANCH  97 101
ENDBRANCH  71  94
ENDBRANCH  45  46
ENDBRANCH  37  40
ENDBRANCH  35  36
ENDBRANCH  34  35
ENDBRANCH   1  34
TORSDOF 18
ENDMDL
MODEL 2
REMARK VINA RESULT:     -13.2      1.197      2.021
REMARK SMILES Cc1ccccc1/[NH+]=C1\S[C@@H](CC(=O)Nc2ccc(C(=O)NCCCCNC(=O)c3ccc(-c4c5nc(c(-c6cc(S(=O)(=O)[O-])ccc6F)c6ccc([nH]6)c(-c6cc(S(=O)(=O)[O-])ccc6F)c6nc(c(-c7cc(S(=O)(=O)[O-])ccc7F)c7ccc4[nH]7)C=C6)C=C5)cc3)cc2)C(=O)N1C
REMARK SMILES IDX 24 1 23 2 22 3 20 4 21 5 19 7 16 8 17 9 94 10 18 11 93 12
REMARK SMILES IDX 15 13 13 14 14 15 12 17 11 18 8 19 9 20 10 22 97 23 95 24
REMARK SMILES IDX 98 25 96 26 7 27 1 28 2 29 3 30 4 31 6 32 5 33 25 34 26 35
REMARK SMILES IDX 27 36 28 37 29 39 30 40 31 41 92 42 32 43 91 44 33 45 34 46
REMARK SMILES IDX 35 47 85 48 36 49 90 50 84 51 86 52 37 53 89 54 83 55 82 56
REMARK SMILES IDX 38 58 70 59 50 60 69 61 51 62 54 63 68 64 87 65 52 66 53 67
REMARK SMILES IDX 67 69 88 70 55 71 39 72 40 73 48 74 41 75 47 76 49 77 46 78
REMARK SMILES IDX 42 79 43 80 44 81 45 82 71 83 72 84 80 85 73 86 79 87 81 88
REMARK SMILES IDX 78 89 74 90 75 91 76 92 77 93 56 94 57 95 65 96 58 97 64 98
REMARK SMILES IDX 66 99 63 100 59 101 60 102 61 103 62 104
REMARK H PARENT 22 6 15 16 8 21 27 38 86 57 54 68
REMARK Flexibility Score: inf
ROOT
ATOM      1  C   UNL A   1      38.059  21.172  25.028  1.00  0.00     0.023 C 
ENDROOT
BRANCH   1   2
ATOM      2  C   UNL A   1      36.583  21.279  25.439  1.00  0.00     0.116 C 
BRANCH   2   3
ATOM      3  N   UNL A   1      35.816  20.104  25.029  1.00  0.00    -0.352 N 
ATOM      4  C   UNL A   1      34.488  19.894  24.744  1.00  0.00     0.251 C 
ATOM      5  O   UNL A   1      34.163  18.777  24.333  1.00  0.00    -0.269 OA
ATOM      6  H   UNL A   1      36.367  19.293  24.937  1.00  0.00     0.163 HD
BRANCH   4   7
ATOM      7  C   UNL A   1      33.415  20.925  24.889  1.00  0.00     0.039 A 
ATOM      8  C   UNL A   1      31.356  22.818  25.319  1.00  0.00     0.041 A 
ATOM      9  C   UNL A   1      31.806  22.508  24.041  1.00  0.00     0.027 A 
ATOM     10  C   UNL A   1      32.027  22.277  26.406  1.00  0.00     0.027 A 
ATOM     11  C   UNL A   1      32.818  21.577  23.821  1.00  0.00     0.016 A 
ATOM     12  C   UNL A   1      33.033  21.319  26.190  1.00  0.00     0.016 A 
BRANCH   8  13
ATOM     13  N   UNL A   1      30.271  23.687  25.518  1.00  0.00    -0.326 N 
ATOM     14  C   UNL A   1      30.270  24.880  26.205  1.00  0.00     0.226 C 
ATOM     15  O   UNL A   1      29.206  25.437  26.481  1.00  0.00    -0.275 OA
ATOM     16  H   UNL A   1      29.413  23.412  25.122  1.00  0.00     0.169 HD
BRANCH  14  17
ATOM     17  C   UNL A   1      31.596  25.593  26.403  1.00  0.00     0.128 C 
BRANCH  17  18
ATOM     18  C   UNL A   1      31.782  26.868  25.612  1.00  0.00     0.183 C 
ATOM     19  N   UNL A   1      31.147  29.272  22.974  1.00  0.00    -0.234 N 
ATOM     20  C   UNL A   1      31.366  28.120  23.497  1.00  0.00     0.319 C 
ATOM     21  H   UNL A   1      31.934  29.696  22.561  1.00  0.00     0.313 HD
ATOM     22  S   UNL A   1      30.363  27.096  24.471  1.00  0.00    -0.022 SA
ATOM     23  N   UNL A   1      32.611  27.561  23.490  1.00  0.00    -0.193 N 
ATOM     24  C   UNL A   1      32.985  26.969  24.679  1.00  0.00     0.324 C 
ATOM     25  C   UNL A   1      33.462  27.552  22.318  1.00  0.00     0.301 C 
ATOM     26  O   UNL A   1      34.115  26.642  24.979  1.00  0.00    -0.245 OA
BRANCH  19  27
ATOM     27  C   UNL A   1      29.964  30.020  22.896  1.00  0.00     0.128 A 
ATOM     28  C   UNL A   1      30.166  31.544  24.975  1.00  0.00     0.049 C 
ATOM     29  C   UNL A   1      29.469  31.018  23.756  1.00  0.00    -0.004 A 
ATOM     30  C   UNL A   1      28.219  31.618  23.474  1.00  0.00     0.008 A 
ATOM     31  C   UNL A   1      27.521  31.337  22.304  1.00  0.00     0.001 A 
ATOM     32  C   UNL A   1      29.260  29.803  21.696  1.00  0.00     0.052 A 
ATOM     33  C   UNL A   1      28.059  30.445  21.395  1.00  0.00     0.004 A 
ENDBRANCH  19  27
ENDBRANCH  17  18
ENDBRANCH  14  17
ENDBRANCH   8  13
ENDBRANCH   4   7
ENDBRANCH   2   3
ENDBRANCH   1   2
BRANCH   1  34
ATOM     34  C   UNL A   1      39.096  21.475  26.116  1.00  0.00     0.023 C 
BRANCH  34  35
ATOM     35  C   UNL A   1      39.417  22.962  26.269  1.00  0.00     0.116 C 
BRANCH  35  36
ATOM     36  N   UNL A   1      40.853  23.257  26.186  1.00  0.00    -0.352 N 
ATOM     37  C   UNL A   1      41.515  24.418  26.548  1.00  0.00     0.251 C 
ATOM     38  H   UNL A   1      41.419  22.536  25.825  1.00  0.00     0.163 HD
ATOM     39  O   UNL A   1      42.738  24.500  26.581  1.00  0.00    -0.269 OA
BRANCH  37  40
ATOM     40  C   UNL A   1      40.693  25.557  26.996  1.00  0.00     0.039 A 
ATOM     41  C   UNL A   1      40.805  26.767  26.302  1.00  0.00     0.014 A 
ATOM     42  C   UNL A   1      40.087  25.491  28.246  1.00  0.00     0.014 A 
ATOM     43  C   UNL A   1      40.532  27.952  26.975  1.00  0.00     0.010 A 
ATOM     44  C   UNL A   1      39.917  26.666  28.946  1.00  0.00     0.010 A 
ATOM     45  C   UNL A   1      40.201  27.892  28.330  1.00  0.00    -0.014 A 
BRANCH  45  46
ATOM     46  C   UNL A   1      40.216  29.063  29.197  1.00  0.00     0.031 A 
ATOM     47  C   UNL A   1      39.134  30.053  29.096  1.00  0.00     0.074 A 
ATOM     48  C   UNL A   1      41.206  29.227  30.099  1.00  0.00     0.049 A 
ATOM     49  N   UNL A   1      39.258  31.309  29.358  1.00  0.00    -0.248 NA
ATOM     50  C   UNL A   1      37.801  29.680  28.639  1.00  0.00     0.031 C 
ATOM     51  C   UNL A   1      41.314  30.240  31.145  1.00  0.00     0.029 A 
ATOM     52  N   UNL A   1      42.472  28.648  30.043  1.00  0.00    -0.354 N 
ATOM     53  C   UNL A   1      37.990  31.842  29.399  1.00  0.00     0.074 A 
ATOM     54  C   UNL A   1      37.128  30.807  28.874  1.00  0.00     0.031 C 
ATOM     55  C   UNL A   1      42.615  30.426  31.426  1.00  0.00     0.029 A 
ATOM     56  C   UNL A   1      43.377  29.635  30.473  1.00  0.00     0.049 A 
ATOM     57  H   UNL A   1      42.689  27.731  29.759  1.00  0.00     0.167 HD
ATOM     58  C   UNL A   1      37.777  33.035  30.022  1.00  0.00     0.034 A 
ATOM     59  C   UNL A   1      44.325  30.117  29.618  1.00  0.00     0.034 A 
ATOM     60  C   UNL A   1      39.028  33.641  30.474  1.00  0.00     0.049 A 
ATOM     61  C   UNL A   1      44.215  31.608  29.391  1.00  0.00     0.074 A 
ATOM     62  C   UNL A   1      39.661  33.678  31.706  1.00  0.00     0.029 A 
ATOM     63  N   UNL A   1      39.976  34.047  29.535  1.00  0.00    -0.354 N 
ATOM     64  N   UNL A   1      43.135  32.308  29.615  1.00  0.00    -0.248 NA
ATOM     65  C   UNL A   1      45.314  32.421  28.878  1.00  0.00     0.031 C 
ATOM     66  C   UNL A   1      41.023  34.012  31.489  1.00  0.00     0.029 A 
ATOM     67  C   UNL A   1      41.212  34.214  30.133  1.00  0.00     0.049 A 
ATOM     68  H   UNL A   1      39.791  34.195  28.580  1.00  0.00     0.167 HD
ATOM     69  C   UNL A   1      43.360  33.617  29.268  1.00  0.00     0.074 A 
ATOM     70  C   UNL A   1      44.749  33.640  28.840  1.00  0.00     0.031 C 
ATOM     71  C   UNL A   1      42.386  34.574  29.348  1.00  0.00     0.034 A 
BRANCH  58  72
ATOM     72  C   UNL A   1      36.406  33.420  30.529  1.00  0.00     0.023 A 
ATOM     73  C   UNL A   1      35.547  34.179  29.710  1.00  0.00     0.031 A 
ATOM     74  C   UNL A   1      35.925  33.150  31.825  1.00  0.00     0.131 A 
ATOM     75  C   UNL A   1      34.357  34.735  30.215  1.00  0.00     0.055 A 
ATOM     76  C   UNL A   1      34.782  33.764  32.353  1.00  0.00     0.041 A 
ATOM     77  F   UNL A   1      36.527  32.250  32.617  1.00  0.00    -0.206 F 
ATOM     78  C   UNL A   1      33.998  34.579  31.551  1.00  0.00     0.022 A 
BRANCH  75  79
ATOM     79  S   UNL A   1      33.268  35.653  29.091  1.00  0.00     0.124 S 
ATOM     80  O   UNL A   1      32.565  34.581  28.393  1.00  0.00    -0.237 OA
ATOM     81  O   UNL A   1      32.473  36.451  30.017  1.00  0.00    -0.237 OA
ATOM     82  O   UNL A   1      34.202  36.418  28.265  1.00  0.00    -0.744 OA
ENDBRANCH  75  79
ENDBRANCH  58  72
BRANCH  59  83
ATOM     83  C   UNL A   1      44.775  29.115  28.602  1.00  0.00     0.023 A 
ATOM     84  C   UNL A   1      45.648  28.089  29.039  1.00  0.00     0.031 A 
ATOM     85  C   UNL A   1      44.138  28.936  27.370  1.00  0.00     0.131 A 
ATOM     86  C   UNL A   1      45.744  26.877  28.342  1.00  0.00     0.055 A 
ATOM     87  C   UNL A   1      44.281  27.744  26.643  1.00  0.00     0.041 A 
ATOM     88  F   UNL A   1      43.280  29.854  26.901  1.00  0.00    -0.206 F 
ATOM     89  C   UNL A   1      45.051  26.693  27.149  1.00  0.00     0.022 A 
BRANCH  86  90
ATOM     90  S   UNL A   1      46.585  25.470  29.123  1.00  0.00     0.124 S 
ATOM     91  O   UNL A   1      46.035  24.319  28.421  1.00  0.00    -0.237 OA
ATOM     92  O   UNL A   1      48.002  25.744  28.880  1.00  0.00    -0.237 OA
ATOM     93  O   UNL A   1      46.192  25.568  30.525  1.00  0.00    -0.744 OA
ENDBRANCH  86  90
ENDBRANCH  59  83
BRANCH  71  94
ATOM     94  C   UNL A   1      42.509  35.971  28.781  1.00  0.00     0.023 A 
ATOM     95  C   UNL A   1      43.069  37.039  29.501  1.00  0.00     0.031 A 
ATOM     96  C   UNL A   1      42.123  36.263  27.453  1.00  0.00     0.131 A 
ATOM     97  C   UNL A   1      43.109  38.336  28.965  1.00  0.00     0.055 A 
ATOM     98  C   UNL A   1      42.252  37.537  26.887  1.00  0.00     0.041 A 
ATOM     99  F   UNL A   1      41.606  35.324  26.646  1.00  0.00    -0.206 F 
ATOM    100  C   UNL A   1      42.724  38.592  27.652  1.00  0.00     0.022 A 
BRANCH  97 101
ATOM    101  S   UNL A   1      43.588  39.697  30.062  1.00  0.00     0.124 S 
ATOM    102  O   UNL A   1      43.832  38.994  31.318  1.00  0.00    -0.237 OA
ATOM    103  O   UNL A   1      44.772  40.234  29.398  1.00  0.00    -0.237 OA
ATOM    104  O   UNL A   1      42.419  40.572  30.058  1.00  0.00    -0.744 OA
ENDBRANCH  97 101
ENDBRANCH  71  94
ENDBRANCH  45  46
ENDBRANCH  37  40
ENDBRANCH  35  36
ENDBRANCH  34  35
ENDBRANCH   1  34
TORSDOF 18
ENDMDL
MODEL 3
REMARK VINA RESULT:     -13.0      1.227      2.196
REMARK SMILES Cc1ccccc1/[NH+]=C1\S[C@@H](CC(=O)Nc2ccc(C(=O)NCCCCNC(=O)c3ccc(-c4c5nc(c(-c6cc(S(=O)(=O)[O-])ccc6F)c6ccc([nH]6)c(-c6cc(S(=O)(=O)[O-])ccc6F)c6nc(c(-c7cc(S(=O)(=O)[O-])ccc7F)c7ccc4[nH]7)C=C6)C=C5)cc3)cc2)C(=O)N1C
REMARK SMILES IDX 24 1 23 2 22 3 20 4 21 5 19 7 16 8 17 9 94 10 18 11 93 12
REMARK SMILES IDX 15 13 13 14 14 15 12 17 11 18 8 19 9 20 10 22 97 23 95 24
REMARK SMILES IDX 98 25 96 26 7 27 1 28 2 29 3 30 4 31 6 32 5 33 25 34 26 35
REMARK SMILES IDX 27 36 28 37 29 39 30 40 31 41 92 42 32 43 91 44 33 45 34 46
REMARK SMILES IDX 35 47 85 48 36 49 90 50 84 51 86 52 37 53 89 54 83 55 82 56
REMARK SMILES IDX 38 58 70 59 50 60 69 61 51 62 54 63 68 64 87 65 52 66 53 67
REMARK SMILES IDX 67 69 88 70 55 71 39 72 40 73 48 74 41 75 47 76 49 77 46 78
REMARK SMILES IDX 42 79 43 80 44 81 45 82 71 83 72 84 80 85 73 86 79 87 81 88
REMARK SMILES IDX 78 89 74 90 75 91 76 92 77 93 56 94 57 95 65 96 58 97 64 98
REMARK SMILES IDX 66 99 63 100 59 101 60 102 61 103 62 104
REMARK H PARENT 22 6 15 16 8 21 27 38 86 57 54 68
REMARK Flexibility Score: inf
ROOT
ATOM      1  C   UNL A   1      38.137  21.126  25.329  1.00  0.00     0.023 C 
ENDROOT
BRANCH   1   2
ATOM      2  C   UNL A   1      36.858  20.416  24.861  1.00  0.00     0.116 C 
BRANCH   2   3
ATOM      3  N   UNL A   1      35.740  20.650  25.774  1.00  0.00    -0.352 N 
ATOM      4  C   UNL A   1      34.507  21.240  25.625  1.00  0.00     0.251 C 
ATOM      5  O   UNL A   1      33.738  21.203  26.590  1.00  0.00    -0.269 OA
ATOM      6  H   UNL A   1      35.904  20.315  26.684  1.00  0.00     0.163 HD
BRANCH   4   7
ATOM      7  C   UNL A   1      34.032  21.913  24.378  1.00  0.00     0.039 A 
ATOM      8  C   UNL A   1      33.222  23.323  22.061  1.00  0.00     0.041 A 
ATOM      9  C   UNL A   1      32.527  22.209  22.517  1.00  0.00     0.027 A 
ATOM     10  C   UNL A   1      34.412  23.663  22.690  1.00  0.00     0.027 A 
ATOM     11  C   UNL A   1      32.918  21.510  23.657  1.00  0.00     0.016 A 
ATOM     12  C   UNL A   1      34.798  22.976  23.854  1.00  0.00     0.016 A 
BRANCH   8  13
ATOM     13  N   UNL A   1      32.761  24.071  20.966  1.00  0.00    -0.326 N 
ATOM     14  C   UNL A   1      32.547  25.430  20.912  1.00  0.00     0.226 C 
ATOM     15  O   UNL A   1      31.944  25.926  19.959  1.00  0.00    -0.275 OA
ATOM     16  H   UNL A   1      32.569  23.566  20.143  1.00  0.00     0.169 HD
BRANCH  14  17
ATOM     17  C   UNL A   1      33.265  26.308  21.921  1.00  0.00     0.128 C 
BRANCH  17  18
ATOM     18  C   UNL A   1      32.391  26.952  22.973  1.00  0.00     0.183 C 
ATOM     19  N   UNL A   1      31.588  28.431  26.184  1.00  0.00    -0.234 N 
ATOM     20  C   UNL A   1      32.077  27.569  25.367  1.00  0.00     0.319 C 
ATOM     21  H   UNL A   1      30.725  28.179  26.585  1.00  0.00     0.313 HD
ATOM     22  S   UNL A   1      33.444  27.646  24.306  1.00  0.00    -0.022 SA
ATOM     23  N   UNL A   1      31.417  26.411  25.077  1.00  0.00    -0.193 N 
ATOM     24  C   UNL A   1      31.415  26.067  23.740  1.00  0.00     0.324 C 
ATOM     25  C   UNL A   1      30.799  25.583  26.092  1.00  0.00     0.301 C 
ATOM     26  O   UNL A   1      30.692  25.237  23.227  1.00  0.00    -0.245 OA
BRANCH  19  27
ATOM     27  C   UNL A   1      32.090  29.675  26.595  1.00  0.00     0.128 A 
ATOM     28  C   UNL A   1      34.417  29.027  27.516  1.00  0.00     0.049 C 
ATOM     29  C   UNL A   1      33.316  29.996  27.205  1.00  0.00    -0.004 A 
ATOM     30  C   UNL A   1      33.586  31.341  27.552  1.00  0.00     0.008 A 
ATOM     31  C   UNL A   1      32.723  32.374  27.199  1.00  0.00     0.001 A 
ATOM     32  C   UNL A   1      31.269  30.749  26.203  1.00  0.00     0.052 A 
ATOM     33  C   UNL A   1      31.570  32.080  26.494  1.00  0.00     0.004 A 
ENDBRANCH  19  27
ENDBRANCH  17  18
ENDBRANCH  14  17
ENDBRANCH   8  13
ENDBRANCH   4   7
ENDBRANCH   2   3
ENDBRANCH   1   2
BRANCH   1  34
ATOM     34  C   UNL A   1      38.101  22.659  25.348  1.00  0.00     0.023 C 
BRANCH  34  35
ATOM     35  C   UNL A   1      38.720  23.278  26.601  1.00  0.00     0.116 C 
BRANCH  35  36
ATOM     36  N   UNL A   1      40.177  23.437  26.510  1.00  0.00    -0.352 N 
ATOM     37  C   UNL A   1      40.943  24.544  26.839  1.00  0.00     0.251 C 
ATOM     38  H   UNL A   1      40.673  22.658  26.169  1.00  0.00     0.163 HD
ATOM     39  O   UNL A   1      42.169  24.514  26.869  1.00  0.00    -0.269 OA
BRANCH  37  40
ATOM     40  C   UNL A   1      40.230  25.765  27.253  1.00  0.00     0.039 A 
ATOM     41  C   UNL A   1      40.495  26.953  26.562  1.00  0.00     0.014 A 
ATOM     42  C   UNL A   1      39.574  25.770  28.479  1.00  0.00     0.014 A 
ATOM     43  C   UNL A   1      40.323  28.163  27.222  1.00  0.00     0.010 A 
ATOM     44  C   UNL A   1      39.503  26.961  29.170  1.00  0.00     0.010 A 
ATOM     45  C   UNL A   1      39.937  28.146  28.563  1.00  0.00    -0.014 A 
BRANCH  45  46
ATOM     46  C   UNL A   1      40.043  29.314  29.429  1.00  0.00     0.031 A 
ATOM     47  C   UNL A   1      38.983  30.332  29.405  1.00  0.00     0.074 A 
ATOM     48  C   UNL A   1      41.098  29.449  30.260  1.00  0.00     0.049 A 
ATOM     49  N   UNL A   1      39.158  31.583  29.659  1.00  0.00    -0.248 NA
ATOM     50  C   UNL A   1      37.612  29.995  29.042  1.00  0.00     0.031 C 
ATOM     51  C   UNL A   1      41.305  30.457  31.296  1.00  0.00     0.029 A 
ATOM     52  N   UNL A   1      42.342  28.839  30.115  1.00  0.00    -0.354 N 
ATOM     53  C   UNL A   1      37.910  32.149  29.789  1.00  0.00     0.074 A 
ATOM     54  C   UNL A   1      36.987  31.138  29.325  1.00  0.00     0.031 C 
ATOM     55  C   UNL A   1      42.627  30.608  31.486  1.00  0.00     0.029 A 
ATOM     56  C   UNL A   1      43.300  29.801  30.481  1.00  0.00     0.049 A 
ATOM     57  H   UNL A   1      42.515  27.917  29.815  1.00  0.00     0.167 HD
ATOM     58  C   UNL A   1      37.772  33.345  30.427  1.00  0.00     0.034 A 
ATOM     59  C   UNL A   1      44.198  30.260  29.563  1.00  0.00     0.034 A 
ATOM     60  C   UNL A   1      39.067  33.917  30.791  1.00  0.00     0.049 A 
ATOM     61  C   UNL A   1      44.111  31.755  29.345  1.00  0.00     0.074 A 
ATOM     62  C   UNL A   1      39.785  33.935  31.976  1.00  0.00     0.029 A 
ATOM     63  N   UNL A   1      39.958  34.301  29.789  1.00  0.00    -0.354 N 
ATOM     64  N   UNL A   1      43.068  32.482  29.645  1.00  0.00    -0.248 NA
ATOM     65  C   UNL A   1      45.192  32.540  28.758  1.00  0.00     0.031 C 
ATOM     66  C   UNL A   1      41.137  34.233  31.665  1.00  0.00     0.029 A 
ATOM     67  C   UNL A   1      41.236  34.435  30.299  1.00  0.00     0.049 A 
ATOM     68  H   UNL A   1      39.710  34.457  28.849  1.00  0.00     0.167 HD
ATOM     69  C   UNL A   1      43.302  33.785  29.285  1.00  0.00     0.074 A 
ATOM     70  C   UNL A   1      44.658  33.773  28.761  1.00  0.00     0.031 C 
ATOM     71  C   UNL A   1      42.361  34.767  29.434  1.00  0.00     0.034 A 
BRANCH  58  72
ATOM     72  C   UNL A   1      36.451  33.764  31.029  1.00  0.00     0.023 A 
ATOM     73  C   UNL A   1      35.509  34.450  30.237  1.00  0.00     0.031 A 
ATOM     74  C   UNL A   1      36.097  33.599  32.382  1.00  0.00     0.131 A 
ATOM     75  C   UNL A   1      34.365  35.040  30.806  1.00  0.00     0.055 A 
ATOM     76  C   UNL A   1      35.002  34.249  32.966  1.00  0.00     0.041 A 
ATOM     77  F   UNL A   1      36.782  32.769  33.184  1.00  0.00    -0.206 F 
ATOM     78  C   UNL A   1      34.135  34.991  32.178  1.00  0.00     0.022 A 
BRANCH  75  79
ATOM     79  S   UNL A   1      33.163  35.857  29.720  1.00  0.00     0.124 S 
ATOM     80  O   UNL A   1      32.362  34.736  29.240  1.00  0.00    -0.237 OA
ATOM     81  O   UNL A   1      32.501  36.780  30.635  1.00  0.00    -0.237 OA
ATOM     82  O   UNL A   1      34.003  36.495  28.706  1.00  0.00    -0.744 OA
ENDBRANCH  75  79
ENDBRANCH  58  72
BRANCH  59  83
ATOM     83  C   UNL A   1      44.549  29.250  28.517  1.00  0.00     0.023 A 
ATOM     84  C   UNL A   1      45.362  28.159  28.909  1.00  0.00     0.031 A 
ATOM     85  C   UNL A   1      43.867  29.138  27.301  1.00  0.00     0.131 A 
ATOM     86  C   UNL A   1      45.356  26.957  28.189  1.00  0.00     0.055 A 
ATOM     87  C   UNL A   1      43.908  27.954  26.550  1.00  0.00     0.041 A 
ATOM     88  F   UNL A   1      43.061  30.121  26.873  1.00  0.00    -0.206 F 
ATOM     89  C   UNL A   1      44.618  26.843  27.014  1.00  0.00     0.022 A 
BRANCH  86  90
ATOM     90  S   UNL A   1      46.121  25.481  28.920  1.00  0.00     0.124 S 
ATOM     91  O   UNL A   1      45.115  24.448  28.720  1.00  0.00    -0.237 OA
ATOM     92  O   UNL A   1      47.356  25.323  28.151  1.00  0.00    -0.237 OA
ATOM     93  O   UNL A   1      46.333  25.857  30.314  1.00  0.00    -0.744 OA
ENDBRANCH  86  90
ENDBRANCH  59  83
BRANCH  71  94
ATOM     94  C   UNL A   1      42.481  36.162  28.862  1.00  0.00     0.023 A 
ATOM     95  C   UNL A   1      43.217  37.181  29.486  1.00  0.00     0.031 A 
ATOM     96  C   UNL A   1      41.903  36.498  27.616  1.00  0.00     0.131 A 
ATOM     97  C   UNL A   1      43.254  38.481  28.956  1.00  0.00     0.055 A 
ATOM     98  C   UNL A   1      42.020  37.770  27.042  1.00  0.00     0.041 A 
ATOM     99  F   UNL A   1      41.203  35.605  26.899  1.00  0.00    -0.206 F 
ATOM    100  C   UNL A   1      42.678  38.780  27.725  1.00  0.00     0.022 A 
BRANCH  97 101
ATOM    101  S   UNL A   1      43.992  39.792  29.967  1.00  0.00     0.124 S 
ATOM    102  O   UNL A   1      43.668  40.985  29.189  1.00  0.00    -0.237 OA
ATOM    103  O   UNL A   1      43.281  39.651  31.233  1.00  0.00    -0.237 OA
ATOM    104  O   UNL A   1      45.410  39.443  30.005  1.00  0.00    -0.744 OA
ENDBRANCH  97 101
ENDBRANCH  71  94
ENDBRANCH  45  46
ENDBRANCH  37  40
ENDBRANCH  35  36
ENDBRANCH  34  35
ENDBRANCH   1  34
TORSDOF 18
ENDMDL
