MODEL 1
REMARK VINA RESULT:     -12.7      0.000      0.000
REMARK SMILES Cc1cc(C(=O)NCCCCNC(=O)c2ccc(-c3c4nc(c(-c5cc(S(=O)(=O)[O-])ccc5F)c5ccc([nH]5)c(-c5cc(S(=O)(=O)[O-])ccc5F)c5nc(c(-c6cc(S(=O)(=O)[O-])ccc6F)c6ccc3[nH]6)C=C5)C=C4)cc2)cc(S(=O)(=O)NNC(=O)c2c[nH]c3ccccc23)c1C
REMARK SMILES IDX 9 1 8 2 7 3 5 4 6 5 4 7 1 8 2 9 3 10 96 11 79 12 97 13 78 14
REMARK SMILES IDX 80 15 81 16 82 17 83 18 84 20 85 21 86 23 87 24 88 25 95 26
REMARK SMILES IDX 89 27 90 28 94 29 91 31 93 32 92 33 10 34 11 35 12 36 13 37
REMARK SMILES IDX 14 39 15 40 16 41 77 42 17 43 76 44 18 45 19 46 20 47 70 48
REMARK SMILES IDX 21 49 75 50 69 51 71 52 22 53 74 54 68 55 67 56 23 58 55 59
REMARK SMILES IDX 35 60 54 61 36 62 39 63 53 64 72 65 37 66 38 67 52 69 73 70
REMARK SMILES IDX 40 71 24 72 25 73 33 74 26 75 32 76 34 77 31 78 27 79 28 80
REMARK SMILES IDX 29 81 30 82 56 83 57 84 65 85 58 86 64 87 66 88 63 89 59 90
REMARK SMILES IDX 60 91 61 92 62 93 41 94 42 95 50 96 43 97 49 98 51 99 48 100
REMARK SMILES IDX 44 101 45 102 46 103 47 104
REMARK H PARENT 7 6 83 19 84 22 89 30 12 38 71 57 39 68
REMARK Flexibility Score: inf
ROOT
ATOM      1  C   UNL A   1      36.754  23.119  23.550  1.00  0.00     0.023 C 
ENDROOT
BRANCH   1   2
ATOM      2  C   UNL A   1      35.225  23.215  23.579  1.00  0.00     0.116 C 
BRANCH   2   3
ATOM      3  N   UNL A   1      34.732  24.080  22.520  1.00  0.00    -0.352 N 
ATOM      4  C   UNL A   1      33.917  25.184  22.496  1.00  0.00     0.251 C 
ATOM      5  O   UNL A   1      33.708  25.708  21.400  1.00  0.00    -0.269 OA
ATOM      6  H   UNL A   1      35.050  23.817  21.626  1.00  0.00     0.163 HD
BRANCH   4   7
ATOM      7  C   UNL A   1      33.285  25.810  23.698  1.00  0.00     0.041 A 
ATOM      8  C   UNL A   1      33.394  28.983  25.791  1.00  0.00     0.044 C 
ATOM      9  C   UNL A   1      32.983  27.603  25.341  1.00  0.00    -0.046 A 
ATOM     10  C   UNL A   1      33.658  27.038  24.244  1.00  0.00     0.017 A 
ATOM     11  C   UNL A   1      31.967  26.871  25.985  1.00  0.00    -0.028 A 
ATOM     12  C   UNL A   1      31.673  25.566  25.511  1.00  0.00     0.088 A 
ATOM     13  C   UNL A   1      31.218  27.456  27.159  1.00  0.00     0.046 C 
ATOM     14  C   UNL A   1      32.289  25.068  24.358  1.00  0.00     0.036 A 
BRANCH  12  15
ATOM     15  S   UNL A   1      30.641  24.507  26.510  1.00  0.00     0.257 S 
ATOM     16  O   UNL A   1      31.440  24.161  27.681  1.00  0.00    -0.205 OA
ATOM     17  O   UNL A   1      29.364  25.139  26.642  1.00  0.00    -0.205 OA
BRANCH  15  18
ATOM     18  N   UNL A   1      30.333  23.068  25.651  1.00  0.00    -0.123 NA
ATOM     19  H   UNL A   1      30.587  23.249  24.680  1.00  0.00     0.167 HD
BRANCH  18  20
ATOM     20  N   UNL A   1      30.993  21.810  26.030  1.00  0.00    -0.273 N 
ATOM     21  C   UNL A   1      32.331  21.604  25.719  1.00  0.00     0.268 C 
ATOM     22  H   UNL A   1      30.487  21.112  26.506  1.00  0.00     0.186 HD
ATOM     23  O   UNL A   1      33.201  21.608  26.585  1.00  0.00    -0.268 OA
BRANCH  21  24
ATOM     24  C   UNL A   1      32.548  21.062  24.377  1.00  0.00     0.066 A 
ATOM     25  C   UNL A   1      32.060  21.594  23.196  1.00  0.00     0.097 A 
ATOM     26  C   UNL A   1      33.101  19.790  24.011  1.00  0.00     0.012 A 
ATOM     27  N   UNL A   1      31.793  20.534  22.374  1.00  0.00    -0.360 N 
ATOM     28  C   UNL A   1      32.426  19.413  22.847  1.00  0.00     0.046 A 
ATOM     29  C   UNL A   1      33.975  18.855  24.603  1.00  0.00     0.011 A 
ATOM     30  H   UNL A   1      31.231  20.569  21.566  1.00  0.00     0.166 HD
ATOM     31  C   UNL A   1      32.428  18.106  22.356  1.00  0.00     0.027 A 
ATOM     32  C   UNL A   1      34.097  17.579  24.036  1.00  0.00     0.001 A 
ATOM     33  C   UNL A   1      33.290  17.194  22.968  1.00  0.00     0.002 A 
ENDBRANCH  21  24
ENDBRANCH  18  20
ENDBRANCH  15  18
ENDBRANCH  12  15
ENDBRANCH   4   7
ENDBRANCH   2   3
ENDBRANCH   1   2
BRANCH   1  34
ATOM     34  C   UNL A   1      37.315  21.827  24.161  1.00  0.00     0.023 C 
BRANCH  34  35
ATOM     35  C   UNL A   1      37.827  21.957  25.595  1.00  0.00     0.116 C 
BRANCH  35  36
ATOM     36  N   UNL A   1      38.969  21.103  25.879  1.00  0.00    -0.352 N 
ATOM     37  C   UNL A   1      40.178  21.448  26.436  1.00  0.00     0.251 C 
ATOM     38  H   UNL A   1      38.862  20.154  25.641  1.00  0.00     0.163 HD
ATOM     39  O   UNL A   1      41.077  20.615  26.507  1.00  0.00    -0.269 OA
BRANCH  37  40
ATOM     40  C   UNL A   1      40.400  22.836  26.900  1.00  0.00     0.039 A 
ATOM     41  C   UNL A   1      41.085  23.044  28.101  1.00  0.00     0.014 A 
ATOM     42  C   UNL A   1      39.965  23.925  26.142  1.00  0.00     0.014 A 
ATOM     43  C   UNL A   1      41.400  24.345  28.501  1.00  0.00     0.010 A 
ATOM     44  C   UNL A   1      40.338  25.216  26.508  1.00  0.00     0.010 A 
ATOM     45  C   UNL A   1      41.065  25.440  27.688  1.00  0.00    -0.014 A 
BRANCH  45  46
ATOM     46  C   UNL A   1      41.473  26.823  28.047  1.00  0.00     0.031 A 
ATOM     47  C   UNL A   1      42.921  27.224  27.987  1.00  0.00     0.074 A 
ATOM     48  C   UNL A   1      40.549  27.694  28.499  1.00  0.00     0.049 A 
ATOM     49  N   UNL A   1      43.485  28.350  28.339  1.00  0.00    -0.248 NA
ATOM     50  C   UNL A   1      43.861  26.206  27.497  1.00  0.00     0.031 C 
ATOM     51  C   UNL A   1      39.120  27.407  28.649  1.00  0.00     0.029 A 
ATOM     52  N   UNL A   1      40.673  28.991  28.930  1.00  0.00    -0.354 N 
ATOM     53  C   UNL A   1      44.848  28.173  28.127  1.00  0.00     0.074 A 
ATOM     54  C   UNL A   1      45.027  26.808  27.678  1.00  0.00     0.031 C 
ATOM     55  C   UNL A   1      38.499  28.501  29.119  1.00  0.00     0.029 A 
ATOM     56  C   UNL A   1      39.487  29.552  29.344  1.00  0.00     0.049 A 
ATOM     57  H   UNL A   1      41.530  29.475  28.941  1.00  0.00     0.167 HD
ATOM     58  C   UNL A   1      45.855  29.073  28.269  1.00  0.00     0.034 A 
ATOM     59  C   UNL A   1      39.225  30.770  29.858  1.00  0.00     0.034 A 
ATOM     60  C   UNL A   1      45.656  30.434  28.710  1.00  0.00     0.049 A 
ATOM     61  C   UNL A   1      40.358  31.750  30.024  1.00  0.00     0.074 A 
ATOM     62  C   UNL A   1      46.592  31.446  28.835  1.00  0.00     0.029 A 
ATOM     63  N   UNL A   1      44.438  30.970  29.111  1.00  0.00    -0.354 N 
ATOM     64  N   UNL A   1      41.635  31.587  29.765  1.00  0.00    -0.248 NA
ATOM     65  C   UNL A   1      40.011  33.080  30.539  1.00  0.00     0.031 C 
ATOM     66  C   UNL A   1      45.955  32.571  29.373  1.00  0.00     0.029 A 
ATOM     67  C   UNL A   1      44.605  32.288  29.512  1.00  0.00     0.049 A 
ATOM     68  H   UNL A   1      43.582  30.485  29.111  1.00  0.00     0.167 HD
ATOM     69  C   UNL A   1      42.239  32.806  30.061  1.00  0.00     0.074 A 
ATOM     70  C   UNL A   1      41.185  33.695  30.504  1.00  0.00     0.031 C 
ATOM     71  C   UNL A   1      43.547  33.159  29.968  1.00  0.00     0.034 A 
BRANCH  58  72
ATOM     72  C   UNL A   1      47.256  28.594  27.967  1.00  0.00     0.023 A 
ATOM     73  C   UNL A   1      47.705  28.413  26.646  1.00  0.00     0.031 A 
ATOM     74  C   UNL A   1      48.142  28.268  29.009  1.00  0.00     0.131 A 
ATOM     75  C   UNL A   1      48.958  27.831  26.404  1.00  0.00     0.055 A 
ATOM     76  C   UNL A   1      49.425  27.774  28.759  1.00  0.00     0.041 A 
ATOM     77  F   UNL A   1      47.766  28.401  30.292  1.00  0.00    -0.206 F 
ATOM     78  C   UNL A   1      49.832  27.534  27.452  1.00  0.00     0.022 A 
BRANCH  75  79
ATOM     79  S   UNL A   1      49.355  27.312  24.712  1.00  0.00     0.124 S 
ATOM     80  O   UNL A   1      48.372  28.065  23.935  1.00  0.00    -0.237 OA
ATOM     81  O   UNL A   1      50.743  27.735  24.568  1.00  0.00    -0.237 OA
ATOM     82  O   UNL A   1      49.141  25.867  24.737  1.00  0.00    -0.744 OA
ENDBRANCH  75  79
ENDBRANCH  58  72
BRANCH  59  83
ATOM     83  C   UNL A   1      37.837  31.132  30.260  1.00  0.00     0.023 A 
ATOM     84  C   UNL A   1      36.941  31.700  29.339  1.00  0.00     0.031 A 
ATOM     85  C   UNL A   1      37.391  30.935  31.579  1.00  0.00     0.131 A 
ATOM     86  C   UNL A   1      35.659  32.087  29.759  1.00  0.00     0.055 A 
ATOM     87  C   UNL A   1      36.100  31.278  31.980  1.00  0.00     0.041 A 
ATOM     88  F   UNL A   1      38.206  30.387  32.496  1.00  0.00    -0.206 F 
ATOM     89  C   UNL A   1      35.228  31.868  31.070  1.00  0.00     0.022 A 
BRANCH  86  90
ATOM     90  S   UNL A   1      34.579  32.940  28.578  1.00  0.00     0.124 S 
ATOM     91  O   UNL A   1      33.702  31.858  28.143  1.00  0.00    -0.237 OA
ATOM     92  O   UNL A   1      33.966  33.966  29.415  1.00  0.00    -0.237 OA
ATOM     93  O   UNL A   1      35.507  33.438  27.566  1.00  0.00    -0.744 OA
ENDBRANCH  86  90
ENDBRANCH  59  83
BRANCH  71  94
ATOM     94  C   UNL A   1      43.896  34.586  30.315  1.00  0.00     0.023 A 
ATOM     95  C   UNL A   1      43.873  35.611  29.353  1.00  0.00     0.031 A 
ATOM     96  C   UNL A   1      44.268  34.922  31.629  1.00  0.00     0.131 A 
ATOM     97  C   UNL A   1      44.267  36.911  29.706  1.00  0.00     0.055 A 
ATOM     98  C   UNL A   1      44.602  36.228  31.989  1.00  0.00     0.041 A 
ATOM     99  F   UNL A   1      44.310  33.983  32.588  1.00  0.00    -0.206 F 
ATOM    100  C   UNL A   1      44.615  37.229  31.022  1.00  0.00     0.022 A 
BRANCH  97 101
ATOM    101  S   UNL A   1      44.404  38.166  28.403  1.00  0.00     0.124 S 
ATOM    102  O   UNL A   1      45.850  38.256  28.221  1.00  0.00    -0.237 OA
ATOM    103  O   UNL A   1      43.660  37.558  27.306  1.00  0.00    -0.237 OA
ATOM    104  O   UNL A   1      43.779  39.346  28.997  1.00  0.00    -0.744 OA
ENDBRANCH  97 101
ENDBRANCH  71  94
ENDBRANCH  45  46
ENDBRANCH  37  40
ENDBRANCH  35  36
ENDBRANCH  34  35
ENDBRANCH   1  34
TORSDOF 18
ENDMDL
MODEL 2
REMARK VINA RESULT:     -12.7      5.519      8.521
REMARK SMILES Cc1cc(C(=O)NCCCCNC(=O)c2ccc(-c3c4nc(c(-c5cc(S(=O)(=O)[O-])ccc5F)c5ccc([nH]5)c(-c5cc(S(=O)(=O)[O-])ccc5F)c5nc(c(-c6cc(S(=O)(=O)[O-])ccc6F)c6ccc3[nH]6)C=C5)C=C4)cc2)cc(S(=O)(=O)NNC(=O)c2c[nH]c3ccccc23)c1C
REMARK SMILES IDX 9 1 8 2 7 3 5 4 6 5 4 7 1 8 2 9 3 10 96 11 79 12 97 13 78 14
REMARK SMILES IDX 80 15 81 16 82 17 83 18 84 20 85 21 86 23 87 24 88 25 95 26
REMARK SMILES IDX 89 27 90 28 94 29 91 31 93 32 92 33 10 34 11 35 12 36 13 37
REMARK SMILES IDX 14 39 15 40 16 41 77 42 17 43 76 44 18 45 19 46 20 47 70 48
REMARK SMILES IDX 21 49 75 50 69 51 71 52 22 53 74 54 68 55 67 56 23 58 55 59
REMARK SMILES IDX 35 60 54 61 36 62 39 63 53 64 72 65 37 66 38 67 52 69 73 70
REMARK SMILES IDX 40 71 24 72 25 73 33 74 26 75 32 76 34 77 31 78 27 79 28 80
REMARK SMILES IDX 29 81 30 82 56 83 57 84 65 85 58 86 64 87 66 88 63 89 59 90
REMARK SMILES IDX 60 91 61 92 62 93 41 94 42 95 50 96 43 97 49 98 51 99 48 100
REMARK SMILES IDX 44 101 45 102 46 103 47 104
REMARK H PARENT 7 6 83 19 84 22 89 30 12 38 71 57 39 68
REMARK Flexibility Score: inf
ROOT
ATOM      1  C   UNL A   1      34.890  30.587  27.853  1.00  0.00     0.023 C 
ENDROOT
BRANCH   1   2
ATOM      2  C   UNL A   1      34.365  29.308  27.193  1.00  0.00     0.116 C 
BRANCH   2   3
ATOM      3  N   UNL A   1      33.110  28.883  27.790  1.00  0.00    -0.352 N 
ATOM      4  C   UNL A   1      32.016  28.200  27.321  1.00  0.00     0.251 C 
ATOM      5  O   UNL A   1      31.103  27.981  28.119  1.00  0.00    -0.269 OA
ATOM      6  H   UNL A   1      33.024  29.143  28.737  1.00  0.00     0.163 HD
BRANCH   4   7
ATOM      7  C   UNL A   1      31.861  27.682  25.927  1.00  0.00     0.041 A 
ATOM      8  C   UNL A   1      30.927  28.830  22.425  1.00  0.00     0.044 C 
ATOM      9  C   UNL A   1      31.337  27.906  23.544  1.00  0.00    -0.046 A 
ATOM     10  C   UNL A   1      31.403  28.434  24.846  1.00  0.00     0.017 A 
ATOM     11  C   UNL A   1      31.641  26.548  23.328  1.00  0.00    -0.028 A 
ATOM     12  C   UNL A   1      31.985  25.748  24.448  1.00  0.00     0.088 A 
ATOM     13  C   UNL A   1      31.590  25.956  21.939  1.00  0.00     0.046 C 
ATOM     14  C   UNL A   1      32.139  26.320  25.716  1.00  0.00     0.036 A 
BRANCH  12  15
ATOM     15  S   UNL A   1      32.041  23.976  24.247  1.00  0.00     0.257 S 
ATOM     16  O   UNL A   1      30.763  23.601  23.653  1.00  0.00    -0.205 OA
ATOM     17  O   UNL A   1      33.281  23.647  23.611  1.00  0.00    -0.205 OA
BRANCH  15  18
ATOM     18  N   UNL A   1      32.129  23.248  25.785  1.00  0.00    -0.123 NA
ATOM     19  H   UNL A   1      31.244  23.446  26.251  1.00  0.00     0.167 HD
BRANCH  18  20
ATOM     20  N   UNL A   1      32.363  21.803  25.922  1.00  0.00    -0.273 N 
ATOM     21  C   UNL A   1      33.490  21.339  26.588  1.00  0.00     0.268 C 
ATOM     22  H   UNL A   1      31.719  21.162  25.541  1.00  0.00     0.186 HD
ATOM     23  O   UNL A   1      33.412  20.810  27.693  1.00  0.00    -0.268 OA
BRANCH  21  24
ATOM     24  C   UNL A   1      34.676  21.232  25.737  1.00  0.00     0.066 A 
ATOM     25  C   UNL A   1      35.016  20.146  24.950  1.00  0.00     0.097 A 
ATOM     26  C   UNL A   1      35.822  22.094  25.697  1.00  0.00     0.012 A 
ATOM     27  N   UNL A   1      36.383  20.073  24.959  1.00  0.00    -0.360 N 
ATOM     28  C   UNL A   1      36.904  21.260  25.407  1.00  0.00     0.046 A 
ATOM     29  C   UNL A   1      36.090  23.441  26.017  1.00  0.00     0.011 A 
ATOM     30  H   UNL A   1      36.911  19.289  24.686  1.00  0.00     0.166 HD
ATOM     31  C   UNL A   1      38.233  21.641  25.605  1.00  0.00     0.027 A 
ATOM     32  C   UNL A   1      37.421  23.878  26.079  1.00  0.00     0.001 A 
ATOM     33  C   UNL A   1      38.473  22.976  25.935  1.00  0.00     0.002 A 
ENDBRANCH  21  24
ENDBRANCH  18  20
ENDBRANCH  15  18
ENDBRANCH  12  15
ENDBRANCH   4   7
ENDBRANCH   2   3
ENDBRANCH   1   2
BRANCH   1  34
ATOM     34  C   UNL A   1      34.320  31.882  27.258  1.00  0.00     0.023 C 
BRANCH  34  35
ATOM     35  C   UNL A   1      32.901  32.231  27.705  1.00  0.00     0.116 C 
BRANCH  35  36
ATOM     36  N   UNL A   1      32.675  33.661  27.844  1.00  0.00    -0.352 N 
ATOM     37  C   UNL A   1      33.338  34.557  28.651  1.00  0.00     0.251 C 
ATOM     38  H   UNL A   1      31.955  34.036  27.288  1.00  0.00     0.163 HD
ATOM     39  O   UNL A   1      32.944  35.717  28.724  1.00  0.00    -0.269 OA
BRANCH  37  40
ATOM     40  C   UNL A   1      34.489  34.100  29.461  1.00  0.00     0.039 A 
ATOM     41  C   UNL A   1      34.248  33.306  30.586  1.00  0.00     0.014 A 
ATOM     42  C   UNL A   1      35.798  34.425  29.098  1.00  0.00     0.014 A 
ATOM     43  C   UNL A   1      35.325  32.775  31.300  1.00  0.00     0.010 A 
ATOM     44  C   UNL A   1      36.868  33.840  29.771  1.00  0.00     0.010 A 
ATOM     45  C   UNL A   1      36.643  33.004  30.875  1.00  0.00    -0.014 A 
BRANCH  45  46
ATOM     46  C   UNL A   1      37.798  32.372  31.563  1.00  0.00     0.031 A 
ATOM     47  C   UNL A   1      38.547  31.246  30.905  1.00  0.00     0.074 A 
ATOM     48  C   UNL A   1      38.124  32.760  32.812  1.00  0.00     0.049 A 
ATOM     49  N   UNL A   1      39.523  30.512  31.375  1.00  0.00    -0.248 NA
ATOM     50  C   UNL A   1      38.114  30.877  29.550  1.00  0.00     0.031 C 
ATOM     51  C   UNL A   1      37.441  33.808  33.576  1.00  0.00     0.029 A 
ATOM     52  N   UNL A   1      39.101  32.313  33.666  1.00  0.00    -0.354 N 
ATOM     53  C   UNL A   1      39.813  29.585  30.380  1.00  0.00     0.074 A 
ATOM     54  C   UNL A   1      38.863  29.811  29.310  1.00  0.00     0.031 C 
ATOM     55  C   UNL A   1      38.031  33.934  34.775  1.00  0.00     0.029 A 
ATOM     56  C   UNL A   1      39.105  32.952  34.884  1.00  0.00     0.049 A 
ATOM     57  H   UNL A   1      39.738  31.602  33.429  1.00  0.00     0.167 HD
ATOM     58  C   UNL A   1      40.795  28.649  30.350  1.00  0.00     0.034 A 
ATOM     59  C   UNL A   1      39.878  32.760  35.972  1.00  0.00     0.034 A 
ATOM     60  C   UNL A   1      41.739  28.443  31.423  1.00  0.00     0.049 A 
ATOM     61  C   UNL A   1      40.953  31.705  35.926  1.00  0.00     0.074 A 
ATOM     62  C   UNL A   1      42.808  27.566  31.477  1.00  0.00     0.029 A 
ATOM     63  N   UNL A   1      41.720  29.117  32.639  1.00  0.00    -0.354 N 
ATOM     64  N   UNL A   1      41.252  30.873  34.955  1.00  0.00    -0.248 NA
ATOM     65  C   UNL A   1      41.800  31.573  37.117  1.00  0.00     0.031 C 
ATOM     66  C   UNL A   1      43.392  27.661  32.745  1.00  0.00     0.029 A 
ATOM     67  C   UNL A   1      42.738  28.652  33.459  1.00  0.00     0.049 A 
ATOM     68  H   UNL A   1      41.076  29.821  32.883  1.00  0.00     0.167 HD
ATOM     69  C   UNL A   1      42.342  30.137  35.410  1.00  0.00     0.074 A 
ATOM     70  C   UNL A   1      42.654  30.633  36.735  1.00  0.00     0.031 C 
ATOM     71  C   UNL A   1      43.028  29.144  34.786  1.00  0.00     0.034 A 
BRANCH  58  72
ATOM     72  C   UNL A   1      40.870  27.767  29.125  1.00  0.00     0.023 A 
ATOM     73  C   UNL A   1      41.786  28.022  28.088  1.00  0.00     0.031 A 
ATOM     74  C   UNL A   1      39.985  26.686  28.965  1.00  0.00     0.131 A 
ATOM     75  C   UNL A   1      41.731  27.272  26.903  1.00  0.00     0.055 A 
ATOM     76  C   UNL A   1      39.998  25.885  27.820  1.00  0.00     0.041 A 
ATOM     77  F   UNL A   1      39.076  26.402  29.911  1.00  0.00    -0.206 F 
ATOM     78  C   UNL A   1      40.861  26.189  26.772  1.00  0.00     0.022 A 
BRANCH  75  79
ATOM     79  S   UNL A   1      42.694  27.845  25.476  1.00  0.00     0.124 S 
ATOM     80  O   UNL A   1      43.963  28.208  26.104  1.00  0.00    -0.237 OA
ATOM     81  O   UNL A   1      42.720  26.666  24.618  1.00  0.00    -0.237 OA
ATOM     82  O   UNL A   1      41.916  28.972  24.967  1.00  0.00    -0.744 OA
ENDBRANCH  75  79
ENDBRANCH  58  72
BRANCH  59  83
ATOM     83  C   UNL A   1      39.663  33.578  37.199  1.00  0.00     0.023 A 
ATOM     84  C   UNL A   1      40.438  34.721  37.452  1.00  0.00     0.031 A 
ATOM     85  C   UNL A   1      38.691  33.215  38.149  1.00  0.00     0.131 A 
ATOM     86  C   UNL A   1      40.255  35.440  38.644  1.00  0.00     0.055 A 
ATOM     87  C   UNL A   1      38.481  33.960  39.310  1.00  0.00     0.041 A 
ATOM     88  F   UNL A   1      37.917  32.136  37.949  1.00  0.00    -0.206 F 
ATOM     89  C   UNL A   1      39.273  35.074  39.569  1.00  0.00     0.022 A 
BRANCH  86  90
ATOM     90  S   UNL A   1      41.365  36.829  39.000  1.00  0.00     0.124 S 
ATOM     91  O   UNL A   1      40.418  37.915  39.226  1.00  0.00    -0.237 OA
ATOM     92  O   UNL A   1      42.083  36.349  40.176  1.00  0.00    -0.237 OA
ATOM     93  O   UNL A   1      42.169  36.942  37.786  1.00  0.00    -0.744 OA
ENDBRANCH  86  90
ENDBRANCH  59  83
BRANCH  71  94
ATOM     94  C   UNL A   1      44.211  28.563  35.521  1.00  0.00     0.023 A 
ATOM     95  C   UNL A   1      44.063  27.536  36.470  1.00  0.00     0.031 A 
ATOM     96  C   UNL A   1      45.505  29.055  35.276  1.00  0.00     0.131 A 
ATOM     97  C   UNL A   1      45.182  27.070  37.176  1.00  0.00     0.055 A 
ATOM     98  C   UNL A   1      46.623  28.547  35.938  1.00  0.00     0.041 A 
ATOM     99  F   UNL A   1      45.705  30.037  34.383  1.00  0.00    -0.206 F 
ATOM    100  C   UNL A   1      46.463  27.558  36.904  1.00  0.00     0.022 A 
BRANCH  97 101
ATOM    101  S   UNL A   1      44.932  25.878  38.521  1.00  0.00     0.124 S 
ATOM    102  O   UNL A   1      44.469  24.698  37.798  1.00  0.00    -0.237 OA
ATOM    103  O   UNL A   1      46.265  25.785  39.107  1.00  0.00    -0.237 OA
ATOM    104  O   UNL A   1      43.928  26.522  39.366  1.00  0.00    -0.744 OA
ENDBRANCH  97 101
ENDBRANCH  71  94
ENDBRANCH  45  46
ENDBRANCH  37  40
ENDBRANCH  35  36
ENDBRANCH  34  35
ENDBRANCH   1  34
TORSDOF 18
ENDMDL
MODEL 3
REMARK VINA RESULT:     -12.3      4.157      8.800
REMARK SMILES Cc1cc(C(=O)NCCCCNC(=O)c2ccc(-c3c4nc(c(-c5cc(S(=O)(=O)[O-])ccc5F)c5ccc([nH]5)c(-c5cc(S(=O)(=O)[O-])ccc5F)c5nc(c(-c6cc(S(=O)(=O)[O-])ccc6F)c6ccc3[nH]6)C=C5)C=C4)cc2)cc(S(=O)(=O)NNC(=O)c2c[nH]c3ccccc23)c1C
REMARK SMILES IDX 9 1 8 2 7 3 5 4 6 5 4 7 1 8 2 9 3 10 96 11 79 12 97 13 78 14
REMARK SMILES IDX 80 15 81 16 82 17 83 18 84 20 85 21 86 23 87 24 88 25 95 26
REMARK SMILES IDX 89 27 90 28 94 29 91 31 93 32 92 33 10 34 11 35 12 36 13 37
REMARK SMILES IDX 14 39 15 40 16 41 77 42 17 43 76 44 18 45 19 46 20 47 70 48
REMARK SMILES IDX 21 49 75 50 69 51 71 52 22 53 74 54 68 55 67 56 23 58 55 59
REMARK SMILES IDX 35 60 54 61 36 62 39 63 53 64 72 65 37 66 38 67 52 69 73 70
REMARK SMILES IDX 40 71 24 72 25 73 33 74 26 75 32 76 34 77 31 78 27 79 28 80
REMARK SMILES IDX 29 81 30 82 56 83 57 84 65 85 58 86 64 87 66 88 63 89 59 90
REMARK SMILES IDX 60 91 61 92 62 93 41 94 42 95 50 96 43 97 49 98 51 99 48 100
REMARK SMILES IDX 44 101 45 102 46 103 47 104
REMARK H PARENT 7 6 83 19 84 22 89 30 12 38 71 57 39 68
REMARK Flexibility Score: inf
ROOT
ATOM      1  C   UNL A   1      33.173  28.296  26.384  1.00  0.00     0.023 C 
ENDROOT
BRANCH   1   2
ATOM      2  C   UNL A   1      32.128  28.452  25.275  1.00  0.00     0.116 C 
BRANCH   2   3
ATOM      3  N   UNL A   1      32.630  27.959  24.003  1.00  0.00    -0.352 N 
ATOM      4  C   UNL A   1      33.255  26.802  23.611  1.00  0.00     0.251 C 
ATOM      5  O   UNL A   1      33.539  26.691  22.417  1.00  0.00    -0.269 OA
ATOM      6  H   UNL A   1      32.495  28.593  23.262  1.00  0.00     0.163 HD
BRANCH   4   7
ATOM      7  C   UNL A   1      33.593  25.661  24.516  1.00  0.00     0.041 A 
ATOM      8  C   UNL A   1      36.579  23.747  25.886  1.00  0.00     0.044 C 
ATOM      9  C   UNL A   1      35.141  24.133  25.645  1.00  0.00    -0.046 A 
ATOM     10  C   UNL A   1      34.880  25.172  24.733  1.00  0.00     0.017 A 
ATOM     11  C   UNL A   1      34.068  23.487  26.288  1.00  0.00    -0.028 A 
ATOM     12  C   UNL A   1      32.748  23.897  25.972  1.00  0.00     0.088 A 
ATOM     13  C   UNL A   1      34.318  22.376  27.281  1.00  0.00     0.046 C 
ATOM     14  C   UNL A   1      32.520  24.998  25.139  1.00  0.00     0.036 A 
BRANCH  12  15
ATOM     15  S   UNL A   1      31.385  22.879  26.512  1.00  0.00     0.257 S 
ATOM     16  O   UNL A   1      31.651  22.566  27.912  1.00  0.00    -0.205 OA
ATOM     17  O   UNL A   1      30.171  23.524  26.112  1.00  0.00    -0.205 OA
BRANCH  15  18
ATOM     18  N   UNL A   1      31.413  21.414  25.641  1.00  0.00    -0.123 NA
ATOM     19  H   UNL A   1      30.473  21.280  25.268  1.00  0.00     0.167 HD
BRANCH  18  20
ATOM     20  N   UNL A   1      32.342  21.224  24.517  1.00  0.00    -0.273 N 
ATOM     21  C   UNL A   1      32.493  19.969  23.943  1.00  0.00     0.268 C 
ATOM     22  H   UNL A   1      32.857  21.988  24.170  1.00  0.00     0.186 HD
ATOM     23  O   UNL A   1      32.055  19.715  22.825  1.00  0.00    -0.268 OA
BRANCH  21  24
ATOM     24  C   UNL A   1      33.479  19.125  24.620  1.00  0.00     0.066 A 
ATOM     25  C   UNL A   1      34.828  19.402  24.758  1.00  0.00     0.097 A 
ATOM     26  C   UNL A   1      33.328  17.774  25.078  1.00  0.00     0.012 A 
ATOM     27  N   UNL A   1      35.478  18.199  24.706  1.00  0.00    -0.360 N 
ATOM     28  C   UNL A   1      34.581  17.181  24.906  1.00  0.00     0.046 A 
ATOM     29  C   UNL A   1      32.253  16.950  25.472  1.00  0.00     0.011 A 
ATOM     30  H   UNL A   1      36.443  18.082  24.547  1.00  0.00     0.166 HD
ATOM     31  C   UNL A   1      34.777  15.799  24.918  1.00  0.00     0.027 A 
ATOM     32  C   UNL A   1      32.468  15.574  25.628  1.00  0.00     0.001 A 
ATOM     33  C   UNL A   1      33.695  15.003  25.297  1.00  0.00     0.002 A 
ENDBRANCH  21  24
ENDBRANCH  18  20
ENDBRANCH  15  18
ENDBRANCH  12  15
ENDBRANCH   4   7
ENDBRANCH   2   3
ENDBRANCH   1   2
BRANCH   1  34
ATOM     34  C   UNL A   1      33.162  29.426  27.423  1.00  0.00     0.023 C 
BRANCH  34  35
ATOM     35  C   UNL A   1      34.041  30.628  27.082  1.00  0.00     0.116 C 
BRANCH  35  36
ATOM     36  N   UNL A   1      33.895  31.732  28.018  1.00  0.00    -0.352 N 
ATOM     37  C   UNL A   1      34.720  32.084  29.061  1.00  0.00     0.251 C 
ATOM     38  H   UNL A   1      33.103  32.301  27.887  1.00  0.00     0.163 HD
ATOM     39  O   UNL A   1      34.388  32.987  29.823  1.00  0.00    -0.269 OA
BRANCH  37  40
ATOM     40  C   UNL A   1      35.977  31.336  29.284  1.00  0.00     0.039 A 
ATOM     41  C   UNL A   1      37.164  31.835  28.739  1.00  0.00     0.014 A 
ATOM     42  C   UNL A   1      35.993  30.168  30.050  1.00  0.00     0.014 A 
ATOM     43  C   UNL A   1      38.377  31.204  29.029  1.00  0.00     0.010 A 
ATOM     44  C   UNL A   1      37.209  29.581  30.392  1.00  0.00     0.010 A 
ATOM     45  C   UNL A   1      38.414  30.096  29.891  1.00  0.00    -0.014 A 
BRANCH  45  46
ATOM     46  C   UNL A   1      39.701  29.468  30.287  1.00  0.00     0.031 A 
ATOM     47  C   UNL A   1      40.517  30.057  31.404  1.00  0.00     0.074 A 
ATOM     48  C   UNL A   1      40.170  28.413  29.591  1.00  0.00     0.049 A 
ATOM     49  N   UNL A   1      41.700  29.708  31.841  1.00  0.00    -0.248 NA
ATOM     50  C   UNL A   1      39.936  31.215  32.098  1.00  0.00     0.031 C 
ATOM     51  C   UNL A   1      39.493  27.782  28.455  1.00  0.00     0.029 A 
ATOM     52  N   UNL A   1      41.331  27.694  29.725  1.00  0.00    -0.354 N 
ATOM     53  C   UNL A   1      42.012  30.611  32.852  1.00  0.00     0.074 A 
ATOM     54  C   UNL A   1      40.920  31.561  32.913  1.00  0.00     0.031 C 
ATOM     55  C   UNL A   1      40.242  26.761  28.009  1.00  0.00     0.029 A 
ATOM     56  C   UNL A   1      41.468  26.688  28.797  1.00  0.00     0.049 A 
ATOM     57  H   UNL A   1      42.002  27.880  30.421  1.00  0.00     0.167 HD
ATOM     58  C   UNL A   1      43.097  30.632  33.668  1.00  0.00     0.034 A 
ATOM     59  C   UNL A   1      42.473  25.813  28.594  1.00  0.00     0.034 A 
ATOM     60  C   UNL A   1      44.171  29.671  33.597  1.00  0.00     0.049 A 
ATOM     61  C   UNL A   1      43.677  25.862  29.500  1.00  0.00     0.074 A 
ATOM     62  C   UNL A   1      45.288  29.562  34.408  1.00  0.00     0.029 A 
ATOM     63  N   UNL A   1      44.272  28.659  32.649  1.00  0.00    -0.354 N 
ATOM     64  N   UNL A   1      43.933  26.688  30.489  1.00  0.00    -0.248 NA
ATOM     65  C   UNL A   1      44.719  24.854  29.270  1.00  0.00     0.031 C 
ATOM     66  C   UNL A   1      46.093  28.529  33.913  1.00  0.00     0.029 A 
ATOM     67  C   UNL A   1      45.444  27.942  32.839  1.00  0.00     0.049 A 
ATOM     68  H   UNL A   1      43.607  28.477  31.946  1.00  0.00     0.167 HD
ATOM     69  C   UNL A   1      45.154  26.279  31.016  1.00  0.00     0.074 A 
ATOM     70  C   UNL A   1      45.575  25.128  30.245  1.00  0.00     0.031 C 
ATOM     71  C   UNL A   1      45.861  26.805  32.051  1.00  0.00     0.034 A 
BRANCH  58  72
ATOM     72  C   UNL A   1      43.173  31.748  34.684  1.00  0.00     0.023 A 
ATOM     73  C   UNL A   1      42.564  31.637  35.948  1.00  0.00     0.031 A 
ATOM     74  C   UNL A   1      43.819  32.957  34.374  1.00  0.00     0.131 A 
ATOM     75  C   UNL A   1      42.530  32.743  36.810  1.00  0.00     0.055 A 
ATOM     76  C   UNL A   1      43.861  34.024  35.275  1.00  0.00     0.041 A 
ATOM     77  F   UNL A   1      44.403  33.132  33.177  1.00  0.00    -0.206 F 
ATOM     78  C   UNL A   1      43.197  33.928  36.493  1.00  0.00     0.022 A 
BRANCH  75  79
ATOM     79  S   UNL A   1      41.458  32.665  38.272  1.00  0.00     0.124 S 
ATOM     80  O   UNL A   1      42.133  31.648  39.077  1.00  0.00    -0.237 OA
ATOM     81  O   UNL A   1      41.519  34.029  38.783  1.00  0.00    -0.237 OA
ATOM     82  O   UNL A   1      40.165  32.257  37.727  1.00  0.00    -0.744 OA
ENDBRANCH  75  79
ENDBRANCH  58  72
BRANCH  59  83
ATOM     83  C   UNL A   1      42.393  24.821  27.485  1.00  0.00     0.023 A 
ATOM     84  C   UNL A   1      41.616  23.658  27.610  1.00  0.00     0.031 A 
ATOM     85  C   UNL A   1      43.109  25.012  26.290  1.00  0.00     0.131 A 
ATOM     86  C   UNL A   1      41.605  22.710  26.574  1.00  0.00     0.055 A 
ATOM     87  C   UNL A   1      43.057  24.090  25.244  1.00  0.00     0.041 A 
ATOM     88  F   UNL A   1      43.859  26.112  26.117  1.00  0.00    -0.206 F 
ATOM     89  C   UNL A   1      42.310  22.925  25.387  1.00  0.00     0.022 A 
BRANCH  86  90
ATOM     90  S   UNL A   1      40.701  21.159  26.825  1.00  0.00     0.124 S 
ATOM     91  O   UNL A   1      40.747  21.020  28.277  1.00  0.00    -0.237 OA
ATOM     92  O   UNL A   1      39.397  21.472  26.252  1.00  0.00    -0.237 OA
ATOM     93  O   UNL A   1      41.488  20.181  26.078  1.00  0.00    -0.744 OA
ENDBRANCH  86  90
ENDBRANCH  59  83
BRANCH  71  94
ATOM     94  C   UNL A   1      47.144  26.105  32.428  1.00  0.00     0.023 A 
ATOM     95  C   UNL A   1      48.347  26.337  31.737  1.00  0.00     0.031 A 
ATOM     96  C   UNL A   1      47.159  25.182  33.488  1.00  0.00     0.131 A 
ATOM     97  C   UNL A   1      49.500  25.617  32.081  1.00  0.00     0.055 A 
ATOM     98  C   UNL A   1      48.323  24.512  33.865  1.00  0.00     0.041 A 
ATOM     99  F   UNL A   1      46.038  24.919  34.181  1.00  0.00    -0.206 F 
ATOM    100  C   UNL A   1      49.500  24.718  33.151  1.00  0.00     0.022 A 
BRANCH  97 101
ATOM    101  S   UNL A   1      50.984  25.803  31.053  1.00  0.00     0.124 S 
ATOM    102  O   UNL A   1      50.569  25.171  29.805  1.00  0.00    -0.237 OA
ATOM    103  O   UNL A   1      51.153  27.251  31.010  1.00  0.00    -0.237 OA
ATOM    104  O   UNL A   1      52.012  25.081  31.802  1.00  0.00    -0.744 OA
ENDBRANCH  97 101
ENDBRANCH  71  94
ENDBRANCH  45  46
ENDBRANCH  37  40
ENDBRANCH  35  36
ENDBRANCH  34  35
ENDBRANCH   1  34
TORSDOF 18
ENDMDL
