MODEL 1
REMARK VINA RESULT:     -11.4      0.000      0.000
REMARK SMILES CCOc1cc2c(cc1/C=C1/C(=O)N(c3cccc(C(=O)NCCCCNC(=O)c4ccc(-c5c6nc(c(-c7cc(S(=O)(=O)[O-])ccc7F)c7ccc([nH]7)c(-c7cc(S(=O)(=O)[O-])ccc7F)c7nc(c(-c8cc(S(=O)(=O)[O-])ccc8F)c8ccc5[nH]8)C=C7)C=C6)cc4)c3)C(=S)N=C1O)OCO2
REMARK SMILES IDX 24 1 23 2 22 3 20 4 21 5 19 7 15 8 16 9 93 10 17 11 18 12
REMARK SMILES IDX 14 13 10 14 11 15 12 16 97 17 13 18 96 19 94 20 95 21 9 22
REMARK SMILES IDX 4 23 5 24 6 25 8 26 7 27 101 28 99 29 100 30 3 31 2 32 1 33
REMARK SMILES IDX 98 34 25 36 26 37 27 38 28 39 29 41 30 42 31 43 92 44 32 45
REMARK SMILES IDX 91 46 33 47 34 48 35 49 85 50 36 51 90 52 84 53 86 54 37 55
REMARK SMILES IDX 89 56 83 57 82 58 38 60 70 61 50 62 69 63 51 64 54 65 68 66
REMARK SMILES IDX 87 67 52 68 53 69 67 71 88 72 55 73 39 74 40 75 48 76 41 77
REMARK SMILES IDX 47 78 49 79 46 80 42 81 43 82 44 83 45 84 71 85 72 86 80 87
REMARK SMILES IDX 73 88 79 89 81 90 78 91 74 92 75 93 76 94 77 95 56 96 57 97
REMARK SMILES IDX 65 98 58 99 64 100 66 101 63 102 59 103 60 104 61 105 62 106
REMARK H PARENT 22 6 98 35 27 40 86 59 54 70
REMARK Flexibility Score: inf
ROOT
ATOM      1  C   UNL A   1      33.206  28.597  24.799  1.00  0.00     0.023 C 
ENDROOT
BRANCH   1   2
ATOM      2  C   UNL A   1      32.061  28.943  23.857  1.00  0.00     0.116 C 
BRANCH   2   3
ATOM      3  N   UNL A   1      30.773  28.363  24.202  1.00  0.00    -0.352 N 
ATOM      4  C   UNL A   1      30.291  27.082  24.022  1.00  0.00     0.251 C 
ATOM      5  O   UNL A   1      29.156  26.808  24.405  1.00  0.00    -0.269 OA
ATOM      6  H   UNL A   1      30.142  28.984  24.632  1.00  0.00     0.163 HD
BRANCH   4   7
ATOM      7  C   UNL A   1      31.082  26.046  23.306  1.00  0.00     0.041 A 
ATOM      8  C   UNL A   1      32.753  24.286  23.330  1.00  0.00     0.052 A 
ATOM      9  C   UNL A   1      32.850  24.387  21.933  1.00  0.00     0.027 A 
ATOM     10  C   UNL A   1      31.765  25.032  23.982  1.00  0.00     0.040 A 
ATOM     11  C   UNL A   1      32.054  25.292  21.225  1.00  0.00     0.003 A 
ATOM     12  C   UNL A   1      31.198  26.147  21.916  1.00  0.00     0.014 A 
BRANCH   8  13
ATOM     13  N   UNL A   1      33.727  23.544  24.101  1.00  0.00    -0.251 N 
ATOM     14  C   UNL A   1      37.200  23.743  25.220  1.00  0.00     0.031 C 
ATOM     15  C   UNL A   1      35.913  23.332  25.174  1.00  0.00     0.103 C 
ATOM     16  C   UNL A   1      34.911  24.200  24.484  1.00  0.00     0.270 C 
ATOM     17  C   UNL A   1      35.338  22.114  25.728  1.00  0.00     0.226 C 
ATOM     18  O   UNL A   1      35.160  25.389  24.290  1.00  0.00    -0.268 OA
ATOM     19  N   UNL A   1      34.235  21.575  25.375  1.00  0.00    -0.184 NA
ATOM     20  C   UNL A   1      33.542  22.159  24.342  1.00  0.00     0.210 C 
ATOM     21  S   UNL A   1      32.574  21.124  23.397  1.00  0.00    -0.038 S 
BRANCH  14  22
ATOM     22  C   UNL A   1      38.356  23.073  25.854  1.00  0.00     0.021 A 
ATOM     23  C   UNL A   1      39.064  23.701  26.913  1.00  0.00     0.130 A 
ATOM     24  C   UNL A   1      40.005  23.002  27.675  1.00  0.00     0.097 A 
ATOM     25  C   UNL A   1      40.301  21.714  27.299  1.00  0.00     0.169 A 
ATOM     26  C   UNL A   1      38.770  21.796  25.441  1.00  0.00     0.062 A 
ATOM     27  C   UNL A   1      39.718  21.136  26.198  1.00  0.00     0.166 A 
ATOM     28  O   UNL A   1      41.162  20.878  27.936  1.00  0.00    -0.453 OA
ATOM     29  O   UNL A   1      40.147  19.860  25.999  1.00  0.00    -0.454 OA
ATOM     30  C   UNL A   1      41.006  19.683  27.144  1.00  0.00     0.468 C 
BRANCH  23  31
ATOM     31  O   UNL A   1      38.792  24.999  27.270  1.00  0.00    -0.493 OA
BRANCH  31  32
ATOM     32  C   UNL A   1      39.701  25.457  28.289  1.00  0.00     0.226 C 
ATOM     33  C   UNL A   1      38.978  26.220  29.390  1.00  0.00     0.049 C 
ENDBRANCH  31  32
ENDBRANCH  23  31
ENDBRANCH  14  22
BRANCH  17  34
ATOM     34  O   UNL A   1      35.984  21.526  26.734  1.00  0.00    -0.493 OA
ATOM     35  H   UNL A   1      35.704  21.667  27.617  1.00  0.00     0.295 HD
ENDBRANCH  17  34
ENDBRANCH   8  13
ENDBRANCH   4   7
ENDBRANCH   2   3
ENDBRANCH   1   2
BRANCH   1  36
ATOM     36  C   UNL A   1      32.845  27.815  26.055  1.00  0.00     0.023 C 
BRANCH  36  37
ATOM     37  C   UNL A   1      33.000  28.557  27.379  1.00  0.00     0.116 C 
BRANCH  37  38
ATOM     38  N   UNL A   1      32.671  29.974  27.302  1.00  0.00    -0.352 N 
ATOM     39  C   UNL A   1      33.460  31.084  27.520  1.00  0.00     0.251 C 
ATOM     40  H   UNL A   1      31.739  30.171  27.056  1.00  0.00     0.163 HD
ATOM     41  O   UNL A   1      32.960  32.201  27.476  1.00  0.00    -0.269 OA
BRANCH  39  42
ATOM     42  C   UNL A   1      34.892  30.917  27.858  1.00  0.00     0.039 A 
ATOM     43  C   UNL A   1      35.694  32.057  27.966  1.00  0.00     0.014 A 
ATOM     44  C   UNL A   1      35.426  29.656  28.122  1.00  0.00     0.014 A 
ATOM     45  C   UNL A   1      36.994  31.942  28.467  1.00  0.00     0.010 A 
ATOM     46  C   UNL A   1      36.692  29.551  28.694  1.00  0.00     0.010 A 
ATOM     47  C   UNL A   1      37.476  30.697  28.902  1.00  0.00    -0.014 A 
BRANCH  47  48
ATOM     48  C   UNL A   1      38.760  30.572  29.640  1.00  0.00     0.031 A 
ATOM     49  C   UNL A   1      39.900  29.788  29.055  1.00  0.00     0.074 A 
ATOM     50  C   UNL A   1      38.857  31.076  30.888  1.00  0.00     0.049 A 
ATOM     51  N   UNL A   1      41.037  29.445  29.604  1.00  0.00    -0.248 NA
ATOM     52  C   UNL A   1      39.720  29.299  27.681  1.00  0.00     0.031 C 
ATOM     53  C   UNL A   1      37.807  31.826  31.582  1.00  0.00     0.029 A 
ATOM     54  N   UNL A   1      39.878  31.016  31.804  1.00  0.00    -0.354 N 
ATOM     55  C   UNL A   1      41.706  28.690  28.647  1.00  0.00     0.074 A 
ATOM     56  C   UNL A   1      40.818  28.580  27.507  1.00  0.00     0.031 C 
ATOM     57  C   UNL A   1      38.242  32.167  32.804  1.00  0.00     0.029 A 
ATOM     58  C   UNL A   1      39.577  31.614  33.007  1.00  0.00     0.049 A 
ATOM     59  H   UNL A   1      40.743  30.584  31.620  1.00  0.00     0.167 HD
ATOM     60  C   UNL A   1      42.951  28.156  28.707  1.00  0.00     0.034 A 
ATOM     61  C   UNL A   1      40.281  31.687  34.153  1.00  0.00     0.034 A 
ATOM     62  C   UNL A   1      43.824  28.280  29.850  1.00  0.00     0.049 A 
ATOM     63  C   UNL A   1      41.634  31.029  34.222  1.00  0.00     0.074 A 
ATOM     64  C   UNL A   1      45.132  27.846  29.989  1.00  0.00     0.029 A 
ATOM     65  N   UNL A   1      43.472  28.865  31.059  1.00  0.00    -0.354 N 
ATOM     66  N   UNL A   1      42.274  30.362  33.290  1.00  0.00    -0.248 NA
ATOM     67  C   UNL A   1      42.355  31.126  35.498  1.00  0.00     0.031 C 
ATOM     68  C   UNL A   1      45.546  28.107  31.300  1.00  0.00     0.029 A 
ATOM     69  C   UNL A   1      44.521  28.764  31.962  1.00  0.00     0.049 A 
ATOM     70  H   UNL A   1      42.605  29.291  31.249  1.00  0.00     0.167 HD
ATOM     71  C   UNL A   1      43.481  29.975  33.863  1.00  0.00     0.074 A 
ATOM     72  C   UNL A   1      43.485  30.494  35.217  1.00  0.00     0.031 C 
ATOM     73  C   UNL A   1      44.498  29.259  33.319  1.00  0.00     0.034 A 
BRANCH  60  74
ATOM     74  C   UNL A   1      43.423  27.368  27.509  1.00  0.00     0.023 A 
ATOM     75  C   UNL A   1      43.276  25.970  27.444  1.00  0.00     0.031 A 
ATOM     76  C   UNL A   1      44.063  28.012  26.436  1.00  0.00     0.131 A 
ATOM     77  C   UNL A   1      43.838  25.256  26.375  1.00  0.00     0.055 A 
ATOM     78  C   UNL A   1      44.546  27.303  25.334  1.00  0.00     0.041 A 
ATOM     79  F   UNL A   1      44.247  29.342  26.449  1.00  0.00    -0.206 F 
ATOM     80  C   UNL A   1      44.451  25.915  25.309  1.00  0.00     0.022 A 
BRANCH  77  81
ATOM     81  S   UNL A   1      43.891  23.446  26.481  1.00  0.00     0.124 S 
ATOM     82  O   UNL A   1      42.875  23.064  25.501  1.00  0.00    -0.237 OA
ATOM     83  O   UNL A   1      45.271  23.149  26.118  1.00  0.00    -0.237 OA
ATOM     84  O   UNL A   1      43.536  23.173  27.872  1.00  0.00    -0.744 OA
ENDBRANCH  77  81
ENDBRANCH  60  74
BRANCH  61  85
ATOM     85  C   UNL A   1      39.712  32.379  35.344  1.00  0.00     0.023 A 
ATOM     86  C   UNL A   1      40.040  33.714  35.626  1.00  0.00     0.031 A 
ATOM     87  C   UNL A   1      38.853  31.707  36.232  1.00  0.00     0.131 A 
ATOM     88  C   UNL A   1      39.538  34.326  36.785  1.00  0.00     0.055 A 
ATOM     89  C   UNL A   1      38.321  32.333  37.359  1.00  0.00     0.041 A 
ATOM     90  F   UNL A   1      38.504  30.430  36.003  1.00  0.00    -0.206 F 
ATOM     91  C   UNL A   1      38.671  33.650  37.646  1.00  0.00     0.022 A 
BRANCH  88  92
ATOM     92  S   UNL A   1      40.084  36.009  37.183  1.00  0.00     0.124 S 
ATOM     93  O   UNL A   1      41.493  35.799  37.496  1.00  0.00    -0.237 OA
ATOM     94  O   UNL A   1      39.801  36.721  35.941  1.00  0.00    -0.237 OA
ATOM     95  O   UNL A   1      39.240  36.382  38.317  1.00  0.00    -0.744 OA
ENDBRANCH  88  92
ENDBRANCH  61  85
BRANCH  73  96
ATOM     96  C   UNL A   1      45.703  29.016  34.190  1.00  0.00     0.023 A 
ATOM     97  C   UNL A   1      45.771  27.912  35.058  1.00  0.00     0.031 A 
ATOM     98  C   UNL A   1      46.794  29.901  34.155  1.00  0.00     0.131 A 
ATOM     99  C   UNL A   1      46.891  27.743  35.886  1.00  0.00     0.055 A 
ATOM    100  C   UNL A   1      47.927  29.702  34.943  1.00  0.00     0.041 A 
ATOM    101  F   UNL A   1      46.777  30.974  33.347  1.00  0.00    -0.206 F 
ATOM    102  C   UNL A   1      47.977  28.622  35.822  1.00  0.00     0.022 A 
BRANCH  99 103
ATOM    103  S   UNL A   1      46.889  26.391  37.094  1.00  0.00     0.124 S 
ATOM    104  O   UNL A   1      46.672  25.226  36.243  1.00  0.00    -0.237 OA
ATOM    105  O   UNL A   1      48.214  26.504  37.695  1.00  0.00    -0.237 OA
ATOM    106  O   UNL A   1      45.778  26.725  37.982  1.00  0.00    -0.744 OA
ENDBRANCH  99 103
ENDBRANCH  73  96
ENDBRANCH  47  48
ENDBRANCH  39  42
ENDBRANCH  37  38
ENDBRANCH  36  37
ENDBRANCH   1  36
TORSDOF 19
ENDMDL
MODEL 2
REMARK VINA RESULT:     -11.1      3.226      8.480
REMARK SMILES CCOc1cc2c(cc1/C=C1/C(=O)N(c3cccc(C(=O)NCCCCNC(=O)c4ccc(-c5c6nc(c(-c7cc(S(=O)(=O)[O-])ccc7F)c7ccc([nH]7)c(-c7cc(S(=O)(=O)[O-])ccc7F)c7nc(c(-c8cc(S(=O)(=O)[O-])ccc8F)c8ccc5[nH]8)C=C7)C=C6)cc4)c3)C(=S)N=C1O)OCO2
REMARK SMILES IDX 24 1 23 2 22 3 20 4 21 5 19 7 15 8 16 9 93 10 17 11 18 12
REMARK SMILES IDX 14 13 10 14 11 15 12 16 97 17 13 18 96 19 94 20 95 21 9 22
REMARK SMILES IDX 4 23 5 24 6 25 8 26 7 27 101 28 99 29 100 30 3 31 2 32 1 33
REMARK SMILES IDX 98 34 25 36 26 37 27 38 28 39 29 41 30 42 31 43 92 44 32 45
REMARK SMILES IDX 91 46 33 47 34 48 35 49 85 50 36 51 90 52 84 53 86 54 37 55
REMARK SMILES IDX 89 56 83 57 82 58 38 60 70 61 50 62 69 63 51 64 54 65 68 66
REMARK SMILES IDX 87 67 52 68 53 69 67 71 88 72 55 73 39 74 40 75 48 76 41 77
REMARK SMILES IDX 47 78 49 79 46 80 42 81 43 82 44 83 45 84 71 85 72 86 80 87
REMARK SMILES IDX 73 88 79 89 81 90 78 91 74 92 75 93 76 94 77 95 56 96 57 97
REMARK SMILES IDX 65 98 58 99 64 100 66 101 63 102 59 103 60 104 61 105 62 106
REMARK H PARENT 22 6 98 35 27 40 86 59 54 70
REMARK Flexibility Score: inf
ROOT
ATOM      1  C   UNL A   1      34.414  33.350  27.988  1.00  0.00     0.023 C 
ENDROOT
BRANCH   1   2
ATOM      2  C   UNL A   1      33.911  31.914  27.961  1.00  0.00     0.116 C 
BRANCH   2   3
ATOM      3  N   UNL A   1      34.945  30.891  27.955  1.00  0.00    -0.352 N 
ATOM      4  C   UNL A   1      34.945  29.622  27.414  1.00  0.00     0.251 C 
ATOM      5  O   UNL A   1      35.950  28.922  27.523  1.00  0.00    -0.269 OA
ATOM      6  H   UNL A   1      35.780  31.145  28.411  1.00  0.00     0.163 HD
BRANCH   4   7
ATOM      7  C   UNL A   1      33.732  29.048  26.771  1.00  0.00     0.041 A 
ATOM      8  C   UNL A   1      32.646  27.248  25.561  1.00  0.00     0.052 A 
ATOM      9  C   UNL A   1      31.607  28.130  25.222  1.00  0.00     0.027 A 
ATOM     10  C   UNL A   1      33.630  27.693  26.449  1.00  0.00     0.040 A 
ATOM     11  C   UNL A   1      31.617  29.453  25.672  1.00  0.00     0.003 A 
ATOM     12  C   UNL A   1      32.699  29.922  26.414  1.00  0.00     0.014 A 
BRANCH   8  13
ATOM     13  N   UNL A   1      32.782  25.961  24.913  1.00  0.00    -0.251 N 
ATOM     14  C   UNL A   1      33.283  22.430  25.710  1.00  0.00     0.031 C 
ATOM     15  C   UNL A   1      32.957  23.524  24.985  1.00  0.00     0.103 C 
ATOM     16  C   UNL A   1      32.689  24.804  25.708  1.00  0.00     0.270 C 
ATOM     17  C   UNL A   1      32.820  23.638  23.540  1.00  0.00     0.226 C 
ATOM     18  O   UNL A   1      32.418  24.786  26.908  1.00  0.00    -0.268 OA
ATOM     19  N   UNL A   1      32.871  24.719  22.862  1.00  0.00    -0.184 NA
ATOM     20  C   UNL A   1      33.131  25.885  23.541  1.00  0.00     0.210 C 
ATOM     21  S   UNL A   1      33.928  27.111  22.666  1.00  0.00    -0.038 S 
BRANCH  14  22
ATOM     22  C   UNL A   1      33.571  21.062  25.227  1.00  0.00     0.021 A 
ATOM     23  C   UNL A   1      34.909  20.632  25.029  1.00  0.00     0.130 A 
ATOM     24  C   UNL A   1      35.216  19.288  24.796  1.00  0.00     0.097 A 
ATOM     25  C   UNL A   1      34.169  18.409  24.660  1.00  0.00     0.169 A 
ATOM     26  C   UNL A   1      32.534  20.150  24.971  1.00  0.00     0.062 A 
ATOM     27  C   UNL A   1      32.865  18.833  24.721  1.00  0.00     0.166 A 
ATOM     28  O   UNL A   1      34.276  17.069  24.462  1.00  0.00    -0.453 OA
ATOM     29  O   UNL A   1      31.982  17.809  24.561  1.00  0.00    -0.454 OA
ATOM     30  C   UNL A   1      32.885  16.687  24.469  1.00  0.00     0.468 C 
BRANCH  23  31
ATOM     31  O   UNL A   1      35.956  21.516  25.134  1.00  0.00    -0.493 OA
BRANCH  31  32
ATOM     32  C   UNL A   1      36.380  21.973  23.836  1.00  0.00     0.226 C 
ATOM     33  C   UNL A   1      36.565  23.483  23.801  1.00  0.00     0.049 C 
ENDBRANCH  31  32
ENDBRANCH  23  31
ENDBRANCH  14  22
BRANCH  17  34
ATOM     34  O   UNL A   1      32.563  22.525  22.854  1.00  0.00    -0.493 OA
ATOM     35  H   UNL A   1      32.152  21.797  23.278  1.00  0.00     0.295 HD
ENDBRANCH  17  34
ENDBRANCH   8  13
ENDBRANCH   4   7
ENDBRANCH   2   3
ENDBRANCH   1   2
BRANCH   1  36
ATOM     36  C   UNL A   1      33.431  34.409  28.472  1.00  0.00     0.023 C 
BRANCH  36  37
ATOM     37  C   UNL A   1      33.934  35.343  29.568  1.00  0.00     0.116 C 
BRANCH  37  38
ATOM     38  N   UNL A   1      32.890  35.812  30.468  1.00  0.00    -0.352 N 
ATOM     39  C   UNL A   1      32.782  35.704  31.839  1.00  0.00     0.251 C 
ATOM     40  H   UNL A   1      32.144  36.281  30.030  1.00  0.00     0.163 HD
ATOM     41  O   UNL A   1      31.771  36.108  32.400  1.00  0.00    -0.269 OA
BRANCH  39  42
ATOM     42  C   UNL A   1      33.862  35.054  32.615  1.00  0.00     0.039 A 
ATOM     43  C   UNL A   1      33.647  33.767  33.117  1.00  0.00     0.014 A 
ATOM     44  C   UNL A   1      35.095  35.681  32.798  1.00  0.00     0.014 A 
ATOM     45  C   UNL A   1      34.711  33.060  33.685  1.00  0.00     0.010 A 
ATOM     46  C   UNL A   1      36.172  34.950  33.292  1.00  0.00     0.010 A 
ATOM     47  C   UNL A   1      35.998  33.621  33.711  1.00  0.00    -0.014 A 
BRANCH  47  48
ATOM     48  C   UNL A   1      37.189  32.822  34.101  1.00  0.00     0.031 A 
ATOM     49  C   UNL A   1      37.993  33.198  35.313  1.00  0.00     0.074 A 
ATOM     50  C   UNL A   1      37.607  31.822  33.296  1.00  0.00     0.049 A 
ATOM     51  N   UNL A   1      39.136  32.719  35.729  1.00  0.00    -0.248 NA
ATOM     52  C   UNL A   1      37.450  34.279  36.148  1.00  0.00     0.031 C 
ATOM     53  C   UNL A   1      36.934  31.385  32.071  1.00  0.00     0.029 A 
ATOM     54  N   UNL A   1      38.710  31.008  33.374  1.00  0.00    -0.354 N 
ATOM     55  C   UNL A   1      39.459  33.446  36.870  1.00  0.00     0.074 A 
ATOM     56  C   UNL A   1      38.415  34.436  37.041  1.00  0.00     0.031 C 
ATOM     57  C   UNL A   1      37.628  30.376  31.522  1.00  0.00     0.029 A 
ATOM     58  C   UNL A   1      38.824  30.130  32.321  1.00  0.00     0.049 A 
ATOM     59  H   UNL A   1      39.359  31.049  34.113  1.00  0.00     0.167 HD
ATOM     60  C   UNL A   1      40.516  33.289  37.705  1.00  0.00     0.034 A 
ATOM     61  C   UNL A   1      39.794  29.247  32.014  1.00  0.00     0.034 A 
ATOM     62  C   UNL A   1      41.544  32.294  37.521  1.00  0.00     0.049 A 
ATOM     63  C   UNL A   1      40.993  29.135  32.918  1.00  0.00     0.074 A 
ATOM     64  C   UNL A   1      42.616  31.996  38.347  1.00  0.00     0.029 A 
ATOM     65  N   UNL A   1      41.642  31.445  36.426  1.00  0.00    -0.354 N 
ATOM     66  N   UNL A   1      41.257  29.796  34.021  1.00  0.00    -0.248 NA
ATOM     67  C   UNL A   1      42.027  28.167  32.532  1.00  0.00     0.031 C 
ATOM     68  C   UNL A   1      43.396  31.018  37.719  1.00  0.00     0.029 A 
ATOM     69  C   UNL A   1      42.779  30.656  36.533  1.00  0.00     0.049 A 
ATOM     70  H   UNL A   1      40.999  31.408  35.682  1.00  0.00     0.167 HD
ATOM     71  C   UNL A   1      42.482  29.309  34.470  1.00  0.00     0.074 A 
ATOM     72  C   UNL A   1      42.896  28.291  33.525  1.00  0.00     0.031 C 
ATOM     73  C   UNL A   1      43.196  29.667  35.567  1.00  0.00     0.034 A 
BRANCH  60  74
ATOM     74  C   UNL A   1      40.618  34.238  38.875  1.00  0.00     0.023 A 
ATOM     75  C   UNL A   1      39.902  34.016  40.066  1.00  0.00     0.031 A 
ATOM     76  C   UNL A   1      41.406  35.398  38.789  1.00  0.00     0.131 A 
ATOM     77  C   UNL A   1      39.921  34.980  41.085  1.00  0.00     0.055 A 
ATOM     78  C   UNL A   1      41.486  36.314  39.840  1.00  0.00     0.041 A 
ATOM     79  F   UNL A   1      42.097  35.672  37.671  1.00  0.00    -0.206 F 
ATOM     80  C   UNL A   1      40.727  36.116  40.990  1.00  0.00     0.022 A 
BRANCH  77  81
ATOM     81  S   UNL A   1      38.757  34.801  42.464  1.00  0.00     0.124 S 
ATOM     82  O   UNL A   1      37.540  35.383  41.901  1.00  0.00    -0.237 OA
ATOM     83  O   UNL A   1      38.736  33.359  42.674  1.00  0.00    -0.237 OA
ATOM     84  O   UNL A   1      39.372  35.582  43.535  1.00  0.00    -0.744 OA
ENDBRANCH  77  81
ENDBRANCH  60  74
BRANCH  61  85
ATOM     85  C   UNL A   1      39.695  28.418  30.779  1.00  0.00     0.023 A 
ATOM     86  C   UNL A   1      40.356  28.798  29.602  1.00  0.00     0.031 A 
ATOM     87  C   UNL A   1      38.915  27.247  30.752  1.00  0.00     0.131 A 
ATOM     88  C   UNL A   1      40.200  28.033  28.435  1.00  0.00     0.055 A 
ATOM     89  C   UNL A   1      38.799  26.466  29.602  1.00  0.00     0.041 A 
ATOM     90  F   UNL A   1      38.267  26.838  31.855  1.00  0.00    -0.206 F 
ATOM     91  C   UNL A   1      39.437  26.863  28.431  1.00  0.00     0.022 A 
BRANCH  88  92
ATOM     92  S   UNL A   1      40.967  28.624  26.901  1.00  0.00     0.124 S 
ATOM     93  O   UNL A   1      42.069  29.432  27.411  1.00  0.00    -0.237 OA
ATOM     94  O   UNL A   1      41.336  27.374  26.246  1.00  0.00    -0.237 OA
ATOM     95  O   UNL A   1      39.893  29.372  26.250  1.00  0.00    -0.744 OA
ENDBRANCH  88  92
ENDBRANCH  61  85
BRANCH  73  96
ATOM     96  C   UNL A   1      44.491  28.934  35.806  1.00  0.00     0.023 A 
ATOM     97  C   UNL A   1      44.528  27.722  36.515  1.00  0.00     0.031 A 
ATOM     98  C   UNL A   1      45.702  29.459  35.322  1.00  0.00     0.131 A 
ATOM     99  C   UNL A   1      45.759  27.091  36.755  1.00  0.00     0.055 A 
ATOM    100  C   UNL A   1      46.917  28.803  35.520  1.00  0.00     0.041 A 
ATOM    101  F   UNL A   1      45.722  30.617  34.642  1.00  0.00    -0.206 F 
ATOM    102  C   UNL A   1      46.951  27.616  36.248  1.00  0.00     0.022 A 
BRANCH  99 103
ATOM    103  S   UNL A   1      45.791  25.604  37.792  1.00  0.00     0.124 S 
ATOM    104  O   UNL A   1      45.300  24.583  36.872  1.00  0.00    -0.237 OA
ATOM    105  O   UNL A   1      47.199  25.507  38.159  1.00  0.00    -0.237 OA
ATOM    106  O   UNL A   1      44.887  25.933  38.893  1.00  0.00    -0.744 OA
ENDBRANCH  99 103
ENDBRANCH  73  96
ENDBRANCH  47  48
ENDBRANCH  39  42
ENDBRANCH  37  38
ENDBRANCH  36  37
ENDBRANCH   1  36
TORSDOF 19
ENDMDL
MODEL 3
REMARK VINA RESULT:     -11.1      3.263      5.390
REMARK SMILES CCOc1cc2c(cc1/C=C1/C(=O)N(c3cccc(C(=O)NCCCCNC(=O)c4ccc(-c5c6nc(c(-c7cc(S(=O)(=O)[O-])ccc7F)c7ccc([nH]7)c(-c7cc(S(=O)(=O)[O-])ccc7F)c7nc(c(-c8cc(S(=O)(=O)[O-])ccc8F)c8ccc5[nH]8)C=C7)C=C6)cc4)c3)C(=S)N=C1O)OCO2
REMARK SMILES IDX 24 1 23 2 22 3 20 4 21 5 19 7 15 8 16 9 93 10 17 11 18 12
REMARK SMILES IDX 14 13 10 14 11 15 12 16 97 17 13 18 96 19 94 20 95 21 9 22
REMARK SMILES IDX 4 23 5 24 6 25 8 26 7 27 101 28 99 29 100 30 3 31 2 32 1 33
REMARK SMILES IDX 98 34 25 36 26 37 27 38 28 39 29 41 30 42 31 43 92 44 32 45
REMARK SMILES IDX 91 46 33 47 34 48 35 49 85 50 36 51 90 52 84 53 86 54 37 55
REMARK SMILES IDX 89 56 83 57 82 58 38 60 70 61 50 62 69 63 51 64 54 65 68 66
REMARK SMILES IDX 87 67 52 68 53 69 67 71 88 72 55 73 39 74 40 75 48 76 41 77
REMARK SMILES IDX 47 78 49 79 46 80 42 81 43 82 44 83 45 84 71 85 72 86 80 87
REMARK SMILES IDX 73 88 79 89 81 90 78 91 74 92 75 93 76 94 77 95 56 96 57 97
REMARK SMILES IDX 65 98 58 99 64 100 66 101 63 102 59 103 60 104 61 105 62 106
REMARK H PARENT 22 6 98 35 27 40 86 59 54 70
REMARK Flexibility Score: inf
ROOT
ATOM      1  C   UNL A   1      34.460  33.497  27.894  1.00  0.00     0.023 C 
ENDROOT
BRANCH   1   2
ATOM      2  C   UNL A   1      33.895  32.090  27.760  1.00  0.00     0.116 C 
BRANCH   2   3
ATOM      3  N   UNL A   1      34.868  31.015  27.867  1.00  0.00    -0.352 N 
ATOM      4  C   UNL A   1      34.825  29.719  27.394  1.00  0.00     0.251 C 
ATOM      5  O   UNL A   1      35.781  28.973  27.597  1.00  0.00    -0.269 OA
ATOM      6  H   UNL A   1      35.690  31.248  28.356  1.00  0.00     0.163 HD
BRANCH   4   7
ATOM      7  C   UNL A   1      33.618  29.177  26.713  1.00  0.00     0.041 A 
ATOM      8  C   UNL A   1      32.518  27.396  25.487  1.00  0.00     0.052 A 
ATOM      9  C   UNL A   1      31.522  28.307  25.098  1.00  0.00     0.027 A 
ATOM     10  C   UNL A   1      33.483  27.821  26.405  1.00  0.00     0.040 A 
ATOM     11  C   UNL A   1      31.560  29.635  25.531  1.00  0.00     0.003 A 
ATOM     12  C   UNL A   1      32.629  30.079  26.307  1.00  0.00     0.014 A 
BRANCH   8  13
ATOM     13  N   UNL A   1      32.635  26.096  24.862  1.00  0.00    -0.251 N 
ATOM     14  C   UNL A   1      33.183  22.586  25.712  1.00  0.00     0.031 C 
ATOM     15  C   UNL A   1      32.824  23.662  24.978  1.00  0.00     0.103 C 
ATOM     16  C   UNL A   1      32.578  24.956  25.684  1.00  0.00     0.270 C 
ATOM     17  C   UNL A   1      32.630  23.745  23.537  1.00  0.00     0.226 C 
ATOM     18  O   UNL A   1      32.355  24.962  26.893  1.00  0.00    -0.268 OA
ATOM     19  N   UNL A   1      32.648  24.812  22.835  1.00  0.00    -0.184 NA
ATOM     20  C   UNL A   1      32.930  25.993  23.479  1.00  0.00     0.210 C 
ATOM     21  S   UNL A   1      33.685  27.203  22.547  1.00  0.00    -0.038 S 
BRANCH  14  22
ATOM     22  C   UNL A   1      33.459  21.209  25.247  1.00  0.00     0.021 A 
ATOM     23  C   UNL A   1      34.767  20.828  24.850  1.00  0.00     0.130 A 
ATOM     24  C   UNL A   1      35.101  19.488  24.627  1.00  0.00     0.097 A 
ATOM     25  C   UNL A   1      34.092  18.559  24.703  1.00  0.00     0.169 A 
ATOM     26  C   UNL A   1      32.442  20.240  25.205  1.00  0.00     0.062 A 
ATOM     27  C   UNL A   1      32.795  18.928  24.960  1.00  0.00     0.166 A 
ATOM     28  O   UNL A   1      34.234  17.217  24.548  1.00  0.00    -0.453 OA
ATOM     29  O   UNL A   1      31.952  17.859  24.992  1.00  0.00    -0.454 OA
ATOM     30  C   UNL A   1      32.885  16.775  24.800  1.00  0.00     0.468 C 
BRANCH  23  31
ATOM     31  O   UNL A   1      35.771  21.761  24.742  1.00  0.00    -0.493 OA
BRANCH  31  32
ATOM     32  C   UNL A   1      37.035  21.131  24.457  1.00  0.00     0.226 C 
ATOM     33  C   UNL A   1      38.092  21.496  25.490  1.00  0.00     0.049 C 
ENDBRANCH  31  32
ENDBRANCH  23  31
ENDBRANCH  14  22
BRANCH  17  34
ATOM     34  O   UNL A   1      32.351  22.616  22.885  1.00  0.00    -0.493 OA
ATOM     35  H   UNL A   1      33.046  22.061  22.590  1.00  0.00     0.295 HD
ENDBRANCH  17  34
ENDBRANCH   8  13
ENDBRANCH   4   7
ENDBRANCH   2   3
ENDBRANCH   1   2
BRANCH   1  36
ATOM     36  C   UNL A   1      33.497  34.578  28.367  1.00  0.00     0.023 C 
BRANCH  36  37
ATOM     37  C   UNL A   1      33.890  35.321  29.640  1.00  0.00     0.116 C 
BRANCH  37  38
ATOM     38  N   UNL A   1      32.783  35.547  30.557  1.00  0.00    -0.352 N 
ATOM     39  C   UNL A   1      32.697  35.338  31.918  1.00  0.00     0.251 C 
ATOM     40  H   UNL A   1      31.966  35.906  30.142  1.00  0.00     0.163 HD
ATOM     41  O   UNL A   1      31.633  35.525  32.494  1.00  0.00    -0.269 OA
BRANCH  39  42
ATOM     42  C   UNL A   1      33.874  34.837  32.663  1.00  0.00     0.039 A 
ATOM     43  C   UNL A   1      33.860  33.521  33.136  1.00  0.00     0.014 A 
ATOM     44  C   UNL A   1      35.004  35.634  32.844  1.00  0.00     0.014 A 
ATOM     45  C   UNL A   1      35.026  32.967  33.672  1.00  0.00     0.010 A 
ATOM     46  C   UNL A   1      36.186  35.059  33.305  1.00  0.00     0.010 A 
ATOM     47  C   UNL A   1      36.217  33.710  33.694  1.00  0.00    -0.014 A 
BRANCH  47  48
ATOM     48  C   UNL A   1      37.519  33.088  34.047  1.00  0.00     0.031 A 
ATOM     49  C   UNL A   1      38.066  31.954  33.228  1.00  0.00     0.074 A 
ATOM     50  C   UNL A   1      38.154  33.475  35.173  1.00  0.00     0.049 A 
ATOM     51  N   UNL A   1      39.103  31.191  33.459  1.00  0.00    -0.248 NA
ATOM     52  C   UNL A   1      37.327  31.616  32.004  1.00  0.00     0.031 C 
ATOM     53  C   UNL A   1      37.705  34.540  36.074  1.00  0.00     0.029 A 
ATOM     54  N   UNL A   1      39.299  33.004  35.766  1.00  0.00    -0.354 N 
ATOM     55  C   UNL A   1      39.137  30.273  32.414  1.00  0.00     0.074 A 
ATOM     56  C   UNL A   1      37.981  30.543  31.584  1.00  0.00     0.031 C 
ATOM     57  C   UNL A   1      38.570  34.650  37.093  1.00  0.00     0.029 A 
ATOM     58  C   UNL A   1      39.604  33.630  36.954  1.00  0.00     0.049 A 
ATOM     59  H   UNL A   1      39.850  32.287  35.380  1.00  0.00     0.167 HD
ATOM     60  C   UNL A   1      40.058  29.309  32.162  1.00  0.00     0.034 A 
ATOM     61  C   UNL A   1      40.586  33.393  37.845  1.00  0.00     0.034 A 
ATOM     62  C   UNL A   1      41.207  29.057  32.999  1.00  0.00     0.049 A 
ATOM     63  C   UNL A   1      41.558  32.274  37.580  1.00  0.00     0.074 A 
ATOM     64  C   UNL A   1      42.242  28.159  32.796  1.00  0.00     0.029 A 
ATOM     65  N   UNL A   1      41.464  29.689  34.208  1.00  0.00    -0.354 N 
ATOM     66  N   UNL A   1      41.606  31.448  36.561  1.00  0.00    -0.248 NA
ATOM     67  C   UNL A   1      42.602  32.049  38.589  1.00  0.00     0.031 C 
ATOM     68  C   UNL A   1      43.085  28.201  33.913  1.00  0.00     0.029 A 
ATOM     69  C   UNL A   1      42.615  29.170  34.784  1.00  0.00     0.049 A 
ATOM     70  H   UNL A   1      40.910  30.403  34.601  1.00  0.00     0.167 HD
ATOM     71  C   UNL A   1      42.696  30.617  36.799  1.00  0.00     0.074 A 
ATOM     72  C   UNL A   1      43.284  31.050  38.052  1.00  0.00     0.031 C 
ATOM     73  C   UNL A   1      43.172  29.591  36.048  1.00  0.00     0.034 A 
BRANCH  60  74
ATOM     74  C   UNL A   1      39.836  28.443  30.945  1.00  0.00     0.023 A 
ATOM     75  C   UNL A   1      40.476  28.715  29.723  1.00  0.00     0.031 A 
ATOM     76  C   UNL A   1      38.944  27.358  30.993  1.00  0.00     0.131 A 
ATOM     77  C   UNL A   1      40.151  27.968  28.581  1.00  0.00     0.055 A 
ATOM     78  C   UNL A   1      38.688  26.566  29.872  1.00  0.00     0.041 A 
ATOM     79  F   UNL A   1      38.290  27.061  32.127  1.00  0.00    -0.206 F 
ATOM     80  C   UNL A   1      39.280  26.881  28.652  1.00  0.00     0.022 A 
BRANCH  77  81
ATOM     81  S   UNL A   1      40.767  28.540  26.973  1.00  0.00     0.124 S 
ATOM     82  O   UNL A   1      41.012  27.274  26.284  1.00  0.00    -0.237 OA
ATOM     83  O   UNL A   1      39.651  29.333  26.472  1.00  0.00    -0.237 OA
ATOM     84  O   UNL A   1      41.969  29.296  27.315  1.00  0.00    -0.744 OA
ENDBRANCH  77  81
ENDBRANCH  60  74
BRANCH  61  85
ATOM     85  C   UNL A   1      40.686  34.207  39.090  1.00  0.00     0.023 A 
ATOM     86  C   UNL A   1      39.912  33.895  40.218  1.00  0.00     0.031 A 
ATOM     87  C   UNL A   1      41.537  35.325  39.160  1.00  0.00     0.131 A 
ATOM     88  C   UNL A   1      39.979  34.711  41.358  1.00  0.00     0.055 A 
ATOM     89  C   UNL A   1      41.634  36.107  40.311  1.00  0.00     0.041 A 
ATOM     90  F   UNL A   1      42.303  35.661  38.109  1.00  0.00    -0.206 F 
ATOM     91  C   UNL A   1      40.844  35.806  41.417  1.00  0.00     0.022 A 
BRANCH  88  92
ATOM     92  S   UNL A   1      38.872  34.351  42.749  1.00  0.00     0.124 S 
ATOM     93  O   UNL A   1      39.750  34.570  43.893  1.00  0.00    -0.237 OA
ATOM     94  O   UNL A   1      37.811  35.334  42.555  1.00  0.00    -0.237 OA
ATOM     95  O   UNL A   1      38.479  32.962  42.520  1.00  0.00    -0.744 OA
ENDBRANCH  88  92
ENDBRANCH  61  85
BRANCH  73  96
ATOM     96  C   UNL A   1      44.400  28.883  36.560  1.00  0.00     0.023 A 
ATOM     97  C   UNL A   1      44.304  27.784  37.431  1.00  0.00     0.031 A 
ATOM     98  C   UNL A   1      45.680  29.317  36.176  1.00  0.00     0.131 A 
ATOM     99  C   UNL A   1      45.472  27.179  37.921  1.00  0.00     0.055 A 
ATOM    100  C   UNL A   1      46.837  28.681  36.626  1.00  0.00     0.041 A 
ATOM    101  F   UNL A   1      45.827  30.366  35.349  1.00  0.00    -0.206 F 
ATOM    102  C   UNL A   1      46.737  27.610  37.511  1.00  0.00     0.022 A 
BRANCH  99 103
ATOM    103  S   UNL A   1      45.319  25.856  39.152  1.00  0.00     0.124 S 
ATOM    104  O   UNL A   1      44.220  26.339  39.981  1.00  0.00    -0.237 OA
ATOM    105  O   UNL A   1      45.030  24.690  38.325  1.00  0.00    -0.237 OA
ATOM    106  O   UNL A   1      46.627  25.841  39.805  1.00  0.00    -0.744 OA
ENDBRANCH  99 103
ENDBRANCH  73  96
ENDBRANCH  47  48
ENDBRANCH  39  42
ENDBRANCH  37  38
ENDBRANCH  36  37
ENDBRANCH   1  36
TORSDOF 19
ENDMDL
