MODEL 1
REMARK VINA RESULT:     -11.2      0.000      0.000
REMARK SMILES C=CCN(CC(=O)NCCCCNC(=O)c1ccc(-c2c3nc(c(-c4cc(S(=O)(=O)[O-])ccc4F)c4ccc([nH]4)c(-c4cc(S(=O)(=O)[O-])ccc4F)c4nc(c(-c5cc(S(=O)(=O)[O-])ccc5F)c5ccc2[nH]5)C=C4)C=C3)cc1)c1ccc([N+](=O)[O-])cc1Br
REMARK SMILES IDX 10 1 9 2 8 3 6 4 7 5 5 7 4 8 3 9 2 10 1 11 79 12 80 13 87 14
REMARK SMILES IDX 81 15 86 16 88 17 82 18 83 19 84 20 85 21 11 22 12 23 13 24
REMARK SMILES IDX 14 25 15 27 16 28 17 29 78 30 18 31 77 32 19 33 20 34 21 35
REMARK SMILES IDX 71 36 22 37 76 38 70 39 72 40 23 41 75 42 69 43 68 44 24 46
REMARK SMILES IDX 56 47 36 48 55 49 37 50 40 51 54 52 73 53 38 54 39 55 53 57
REMARK SMILES IDX 74 58 41 59 25 60 26 61 34 62 27 63 33 64 35 65 32 66 28 67
REMARK SMILES IDX 29 68 30 69 31 70 57 71 58 72 66 73 59 74 65 75 67 76 64 77
REMARK SMILES IDX 60 78 61 79 62 80 63 81 42 82 43 83 51 84 44 85 50 86 52 87
REMARK SMILES IDX 49 88 45 89 46 90 47 91 48 92
REMARK H PARENT 8 6 13 26 72 45 40 56
REMARK Flexibility Score: inf
ROOT
ATOM      1  C   UNL A   1      31.368  27.482  26.833  1.00  0.00     0.023 C 
ENDROOT
BRANCH   1   2
ATOM      2  C   UNL A   1      32.020  26.140  26.497  1.00  0.00     0.116 C 
BRANCH   2   3
ATOM      3  N   UNL A   1      31.187  25.015  26.862  1.00  0.00    -0.355 N 
ATOM      4  C   UNL A   1      31.483  23.685  26.967  1.00  0.00     0.239 C 
ATOM      5  O   UNL A   1      30.566  22.940  27.330  1.00  0.00    -0.273 OA
ATOM      6  H   UNL A   1      30.252  25.245  27.067  1.00  0.00     0.163 HD
BRANCH   4   7
ATOM      7  C   UNL A   1      32.889  23.120  26.687  1.00  0.00     0.216 C 
BRANCH   7   8
ATOM      8  N   UNL A   1      33.157  22.611  25.320  1.00  0.00    -0.358 N 
BRANCH   8   9
ATOM      9  C   UNL A   1      32.738  23.430  24.182  1.00  0.00     0.144 C 
BRANCH   9  10
ATOM     10  C   UNL A   1      33.851  24.227  23.587  1.00  0.00    -0.014 C 
ATOM     11  C   UNL A   1      33.664  25.300  22.806  1.00  0.00     0.006 C 
ENDBRANCH   9  10
ENDBRANCH   8   9
BRANCH   8  12
ATOM     12  C   UNL A   1      33.424  21.254  25.122  1.00  0.00     0.052 A 
ATOM     13  C   UNL A   1      32.363  20.325  25.088  1.00  0.00     0.034 A 
ATOM     14  C   UNL A   1      34.720  20.724  24.927  1.00  0.00     0.048 A 
ATOM     15  C   UNL A   1      32.559  18.958  24.857  1.00  0.00     0.088 A 
ATOM     16  C   UNL A   1      34.928  19.366  24.628  1.00  0.00     0.103 A 
ATOM     17  Br  UNL A   1      36.314  21.729  25.208  1.00  0.00    -0.048 Br
ATOM     18  C   UNL A   1      33.843  18.491  24.603  1.00  0.00     0.270 A 
BRANCH  18  19
ATOM     19  N   UNL A   1      34.063  17.068  24.337  1.00  0.00     0.062 N 
ATOM     20  O   UNL A   1      35.022  16.518  24.897  1.00  0.00    -0.258 OA
ATOM     21  O   UNL A   1      33.277  16.501  23.565  1.00  0.00    -0.258 OA
ENDBRANCH  18  19
ENDBRANCH   8  12
ENDBRANCH   7   8
ENDBRANCH   4   7
ENDBRANCH   2   3
ENDBRANCH   1   2
BRANCH   1  22
ATOM     22  C   UNL A   1      31.424  28.532  25.722  1.00  0.00     0.023 C 
BRANCH  22  23
ATOM     23  C   UNL A   1      32.595  29.502  25.797  1.00  0.00     0.116 C 
BRANCH  23  24
ATOM     24  N   UNL A   1      32.206  30.844  26.204  1.00  0.00    -0.352 N 
ATOM     25  C   UNL A   1      32.825  31.692  27.095  1.00  0.00     0.251 C 
ATOM     26  H   UNL A   1      31.386  31.194  25.786  1.00  0.00     0.163 HD
ATOM     27  O   UNL A   1      32.291  32.743  27.402  1.00  0.00    -0.269 OA
BRANCH  25  28
ATOM     28  C   UNL A   1      34.117  31.293  27.704  1.00  0.00     0.039 A 
ATOM     29  C   UNL A   1      35.072  32.279  27.962  1.00  0.00     0.014 A 
ATOM     30  C   UNL A   1      34.375  29.961  28.042  1.00  0.00     0.014 A 
ATOM     31  C   UNL A   1      36.253  31.942  28.628  1.00  0.00     0.010 A 
ATOM     32  C   UNL A   1      35.519  29.641  28.769  1.00  0.00     0.010 A 
ATOM     33  C   UNL A   1      36.468  30.628  29.075  1.00  0.00    -0.014 A 
BRANCH  33  34
ATOM     34  C   UNL A   1      37.675  30.267  29.865  1.00  0.00     0.031 A 
ATOM     35  C   UNL A   1      38.703  29.332  29.286  1.00  0.00     0.074 A 
ATOM     36  C   UNL A   1      37.814  30.730  31.124  1.00  0.00     0.049 A 
ATOM     37  N   UNL A   1      39.771  28.827  29.846  1.00  0.00    -0.248 NA
ATOM     38  C   UNL A   1      38.481  28.885  27.902  1.00  0.00     0.031 C 
ATOM     39  C   UNL A   1      36.869  31.617  31.808  1.00  0.00     0.029 A 
ATOM     40  N   UNL A   1      38.797  30.515  32.057  1.00  0.00    -0.354 N 
ATOM     41  C   UNL A   1      40.347  27.998  28.889  1.00  0.00     0.074 A 
ATOM     42  C   UNL A   1      39.472  28.021  27.736  1.00  0.00     0.031 C 
ATOM     43  C   UNL A   1      37.330  31.887  33.040  1.00  0.00     0.029 A 
ATOM     44  C   UNL A   1      38.576  31.158  33.255  1.00  0.00     0.049 A 
ATOM     45  H   UNL A   1      39.588  29.954  31.887  1.00  0.00     0.167 HD
ATOM     46  C   UNL A   1      41.510  27.303  28.955  1.00  0.00     0.034 A 
ATOM     47  C   UNL A   1      39.287  31.147  34.400  1.00  0.00     0.034 A 
ATOM     48  C   UNL A   1      42.378  27.300  30.107  1.00  0.00     0.049 A 
ATOM     49  C   UNL A   1      40.560  30.337  34.460  1.00  0.00     0.074 A 
ATOM     50  C   UNL A   1      43.597  26.662  30.265  1.00  0.00     0.029 A 
ATOM     51  N   UNL A   1      42.122  27.963  31.301  1.00  0.00    -0.354 N 
ATOM     52  N   UNL A   1      41.109  29.591  33.530  1.00  0.00    -0.248 NA
ATOM     53  C   UNL A   1      41.312  30.375  35.721  1.00  0.00     0.031 C 
ATOM     54  C   UNL A   1      44.045  26.886  31.571  1.00  0.00     0.029 A 
ATOM     55  C   UNL A   1      43.145  27.727  32.206  1.00  0.00     0.049 A 
ATOM     56  H   UNL A   1      41.329  28.518  31.478  1.00  0.00     0.167 HD
ATOM     57  C   UNL A   1      42.292  29.106  34.083  1.00  0.00     0.074 A 
ATOM     58  C   UNL A   1      42.381  29.655  35.419  1.00  0.00     0.031 C 
ATOM     59  C   UNL A   1      43.222  28.283  33.536  1.00  0.00     0.034 A 
BRANCH  46  60
ATOM     60  C   UNL A   1      41.897  26.477  27.753  1.00  0.00     0.023 A 
ATOM     61  C   UNL A   1      41.514  25.130  27.631  1.00  0.00     0.031 A 
ATOM     62  C   UNL A   1      42.668  27.037  26.720  1.00  0.00     0.131 A 
ATOM     63  C   UNL A   1      41.957  24.371  26.537  1.00  0.00     0.055 A 
ATOM     64  C   UNL A   1      43.038  26.299  25.593  1.00  0.00     0.041 A 
ATOM     65  F   UNL A   1      43.082  28.313  26.790  1.00  0.00    -0.206 F 
ATOM     66  C   UNL A   1      42.694  24.953  25.504  1.00  0.00     0.022 A 
BRANCH  63  67
ATOM     67  S   UNL A   1      41.668  22.581  26.551  1.00  0.00     0.124 S 
ATOM     68  O   UNL A   1      42.418  22.152  25.374  1.00  0.00    -0.237 OA
ATOM     69  O   UNL A   1      42.220  22.181  27.841  1.00  0.00    -0.237 OA
ATOM     70  O   UNL A   1      40.216  22.467  26.432  1.00  0.00    -0.744 OA
ENDBRANCH  63  67
ENDBRANCH  46  60
BRANCH  47  71
ATOM     71  C   UNL A   1      38.823  31.912  35.595  1.00  0.00     0.023 A 
ATOM     72  C   UNL A   1      38.262  31.253  36.700  1.00  0.00     0.031 A 
ATOM     73  C   UNL A   1      38.867  33.318  35.620  1.00  0.00     0.131 A 
ATOM     74  C   UNL A   1      37.710  31.999  37.754  1.00  0.00     0.055 A 
ATOM     75  C   UNL A   1      38.373  34.053  36.699  1.00  0.00     0.041 A 
ATOM     76  F   UNL A   1      39.396  34.000  34.591  1.00  0.00    -0.206 F 
ATOM     77  C   UNL A   1      37.774  33.393  37.768  1.00  0.00     0.022 A 
BRANCH  74  78
ATOM     78  S   UNL A   1      36.803  31.117  39.055  1.00  0.00     0.124 S 
ATOM     79  O   UNL A   1      36.627  29.800  38.453  1.00  0.00    -0.237 OA
ATOM     80  O   UNL A   1      37.734  31.192  40.176  1.00  0.00    -0.237 OA
ATOM     81  O   UNL A   1      35.580  31.902  39.208  1.00  0.00    -0.744 OA
ENDBRANCH  74  78
ENDBRANCH  47  71
BRANCH  59  82
ATOM     82  C   UNL A   1      44.445  27.979  34.368  1.00  0.00     0.023 A 
ATOM     83  C   UNL A   1      44.502  26.865  35.223  1.00  0.00     0.031 A 
ATOM     84  C   UNL A   1      45.563  28.828  34.311  1.00  0.00     0.131 A 
ATOM     85  C   UNL A   1      45.631  26.661  36.030  1.00  0.00     0.055 A 
ATOM     86  C   UNL A   1      46.709  28.585  35.071  1.00  0.00     0.041 A 
ATOM     87  F   UNL A   1      45.564  29.908  33.513  1.00  0.00    -0.206 F 
ATOM     88  C   UNL A   1      46.742  27.505  35.947  1.00  0.00     0.022 A 
BRANCH  85  89
ATOM     89  S   UNL A   1      45.594  25.329  37.261  1.00  0.00     0.124 S 
ATOM     90  O   UNL A   1      45.204  26.045  38.472  1.00  0.00    -0.237 OA
ATOM     91  O   UNL A   1      44.595  24.421  36.707  1.00  0.00    -0.237 OA
ATOM     92  O   UNL A   1      46.964  24.818  37.255  1.00  0.00    -0.744 OA
ENDBRANCH  85  89
ENDBRANCH  59  82
ENDBRANCH  33  34
ENDBRANCH  25  28
ENDBRANCH  23  24
ENDBRANCH  22  23
ENDBRANCH   1  22
TORSDOF 19
ENDMDL
MODEL 2
REMARK VINA RESULT:     -11.2      1.441      7.674
REMARK SMILES C=CCN(CC(=O)NCCCCNC(=O)c1ccc(-c2c3nc(c(-c4cc(S(=O)(=O)[O-])ccc4F)c4ccc([nH]4)c(-c4cc(S(=O)(=O)[O-])ccc4F)c4nc(c(-c5cc(S(=O)(=O)[O-])ccc5F)c5ccc2[nH]5)C=C4)C=C3)cc1)c1ccc([N+](=O)[O-])cc1Br
REMARK SMILES IDX 10 1 9 2 8 3 6 4 7 5 5 7 4 8 3 9 2 10 1 11 79 12 80 13 87 14
REMARK SMILES IDX 81 15 86 16 88 17 82 18 83 19 84 20 85 21 11 22 12 23 13 24
REMARK SMILES IDX 14 25 15 27 16 28 17 29 78 30 18 31 77 32 19 33 20 34 21 35
REMARK SMILES IDX 71 36 22 37 76 38 70 39 72 40 23 41 75 42 69 43 68 44 24 46
REMARK SMILES IDX 56 47 36 48 55 49 37 50 40 51 54 52 73 53 38 54 39 55 53 57
REMARK SMILES IDX 74 58 41 59 25 60 26 61 34 62 27 63 33 64 35 65 32 66 28 67
REMARK SMILES IDX 29 68 30 69 31 70 57 71 58 72 66 73 59 74 65 75 67 76 64 77
REMARK SMILES IDX 60 78 61 79 62 80 63 81 42 82 43 83 51 84 44 85 50 86 52 87
REMARK SMILES IDX 49 88 45 89 46 90 47 91 48 92
REMARK H PARENT 8 6 13 26 72 45 40 56
REMARK Flexibility Score: inf
ROOT
ATOM      1  C   UNL A   1      31.925  27.525  25.734  1.00  0.00     0.023 C 
ENDROOT
BRANCH   1   2
ATOM      2  C   UNL A   1      30.589  26.781  25.687  1.00  0.00     0.116 C 
BRANCH   2   3
ATOM      3  N   UNL A   1      30.576  25.617  26.545  1.00  0.00    -0.355 N 
ATOM      4  C   UNL A   1      30.862  24.308  26.274  1.00  0.00     0.239 C 
ATOM      5  O   UNL A   1      30.792  23.518  27.223  1.00  0.00    -0.273 OA
ATOM      6  H   UNL A   1      30.316  25.796  27.478  1.00  0.00     0.163 HD
BRANCH   4   7
ATOM      7  C   UNL A   1      31.287  23.820  24.876  1.00  0.00     0.216 C 
BRANCH   7   8
ATOM      8  N   UNL A   1      32.617  23.174  24.758  1.00  0.00    -0.358 N 
BRANCH   8   9
ATOM      9  C   UNL A   1      33.769  24.014  24.429  1.00  0.00     0.144 C 
BRANCH   9  10
ATOM     10  C   UNL A   1      33.713  24.579  23.049  1.00  0.00    -0.014 C 
ATOM     11  C   UNL A   1      33.568  25.885  22.783  1.00  0.00     0.006 C 
ENDBRANCH   9  10
ENDBRANCH   8   9
BRANCH   8  12
ATOM     12  C   UNL A   1      32.705  21.792  24.571  1.00  0.00     0.052 A 
ATOM     13  C   UNL A   1      32.188  21.206  23.396  1.00  0.00     0.034 A 
ATOM     14  C   UNL A   1      33.313  20.907  25.491  1.00  0.00     0.048 A 
ATOM     15  C   UNL A   1      32.277  19.834  23.131  1.00  0.00     0.088 A 
ATOM     16  C   UNL A   1      33.469  19.539  25.210  1.00  0.00     0.103 A 
ATOM     17  Br  UNL A   1      33.824  21.421  27.253  1.00  0.00    -0.048 Br
ATOM     18  C   UNL A   1      32.942  19.011  24.032  1.00  0.00     0.270 A 
BRANCH  18  19
ATOM     19  N   UNL A   1      33.064  17.577  23.760  1.00  0.00     0.062 N 
ATOM     20  O   UNL A   1      33.403  17.234  22.619  1.00  0.00    -0.258 OA
ATOM     21  O   UNL A   1      32.816  16.795  24.689  1.00  0.00    -0.258 OA
ENDBRANCH  18  19
ENDBRANCH   8  12
ENDBRANCH   7   8
ENDBRANCH   4   7
ENDBRANCH   2   3
ENDBRANCH   1   2
BRANCH   1  22
ATOM     22  C   UNL A   1      31.824  29.037  25.948  1.00  0.00     0.023 C 
BRANCH  22  23
ATOM     23  C   UNL A   1      33.144  29.750  26.207  1.00  0.00     0.116 C 
BRANCH  23  24
ATOM     24  N   UNL A   1      32.976  31.106  26.711  1.00  0.00    -0.352 N 
ATOM     25  C   UNL A   1      33.784  31.815  27.570  1.00  0.00     0.251 C 
ATOM     26  H   UNL A   1      32.173  31.580  26.394  1.00  0.00     0.163 HD
ATOM     27  O   UNL A   1      33.426  32.907  27.976  1.00  0.00    -0.269 OA
BRANCH  25  28
ATOM     28  C   UNL A   1      35.064  31.221  28.026  1.00  0.00     0.039 A 
ATOM     29  C   UNL A   1      36.208  32.024  28.049  1.00  0.00     0.014 A 
ATOM     30  C   UNL A   1      35.131  29.892  28.453  1.00  0.00     0.014 A 
ATOM     31  C   UNL A   1      37.399  31.515  28.571  1.00  0.00     0.010 A 
ATOM     32  C   UNL A   1      36.300  29.411  29.039  1.00  0.00     0.010 A 
ATOM     33  C   UNL A   1      37.445  30.219  29.109  1.00  0.00    -0.014 A 
BRANCH  33  34
ATOM     34  C   UNL A   1      38.678  29.691  29.752  1.00  0.00     0.031 A 
ATOM     35  C   UNL A   1      39.126  30.235  31.082  1.00  0.00     0.074 A 
ATOM     36  C   UNL A   1      39.426  28.771  29.109  1.00  0.00     0.049 A 
ATOM     37  N   UNL A   1      40.214  29.973  31.759  1.00  0.00    -0.248 NA
ATOM     38  C   UNL A   1      38.245  31.225  31.719  1.00  0.00     0.031 C 
ATOM     39  C   UNL A   1      39.114  28.192  27.800  1.00  0.00     0.029 A 
ATOM     40  N   UNL A   1      40.607  28.166  29.463  1.00  0.00    -0.354 N 
ATOM     41  C   UNL A   1      40.155  30.769  32.898  1.00  0.00     0.074 A 
ATOM     42  C   UNL A   1      38.953  31.568  32.786  1.00  0.00     0.031 C 
ATOM     43  C   UNL A   1      40.065  27.301  27.474  1.00  0.00     0.029 A 
ATOM     44  C   UNL A   1      41.079  27.278  28.523  1.00  0.00     0.049 A 
ATOM     45  H   UNL A   1      41.073  28.350  30.311  1.00  0.00     0.167 HD
ATOM     46  C   UNL A   1      41.008  30.811  33.951  1.00  0.00     0.034 A 
ATOM     47  C   UNL A   1      42.209  26.542  28.501  1.00  0.00     0.034 A 
ATOM     48  C   UNL A   1      42.195  29.998  34.055  1.00  0.00     0.049 A 
ATOM     49  C   UNL A   1      43.160  26.634  29.670  1.00  0.00     0.074 A 
ATOM     50  C   UNL A   1      43.108  29.934  35.095  1.00  0.00     0.029 A 
ATOM     51  N   UNL A   1      42.641  29.110  33.084  1.00  0.00    -0.354 N 
ATOM     52  N   UNL A   1      43.065  27.363  30.757  1.00  0.00    -0.248 NA
ATOM     53  C   UNL A   1      44.365  25.796  29.611  1.00  0.00     0.031 C 
ATOM     54  C   UNL A   1      44.134  29.058  34.727  1.00  0.00     0.029 A 
ATOM     55  C   UNL A   1      43.826  28.516  33.490  1.00  0.00     0.049 A 
ATOM     56  H   UNL A   1      42.182  28.930  32.232  1.00  0.00     0.167 HD
ATOM     57  C   UNL A   1      44.179  27.038  31.529  1.00  0.00     0.074 A 
ATOM     58  C   UNL A   1      44.920  26.040  30.788  1.00  0.00     0.031 C 
ATOM     59  C   UNL A   1      44.555  27.520  32.741  1.00  0.00     0.034 A 
BRANCH  46  60
ATOM     60  C   UNL A   1      40.692  31.779  35.065  1.00  0.00     0.023 A 
ATOM     61  C   UNL A   1      39.714  31.493  36.033  1.00  0.00     0.031 A 
ATOM     62  C   UNL A   1      41.368  33.009  35.156  1.00  0.00     0.131 A 
ATOM     63  C   UNL A   1      39.391  32.450  37.008  1.00  0.00     0.055 A 
ATOM     64  C   UNL A   1      41.100  33.922  36.178  1.00  0.00     0.041 A 
ATOM     65  F   UNL A   1      42.298  33.346  34.249  1.00  0.00    -0.206 F 
ATOM     66  C   UNL A   1      40.096  33.651  37.104  1.00  0.00     0.022 A 
BRANCH  63  67
ATOM     67  S   UNL A   1      37.949  32.155  38.067  1.00  0.00     0.124 S 
ATOM     68  O   UNL A   1      37.104  33.300  37.738  1.00  0.00    -0.237 OA
ATOM     69  O   UNL A   1      37.475  30.856  37.601  1.00  0.00    -0.237 OA
ATOM     70  O   UNL A   1      38.507  32.168  39.418  1.00  0.00    -0.744 OA
ENDBRANCH  63  67
ENDBRANCH  46  60
BRANCH  47  71
ATOM     71  C   UNL A   1      42.523  25.660  27.340  1.00  0.00     0.023 A 
ATOM     72  C   UNL A   1      42.077  24.329  27.303  1.00  0.00     0.031 A 
ATOM     73  C   UNL A   1      43.335  26.110  26.283  1.00  0.00     0.131 A 
ATOM     74  C   UNL A   1      42.496  23.477  26.268  1.00  0.00     0.055 A 
ATOM     75  C   UNL A   1      43.698  25.276  25.223  1.00  0.00     0.041 A 
ATOM     76  F   UNL A   1      43.788  27.374  26.264  1.00  0.00    -0.206 F 
ATOM     77  C   UNL A   1      43.292  23.945  25.222  1.00  0.00     0.022 A 
BRANCH  74  78
ATOM     78  S   UNL A   1      42.078  21.716  26.375  1.00  0.00     0.124 S 
ATOM     79  O   UNL A   1      40.678  21.717  25.965  1.00  0.00    -0.237 OA
ATOM     80  O   UNL A   1      43.023  21.123  25.434  1.00  0.00    -0.237 OA
ATOM     81  O   UNL A   1      42.316  21.394  27.781  1.00  0.00    -0.744 OA
ENDBRANCH  74  78
ENDBRANCH  47  71
BRANCH  59  82
ATOM     82  C   UNL A   1      45.794  26.923  33.363  1.00  0.00     0.023 A 
ATOM     83  C   UNL A   1      45.740  25.773  34.168  1.00  0.00     0.031 A 
ATOM     84  C   UNL A   1      47.046  27.528  33.157  1.00  0.00     0.131 A 
ATOM     85  C   UNL A   1      46.906  25.295  34.784  1.00  0.00     0.055 A 
ATOM     86  C   UNL A   1      48.214  27.011  33.721  1.00  0.00     0.041 A 
ATOM     87  F   UNL A   1      47.157  28.630  32.397  1.00  0.00    -0.206 F 
ATOM     88  C   UNL A   1      48.146  25.898  34.552  1.00  0.00     0.022 A 
BRANCH  85  89
ATOM     89  S   UNL A   1      46.769  23.928  35.968  1.00  0.00     0.124 S 
ATOM     90  O   UNL A   1      47.079  22.771  35.134  1.00  0.00    -0.237 OA
ATOM     91  O   UNL A   1      47.772  24.280  36.968  1.00  0.00    -0.237 OA
ATOM     92  O   UNL A   1      45.384  24.010  36.427  1.00  0.00    -0.744 OA
ENDBRANCH  85  89
ENDBRANCH  59  82
ENDBRANCH  33  34
ENDBRANCH  25  28
ENDBRANCH  23  24
ENDBRANCH  22  23
ENDBRANCH   1  22
TORSDOF 19
ENDMDL
MODEL 3
REMARK VINA RESULT:     -11.1      3.700      5.002
REMARK SMILES C=CCN(CC(=O)NCCCCNC(=O)c1ccc(-c2c3nc(c(-c4cc(S(=O)(=O)[O-])ccc4F)c4ccc([nH]4)c(-c4cc(S(=O)(=O)[O-])ccc4F)c4nc(c(-c5cc(S(=O)(=O)[O-])ccc5F)c5ccc2[nH]5)C=C4)C=C3)cc1)c1ccc([N+](=O)[O-])cc1Br
REMARK SMILES IDX 10 1 9 2 8 3 6 4 7 5 5 7 4 8 3 9 2 10 1 11 79 12 80 13 87 14
REMARK SMILES IDX 81 15 86 16 88 17 82 18 83 19 84 20 85 21 11 22 12 23 13 24
REMARK SMILES IDX 14 25 15 27 16 28 17 29 78 30 18 31 77 32 19 33 20 34 21 35
REMARK SMILES IDX 71 36 22 37 76 38 70 39 72 40 23 41 75 42 69 43 68 44 24 46
REMARK SMILES IDX 56 47 36 48 55 49 37 50 40 51 54 52 73 53 38 54 39 55 53 57
REMARK SMILES IDX 74 58 41 59 25 60 26 61 34 62 27 63 33 64 35 65 32 66 28 67
REMARK SMILES IDX 29 68 30 69 31 70 57 71 58 72 66 73 59 74 65 75 67 76 64 77
REMARK SMILES IDX 60 78 61 79 62 80 63 81 42 82 43 83 51 84 44 85 50 86 52 87
REMARK SMILES IDX 49 88 45 89 46 90 47 91 48 92
REMARK H PARENT 8 6 13 26 72 45 40 56
REMARK Flexibility Score: inf
ROOT
ATOM      1  C   UNL A   1      34.427  30.665  27.894  1.00  0.00     0.023 C 
ENDROOT
BRANCH   1   2
ATOM      2  C   UNL A   1      34.121  29.298  27.281  1.00  0.00     0.116 C 
BRANCH   2   3
ATOM      3  N   UNL A   1      32.806  28.814  27.642  1.00  0.00    -0.355 N 
ATOM      4  C   UNL A   1      32.092  27.745  27.176  1.00  0.00     0.239 C 
ATOM      5  O   UNL A   1      30.987  27.550  27.693  1.00  0.00    -0.273 OA
ATOM      6  H   UNL A   1      32.350  29.341  28.337  1.00  0.00     0.163 HD
BRANCH   4   7
ATOM      7  C   UNL A   1      32.629  26.796  26.088  1.00  0.00     0.216 C 
BRANCH   7   8
ATOM      8  N   UNL A   1      32.512  27.244  24.679  1.00  0.00    -0.358 N 
BRANCH   8   9
ATOM      9  C   UNL A   1      33.738  27.373  23.889  1.00  0.00     0.144 C 
BRANCH   9  10
ATOM     10  C   UNL A   1      33.518  27.192  22.424  1.00  0.00    -0.014 C 
ATOM     11  C   UNL A   1      33.223  26.015  21.855  1.00  0.00     0.006 C 
ENDBRANCH   9  10
ENDBRANCH   8   9
BRANCH   8  12
ATOM     12  C   UNL A   1      31.352  27.892  24.247  1.00  0.00     0.052 A 
ATOM     13  C   UNL A   1      31.259  29.298  24.327  1.00  0.00     0.034 A 
ATOM     14  C   UNL A   1      30.231  27.226  23.700  1.00  0.00     0.048 A 
ATOM     15  C   UNL A   1      30.141  30.011  23.878  1.00  0.00     0.088 A 
ATOM     16  C   UNL A   1      29.129  27.930  23.185  1.00  0.00     0.103 A 
ATOM     17  Br  UNL A   1      30.012  25.333  23.752  1.00  0.00    -0.048 Br
ATOM     18  C   UNL A   1      29.090  29.320  23.285  1.00  0.00     0.270 A 
BRANCH  18  19
ATOM     19  N   UNL A   1      27.922  30.052  22.790  1.00  0.00     0.062 N 
ATOM     20  O   UNL A   1      27.746  30.097  21.566  1.00  0.00    -0.258 OA
ATOM     21  O   UNL A   1      27.184  30.586  23.631  1.00  0.00    -0.258 OA
ENDBRANCH  18  19
ENDBRANCH   8  12
ENDBRANCH   7   8
ENDBRANCH   4   7
ENDBRANCH   2   3
ENDBRANCH   1   2
BRANCH   1  22
ATOM     22  C   UNL A   1      33.289  31.686  27.816  1.00  0.00     0.023 C 
BRANCH  22  23
ATOM     23  C   UNL A   1      33.657  33.030  27.202  1.00  0.00     0.116 C 
BRANCH  23  24
ATOM     24  N   UNL A   1      32.991  34.156  27.840  1.00  0.00    -0.352 N 
ATOM     25  C   UNL A   1      33.264  34.749  29.052  1.00  0.00     0.251 C 
ATOM     26  H   UNL A   1      32.240  34.546  27.336  1.00  0.00     0.163 HD
ATOM     27  O   UNL A   1      32.525  35.617  29.482  1.00  0.00    -0.269 OA
BRANCH  25  28
ATOM     28  C   UNL A   1      34.435  34.293  29.840  1.00  0.00     0.039 A 
ATOM     29  C   UNL A   1      34.217  33.508  30.975  1.00  0.00     0.014 A 
ATOM     30  C   UNL A   1      35.739  34.613  29.448  1.00  0.00     0.014 A 
ATOM     31  C   UNL A   1      35.308  32.982  31.672  1.00  0.00     0.010 A 
ATOM     32  C   UNL A   1      36.821  34.029  30.101  1.00  0.00     0.010 A 
ATOM     33  C   UNL A   1      36.618  33.203  31.216  1.00  0.00    -0.014 A 
BRANCH  33  34
ATOM     34  C   UNL A   1      37.787  32.577  31.890  1.00  0.00     0.031 A 
ATOM     35  C   UNL A   1      38.548  31.473  31.207  1.00  0.00     0.074 A 
ATOM     36  C   UNL A   1      38.122  32.959  33.140  1.00  0.00     0.049 A 
ATOM     37  N   UNL A   1      39.533  30.742  31.663  1.00  0.00    -0.248 NA
ATOM     38  C   UNL A   1      38.125  31.128  29.842  1.00  0.00     0.031 C 
ATOM     39  C   UNL A   1      37.439  33.995  33.919  1.00  0.00     0.029 A 
ATOM     40  N   UNL A   1      39.114  32.517  33.979  1.00  0.00    -0.354 N 
ATOM     41  C   UNL A   1      39.844  29.846  30.645  1.00  0.00     0.074 A 
ATOM     42  C   UNL A   1      38.899  30.086  29.575  1.00  0.00     0.031 C 
ATOM     43  C   UNL A   1      38.048  34.123  35.109  1.00  0.00     0.029 A 
ATOM     44  C   UNL A   1      39.130  33.149  35.202  1.00  0.00     0.049 A 
ATOM     45  H   UNL A   1      39.755  31.812  33.730  1.00  0.00     0.167 HD
ATOM     46  C   UNL A   1      40.840  28.927  30.597  1.00  0.00     0.034 A 
ATOM     47  C   UNL A   1      39.916  32.955  36.280  1.00  0.00     0.034 A 
ATOM     48  C   UNL A   1      41.783  28.708  31.667  1.00  0.00     0.049 A 
ATOM     49  C   UNL A   1      40.996  31.901  36.213  1.00  0.00     0.074 A 
ATOM     50  C   UNL A   1      42.853  27.831  31.707  1.00  0.00     0.029 A 
ATOM     51  N   UNL A   1      41.768  29.369  32.889  1.00  0.00    -0.354 N 
ATOM     52  N   UNL A   1      41.300  31.091  35.226  1.00  0.00    -0.248 NA
ATOM     53  C   UNL A   1      41.842  31.743  37.403  1.00  0.00     0.031 C 
ATOM     54  C   UNL A   1      43.445  27.914  32.971  1.00  0.00     0.029 A 
ATOM     55  C   UNL A   1      42.793  28.899  33.697  1.00  0.00     0.049 A 
ATOM     56  H   UNL A   1      41.123  30.067  33.145  1.00  0.00     0.167 HD
ATOM     57  C   UNL A   1      42.400  30.357  35.664  1.00  0.00     0.074 A 
ATOM     58  C   UNL A   1      42.711  30.831  36.996  1.00  0.00     0.031 C 
ATOM     59  C   UNL A   1      43.092  29.381  35.024  1.00  0.00     0.034 A 
BRANCH  46  60
ATOM     60  C   UNL A   1      40.948  28.082  29.352  1.00  0.00     0.023 A 
ATOM     61  C   UNL A   1      41.938  28.322  28.382  1.00  0.00     0.031 A 
ATOM     62  C   UNL A   1      40.045  27.029  29.122  1.00  0.00     0.131 A 
ATOM     63  C   UNL A   1      41.960  27.566  27.200  1.00  0.00     0.055 A 
ATOM     64  C   UNL A   1      40.123  26.227  27.981  1.00  0.00     0.041 A 
ATOM     65  F   UNL A   1      39.065  26.765  30.001  1.00  0.00    -0.206 F 
ATOM     66  C   UNL A   1      41.076  26.503  27.005  1.00  0.00     0.022 A 
BRANCH  63  67
ATOM     67  S   UNL A   1      43.075  28.079  25.865  1.00  0.00     0.124 S 
ATOM     68  O   UNL A   1      44.206  27.176  26.065  1.00  0.00    -0.237 OA
ATOM     69  O   UNL A   1      42.270  27.841  24.672  1.00  0.00    -0.237 OA
ATOM     70  O   UNL A   1      43.347  29.483  26.165  1.00  0.00    -0.744 OA
ENDBRANCH  63  67
ENDBRANCH  46  60
BRANCH  47  71
ATOM     71  C   UNL A   1      39.721  33.757  37.522  1.00  0.00     0.023 A 
ATOM     72  C   UNL A   1      38.950  33.263  38.587  1.00  0.00     0.031 A 
ATOM     73  C   UNL A   1      40.242  35.059  37.638  1.00  0.00     0.131 A 
ATOM     74  C   UNL A   1      38.667  34.085  39.689  1.00  0.00     0.055 A 
ATOM     75  C   UNL A   1      40.009  35.850  38.764  1.00  0.00     0.041 A 
ATOM     76  F   UNL A   1      40.989  35.582  36.652  1.00  0.00    -0.206 F 
ATOM     77  C   UNL A   1      39.203  35.370  39.791  1.00  0.00     0.022 A 
BRANCH  74  78
ATOM     78  S   UNL A   1      37.492  33.488  40.935  1.00  0.00     0.124 S 
ATOM     79  O   UNL A   1      36.480  32.844  40.104  1.00  0.00    -0.237 OA
ATOM     80  O   UNL A   1      38.327  32.599  41.736  1.00  0.00    -0.237 OA
ATOM     81  O   UNL A   1      37.060  34.711  41.609  1.00  0.00    -0.744 OA
ENDBRANCH  74  78
ENDBRANCH  47  71
BRANCH  59  82
ATOM     82  C   UNL A   1      44.291  28.807  35.739  1.00  0.00     0.023 A 
ATOM     83  C   UNL A   1      44.174  27.734  36.640  1.00  0.00     0.031 A 
ATOM     84  C   UNL A   1      45.568  29.353  35.524  1.00  0.00     0.131 A 
ATOM     85  C   UNL A   1      45.304  27.279  37.335  1.00  0.00     0.055 A 
ATOM     86  C   UNL A   1      46.700  28.855  36.172  1.00  0.00     0.041 A 
ATOM     87  F   UNL A   1      45.739  30.380  34.675  1.00  0.00    -0.206 F 
ATOM     88  C   UNL A   1      46.570  27.822  37.094  1.00  0.00     0.022 A 
BRANCH  85  89
ATOM     89  S   UNL A   1      45.085  26.028  38.630  1.00  0.00     0.124 S 
ATOM     90  O   UNL A   1      46.464  25.659  38.933  1.00  0.00    -0.237 OA
ATOM     91  O   UNL A   1      44.381  26.773  39.668  1.00  0.00    -0.237 OA
ATOM     92  O   UNL A   1      44.295  24.988  37.972  1.00  0.00    -0.744 OA
ENDBRANCH  85  89
ENDBRANCH  59  82
ENDBRANCH  33  34
ENDBRANCH  25  28
ENDBRANCH  23  24
ENDBRANCH  22  23
ENDBRANCH   1  22
TORSDOF 19
ENDMDL
