MODEL 1
REMARK VINA RESULT:     -12.5      0.000      0.000
REMARK SMILES C[C@@](CC(=O)Nc1ccc(NC(=O)c2ccco2)cc1)(C(=O)NCCCCNC(=O)c1ccc(-c2c3nc(c(-c4cc(S(=O)(=O)[O-])ccc4F)c4ccc([nH]4)c(-c4cc(S(=O)(=O)[O-])ccc4F)c4nc(c(-c5cc(S(=O)(=O)[O-])ccc5F)c5ccc2[nH]5)C=C4)C=C3)cc1)c1ccccc1
REMARK SMILES IDX 24 1 23 2 21 3 22 4 2 6 1 7 3 8 4 9 5 10 6 11 7 13 8 14
REMARK SMILES IDX 20 15 9 16 19 17 10 18 11 19 12 20 13 22 14 23 15 24 18 25
REMARK SMILES IDX 16 26 17 27 94 28 95 29 99 30 96 31 98 32 97 33 25 34 26 35
REMARK SMILES IDX 27 36 28 37 29 38 30 40 31 41 32 42 93 43 33 44 92 45 34 46
REMARK SMILES IDX 35 47 36 48 86 49 37 50 91 51 85 52 87 53 38 54 90 55 84 56
REMARK SMILES IDX 83 57 39 59 71 60 51 61 70 62 52 63 55 64 69 65 88 66 53 67
REMARK SMILES IDX 54 68 68 70 89 71 56 72 40 73 41 74 49 75 42 76 48 77 50 78
REMARK SMILES IDX 47 79 43 80 44 81 45 82 46 83 72 84 73 85 81 86 74 87 80 88
REMARK SMILES IDX 82 89 79 90 75 91 76 92 77 93 78 94 57 95 58 96 66 97 59 98
REMARK SMILES IDX 65 99 67 100 64 101 60 102 61 103 62 104 63 105
REMARK H PARENT 23 5 6 12 11 21 28 39 87 58 55 69
REMARK Flexibility Score: inf
ROOT
ATOM      1  C   UNL A   1      31.588  29.660  24.998  1.00  0.00     0.116 C 
ENDROOT
BRANCH   1   2
ATOM      2  N   UNL A   1      32.881  29.540  24.353  1.00  0.00    -0.355 N 
ATOM      3  C   UNL A   1      33.356  28.699  23.376  1.00  0.00     0.230 C 
ATOM      4  O   UNL A   1      34.435  29.047  22.889  1.00  0.00    -0.274 OA
ATOM      5  H   UNL A   1      33.548  30.189  24.678  1.00  0.00     0.163 HD
BRANCH   3   6
ATOM      6  C   UNL A   1      32.636  27.352  22.989  1.00  0.00     0.080 C 
ATOM      7  C   UNL A   1      31.259  27.831  22.454  1.00  0.00     0.027 C 
BRANCH   6   8
ATOM      8  C   UNL A   1      33.526  26.428  22.098  1.00  0.00     0.121 C 
BRANCH   8   9
ATOM      9  C   UNL A   1      32.958  25.489  21.062  1.00  0.00     0.225 C 
ATOM     10  O   UNL A   1      32.671  25.922  19.939  1.00  0.00    -0.275 OA
ATOM     11  N   UNL A   1      32.753  24.156  21.267  1.00  0.00    -0.326 N 
ATOM     12  H   UNL A   1      32.491  23.682  20.445  1.00  0.00     0.169 HD
BRANCH  11  13
ATOM     13  C   UNL A   1      32.830  23.302  22.380  1.00  0.00     0.041 A 
ATOM     14  C   UNL A   1      31.624  22.893  22.956  1.00  0.00     0.028 A 
ATOM     15  C   UNL A   1      34.005  22.868  22.973  1.00  0.00     0.028 A 
ATOM     16  C   UNL A   1      31.608  22.044  24.076  1.00  0.00     0.028 A 
ATOM     17  C   UNL A   1      33.999  22.057  24.109  1.00  0.00     0.028 A 
ATOM     18  C   UNL A   1      32.801  21.584  24.630  1.00  0.00     0.041 A 
BRANCH  18  19
ATOM     19  N   UNL A   1      32.911  20.666  25.683  1.00  0.00    -0.319 N 
ATOM     20  C   UNL A   1      32.937  19.289  25.704  1.00  0.00     0.291 C 
ATOM     21  H   UNL A   1      32.984  21.082  26.573  1.00  0.00     0.170 HD
ATOM     22  O   UNL A   1      32.923  18.741  26.809  1.00  0.00    -0.265 OA
BRANCH  20  23
ATOM     23  C   UNL A   1      33.072  18.558  24.469  1.00  0.00     0.191 A 
ATOM     24  C   UNL A   1      32.233  18.398  23.378  1.00  0.00     0.056 A 
ATOM     25  O   UNL A   1      34.222  17.847  24.265  1.00  0.00    -0.459 OA
ATOM     26  C   UNL A   1      32.884  17.504  22.495  1.00  0.00     0.043 A 
ATOM     27  C   UNL A   1      34.090  17.199  23.081  1.00  0.00     0.196 A 
ENDBRANCH  20  23
ENDBRANCH  18  19
ENDBRANCH  11  13
ENDBRANCH   8   9
ENDBRANCH   6   8
BRANCH   6  28
ATOM     28  C   UNL A   1      32.329  26.377  24.204  1.00  0.00    -0.032 A 
ATOM     29  C   UNL A   1      33.381  25.878  25.013  1.00  0.00     0.005 A 
ATOM     30  C   UNL A   1      31.025  26.129  24.666  1.00  0.00     0.005 A 
ATOM     31  C   UNL A   1      33.146  25.121  26.164  1.00  0.00     0.000 A 
ATOM     32  C   UNL A   1      30.787  25.372  25.822  1.00  0.00     0.000 A 
ATOM     33  C   UNL A   1      31.845  24.861  26.567  1.00  0.00     0.000 A 
ENDBRANCH   6  28
ENDBRANCH   3   6
ENDBRANCH   1   2
BRANCH   1  34
ATOM     34  C   UNL A   1      31.488  30.658  26.145  1.00  0.00     0.023 C 
BRANCH  34  35
ATOM     35  C   UNL A   1      32.555  30.567  27.222  1.00  0.00     0.023 C 
BRANCH  35  36
ATOM     36  C   UNL A   1      33.543  31.721  27.287  1.00  0.00     0.116 C 
BRANCH  36  37
ATOM     37  N   UNL A   1      32.938  33.027  27.511  1.00  0.00    -0.352 N 
ATOM     38  C   UNL A   1      33.307  34.001  28.415  1.00  0.00     0.251 C 
ATOM     39  H   UNL A   1      32.164  33.243  26.942  1.00  0.00     0.163 HD
ATOM     40  O   UNL A   1      32.664  35.042  28.494  1.00  0.00    -0.269 OA
BRANCH  38  41
ATOM     41  C   UNL A   1      34.442  33.740  29.330  1.00  0.00     0.039 A 
ATOM     42  C   UNL A   1      34.227  32.952  30.462  1.00  0.00     0.014 A 
ATOM     43  C   UNL A   1      35.728  34.180  29.011  1.00  0.00     0.014 A 
ATOM     44  C   UNL A   1      35.320  32.506  31.209  1.00  0.00     0.010 A 
ATOM     45  C   UNL A   1      36.819  33.664  29.701  1.00  0.00     0.010 A 
ATOM     46  C   UNL A   1      36.628  32.807  30.796  1.00  0.00    -0.014 A 
BRANCH  46  47
ATOM     47  C   UNL A   1      37.815  32.224  31.476  1.00  0.00     0.031 A 
ATOM     48  C   UNL A   1      38.576  31.103  30.825  1.00  0.00     0.074 A 
ATOM     49  C   UNL A   1      38.144  32.631  32.720  1.00  0.00     0.049 A 
ATOM     50  N   UNL A   1      39.543  30.367  31.306  1.00  0.00    -0.248 NA
ATOM     51  C   UNL A   1      38.159  30.736  29.463  1.00  0.00     0.031 C 
ATOM     52  C   UNL A   1      37.447  33.667  33.487  1.00  0.00     0.029 A 
ATOM     53  N   UNL A   1      39.138  32.208  33.568  1.00  0.00    -0.354 N 
ATOM     54  C   UNL A   1      39.833  29.431  30.319  1.00  0.00     0.074 A 
ATOM     55  C   UNL A   1      38.897  29.661  29.238  1.00  0.00     0.031 C 
ATOM     56  C   UNL A   1      38.044  33.808  34.682  1.00  0.00     0.029 A 
ATOM     57  C   UNL A   1      39.138  32.850  34.785  1.00  0.00     0.049 A 
ATOM     58  H   UNL A   1      39.788  31.510  33.328  1.00  0.00     0.167 HD
ATOM     59  C   UNL A   1      40.803  28.483  30.304  1.00  0.00     0.034 A 
ATOM     60  C   UNL A   1      39.922  32.676  35.867  1.00  0.00     0.034 A 
ATOM     61  C   UNL A   1      41.747  28.283  31.376  1.00  0.00     0.049 A 
ATOM     62  C   UNL A   1      41.012  31.636  35.818  1.00  0.00     0.074 A 
ATOM     63  C   UNL A   1      42.805  27.394  31.442  1.00  0.00     0.029 A 
ATOM     64  N   UNL A   1      41.747  28.989  32.573  1.00  0.00    -0.354 N 
ATOM     65  N   UNL A   1      41.300  30.788  34.860  1.00  0.00    -0.248 NA
ATOM     66  C   UNL A   1      41.888  31.542  36.994  1.00  0.00     0.031 C 
ATOM     67  C   UNL A   1      43.417  27.530  32.694  1.00  0.00     0.029 A 
ATOM     68  C   UNL A   1      42.777  28.543  33.387  1.00  0.00     0.049 A 
ATOM     69  H   UNL A   1      41.109  29.700  32.808  1.00  0.00     0.167 HD
ATOM     70  C   UNL A   1      42.406  30.073  35.308  1.00  0.00     0.074 A 
ATOM     71  C   UNL A   1      42.741  30.600  36.616  1.00  0.00     0.031 C 
ATOM     72  C   UNL A   1      43.089  29.075  34.692  1.00  0.00     0.034 A 
BRANCH  59  73
ATOM     73  C   UNL A   1      40.867  27.586  29.093  1.00  0.00     0.023 A 
ATOM     74  C   UNL A   1      41.810  27.798  28.072  1.00  0.00     0.031 A 
ATOM     75  C   UNL A   1      39.943  26.539  28.930  1.00  0.00     0.131 A 
ATOM     76  C   UNL A   1      41.753  27.036  26.897  1.00  0.00     0.055 A 
ATOM     77  C   UNL A   1      39.945  25.728  27.793  1.00  0.00     0.041 A 
ATOM     78  F   UNL A   1      39.008  26.300  29.863  1.00  0.00    -0.206 F 
ATOM     79  C   UNL A   1      40.843  25.985  26.759  1.00  0.00     0.022 A 
BRANCH  76  80
ATOM     80  S   UNL A   1      42.785  27.536  25.492  1.00  0.00     0.124 S 
ATOM     81  O   UNL A   1      42.715  26.350  24.640  1.00  0.00    -0.237 OA
ATOM     82  O   UNL A   1      42.093  28.720  24.996  1.00  0.00    -0.237 OA
ATOM     83  O   UNL A   1      44.092  27.784  26.097  1.00  0.00    -0.744 OA
ENDBRANCH  76  80
ENDBRANCH  59  73
BRANCH  60  84
ATOM     84  C   UNL A   1      39.710  33.494  37.092  1.00  0.00     0.023 A 
ATOM     85  C   UNL A   1      39.081  32.952  38.223  1.00  0.00     0.031 A 
ATOM     86  C   UNL A   1      40.104  34.844  37.137  1.00  0.00     0.131 A 
ATOM     87  C   UNL A   1      38.822  33.765  39.337  1.00  0.00     0.055 A 
ATOM     88  C   UNL A   1      39.883  35.638  38.264  1.00  0.00     0.041 A 
ATOM     89  F   UNL A   1      40.721  35.405  36.086  1.00  0.00    -0.206 F 
ATOM     90  C   UNL A   1      39.227  35.102  39.369  1.00  0.00     0.022 A 
BRANCH  87  91
ATOM     91  S   UNL A   1      37.886  33.066  40.724  1.00  0.00     0.124 S 
ATOM     92  O   UNL A   1      36.546  32.964  40.159  1.00  0.00    -0.237 OA
ATOM     93  O   UNL A   1      38.583  31.804  40.952  1.00  0.00    -0.237 OA
ATOM     94  O   UNL A   1      38.045  34.063  41.780  1.00  0.00    -0.744 OA
ENDBRANCH  87  91
ENDBRANCH  60  84
BRANCH  72  95
ATOM     95  C   UNL A   1      44.291  28.527  35.416  1.00  0.00     0.023 A 
ATOM     96  C   UNL A   1      44.171  27.514  36.384  1.00  0.00     0.031 A 
ATOM     97  C   UNL A   1      45.571  29.038  35.141  1.00  0.00     0.131 A 
ATOM     98  C   UNL A   1      45.310  27.077  37.077  1.00  0.00     0.055 A 
ATOM     99  C   UNL A   1      46.706  28.565  35.800  1.00  0.00     0.041 A 
ATOM    100  F   UNL A   1      45.738  30.007  34.226  1.00  0.00    -0.206 F 
ATOM    101  C   UNL A   1      46.577  27.587  36.782  1.00  0.00     0.022 A 
BRANCH  98 102
ATOM    102  S   UNL A   1      45.104  25.881  38.425  1.00  0.00     0.124 S 
ATOM    103  O   UNL A   1      46.457  25.791  38.962  1.00  0.00    -0.237 OA
ATOM    104  O   UNL A   1      44.121  26.541  39.280  1.00  0.00    -0.237 OA
ATOM    105  O   UNL A   1      44.624  24.679  37.747  1.00  0.00    -0.744 OA
ENDBRANCH  98 102
ENDBRANCH  72  95
ENDBRANCH  46  47
ENDBRANCH  38  41
ENDBRANCH  36  37
ENDBRANCH  35  36
ENDBRANCH  34  35
ENDBRANCH   1  34
TORSDOF 20
ENDMDL
MODEL 2
REMARK VINA RESULT:     -12.4      1.708      2.136
REMARK SMILES C[C@@](CC(=O)Nc1ccc(NC(=O)c2ccco2)cc1)(C(=O)NCCCCNC(=O)c1ccc(-c2c3nc(c(-c4cc(S(=O)(=O)[O-])ccc4F)c4ccc([nH]4)c(-c4cc(S(=O)(=O)[O-])ccc4F)c4nc(c(-c5cc(S(=O)(=O)[O-])ccc5F)c5ccc2[nH]5)C=C4)C=C3)cc1)c1ccccc1
REMARK SMILES IDX 24 1 23 2 21 3 22 4 2 6 1 7 3 8 4 9 5 10 6 11 7 13 8 14
REMARK SMILES IDX 20 15 9 16 19 17 10 18 11 19 12 20 13 22 14 23 15 24 18 25
REMARK SMILES IDX 16 26 17 27 94 28 95 29 99 30 96 31 98 32 97 33 25 34 26 35
REMARK SMILES IDX 27 36 28 37 29 38 30 40 31 41 32 42 93 43 33 44 92 45 34 46
REMARK SMILES IDX 35 47 36 48 86 49 37 50 91 51 85 52 87 53 38 54 90 55 84 56
REMARK SMILES IDX 83 57 39 59 71 60 51 61 70 62 52 63 55 64 69 65 88 66 53 67
REMARK SMILES IDX 54 68 68 70 89 71 56 72 40 73 41 74 49 75 42 76 48 77 50 78
REMARK SMILES IDX 47 79 43 80 44 81 45 82 46 83 72 84 73 85 81 86 74 87 80 88
REMARK SMILES IDX 82 89 79 90 75 91 76 92 77 93 78 94 57 95 58 96 66 97 59 98
REMARK SMILES IDX 65 99 67 100 64 101 60 102 61 103 62 104 63 105
REMARK H PARENT 23 5 6 12 11 21 28 39 87 58 55 69
REMARK Flexibility Score: inf
ROOT
ATOM      1  C   UNL A   1      31.648  29.473  25.227  1.00  0.00     0.116 C 
ENDROOT
BRANCH   1   2
ATOM      2  N   UNL A   1      32.810  29.498  24.361  1.00  0.00    -0.355 N 
ATOM      3  C   UNL A   1      33.199  28.705  23.308  1.00  0.00     0.230 C 
ATOM      4  O   UNL A   1      34.126  29.172  22.639  1.00  0.00    -0.274 OA
ATOM      5  H   UNL A   1      33.443  30.225  24.566  1.00  0.00     0.163 HD
BRANCH   3   6
ATOM      6  C   UNL A   1      32.588  27.278  23.045  1.00  0.00     0.080 C 
ATOM      7  C   UNL A   1      31.188  27.599  22.452  1.00  0.00     0.027 C 
BRANCH   6   8
ATOM      8  C   UNL A   1      33.558  26.341  22.259  1.00  0.00     0.121 C 
BRANCH   8   9
ATOM      9  C   UNL A   1      33.096  25.407  21.166  1.00  0.00     0.225 C 
ATOM     10  O   UNL A   1      32.882  25.855  20.033  1.00  0.00    -0.275 OA
ATOM     11  N   UNL A   1      32.915  24.066  21.333  1.00  0.00    -0.326 N 
ATOM     12  H   UNL A   1      32.728  23.601  20.484  1.00  0.00     0.169 HD
BRANCH  11  13
ATOM     13  C   UNL A   1      32.933  23.193  22.432  1.00  0.00     0.041 A 
ATOM     14  C   UNL A   1      31.698  22.793  22.952  1.00  0.00     0.028 A 
ATOM     15  C   UNL A   1      34.076  22.731  23.066  1.00  0.00     0.028 A 
ATOM     16  C   UNL A   1      31.623  21.927  24.055  1.00  0.00     0.028 A 
ATOM     17  C   UNL A   1      34.010  21.901  24.187  1.00  0.00     0.028 A 
ATOM     18  C   UNL A   1      32.785  21.439  24.651  1.00  0.00     0.041 A 
BRANCH  18  19
ATOM     19  N   UNL A   1      32.838  20.503  25.691  1.00  0.00    -0.319 N 
ATOM     20  C   UNL A   1      32.870  19.126  25.688  1.00  0.00     0.291 C 
ATOM     21  H   UNL A   1      32.855  20.902  26.591  1.00  0.00     0.170 HD
ATOM     22  O   UNL A   1      32.793  18.557  26.781  1.00  0.00    -0.265 OA
BRANCH  20  23
ATOM     23  C   UNL A   1      33.083  18.417  24.451  1.00  0.00     0.191 A 
ATOM     24  C   UNL A   1      32.420  18.437  23.235  1.00  0.00     0.056 A 
ATOM     25  O   UNL A   1      34.116  17.525  24.390  1.00  0.00    -0.459 OA
ATOM     26  C   UNL A   1      33.049  17.470  22.415  1.00  0.00     0.043 A 
ATOM     27  C   UNL A   1      34.074  16.944  23.165  1.00  0.00     0.196 A 
ENDBRANCH  20  23
ENDBRANCH  18  19
ENDBRANCH  11  13
ENDBRANCH   8   9
ENDBRANCH   6   8
BRANCH   6  28
ATOM     28  C   UNL A   1      32.330  26.403  24.346  1.00  0.00    -0.032 A 
ATOM     29  C   UNL A   1      31.016  26.003  24.698  1.00  0.00     0.005 A 
ATOM     30  C   UNL A   1      33.372  25.814  25.082  1.00  0.00     0.005 A 
ATOM     31  C   UNL A   1      30.757  25.131  25.759  1.00  0.00     0.000 A 
ATOM     32  C   UNL A   1      33.115  24.937  26.146  1.00  0.00     0.000 A 
ATOM     33  C   UNL A   1      31.810  24.602  26.490  1.00  0.00     0.000 A 
ENDBRANCH   6  28
ENDBRANCH   3   6
ENDBRANCH   1   2
BRANCH   1  34
ATOM     34  C   UNL A   1      31.822  30.067  26.619  1.00  0.00     0.023 C 
BRANCH  34  35
ATOM     35  C   UNL A   1      31.350  31.498  26.813  1.00  0.00     0.023 C 
BRANCH  35  36
ATOM     36  C   UNL A   1      32.391  32.584  26.589  1.00  0.00     0.116 C 
BRANCH  36  37
ATOM     37  N   UNL A   1      32.204  33.782  27.397  1.00  0.00    -0.352 N 
ATOM     38  C   UNL A   1      33.030  34.299  28.372  1.00  0.00     0.251 C 
ATOM     39  H   UNL A   1      31.378  34.289  27.224  1.00  0.00     0.163 HD
ATOM     40  O   UNL A   1      32.704  35.311  28.982  1.00  0.00    -0.269 OA
BRANCH  38  41
ATOM     41  C   UNL A   1      34.277  33.577  28.715  1.00  0.00     0.039 A 
ATOM     42  C   UNL A   1      35.489  34.270  28.676  1.00  0.00     0.014 A 
ATOM     43  C   UNL A   1      34.232  32.261  29.178  1.00  0.00     0.014 A 
ATOM     44  C   UNL A   1      36.637  33.681  29.212  1.00  0.00     0.010 A 
ATOM     45  C   UNL A   1      35.352  31.712  29.791  1.00  0.00     0.010 A 
ATOM     46  C   UNL A   1      36.562  32.422  29.831  1.00  0.00    -0.014 A 
BRANCH  46  47
ATOM     47  C   UNL A   1      37.726  31.833  30.545  1.00  0.00     0.031 A 
ATOM     48  C   UNL A   1      38.573  30.794  29.866  1.00  0.00     0.074 A 
ATOM     49  C   UNL A   1      37.956  32.156  31.835  1.00  0.00     0.049 A 
ATOM     50  N   UNL A   1      39.537  30.059  30.356  1.00  0.00    -0.248 NA
ATOM     51  C   UNL A   1      38.261  30.516  28.455  1.00  0.00     0.031 C 
ATOM     52  C   UNL A   1      37.168  33.104  32.627  1.00  0.00     0.029 A 
ATOM     53  N   UNL A   1      38.910  31.706  32.714  1.00  0.00    -0.354 N 
ATOM     54  C   UNL A   1      39.930  29.212  29.324  1.00  0.00     0.074 A 
ATOM     55  C   UNL A   1      39.057  29.489  28.202  1.00  0.00     0.031 C 
ATOM     56  C   UNL A   1      37.680  33.176  33.866  1.00  0.00     0.029 A 
ATOM     57  C   UNL A   1      38.804  32.253  33.972  1.00  0.00     0.049 A 
ATOM     58  H   UNL A   1      39.603  31.053  32.468  1.00  0.00     0.167 HD
ATOM     59  C   UNL A   1      40.937  28.305  29.305  1.00  0.00     0.034 A 
ATOM     60  C   UNL A   1      39.524  32.026  35.089  1.00  0.00     0.034 A 
ATOM     61  C   UNL A   1      41.817  28.059  30.422  1.00  0.00     0.049 A 
ATOM     62  C   UNL A   1      40.656  31.035  35.038  1.00  0.00     0.074 A 
ATOM     63  C   UNL A   1      42.905  27.207  30.493  1.00  0.00     0.029 A 
ATOM     64  N   UNL A   1      41.710  28.670  31.664  1.00  0.00    -0.354 N 
ATOM     65  N   UNL A   1      41.041  30.272  34.042  1.00  0.00    -0.248 NA
ATOM     66  C   UNL A   1      41.458  30.883  36.260  1.00  0.00     0.031 C 
ATOM     67  C   UNL A   1      43.429  27.269  31.791  1.00  0.00     0.029 A 
ATOM     68  C   UNL A   1      42.703  28.203  32.511  1.00  0.00     0.049 A 
ATOM     69  H   UNL A   1      41.029  29.338  31.907  1.00  0.00     0.167 HD
ATOM     70  C   UNL A   1      42.146  29.567  34.510  1.00  0.00     0.074 A 
ATOM     71  C   UNL A   1      42.372  30.004  35.873  1.00  0.00     0.031 C 
ATOM     72  C   UNL A   1      42.907  28.644  33.870  1.00  0.00     0.034 A 
BRANCH  59  73
ATOM     73  C   UNL A   1      41.117  27.505  28.038  1.00  0.00     0.023 A 
ATOM     74  C   UNL A   1      40.787  26.140  27.980  1.00  0.00     0.031 A 
ATOM     75  C   UNL A   1      41.671  28.099  26.892  1.00  0.00     0.131 A 
ATOM     76  C   UNL A   1      41.096  25.394  26.834  1.00  0.00     0.055 A 
ATOM     77  C   UNL A   1      41.899  27.369  25.723  1.00  0.00     0.041 A 
ATOM     78  F   UNL A   1      42.022  29.395  26.894  1.00  0.00    -0.206 F 
ATOM     79  C   UNL A   1      41.628  26.003  25.695  1.00  0.00     0.022 A 
BRANCH  76  80
ATOM     80  S   UNL A   1      40.933  23.589  26.909  1.00  0.00     0.124 S 
ATOM     81  O   UNL A   1      41.340  23.314  28.285  1.00  0.00    -0.237 OA
ATOM     82  O   UNL A   1      39.521  23.386  26.609  1.00  0.00    -0.237 OA
ATOM     83  O   UNL A   1      41.863  23.117  25.885  1.00  0.00    -0.744 OA
ENDBRANCH  76  80
ENDBRANCH  59  73
BRANCH  60  84
ATOM     84  C   UNL A   1      39.199  32.741  36.354  1.00  0.00     0.023 A 
ATOM     85  C   UNL A   1      39.828  33.951  36.682  1.00  0.00     0.031 A 
ATOM     86  C   UNL A   1      38.279  32.203  37.272  1.00  0.00     0.131 A 
ATOM     87  C   UNL A   1      39.563  34.566  37.916  1.00  0.00     0.055 A 
ATOM     88  C   UNL A   1      37.987  32.839  38.480  1.00  0.00     0.041 A 
ATOM     89  F   UNL A   1      37.643  31.053  37.000  1.00  0.00    -0.206 F 
ATOM     90  C   UNL A   1      38.640  34.022  38.813  1.00  0.00     0.022 A 
BRANCH  87  91
ATOM     91  S   UNL A   1      40.496  36.056  38.361  1.00  0.00     0.124 S 
ATOM     92  O   UNL A   1      40.423  36.029  39.817  1.00  0.00    -0.237 OA
ATOM     93  O   UNL A   1      41.805  35.777  37.779  1.00  0.00    -0.237 OA
ATOM     94  O   UNL A   1      39.746  37.132  37.718  1.00  0.00    -0.744 OA
ENDBRANCH  87  91
ENDBRANCH  60  84
BRANCH  72  95
ATOM     95  C   UNL A   1      44.082  28.088  34.631  1.00  0.00     0.023 A 
ATOM     96  C   UNL A   1      43.913  27.165  35.678  1.00  0.00     0.031 A 
ATOM     97  C   UNL A   1      45.388  28.500  34.311  1.00  0.00     0.131 A 
ATOM     98  C   UNL A   1      45.030  26.719  36.400  1.00  0.00     0.055 A 
ATOM     99  C   UNL A   1      46.498  28.017  35.002  1.00  0.00     0.041 A 
ATOM    100  F   UNL A   1      45.601  29.381  33.320  1.00  0.00    -0.206 F 
ATOM    101  C   UNL A   1      46.322  27.130  36.060  1.00  0.00     0.022 A 
BRANCH  98 102
ATOM    102  S   UNL A   1      44.767  25.650  37.841  1.00  0.00     0.124 S 
ATOM    103  O   UNL A   1      43.605  26.269  38.471  1.00  0.00    -0.237 OA
ATOM    104  O   UNL A   1      44.539  24.346  37.224  1.00  0.00    -0.237 OA
ATOM    105  O   UNL A   1      46.015  25.769  38.590  1.00  0.00    -0.744 OA
ENDBRANCH  98 102
ENDBRANCH  72  95
ENDBRANCH  46  47
ENDBRANCH  38  41
ENDBRANCH  36  37
ENDBRANCH  35  36
ENDBRANCH  34  35
ENDBRANCH   1  34
TORSDOF 20
ENDMDL
MODEL 3
REMARK VINA RESULT:     -12.1      1.530      7.365
REMARK SMILES C[C@@](CC(=O)Nc1ccc(NC(=O)c2ccco2)cc1)(C(=O)NCCCCNC(=O)c1ccc(-c2c3nc(c(-c4cc(S(=O)(=O)[O-])ccc4F)c4ccc([nH]4)c(-c4cc(S(=O)(=O)[O-])ccc4F)c4nc(c(-c5cc(S(=O)(=O)[O-])ccc5F)c5ccc2[nH]5)C=C4)C=C3)cc1)c1ccccc1
REMARK SMILES IDX 24 1 23 2 21 3 22 4 2 6 1 7 3 8 4 9 5 10 6 11 7 13 8 14
REMARK SMILES IDX 20 15 9 16 19 17 10 18 11 19 12 20 13 22 14 23 15 24 18 25
REMARK SMILES IDX 16 26 17 27 94 28 95 29 99 30 96 31 98 32 97 33 25 34 26 35
REMARK SMILES IDX 27 36 28 37 29 38 30 40 31 41 32 42 93 43 33 44 92 45 34 46
REMARK SMILES IDX 35 47 36 48 86 49 37 50 91 51 85 52 87 53 38 54 90 55 84 56
REMARK SMILES IDX 83 57 39 59 71 60 51 61 70 62 52 63 55 64 69 65 88 66 53 67
REMARK SMILES IDX 54 68 68 70 89 71 56 72 40 73 41 74 49 75 42 76 48 77 50 78
REMARK SMILES IDX 47 79 43 80 44 81 45 82 46 83 72 84 73 85 81 86 74 87 80 88
REMARK SMILES IDX 82 89 79 90 75 91 76 92 77 93 78 94 57 95 58 96 66 97 59 98
REMARK SMILES IDX 65 99 67 100 64 101 60 102 61 103 62 104 63 105
REMARK H PARENT 23 5 6 12 11 21 28 39 87 58 55 69
REMARK Flexibility Score: inf
ROOT
ATOM      1  C   UNL A   1      31.453  29.583  24.944  1.00  0.00     0.116 C 
ENDROOT
BRANCH   1   2
ATOM      2  N   UNL A   1      32.732  29.534  24.263  1.00  0.00    -0.355 N 
ATOM      3  C   UNL A   1      33.245  28.682  23.315  1.00  0.00     0.230 C 
ATOM      4  O   UNL A   1      34.277  29.090  22.774  1.00  0.00    -0.274 OA
ATOM      5  H   UNL A   1      33.352  30.251  24.531  1.00  0.00     0.163 HD
BRANCH   3   6
ATOM      6  C   UNL A   1      32.628  27.263  23.022  1.00  0.00     0.080 C 
ATOM      7  C   UNL A   1      31.205  27.600  22.498  1.00  0.00     0.027 C 
BRANCH   6   8
ATOM      8  C   UNL A   1      33.570  26.362  22.161  1.00  0.00     0.121 C 
BRANCH   8   9
ATOM      9  C   UNL A   1      33.067  25.466  21.055  1.00  0.00     0.225 C 
ATOM     10  O   UNL A   1      32.839  25.946  19.938  1.00  0.00    -0.275 OA
ATOM     11  N   UNL A   1      32.861  24.124  21.192  1.00  0.00    -0.326 N 
ATOM     12  H   UNL A   1      32.648  23.686  20.336  1.00  0.00     0.169 HD
BRANCH  11  13
ATOM     13  C   UNL A   1      32.883  23.224  22.269  1.00  0.00     0.041 A 
ATOM     14  C   UNL A   1      34.114  23.008  22.895  1.00  0.00     0.028 A 
ATOM     15  C   UNL A   1      31.792  22.505  22.731  1.00  0.00     0.028 A 
ATOM     16  C   UNL A   1      34.229  22.118  23.977  1.00  0.00     0.028 A 
ATOM     17  C   UNL A   1      31.906  21.590  23.780  1.00  0.00     0.028 A 
ATOM     18  C   UNL A   1      33.111  21.438  24.454  1.00  0.00     0.041 A 
BRANCH  18  19
ATOM     19  N   UNL A   1      33.082  20.601  25.577  1.00  0.00    -0.319 N 
ATOM     20  C   UNL A   1      33.043  19.229  25.702  1.00  0.00     0.291 C 
ATOM     21  H   UNL A   1      33.091  21.081  26.437  1.00  0.00     0.170 HD
ATOM     22  O   UNL A   1      32.902  18.769  26.838  1.00  0.00    -0.265 OA
BRANCH  20  23
ATOM     23  C   UNL A   1      33.259  18.400  24.543  1.00  0.00     0.191 A 
ATOM     24  C   UNL A   1      32.492  18.147  23.417  1.00  0.00     0.056 A 
ATOM     25  O   UNL A   1      34.419  17.681  24.473  1.00  0.00    -0.459 OA
ATOM     26  C   UNL A   1      33.200  17.187  22.653  1.00  0.00     0.043 A 
ATOM     27  C   UNL A   1      34.364  16.938  23.340  1.00  0.00     0.196 A 
ENDBRANCH  20  23
ENDBRANCH  18  19
ENDBRANCH  11  13
ENDBRANCH   8   9
ENDBRANCH   6   8
BRANCH   6  28
ATOM     28  C   UNL A   1      32.427  26.338  24.297  1.00  0.00    -0.032 A 
ATOM     29  C   UNL A   1      31.173  25.728  24.555  1.00  0.00     0.005 A 
ATOM     30  C   UNL A   1      33.497  25.910  25.100  1.00  0.00     0.005 A 
ATOM     31  C   UNL A   1      30.986  24.809  25.591  1.00  0.00     0.000 A 
ATOM     32  C   UNL A   1      33.313  24.986  26.139  1.00  0.00     0.000 A 
ATOM     33  C   UNL A   1      32.058  24.442  26.391  1.00  0.00     0.000 A 
ENDBRANCH   6  28
ENDBRANCH   3   6
ENDBRANCH   1   2
BRANCH   1  34
ATOM     34  C   UNL A   1      31.466  30.081  26.384  1.00  0.00     0.023 C 
BRANCH  34  35
ATOM     35  C   UNL A   1      31.206  31.563  26.596  1.00  0.00     0.023 C 
BRANCH  35  36
ATOM     36  C   UNL A   1      32.423  32.473  26.533  1.00  0.00     0.116 C 
BRANCH  36  37
ATOM     37  N   UNL A   1      32.338  33.660  27.374  1.00  0.00    -0.352 N 
ATOM     38  C   UNL A   1      33.226  34.098  28.334  1.00  0.00     0.251 C 
ATOM     39  H   UNL A   1      31.542  34.223  27.239  1.00  0.00     0.163 HD
ATOM     40  O   UNL A   1      32.985  35.113  28.978  1.00  0.00    -0.269 OA
BRANCH  38  41
ATOM     41  C   UNL A   1      34.433  33.289  28.620  1.00  0.00     0.039 A 
ATOM     42  C   UNL A   1      35.678  33.920  28.634  1.00  0.00     0.014 A 
ATOM     43  C   UNL A   1      34.319  31.945  28.980  1.00  0.00     0.014 A 
ATOM     44  C   UNL A   1      36.793  33.234  29.122  1.00  0.00     0.010 A 
ATOM     45  C   UNL A   1      35.408  31.294  29.548  1.00  0.00     0.010 A 
ATOM     46  C   UNL A   1      36.652  31.936  29.642  1.00  0.00    -0.014 A 
BRANCH  46  47
ATOM     47  C   UNL A   1      37.782  31.235  30.308  1.00  0.00     0.031 A 
ATOM     48  C   UNL A   1      38.128  31.560  31.735  1.00  0.00     0.074 A 
ATOM     49  C   UNL A   1      38.558  30.388  29.601  1.00  0.00     0.049 A 
ATOM     50  N   UNL A   1      39.151  31.172  32.450  1.00  0.00    -0.248 NA
ATOM     51  C   UNL A   1      37.219  32.482  32.434  1.00  0.00     0.031 C 
ATOM     52  C   UNL A   1      38.366  30.036  28.191  1.00  0.00     0.029 A 
ATOM     53  N   UNL A   1      39.677  29.681  29.966  1.00  0.00    -0.354 N 
ATOM     54  C   UNL A   1      39.026  31.822  33.673  1.00  0.00     0.074 A 
ATOM     55  C   UNL A   1      37.857  32.673  33.577  1.00  0.00     0.031 C 
ATOM     56  C   UNL A   1      39.323  29.171  27.818  1.00  0.00     0.029 A 
ATOM     57  C   UNL A   1      40.219  28.936  28.945  1.00  0.00     0.049 A 
ATOM     58  H   UNL A   1      40.057  29.707  30.873  1.00  0.00     0.167 HD
ATOM     59  C   UNL A   1      39.798  31.705  34.782  1.00  0.00     0.034 A 
ATOM     60  C   UNL A   1      41.321  28.161  28.915  1.00  0.00     0.034 A 
ATOM     61  C   UNL A   1      40.943  30.832  34.874  1.00  0.00     0.049 A 
ATOM     62  C   UNL A   1      42.149  28.023  30.166  1.00  0.00     0.074 A 
ATOM     63  C   UNL A   1      41.761  30.591  35.964  1.00  0.00     0.029 A 
ATOM     64  N   UNL A   1      41.431  30.054  33.832  1.00  0.00    -0.354 N 
ATOM     65  N   UNL A   1      41.993  28.612  31.328  1.00  0.00    -0.248 NA
ATOM     66  C   UNL A   1      43.295  27.105  30.102  1.00  0.00     0.031 C 
ATOM     67  C   UNL A   1      42.769  29.702  35.570  1.00  0.00     0.029 A 
ATOM     68  C   UNL A   1      42.546  29.344  34.251  1.00  0.00     0.049 A 
ATOM     69  H   UNL A   1      41.042  30.012  32.929  1.00  0.00     0.167 HD
ATOM     70  C   UNL A   1      43.008  28.118  32.141  1.00  0.00     0.074 A 
ATOM     71  C   UNL A   1      43.761  27.173  31.341  1.00  0.00     0.031 C 
ATOM     72  C   UNL A   1      43.289  28.414  33.435  1.00  0.00     0.034 A 
BRANCH  59  73
ATOM     73  C   UNL A   1      39.430  32.560  35.969  1.00  0.00     0.023 A 
ATOM     74  C   UNL A   1      38.652  32.053  37.025  1.00  0.00     0.031 A 
ATOM     75  C   UNL A   1      39.815  33.911  36.023  1.00  0.00     0.131 A 
ATOM     76  C   UNL A   1      38.209  32.911  38.042  1.00  0.00     0.055 A 
ATOM     77  C   UNL A   1      39.441  34.739  37.083  1.00  0.00     0.041 A 
ATOM     78  F   UNL A   1      40.543  34.455  35.035  1.00  0.00    -0.206 F 
ATOM     79  C   UNL A   1      38.618  34.245  38.093  1.00  0.00     0.022 A 
BRANCH  76  80
ATOM     80  S   UNL A   1      36.970  32.293  39.213  1.00  0.00     0.124 S 
ATOM     81  O   UNL A   1      37.185  30.850  39.133  1.00  0.00    -0.237 OA
ATOM     82  O   UNL A   1      37.370  32.930  40.462  1.00  0.00    -0.237 OA
ATOM     83  O   UNL A   1      35.704  32.760  38.652  1.00  0.00    -0.744 OA
ENDBRANCH  76  80
ENDBRANCH  59  73
BRANCH  60  84
ATOM     84  C   UNL A   1      41.717  27.458  27.663  1.00  0.00     0.023 A 
ATOM     85  C   UNL A   1      41.622  26.063  27.558  1.00  0.00     0.031 A 
ATOM     86  C   UNL A   1      42.230  28.172  26.565  1.00  0.00     0.131 A 
ATOM     87  C   UNL A   1      42.074  25.416  26.396  1.00  0.00     0.055 A 
ATOM     88  C   UNL A   1      42.640  27.529  25.396  1.00  0.00     0.041 A 
ATOM     89  F   UNL A   1      42.330  29.509  26.613  1.00  0.00    -0.206 F 
ATOM     90  C   UNL A   1      42.574  26.141  25.312  1.00  0.00     0.022 A 
BRANCH  87  91
ATOM     91  S   UNL A   1      42.061  23.604  26.351  1.00  0.00     0.124 S 
ATOM     92  O   UNL A   1      40.633  23.313  26.404  1.00  0.00    -0.237 OA
ATOM     93  O   UNL A   1      42.726  23.329  25.081  1.00  0.00    -0.237 OA
ATOM     94  O   UNL A   1      42.819  23.228  27.543  1.00  0.00    -0.744 OA
ENDBRANCH  87  91
ENDBRANCH  60  84
BRANCH  72  95
ATOM     95  C   UNL A   1      44.434  27.668  34.069  1.00  0.00     0.023 A 
ATOM     96  C   UNL A   1      44.223  26.519  34.852  1.00  0.00     0.031 A 
ATOM     97  C   UNL A   1      45.753  28.123  33.898  1.00  0.00     0.131 A 
ATOM     98  C   UNL A   1      45.313  25.891  35.474  1.00  0.00     0.055 A 
ATOM     99  C   UNL A   1      46.836  27.467  34.481  1.00  0.00     0.041 A 
ATOM    100  F   UNL A   1      46.006  29.217  33.161  1.00  0.00    -0.206 F 
ATOM    101  C   UNL A   1      46.618  26.350  35.282  1.00  0.00     0.022 A 
BRANCH  98 102
ATOM    102  S   UNL A   1      44.993  24.505  36.599  1.00  0.00     0.124 S 
ATOM    103  O   UNL A   1      46.186  24.514  37.440  1.00  0.00    -0.237 OA
ATOM    104  O   UNL A   1      43.751  24.911  37.250  1.00  0.00    -0.237 OA
ATOM    105  O   UNL A   1      44.875  23.356  35.704  1.00  0.00    -0.744 OA
ENDBRANCH  98 102
ENDBRANCH  72  95
ENDBRANCH  46  47
ENDBRANCH  38  41
ENDBRANCH  36  37
ENDBRANCH  35  36
ENDBRANCH  34  35
ENDBRANCH   1  34
TORSDOF 20
ENDMDL
