MODEL 1
REMARK VINA RESULT:     -13.5      0.000      0.000
REMARK SMILES Cc1ccc(-c2cc(Cl)ccc2Cl)c(C(=O)NCCCCNC(=O)c2ccc(-c3c4nc(c(-c5cc(S(=O)(=O)[O-])ccc5F)c5ccc([nH]5)c(-c5cc(S(=O)(=O)[O-])ccc5F)c5nc(c(-c6cc(S(=O)(=O)[O-])ccc6F)c6ccc3[nH]6)C=C5)C=C4)cc2)c1
REMARK SMILES IDX 20 1 19 2 18 3 17 4 15 5 16 6 14 8 1 9 2 10 3 11 88 12 4 13
REMARK SMILES IDX 5 14 6 15 7 16 12 17 8 18 11 19 13 20 9 21 10 22 21 23 22 24
REMARK SMILES IDX 23 25 24 27 25 28 26 29 87 30 27 31 86 32 28 33 29 34 30 35
REMARK SMILES IDX 80 36 31 37 85 38 79 39 81 40 32 41 84 42 78 43 77 44 33 46
REMARK SMILES IDX 65 47 45 48 64 49 46 50 49 51 63 52 82 53 47 54 48 55 62 57
REMARK SMILES IDX 83 58 50 59 34 60 35 61 43 62 36 63 42 64 44 65 41 66 37 67
REMARK SMILES IDX 38 68 39 69 40 70 66 71 67 72 75 73 68 74 74 75 76 76 73 77
REMARK SMILES IDX 69 78 70 79 71 80 72 81 51 82 52 83 60 84 53 85 59 86 61 87
REMARK SMILES IDX 58 88 54 89 55 90 56 91 57 92
REMARK H PARENT 17 7 22 26 81 45 49 56
REMARK Flexibility Score: inf
ROOT
ATOM      1  C   UNL A   1      32.931  30.884  27.260  1.00  0.00     0.023 C 
ENDROOT
BRANCH   1   2
ATOM      2  C   UNL A   1      31.933  29.763  26.948  1.00  0.00     0.023 C 
BRANCH   2   3
ATOM      3  C   UNL A   1      32.559  28.489  26.352  1.00  0.00     0.116 C 
BRANCH   3   4
ATOM      4  N   UNL A   1      32.898  28.645  24.940  1.00  0.00    -0.352 N 
ATOM      5  C   UNL A   1      32.203  28.775  23.761  1.00  0.00     0.251 C 
ATOM      6  O   UNL A   1      32.925  28.930  22.773  1.00  0.00    -0.269 OA
ATOM      7  H   UNL A   1      33.871  28.663  24.796  1.00  0.00     0.163 HD
BRANCH   5   8
ATOM      8  C   UNL A   1      30.700  28.740  23.609  1.00  0.00     0.047 A 
ATOM      9  C   UNL A   1      27.848  31.234  23.036  1.00  0.00     0.044 C 
ATOM     10  C   UNL A   1      28.570  29.934  23.247  1.00  0.00    -0.050 A 
ATOM     11  C   UNL A   1      27.881  28.729  23.227  1.00  0.00     0.004 A 
ATOM     12  C   UNL A   1      29.955  29.923  23.465  1.00  0.00     0.018 A 
ATOM     13  C   UNL A   1      28.575  27.539  23.425  1.00  0.00     0.010 A 
ATOM     14  C   UNL A   1      29.981  27.508  23.611  1.00  0.00    -0.004 A 
BRANCH  14  15
ATOM     15  C   UNL A   1      30.578  26.168  23.830  1.00  0.00     0.003 A 
ATOM     16  C   UNL A   1      30.371  25.514  25.064  1.00  0.00     0.030 A 
ATOM     17  C   UNL A   1      31.305  25.475  22.839  1.00  0.00     0.049 A 
ATOM     18  C   UNL A   1      30.903  24.247  25.308  1.00  0.00     0.041 A 
ATOM     19  C   UNL A   1      31.816  24.193  23.082  1.00  0.00     0.023 A 
ATOM     20  Cl  UNL A   1      31.591  26.146  21.268  1.00  0.00    -0.084 Cl
ATOM     21  Cl  UNL A   1      30.664  23.495  26.838  1.00  0.00    -0.084 Cl
ATOM     22  C   UNL A   1      31.622  23.581  24.321  1.00  0.00     0.022 A 
ENDBRANCH  14  15
ENDBRANCH   5   8
ENDBRANCH   3   4
ENDBRANCH   2   3
ENDBRANCH   1   2
BRANCH   1  23
ATOM     23  C   UNL A   1      34.276  30.384  27.774  1.00  0.00     0.116 C 
BRANCH  23  24
ATOM     24  N   UNL A   1      35.036  31.334  28.575  1.00  0.00    -0.352 N 
ATOM     25  C   UNL A   1      36.217  31.119  29.274  1.00  0.00     0.251 C 
ATOM     26  H   UNL A   1      34.666  32.245  28.627  1.00  0.00     0.163 HD
ATOM     27  O   UNL A   1      36.680  31.961  30.024  1.00  0.00    -0.269 OA
BRANCH  25  28
ATOM     28  C   UNL A   1      36.984  29.877  28.994  1.00  0.00     0.039 A 
ATOM     29  C   UNL A   1      37.206  29.011  30.072  1.00  0.00     0.014 A 
ATOM     30  C   UNL A   1      37.682  29.712  27.800  1.00  0.00     0.014 A 
ATOM     31  C   UNL A   1      38.299  28.151  30.041  1.00  0.00     0.010 A 
ATOM     32  C   UNL A   1      38.819  28.926  27.802  1.00  0.00     0.010 A 
ATOM     33  C   UNL A   1      39.170  28.209  28.952  1.00  0.00    -0.014 A 
BRANCH  33  34
ATOM     34  C   UNL A   1      40.539  27.702  29.008  1.00  0.00     0.031 A 
ATOM     35  C   UNL A   1      40.855  26.313  28.619  1.00  0.00     0.074 A 
ATOM     36  C   UNL A   1      41.537  28.526  29.403  1.00  0.00     0.049 A 
ATOM     37  N   UNL A   1      41.934  25.696  28.965  1.00  0.00    -0.248 NA
ATOM     38  C   UNL A   1      39.925  25.463  27.882  1.00  0.00     0.031 C 
ATOM     39  C   UNL A   1      42.976  28.306  29.287  1.00  0.00     0.029 A 
ATOM     40  N   UNL A   1      41.424  29.630  30.247  1.00  0.00    -0.354 N 
ATOM     41  C   UNL A   1      41.984  24.512  28.272  1.00  0.00     0.074 A 
ATOM     42  C   UNL A   1      40.656  24.353  27.735  1.00  0.00     0.031 C 
ATOM     43  C   UNL A   1      43.605  29.049  30.209  1.00  0.00     0.029 A 
ATOM     44  C   UNL A   1      42.588  29.671  31.035  1.00  0.00     0.049 A 
ATOM     45  H   UNL A   1      40.670  30.262  30.285  1.00  0.00     0.167 HD
ATOM     46  C   UNL A   1      43.187  23.887  28.128  1.00  0.00     0.034 A 
ATOM     47  C   UNL A   1      42.521  29.591  32.394  1.00  0.00     0.034 A 
ATOM     48  C   UNL A   1      44.172  24.423  29.075  1.00  0.00     0.049 A 
ATOM     49  C   UNL A   1      43.247  28.396  32.968  1.00  0.00     0.074 A 
ATOM     50  C   UNL A   1      45.295  25.223  28.943  1.00  0.00     0.029 A 
ATOM     51  N   UNL A   1      43.913  24.340  30.443  1.00  0.00    -0.354 N 
ATOM     52  N   UNL A   1      43.656  27.376  32.263  1.00  0.00    -0.248 NA
ATOM     53  C   UNL A   1      43.555  28.250  34.387  1.00  0.00     0.031 C 
ATOM     54  C   UNL A   1      45.650  25.694  30.239  1.00  0.00     0.029 A 
ATOM     55  C   UNL A   1      44.777  25.142  31.164  1.00  0.00     0.049 A 
ATOM     56  H   UNL A   1      43.208  23.781  30.842  1.00  0.00     0.167 HD
ATOM     57  C   UNL A   1      44.226  26.440  33.091  1.00  0.00     0.074 A 
ATOM     58  C   UNL A   1      44.171  27.057  34.406  1.00  0.00     0.031 C 
ATOM     59  C   UNL A   1      44.671  25.233  32.619  1.00  0.00     0.034 A 
BRANCH  46  60
ATOM     60  C   UNL A   1      43.555  22.928  27.002  1.00  0.00     0.023 A 
ATOM     61  C   UNL A   1      42.892  21.680  26.923  1.00  0.00     0.031 A 
ATOM     62  C   UNL A   1      44.611  23.091  26.076  1.00  0.00     0.131 A 
ATOM     63  C   UNL A   1      43.289  20.686  26.001  1.00  0.00     0.055 A 
ATOM     64  C   UNL A   1      44.971  22.124  25.128  1.00  0.00     0.041 A 
ATOM     65  F   UNL A   1      45.404  24.165  26.057  1.00  0.00    -0.206 F 
ATOM     66  C   UNL A   1      44.317  20.908  25.092  1.00  0.00     0.022 A 
BRANCH  63  67
ATOM     67  S   UNL A   1      42.502  19.051  26.048  1.00  0.00     0.124 S 
ATOM     68  O   UNL A   1      42.466  18.767  27.480  1.00  0.00    -0.237 OA
ATOM     69  O   UNL A   1      41.220  19.304  25.402  1.00  0.00    -0.237 OA
ATOM     70  O   UNL A   1      43.422  18.209  25.281  1.00  0.00    -0.744 OA
ENDBRANCH  63  67
ENDBRANCH  46  60
BRANCH  47  71
ATOM     71  C   UNL A   1      41.301  30.236  32.957  1.00  0.00     0.023 A 
ATOM     72  C   UNL A   1      41.265  31.647  32.941  1.00  0.00     0.031 A 
ATOM     73  C   UNL A   1      40.089  29.549  33.101  1.00  0.00     0.131 A 
ATOM     74  C   UNL A   1      40.040  32.323  32.879  1.00  0.00     0.055 A 
ATOM     75  C   UNL A   1      38.867  30.236  33.120  1.00  0.00     0.041 A 
ATOM     76  F   UNL A   1      40.054  28.209  33.091  1.00  0.00    -0.206 F 
ATOM     77  C   UNL A   1      38.836  31.624  32.959  1.00  0.00     0.022 A 
BRANCH  74  78
ATOM     78  S   UNL A   1      40.042  34.080  32.400  1.00  0.00     0.124 S 
ATOM     79  O   UNL A   1      40.951  34.085  31.260  1.00  0.00    -0.237 OA
ATOM     80  O   UNL A   1      38.636  34.342  32.094  1.00  0.00    -0.237 OA
ATOM     81  O   UNL A   1      40.525  34.759  33.600  1.00  0.00    -0.744 OA
ENDBRANCH  74  78
ENDBRANCH  47  71
BRANCH  59  82
ATOM     82  C   UNL A   1      45.112  24.053  33.472  1.00  0.00     0.023 A 
ATOM     83  C   UNL A   1      46.421  23.876  33.947  1.00  0.00     0.031 A 
ATOM     84  C   UNL A   1      44.182  23.072  33.899  1.00  0.00     0.131 A 
ATOM     85  C   UNL A   1      46.784  22.748  34.709  1.00  0.00     0.055 A 
ATOM     86  C   UNL A   1      44.525  21.994  34.723  1.00  0.00     0.041 A 
ATOM     87  F   UNL A   1      42.888  23.122  33.546  1.00  0.00    -0.206 F 
ATOM     88  C   UNL A   1      45.839  21.814  35.119  1.00  0.00     0.022 A 
BRANCH  85  89
ATOM     89  S   UNL A   1      48.540  22.498  35.090  1.00  0.00     0.124 S 
ATOM     90  O   UNL A   1      49.115  23.787  34.718  1.00  0.00    -0.237 OA
ATOM     91  O   UNL A   1      48.512  22.208  36.520  1.00  0.00    -0.237 OA
ATOM     92  O   UNL A   1      48.925  21.377  34.236  1.00  0.00    -0.744 OA
ENDBRANCH  85  89
ENDBRANCH  59  82
ENDBRANCH  33  34
ENDBRANCH  25  28
ENDBRANCH  23  24
ENDBRANCH   1  23
TORSDOF 15
ENDMDL
MODEL 2
REMARK VINA RESULT:     -13.5      4.449     10.962
REMARK SMILES Cc1ccc(-c2cc(Cl)ccc2Cl)c(C(=O)NCCCCNC(=O)c2ccc(-c3c4nc(c(-c5cc(S(=O)(=O)[O-])ccc5F)c5ccc([nH]5)c(-c5cc(S(=O)(=O)[O-])ccc5F)c5nc(c(-c6cc(S(=O)(=O)[O-])ccc6F)c6ccc3[nH]6)C=C5)C=C4)cc2)c1
REMARK SMILES IDX 20 1 19 2 18 3 17 4 15 5 16 6 14 8 1 9 2 10 3 11 88 12 4 13
REMARK SMILES IDX 5 14 6 15 7 16 12 17 8 18 11 19 13 20 9 21 10 22 21 23 22 24
REMARK SMILES IDX 23 25 24 27 25 28 26 29 87 30 27 31 86 32 28 33 29 34 30 35
REMARK SMILES IDX 80 36 31 37 85 38 79 39 81 40 32 41 84 42 78 43 77 44 33 46
REMARK SMILES IDX 65 47 45 48 64 49 46 50 49 51 63 52 82 53 47 54 48 55 62 57
REMARK SMILES IDX 83 58 50 59 34 60 35 61 43 62 36 63 42 64 44 65 41 66 37 67
REMARK SMILES IDX 38 68 39 69 40 70 66 71 67 72 75 73 68 74 74 75 76 76 73 77
REMARK SMILES IDX 69 78 70 79 71 80 72 81 51 82 52 83 60 84 53 85 59 86 61 87
REMARK SMILES IDX 58 88 54 89 55 90 56 91 57 92
REMARK H PARENT 17 7 22 26 81 45 49 56
REMARK Flexibility Score: inf
ROOT
ATOM      1  C   UNL A   1      38.519  21.512  25.708  1.00  0.00     0.023 C 
ENDROOT
BRANCH   1   2
ATOM      2  C   UNL A   1      37.345  21.509  24.722  1.00  0.00     0.023 C 
BRANCH   2   3
ATOM      3  C   UNL A   1      36.299  22.614  24.960  1.00  0.00     0.116 C 
BRANCH   3   4
ATOM      4  N   UNL A   1      35.342  22.257  26.003  1.00  0.00    -0.352 N 
ATOM      5  C   UNL A   1      34.239  21.442  26.102  1.00  0.00     0.251 C 
ATOM      6  O   UNL A   1      33.743  21.413  27.230  1.00  0.00    -0.269 OA
ATOM      7  H   UNL A   1      35.536  22.716  26.851  1.00  0.00     0.163 HD
BRANCH   5   8
ATOM      8  C   UNL A   1      33.634  20.629  24.980  1.00  0.00     0.047 A 
ATOM      9  C   UNL A   1      33.703  17.002  23.749  1.00  0.00     0.044 C 
ATOM     10  C   UNL A   1      33.361  18.462  23.831  1.00  0.00    -0.050 A 
ATOM     11  C   UNL A   1      32.455  19.029  22.946  1.00  0.00     0.004 A 
ATOM     12  C   UNL A   1      33.954  19.272  24.810  1.00  0.00     0.018 A 
ATOM     13  C   UNL A   1      32.156  20.385  23.045  1.00  0.00     0.010 A 
ATOM     14  C   UNL A   1      32.721  21.210  24.051  1.00  0.00    -0.004 A 
BRANCH  14  15
ATOM     15  C   UNL A   1      32.324  22.639  24.018  1.00  0.00     0.003 A 
ATOM     16  C   UNL A   1      32.899  23.492  23.052  1.00  0.00     0.030 A 
ATOM     17  C   UNL A   1      31.347  23.189  24.875  1.00  0.00     0.049 A 
ATOM     18  C   UNL A   1      32.545  24.840  22.977  1.00  0.00     0.041 A 
ATOM     19  C   UNL A   1      30.979  24.538  24.778  1.00  0.00     0.023 A 
ATOM     20  Cl  UNL A   1      30.533  22.240  26.073  1.00  0.00    -0.084 Cl
ATOM     21  Cl  UNL A   1      33.295  25.861  21.811  1.00  0.00    -0.084 Cl
ATOM     22  C   UNL A   1      31.583  25.366  23.833  1.00  0.00     0.022 A 
ENDBRANCH  14  15
ENDBRANCH   5   8
ENDBRANCH   3   4
ENDBRANCH   2   3
ENDBRANCH   1   2
BRANCH   1  23
ATOM     23  C   UNL A   1      38.990  22.908  26.099  1.00  0.00     0.116 C 
BRANCH  23  24
ATOM     24  N   UNL A   1      40.398  23.022  26.452  1.00  0.00    -0.352 N 
ATOM     25  C   UNL A   1      41.109  24.164  26.798  1.00  0.00     0.251 C 
ATOM     26  H   UNL A   1      40.912  22.182  26.446  1.00  0.00     0.163 HD
ATOM     27  O   UNL A   1      42.320  24.148  26.936  1.00  0.00    -0.269 OA
BRANCH  25  28
ATOM     28  C   UNL A   1      40.345  25.397  27.125  1.00  0.00     0.039 A 
ATOM     29  C   UNL A   1      40.655  26.549  26.392  1.00  0.00     0.014 A 
ATOM     30  C   UNL A   1      39.564  25.479  28.276  1.00  0.00     0.014 A 
ATOM     31  C   UNL A   1      40.401  27.799  26.949  1.00  0.00     0.010 A 
ATOM     32  C   UNL A   1      39.394  26.715  28.872  1.00  0.00     0.010 A 
ATOM     33  C   UNL A   1      39.885  27.866  28.244  1.00  0.00    -0.014 A 
BRANCH  33  34
ATOM     34  C   UNL A   1      39.993  29.062  29.075  1.00  0.00     0.031 A 
ATOM     35  C   UNL A   1      38.964  30.120  29.026  1.00  0.00     0.074 A 
ATOM     36  C   UNL A   1      41.041  29.193  29.919  1.00  0.00     0.049 A 
ATOM     37  N   UNL A   1      39.152  31.327  29.441  1.00  0.00    -0.248 NA
ATOM     38  C   UNL A   1      37.655  29.929  28.409  1.00  0.00     0.031 C 
ATOM     39  C   UNL A   1      41.204  30.162  31.000  1.00  0.00     0.029 A 
ATOM     40  N   UNL A   1      42.306  28.623  29.776  1.00  0.00    -0.354 N 
ATOM     41  C   UNL A   1      37.940  31.973  29.427  1.00  0.00     0.074 A 
ATOM     42  C   UNL A   1      37.086  31.115  28.646  1.00  0.00     0.031 C 
ATOM     43  C   UNL A   1      42.513  30.319  31.251  1.00  0.00     0.029 A 
ATOM     44  C   UNL A   1      43.241  29.557  30.254  1.00  0.00     0.049 A 
ATOM     45  H   UNL A   1      42.506  27.732  29.408  1.00  0.00     0.167 HD
ATOM     46  C   UNL A   1      37.782  33.087  30.196  1.00  0.00     0.034 A 
ATOM     47  C   UNL A   1      44.217  30.054  29.443  1.00  0.00     0.034 A 
ATOM     48  C   UNL A   1      39.082  33.613  30.631  1.00  0.00     0.049 A 
ATOM     49  C   UNL A   1      44.148  31.553  29.258  1.00  0.00     0.074 A 
ATOM     50  C   UNL A   1      39.746  33.649  31.845  1.00  0.00     0.029 A 
ATOM     51  N   UNL A   1      40.012  34.002  29.667  1.00  0.00    -0.354 N 
ATOM     52  N   UNL A   1      43.118  32.287  29.582  1.00  0.00    -0.248 NA
ATOM     53  C   UNL A   1      45.230  32.339  28.676  1.00  0.00     0.031 C 
ATOM     54  C   UNL A   1      41.109  33.973  31.587  1.00  0.00     0.029 A 
ATOM     55  C   UNL A   1      41.262  34.183  30.226  1.00  0.00     0.049 A 
ATOM     56  H   UNL A   1      39.803  34.132  28.714  1.00  0.00     0.167 HD
ATOM     57  C   UNL A   1      43.354  33.595  29.235  1.00  0.00     0.074 A 
ATOM     58  C   UNL A   1      44.708  33.577  28.707  1.00  0.00     0.031 C 
ATOM     59  C   UNL A   1      42.402  34.568  29.394  1.00  0.00     0.034 A 
BRANCH  46  60
ATOM     60  C   UNL A   1      36.455  33.605  30.738  1.00  0.00     0.023 A 
ATOM     61  C   UNL A   1      35.507  34.138  29.832  1.00  0.00     0.031 A 
ATOM     62  C   UNL A   1      36.103  33.740  32.101  1.00  0.00     0.131 A 
ATOM     63  C   UNL A   1      34.327  34.771  30.280  1.00  0.00     0.055 A 
ATOM     64  C   UNL A   1      34.908  34.323  32.542  1.00  0.00     0.041 A 
ATOM     65  F   UNL A   1      36.909  33.373  33.101  1.00  0.00    -0.206 F 
ATOM     66  C   UNL A   1      34.015  34.852  31.633  1.00  0.00     0.022 A 
BRANCH  63  67
ATOM     67  S   UNL A   1      33.224  35.570  29.079  1.00  0.00     0.124 S 
ATOM     68  O   UNL A   1      32.332  36.338  29.944  1.00  0.00    -0.237 OA
ATOM     69  O   UNL A   1      34.157  36.336  28.261  1.00  0.00    -0.237 OA
ATOM     70  O   UNL A   1      32.590  34.441  28.397  1.00  0.00    -0.744 OA
ENDBRANCH  63  67
ENDBRANCH  46  60
BRANCH  47  71
ATOM     71  C   UNL A   1      44.704  29.063  28.441  1.00  0.00     0.023 A 
ATOM     72  C   UNL A   1      45.560  28.048  28.919  1.00  0.00     0.031 A 
ATOM     73  C   UNL A   1      44.056  28.855  27.217  1.00  0.00     0.131 A 
ATOM     74  C   UNL A   1      45.606  26.802  28.281  1.00  0.00     0.055 A 
ATOM     75  C   UNL A   1      44.169  27.633  26.538  1.00  0.00     0.041 A 
ATOM     76  F   UNL A   1      43.206  29.768  26.727  1.00  0.00    -0.206 F 
ATOM     77  C   UNL A   1      44.905  26.584  27.094  1.00  0.00     0.022 A 
BRANCH  74  78
ATOM     78  S   UNL A   1      46.347  25.397  29.171  1.00  0.00     0.124 S 
ATOM     79  O   UNL A   1      47.173  26.068  30.168  1.00  0.00    -0.237 OA
ATOM     80  O   UNL A   1      45.182  24.680  29.688  1.00  0.00    -0.237 OA
ATOM     81  O   UNL A   1      47.072  24.677  28.126  1.00  0.00    -0.744 OA
ENDBRANCH  74  78
ENDBRANCH  47  71
BRANCH  59  82
ATOM     82  C   UNL A   1      42.480  35.985  28.848  1.00  0.00     0.023 A 
ATOM     83  C   UNL A   1      43.114  37.047  29.511  1.00  0.00     0.031 A 
ATOM     84  C   UNL A   1      41.957  36.304  27.569  1.00  0.00     0.131 A 
ATOM     85  C   UNL A   1      43.131  38.349  28.974  1.00  0.00     0.055 A 
ATOM     86  C   UNL A   1      42.044  37.580  26.999  1.00  0.00     0.041 A 
ATOM     87  F   UNL A   1      41.345  35.386  26.806  1.00  0.00    -0.206 F 
ATOM     88  C   UNL A   1      42.617  38.620  27.711  1.00  0.00     0.022 A 
BRANCH  85  89
ATOM     89  S   UNL A   1      43.780  39.694  30.003  1.00  0.00     0.124 S 
ATOM     90  O   UNL A   1      45.110  39.893  29.433  1.00  0.00    -0.237 OA
ATOM     91  O   UNL A   1      42.821  40.766  29.759  1.00  0.00    -0.237 OA
ATOM     92  O   UNL A   1      43.761  39.139  31.354  1.00  0.00    -0.744 OA
ENDBRANCH  85  89
ENDBRANCH  59  82
ENDBRANCH  33  34
ENDBRANCH  25  28
ENDBRANCH  23  24
ENDBRANCH   1  23
TORSDOF 15
ENDMDL
MODEL 3
REMARK VINA RESULT:     -13.2      1.168      2.515
REMARK SMILES Cc1ccc(-c2cc(Cl)ccc2Cl)c(C(=O)NCCCCNC(=O)c2ccc(-c3c4nc(c(-c5cc(S(=O)(=O)[O-])ccc5F)c5ccc([nH]5)c(-c5cc(S(=O)(=O)[O-])ccc5F)c5nc(c(-c6cc(S(=O)(=O)[O-])ccc6F)c6ccc3[nH]6)C=C5)C=C4)cc2)c1
REMARK SMILES IDX 20 1 19 2 18 3 17 4 15 5 16 6 14 8 1 9 2 10 3 11 88 12 4 13
REMARK SMILES IDX 5 14 6 15 7 16 12 17 8 18 11 19 13 20 9 21 10 22 21 23 22 24
REMARK SMILES IDX 23 25 24 27 25 28 26 29 87 30 27 31 86 32 28 33 29 34 30 35
REMARK SMILES IDX 80 36 31 37 85 38 79 39 81 40 32 41 84 42 78 43 77 44 33 46
REMARK SMILES IDX 65 47 45 48 64 49 46 50 49 51 63 52 82 53 47 54 48 55 62 57
REMARK SMILES IDX 83 58 50 59 34 60 35 61 43 62 36 63 42 64 44 65 41 66 37 67
REMARK SMILES IDX 38 68 39 69 40 70 66 71 67 72 75 73 68 74 74 75 76 76 73 77
REMARK SMILES IDX 69 78 70 79 71 80 72 81 51 82 52 83 60 84 53 85 59 86 61 87
REMARK SMILES IDX 58 88 54 89 55 90 56 91 57 92
REMARK H PARENT 17 7 22 26 81 45 49 56
REMARK Flexibility Score: inf
ROOT
ATOM      1  C   UNL A   1      33.135  30.903  27.245  1.00  0.00     0.023 C 
ENDROOT
BRANCH   1   2
ATOM      2  C   UNL A   1      32.704  30.138  25.988  1.00  0.00     0.023 C 
BRANCH   2   3
ATOM      3  C   UNL A   1      33.087  28.647  25.977  1.00  0.00     0.116 C 
BRANCH   3   4
ATOM      4  N   UNL A   1      31.999  27.791  26.442  1.00  0.00    -0.352 N 
ATOM      5  C   UNL A   1      31.431  26.604  26.045  1.00  0.00     0.251 C 
ATOM      6  O   UNL A   1      30.527  26.213  26.787  1.00  0.00    -0.269 OA
ATOM      7  H   UNL A   1      31.562  28.156  27.244  1.00  0.00     0.163 HD
BRANCH   5   8
ATOM      8  C   UNL A   1      31.822  25.796  24.828  1.00  0.00     0.047 A 
ATOM      9  C   UNL A   1      33.775  22.591  24.058  1.00  0.00     0.044 C 
ATOM     10  C   UNL A   1      32.958  23.834  23.852  1.00  0.00    -0.050 A 
ATOM     11  C   UNL A   1      32.512  24.188  22.586  1.00  0.00     0.004 A 
ATOM     12  C   UNL A   1      32.632  24.654  24.942  1.00  0.00     0.018 A 
ATOM     13  C   UNL A   1      31.756  25.346  22.423  1.00  0.00     0.010 A 
ATOM     14  C   UNL A   1      31.389  26.167  23.521  1.00  0.00    -0.004 A 
BRANCH  14  15
ATOM     15  C   UNL A   1      30.599  27.378  23.190  1.00  0.00     0.003 A 
ATOM     16  C   UNL A   1      29.204  27.369  23.401  1.00  0.00     0.030 A 
ATOM     17  C   UNL A   1      31.180  28.575  22.723  1.00  0.00     0.049 A 
ATOM     18  C   UNL A   1      28.423  28.491  23.117  1.00  0.00     0.041 A 
ATOM     19  C   UNL A   1      30.394  29.705  22.461  1.00  0.00     0.023 A 
ATOM     20  Cl  UNL A   1      32.885  28.732  22.464  1.00  0.00    -0.084 Cl
ATOM     21  Cl  UNL A   1      26.718  28.433  23.350  1.00  0.00    -0.084 Cl
ATOM     22  C   UNL A   1      29.013  29.661  22.651  1.00  0.00     0.022 A 
ENDBRANCH  14  15
ENDBRANCH   5   8
ENDBRANCH   3   4
ENDBRANCH   2   3
ENDBRANCH   1   2
BRANCH   1  23
ATOM     23  C   UNL A   1      34.399  30.353  27.895  1.00  0.00     0.116 C 
BRANCH  23  24
ATOM     24  N   UNL A   1      35.213  31.326  28.613  1.00  0.00    -0.352 N 
ATOM     25  C   UNL A   1      36.436  31.129  29.240  1.00  0.00     0.251 C 
ATOM     26  H   UNL A   1      34.849  32.240  28.658  1.00  0.00     0.163 HD
ATOM     27  O   UNL A   1      36.949  31.994  29.929  1.00  0.00    -0.269 OA
BRANCH  25  28
ATOM     28  C   UNL A   1      37.181  29.875  28.952  1.00  0.00     0.039 A 
ATOM     29  C   UNL A   1      37.374  28.992  30.022  1.00  0.00     0.014 A 
ATOM     30  C   UNL A   1      37.887  29.710  27.763  1.00  0.00     0.014 A 
ATOM     31  C   UNL A   1      38.450  28.110  29.990  1.00  0.00     0.010 A 
ATOM     32  C   UNL A   1      39.008  28.901  27.766  1.00  0.00     0.010 A 
ATOM     33  C   UNL A   1      39.333  28.163  28.911  1.00  0.00    -0.014 A 
BRANCH  33  34
ATOM     34  C   UNL A   1      40.690  27.628  28.974  1.00  0.00     0.031 A 
ATOM     35  C   UNL A   1      40.976  26.228  28.601  1.00  0.00     0.074 A 
ATOM     36  C   UNL A   1      41.705  28.435  29.359  1.00  0.00     0.049 A 
ATOM     37  N   UNL A   1      42.042  25.592  28.955  1.00  0.00    -0.248 NA
ATOM     38  C   UNL A   1      40.029  25.390  27.873  1.00  0.00     0.031 C 
ATOM     39  C   UNL A   1      43.139  28.183  29.247  1.00  0.00     0.029 A 
ATOM     40  N   UNL A   1      41.616  29.551  30.191  1.00  0.00    -0.354 N 
ATOM     41  C   UNL A   1      42.067  24.399  28.276  1.00  0.00     0.074 A 
ATOM     42  C   UNL A   1      40.737  24.263  27.740  1.00  0.00     0.031 C 
ATOM     43  C   UNL A   1      43.785  28.923  30.161  1.00  0.00     0.029 A 
ATOM     44  C   UNL A   1      42.780  29.577  30.978  1.00  0.00     0.049 A 
ATOM     45  H   UNL A   1      40.876  30.199  30.221  1.00  0.00     0.167 HD
ATOM     46  C   UNL A   1      43.256  23.747  28.141  1.00  0.00     0.034 A 
ATOM     47  C   UNL A   1      42.711  29.514  32.339  1.00  0.00     0.034 A 
ATOM     48  C   UNL A   1      44.253  24.273  29.081  1.00  0.00     0.049 A 
ATOM     49  C   UNL A   1      43.411  28.310  32.927  1.00  0.00     0.074 A 
ATOM     50  C   UNL A   1      45.392  25.048  28.941  1.00  0.00     0.029 A 
ATOM     51  N   UNL A   1      43.991  24.211  30.450  1.00  0.00    -0.354 N 
ATOM     52  N   UNL A   1      43.798  27.273  32.235  1.00  0.00    -0.248 NA
ATOM     53  C   UNL A   1      43.715  28.175  34.348  1.00  0.00     0.031 C 
ATOM     54  C   UNL A   1      45.757  25.526  30.232  1.00  0.00     0.029 A 
ATOM     55  C   UNL A   1      44.871  25.004  31.162  1.00  0.00     0.049 A 
ATOM     56  H   UNL A   1      43.274  23.672  30.855  1.00  0.00     0.167 HD
ATOM     57  C   UNL A   1      44.348  26.335  33.074  1.00  0.00     0.074 A 
ATOM     58  C   UNL A   1      44.305  26.969  34.381  1.00  0.00     0.031 C 
ATOM     59  C   UNL A   1      44.767  25.114  32.617  1.00  0.00     0.034 A 
BRANCH  46  60
ATOM     60  C   UNL A   1      43.604  22.767  27.026  1.00  0.00     0.023 A 
ATOM     61  C   UNL A   1      42.938  21.519  26.980  1.00  0.00     0.031 A 
ATOM     62  C   UNL A   1      44.646  22.911  26.081  1.00  0.00     0.131 A 
ATOM     63  C   UNL A   1      43.318  20.508  26.070  1.00  0.00     0.055 A 
ATOM     64  C   UNL A   1      44.988  21.927  25.144  1.00  0.00     0.041 A 
ATOM     65  F   UNL A   1      45.440  23.983  26.029  1.00  0.00    -0.206 F 
ATOM     66  C   UNL A   1      44.332  20.712  25.140  1.00  0.00     0.022 A 
BRANCH  63  67
ATOM     67  S   UNL A   1      42.529  18.876  26.159  1.00  0.00     0.124 S 
ATOM     68  O   UNL A   1      43.350  18.087  25.244  1.00  0.00    -0.237 OA
ATOM     69  O   UNL A   1      42.641  18.552  27.576  1.00  0.00    -0.237 OA
ATOM     70  O   UNL A   1      41.166  19.131  25.692  1.00  0.00    -0.744 OA
ENDBRANCH  63  67
ENDBRANCH  46  60
BRANCH  47  71
ATOM     71  C   UNL A   1      41.504  30.191  32.893  1.00  0.00     0.023 A 
ATOM     72  C   UNL A   1      41.515  31.603  32.894  1.00  0.00     0.031 A 
ATOM     73  C   UNL A   1      40.269  29.543  33.012  1.00  0.00     0.131 A 
ATOM     74  C   UNL A   1      40.313  32.320  32.824  1.00  0.00     0.055 A 
ATOM     75  C   UNL A   1      39.070  30.269  33.024  1.00  0.00     0.041 A 
ATOM     76  F   UNL A   1      40.191  28.205  32.984  1.00  0.00    -0.206 F 
ATOM     77  C   UNL A   1      39.086  31.659  32.879  1.00  0.00     0.022 A 
BRANCH  74  78
ATOM     78  S   UNL A   1      40.378  34.080  32.367  1.00  0.00     0.124 S 
ATOM     79  O   UNL A   1      38.965  34.440  32.334  1.00  0.00    -0.237 OA
ATOM     80  O   UNL A   1      41.161  34.676  33.449  1.00  0.00    -0.237 OA
ATOM     81  O   UNL A   1      41.061  34.072  31.076  1.00  0.00    -0.744 OA
ENDBRANCH  74  78
ENDBRANCH  47  71
BRANCH  59  82
ATOM     82  C   UNL A   1      45.183  23.935  33.483  1.00  0.00     0.023 A 
ATOM     83  C   UNL A   1      46.476  23.759  33.999  1.00  0.00     0.031 A 
ATOM     84  C   UNL A   1      44.240  22.954  33.882  1.00  0.00     0.131 A 
ATOM     85  C   UNL A   1      46.816  22.632  34.772  1.00  0.00     0.055 A 
ATOM     86  C   UNL A   1      44.558  21.876  34.718  1.00  0.00     0.041 A 
ATOM     87  F   UNL A   1      42.958  23.003  33.489  1.00  0.00    -0.206 F 
ATOM     88  C   UNL A   1      45.860  21.697  35.154  1.00  0.00     0.022 A 
BRANCH  85  89
ATOM     89  S   UNL A   1      48.559  22.383  35.208  1.00  0.00     0.124 S 
ATOM     90  O   UNL A   1      49.208  23.477  34.490  1.00  0.00    -0.237 OA
ATOM     91  O   UNL A   1      48.540  22.505  36.661  1.00  0.00    -0.237 OA
ATOM     92  O   UNL A   1      48.857  21.046  34.701  1.00  0.00    -0.744 OA
ENDBRANCH  85  89
ENDBRANCH  59  82
ENDBRANCH  33  34
ENDBRANCH  25  28
ENDBRANCH  23  24
ENDBRANCH   1  23
TORSDOF 15
ENDMDL
