MODEL 1
REMARK VINA RESULT:     -12.5      0.000      0.000
REMARK SMILES CC1(C)[C@H](C(=O)NCCCCNC(=O)c2ccc(-c3c4nc(c(-c5cc(S(=O)(=O)[O-])ccc5F)c5ccc([nH]5)c(-c5cc(S(=O)(=O)[O-])ccc5F)c5nc(c(-c6cc(S(=O)(=O)[O-])ccc6F)c6ccc3[nH]6)C=C5)C=C4)cc2)[C@@H]1C(=O)Nc1ccc(Cl)c(Br)c1
REMARK SMILES IDX 10 1 9 2 8 3 7 4 5 5 6 6 4 8 1 9 2 10 3 11 78 12 79 13 80 14
REMARK SMILES IDX 81 15 82 17 83 18 89 19 84 20 87 21 85 22 88 23 86 24 11 25
REMARK SMILES IDX 12 26 13 27 14 29 15 30 16 31 77 32 17 33 76 34 18 35 19 36
REMARK SMILES IDX 20 37 70 38 21 39 75 40 69 41 71 42 22 43 74 44 68 45 67 46
REMARK SMILES IDX 23 48 55 49 35 50 54 51 36 52 39 53 53 54 72 55 37 56 38 57
REMARK SMILES IDX 52 59 73 60 40 61 24 62 25 63 33 64 26 65 32 66 34 67 31 68
REMARK SMILES IDX 27 69 28 70 29 71 30 72 56 73 57 74 65 75 58 76 64 77 66 78
REMARK SMILES IDX 63 79 59 80 60 81 61 82 62 83 41 84 42 85 50 86 43 87 49 88
REMARK SMILES IDX 51 89 48 90 44 91 45 92 46 93 47 94
REMARK H PARENT 7 7 81 16 12 28 71 47 39 58
REMARK Flexibility Score: inf
ROOT
ATOM      1  C   UNL A   1      36.307  21.225  24.474  1.00  0.00     0.023 C 
ENDROOT
BRANCH   1   2
ATOM      2  C   UNL A   1      35.578  19.954  24.909  1.00  0.00     0.023 C 
BRANCH   2   3
ATOM      3  C   UNL A   1      34.069  20.119  25.067  1.00  0.00     0.116 C 
BRANCH   3   4
ATOM      4  N   UNL A   1      33.717  20.574  26.393  1.00  0.00    -0.356 N 
ATOM      5  C   UNL A   1      33.551  21.791  26.986  1.00  0.00     0.224 C 
ATOM      6  O   UNL A   1      33.245  21.757  28.180  1.00  0.00    -0.275 OA
ATOM      7  H   UNL A   1      33.560  19.828  27.017  1.00  0.00     0.163 HD
BRANCH   5   8
ATOM      8  C   UNL A   1      33.656  23.145  26.377  1.00  0.00     0.098 C 
ATOM      9  C   UNL A   1      34.221  24.401  24.215  1.00  0.00     0.013 C 
ATOM     10  C   UNL A   1      33.204  23.601  25.004  1.00  0.00    -0.011 C 
ATOM     11  C   UNL A   1      32.393  22.697  24.114  1.00  0.00     0.013 C 
ATOM     12  C   UNL A   1      32.649  24.254  26.289  1.00  0.00     0.098 C 
BRANCH  12  13
ATOM     13  C   UNL A   1      31.248  24.188  26.758  1.00  0.00     0.228 C 
ATOM     14  O   UNL A   1      30.907  23.281  27.513  1.00  0.00    -0.274 OA
ATOM     15  N   UNL A   1      30.324  25.131  26.367  1.00  0.00    -0.326 N 
ATOM     16  H   UNL A   1      29.437  25.035  26.783  1.00  0.00     0.169 HD
BRANCH  15  17
ATOM     17  C   UNL A   1      30.440  26.206  25.471  1.00  0.00     0.042 A 
ATOM     18  C   UNL A   1      29.849  26.059  24.213  1.00  0.00     0.028 A 
ATOM     19  C   UNL A   1      31.082  27.404  25.786  1.00  0.00     0.043 A 
ATOM     20  C   UNL A   1      29.793  27.141  23.330  1.00  0.00     0.024 A 
ATOM     21  C   UNL A   1      31.043  28.484  24.896  1.00  0.00     0.038 A 
ATOM     22  C   UNL A   1      30.376  28.362  23.674  1.00  0.00     0.055 A 
ATOM     23  Br  UNL A   1      31.917  30.084  25.434  1.00  0.00    -0.049 Br
ATOM     24  Cl  UNL A   1      30.238  29.663  22.548  1.00  0.00    -0.083 Cl
ENDBRANCH  15  17
ENDBRANCH  12  13
ENDBRANCH   5   8
ENDBRANCH   3   4
ENDBRANCH   2   3
ENDBRANCH   1   2
BRANCH   1  25
ATOM     25  C   UNL A   1      37.425  21.688  25.406  1.00  0.00     0.116 C 
BRANCH  25  26
ATOM     26  N   UNL A   1      38.462  20.683  25.602  1.00  0.00    -0.352 N 
ATOM     27  C   UNL A   1      39.703  20.828  26.178  1.00  0.00     0.251 C 
ATOM     28  H   UNL A   1      38.246  19.779  25.279  1.00  0.00     0.163 HD
ATOM     29  O   UNL A   1      40.511  19.904  26.156  1.00  0.00    -0.269 OA
BRANCH  27  30
ATOM     30  C   UNL A   1      40.055  22.123  26.788  1.00  0.00     0.039 A 
ATOM     31  C   UNL A   1      40.923  22.145  27.882  1.00  0.00     0.014 A 
ATOM     32  C   UNL A   1      39.599  23.313  26.214  1.00  0.00     0.014 A 
ATOM     33  C   UNL A   1      41.418  23.366  28.339  1.00  0.00     0.010 A 
ATOM     34  C   UNL A   1      40.140  24.522  26.631  1.00  0.00     0.010 A 
ATOM     35  C   UNL A   1      41.074  24.558  27.679  1.00  0.00    -0.014 A 
BRANCH  35  36
ATOM     36  C   UNL A   1      41.714  25.851  28.027  1.00  0.00     0.031 A 
ATOM     37  C   UNL A   1      40.924  26.911  28.740  1.00  0.00     0.074 A 
ATOM     38  C   UNL A   1      42.966  26.106  27.600  1.00  0.00     0.049 A 
ATOM     39  N   UNL A   1      41.248  28.150  28.999  1.00  0.00    -0.248 NA
ATOM     40  C   UNL A   1      39.580  26.528  29.194  1.00  0.00     0.031 C 
ATOM     41  C   UNL A   1      43.817  25.166  26.864  1.00  0.00     0.029 A 
ATOM     42  N   UNL A   1      43.735  27.237  27.702  1.00  0.00    -0.354 N 
ATOM     43  C   UNL A   1      40.143  28.704  29.634  1.00  0.00     0.074 A 
ATOM     44  C   UNL A   1      39.122  27.677  29.670  1.00  0.00     0.031 C 
ATOM     45  C   UNL A   1      44.990  25.759  26.589  1.00  0.00     0.029 A 
ATOM     46  C   UNL A   1      44.959  27.131  27.082  1.00  0.00     0.049 A 
ATOM     47  H   UNL A   1      43.439  28.050  28.173  1.00  0.00     0.167 HD
ATOM     48  C   UNL A   1      40.001  29.948  30.155  1.00  0.00     0.034 A 
ATOM     49  C   UNL A   1      45.935  28.044  26.908  1.00  0.00     0.034 A 
ATOM     50  C   UNL A   1      41.034  30.954  30.118  1.00  0.00     0.049 A 
ATOM     51  C   UNL A   1      45.737  29.435  27.450  1.00  0.00     0.074 A 
ATOM     52  C   UNL A   1      41.029  32.218  30.683  1.00  0.00     0.029 A 
ATOM     53  N   UNL A   1      42.255  30.816  29.469  1.00  0.00    -0.354 N 
ATOM     54  N   UNL A   1      44.704  29.929  28.092  1.00  0.00    -0.248 NA
ATOM     55  C   UNL A   1      46.831  30.390  27.239  1.00  0.00     0.031 C 
ATOM     56  C   UNL A   1      42.216  32.865  30.321  1.00  0.00     0.029 A 
ATOM     57  C   UNL A   1      42.991  31.984  29.584  1.00  0.00     0.049 A 
ATOM     58  H   UNL A   1      42.552  30.006  28.995  1.00  0.00     0.167 HD
ATOM     59  C   UNL A   1      45.033  31.250  28.378  1.00  0.00     0.074 A 
ATOM     60  C   UNL A   1      46.364  31.471  27.847  1.00  0.00     0.031 C 
ATOM     61  C   UNL A   1      44.305  32.194  29.026  1.00  0.00     0.034 A 
BRANCH  48  62
ATOM     62  C   UNL A   1      38.672  30.286  30.781  1.00  0.00     0.023 A 
ATOM     63  C   UNL A   1      37.647  30.906  30.043  1.00  0.00     0.031 A 
ATOM     64  C   UNL A   1      38.435  30.022  32.141  1.00  0.00     0.131 A 
ATOM     65  C   UNL A   1      36.471  31.316  30.687  1.00  0.00     0.055 A 
ATOM     66  C   UNL A   1      37.229  30.361  32.758  1.00  0.00     0.041 A 
ATOM     67  F   UNL A   1      39.383  29.449  32.901  1.00  0.00    -0.206 F 
ATOM     68  C   UNL A   1      36.245  31.027  32.034  1.00  0.00     0.022 A 
BRANCH  65  69
ATOM     69  S   UNL A   1      35.309  32.367  29.773  1.00  0.00     0.124 S 
ATOM     70  O   UNL A   1      34.286  32.624  30.784  1.00  0.00    -0.237 OA
ATOM     71  O   UNL A   1      36.140  33.506  29.401  1.00  0.00    -0.237 OA
ATOM     72  O   UNL A   1      34.878  31.519  28.664  1.00  0.00    -0.744 OA
ENDBRANCH  65  69
ENDBRANCH  48  62
BRANCH  49  73
ATOM     73  C   UNL A   1      47.174  27.688  26.162  1.00  0.00     0.023 A 
ATOM     74  C   UNL A   1      47.252  27.861  24.772  1.00  0.00     0.031 A 
ATOM     75  C   UNL A   1      48.287  27.143  26.825  1.00  0.00     0.131 A 
ATOM     76  C   UNL A   1      48.407  27.461  24.083  1.00  0.00     0.055 A 
ATOM     77  C   UNL A   1      49.451  26.785  26.141  1.00  0.00     0.041 A 
ATOM     78  F   UNL A   1      48.265  26.965  28.156  1.00  0.00    -0.206 F 
ATOM     79  C   UNL A   1      49.510  26.936  24.758  1.00  0.00     0.022 A 
BRANCH  76  80
ATOM     80  S   UNL A   1      48.424  27.586  22.273  1.00  0.00     0.124 S 
ATOM     81  O   UNL A   1      47.109  28.154  22.001  1.00  0.00    -0.237 OA
ATOM     82  O   UNL A   1      49.565  28.468  22.041  1.00  0.00    -0.237 OA
ATOM     83  O   UNL A   1      48.610  26.203  21.839  1.00  0.00    -0.744 OA
ENDBRANCH  76  80
ENDBRANCH  49  73
BRANCH  61  84
ATOM     84  C   UNL A   1      44.953  33.541  29.212  1.00  0.00     0.023 A 
ATOM     85  C   UNL A   1      44.748  34.588  28.296  1.00  0.00     0.031 A 
ATOM     86  C   UNL A   1      45.786  33.778  30.319  1.00  0.00     0.131 A 
ATOM     87  C   UNL A   1      45.403  35.814  28.482  1.00  0.00     0.055 A 
ATOM     88  C   UNL A   1      46.397  35.016  30.525  1.00  0.00     0.041 A 
ATOM     89  F   UNL A   1      46.015  32.811  31.221  1.00  0.00    -0.206 F 
ATOM     90  C   UNL A   1      46.215  36.039  29.599  1.00  0.00     0.022 A 
BRANCH  87  91
ATOM     91  S   UNL A   1      45.227  37.099  27.215  1.00  0.00     0.124 S 
ATOM     92  O   UNL A   1      43.841  36.919  26.793  1.00  0.00    -0.237 OA
ATOM     93  O   UNL A   1      45.513  38.319  27.962  1.00  0.00    -0.237 OA
ATOM     94  O   UNL A   1      46.231  36.736  26.216  1.00  0.00    -0.744 OA
ENDBRANCH  87  91
ENDBRANCH  61  84
ENDBRANCH  35  36
ENDBRANCH  27  30
ENDBRANCH  25  26
ENDBRANCH   1  25
TORSDOF 16
ENDMDL
MODEL 2
REMARK VINA RESULT:     -12.3      5.940     10.902
REMARK SMILES CC1(C)[C@H](C(=O)NCCCCNC(=O)c2ccc(-c3c4nc(c(-c5cc(S(=O)(=O)[O-])ccc5F)c5ccc([nH]5)c(-c5cc(S(=O)(=O)[O-])ccc5F)c5nc(c(-c6cc(S(=O)(=O)[O-])ccc6F)c6ccc3[nH]6)C=C5)C=C4)cc2)[C@@H]1C(=O)Nc1ccc(Cl)c(Br)c1
REMARK SMILES IDX 10 1 9 2 8 3 7 4 5 5 6 6 4 8 1 9 2 10 3 11 78 12 79 13 80 14
REMARK SMILES IDX 81 15 82 17 83 18 89 19 84 20 87 21 85 22 88 23 86 24 11 25
REMARK SMILES IDX 12 26 13 27 14 29 15 30 16 31 77 32 17 33 76 34 18 35 19 36
REMARK SMILES IDX 20 37 70 38 21 39 75 40 69 41 71 42 22 43 74 44 68 45 67 46
REMARK SMILES IDX 23 48 55 49 35 50 54 51 36 52 39 53 53 54 72 55 37 56 38 57
REMARK SMILES IDX 52 59 73 60 40 61 24 62 25 63 33 64 26 65 32 66 34 67 31 68
REMARK SMILES IDX 27 69 28 70 29 71 30 72 56 73 57 74 65 75 58 76 64 77 66 78
REMARK SMILES IDX 63 79 59 80 60 81 61 82 62 83 41 84 42 85 50 86 43 87 49 88
REMARK SMILES IDX 51 89 48 90 44 91 45 92 46 93 47 94
REMARK H PARENT 7 7 81 16 12 28 71 47 39 58
REMARK Flexibility Score: inf
ROOT
ATOM      1  C   UNL A   1      32.462  30.340  26.895  1.00  0.00     0.023 C 
ENDROOT
BRANCH   1   2
ATOM      2  C   UNL A   1      31.433  30.833  25.878  1.00  0.00     0.023 C 
BRANCH   2   3
ATOM      3  C   UNL A   1      31.107  29.827  24.778  1.00  0.00     0.116 C 
BRANCH   3   4
ATOM      4  N   UNL A   1      32.207  29.667  23.855  1.00  0.00    -0.356 N 
ATOM      5  C   UNL A   1      33.214  28.761  23.697  1.00  0.00     0.224 C 
ATOM      6  O   UNL A   1      33.982  28.986  22.760  1.00  0.00    -0.275 OA
ATOM      7  H   UNL A   1      32.237  30.383  23.179  1.00  0.00     0.163 HD
BRANCH   5   8
ATOM      8  C   UNL A   1      33.485  27.526  24.482  1.00  0.00     0.098 C 
ATOM      9  C   UNL A   1      32.579  26.022  26.350  1.00  0.00     0.013 C 
ATOM     10  C   UNL A   1      32.516  26.436  24.893  1.00  0.00    -0.011 C 
ATOM     11  C   UNL A   1      31.104  26.414  24.368  1.00  0.00     0.013 C 
ATOM     12  C   UNL A   1      33.754  26.121  24.025  1.00  0.00     0.098 C 
BRANCH  12  13
ATOM     13  C   UNL A   1      33.731  25.650  22.624  1.00  0.00     0.228 C 
ATOM     14  O   UNL A   1      33.749  26.471  21.710  1.00  0.00    -0.274 OA
ATOM     15  N   UNL A   1      33.698  24.304  22.328  1.00  0.00    -0.326 N 
ATOM     16  H   UNL A   1      33.749  24.093  21.368  1.00  0.00     0.169 HD
BRANCH  15  17
ATOM     17  C   UNL A   1      33.603  23.187  23.173  1.00  0.00     0.042 A 
ATOM     18  C   UNL A   1      32.324  22.682  23.426  1.00  0.00     0.028 A 
ATOM     19  C   UNL A   1      34.710  22.551  23.737  1.00  0.00     0.043 A 
ATOM     20  C   UNL A   1      32.166  21.485  24.131  1.00  0.00     0.024 A 
ATOM     21  C   UNL A   1      34.553  21.362  24.458  1.00  0.00     0.038 A 
ATOM     22  C   UNL A   1      33.281  20.813  24.636  1.00  0.00     0.055 A 
ATOM     23  Br  UNL A   1      36.127  20.555  25.155  1.00  0.00    -0.049 Br
ATOM     24  Cl  UNL A   1      33.012  19.323  25.466  1.00  0.00    -0.083 Cl
ENDBRANCH  15  17
ENDBRANCH  12  13
ENDBRANCH   5   8
ENDBRANCH   3   4
ENDBRANCH   2   3
ENDBRANCH   1   2
BRANCH   1  25
ATOM     25  C   UNL A   1      33.501  31.373  27.325  1.00  0.00     0.116 C 
BRANCH  25  26
ATOM     26  N   UNL A   1      32.957  32.720  27.446  1.00  0.00    -0.352 N 
ATOM     27  C   UNL A   1      33.321  33.720  28.317  1.00  0.00     0.251 C 
ATOM     28  H   UNL A   1      32.230  32.943  26.821  1.00  0.00     0.163 HD
ATOM     29  O   UNL A   1      32.676  34.764  28.372  1.00  0.00    -0.269 OA
BRANCH  27  30
ATOM     30  C   UNL A   1      34.476  33.501  29.207  1.00  0.00     0.039 A 
ATOM     31  C   UNL A   1      34.314  32.712  30.347  1.00  0.00     0.014 A 
ATOM     32  C   UNL A   1      35.733  34.000  28.854  1.00  0.00     0.014 A 
ATOM     33  C   UNL A   1      35.438  32.334  31.083  1.00  0.00     0.010 A 
ATOM     34  C   UNL A   1      36.855  33.574  29.552  1.00  0.00     0.010 A 
ATOM     35  C   UNL A   1      36.721  32.717  30.657  1.00  0.00    -0.014 A 
BRANCH  35  36
ATOM     36  C   UNL A   1      37.945  32.194  31.313  1.00  0.00     0.031 A 
ATOM     37  C   UNL A   1      38.717  31.074  30.677  1.00  0.00     0.074 A 
ATOM     38  C   UNL A   1      38.290  32.653  32.532  1.00  0.00     0.049 A 
ATOM     39  N   UNL A   1      39.717  30.381  31.156  1.00  0.00    -0.248 NA
ATOM     40  C   UNL A   1      38.284  30.664  29.334  1.00  0.00     0.031 C 
ATOM     41  C   UNL A   1      37.592  33.712  33.267  1.00  0.00     0.029 A 
ATOM     42  N   UNL A   1      39.300  32.274  33.380  1.00  0.00    -0.354 N 
ATOM     43  C   UNL A   1      40.025  29.441  30.181  1.00  0.00     0.074 A 
ATOM     44  C   UNL A   1      39.069  29.621  29.108  1.00  0.00     0.031 C 
ATOM     45  C   UNL A   1      38.200  33.901  34.449  1.00  0.00     0.029 A 
ATOM     46  C   UNL A   1      39.295  32.948  34.580  1.00  0.00     0.049 A 
ATOM     47  H   UNL A   1      39.964  31.584  33.152  1.00  0.00     0.167 HD
ATOM     48  C   UNL A   1      41.026  28.525  30.174  1.00  0.00     0.034 A 
ATOM     49  C   UNL A   1      40.070  32.796  35.672  1.00  0.00     0.034 A 
ATOM     50  C   UNL A   1      41.975  28.369  31.249  1.00  0.00     0.049 A 
ATOM     51  C   UNL A   1      41.143  31.739  35.664  1.00  0.00     0.074 A 
ATOM     52  C   UNL A   1      43.075  27.530  31.315  1.00  0.00     0.029 A 
ATOM     53  N   UNL A   1      41.930  29.058  32.455  1.00  0.00    -0.354 N 
ATOM     54  N   UNL A   1      41.454  30.889  34.713  1.00  0.00    -0.248 NA
ATOM     55  C   UNL A   1      41.963  31.618  36.875  1.00  0.00     0.031 C 
ATOM     56  C   UNL A   1      43.655  27.666  32.581  1.00  0.00     0.029 A 
ATOM     57  C   UNL A   1      42.957  28.634  33.284  1.00  0.00     0.049 A 
ATOM     58  H   UNL A   1      41.265  29.746  32.686  1.00  0.00     0.167 HD
ATOM     59  C   UNL A   1      42.520  30.143  35.207  1.00  0.00     0.074 A 
ATOM     60  C   UNL A   1      42.803  30.652  36.534  1.00  0.00     0.031 C 
ATOM     61  C   UNL A   1      43.207  29.134  34.615  1.00  0.00     0.034 A 
BRANCH  48  62
ATOM     62  C   UNL A   1      41.117  27.613  28.977  1.00  0.00     0.023 A 
ATOM     63  C   UNL A   1      42.092  27.801  27.981  1.00  0.00     0.031 A 
ATOM     64  C   UNL A   1      40.195  26.566  28.806  1.00  0.00     0.131 A 
ATOM     65  C   UNL A   1      42.071  27.012  26.822  1.00  0.00     0.055 A 
ATOM     66  C   UNL A   1      40.230  25.731  27.687  1.00  0.00     0.041 A 
ATOM     67  F   UNL A   1      39.230  26.350  29.714  1.00  0.00    -0.206 F 
ATOM     68  C   UNL A   1      41.160  25.962  26.679  1.00  0.00     0.022 A 
BRANCH  65  69
ATOM     69  S   UNL A   1      43.152  27.475  25.442  1.00  0.00     0.124 S 
ATOM     70  O   UNL A   1      44.181  28.257  26.122  1.00  0.00    -0.237 OA
ATOM     71  O   UNL A   1      43.572  26.179  24.923  1.00  0.00    -0.237 OA
ATOM     72  O   UNL A   1      42.274  28.246  24.563  1.00  0.00    -0.744 OA
ENDBRANCH  65  69
ENDBRANCH  48  62
BRANCH  49  73
ATOM     73  C   UNL A   1      39.844  33.640  36.878  1.00  0.00     0.023 A 
ATOM     74  C   UNL A   1      39.203  33.118  38.012  1.00  0.00     0.031 A 
ATOM     75  C   UNL A   1      40.240  34.988  36.904  1.00  0.00     0.131 A 
ATOM     76  C   UNL A   1      38.945  33.950  39.113  1.00  0.00     0.055 A 
ATOM     77  C   UNL A   1      40.019  35.801  38.017  1.00  0.00     0.041 A 
ATOM     78  F   UNL A   1      40.864  35.532  35.846  1.00  0.00    -0.206 F 
ATOM     79  C   UNL A   1      39.359  35.283  39.128  1.00  0.00     0.022 A 
BRANCH  76  80
ATOM     80  S   UNL A   1      38.006  33.274  40.510  1.00  0.00     0.124 S 
ATOM     81  O   UNL A   1      38.761  32.064  40.819  1.00  0.00    -0.237 OA
ATOM     82  O   UNL A   1      38.097  34.355  41.487  1.00  0.00    -0.237 OA
ATOM     83  O   UNL A   1      36.675  33.053  39.949  1.00  0.00    -0.744 OA
ENDBRANCH  76  80
ENDBRANCH  49  73
BRANCH  61  84
ATOM     84  C   UNL A   1      44.346  28.537  35.399  1.00  0.00     0.023 A 
ATOM     85  C   UNL A   1      44.134  27.508  36.333  1.00  0.00     0.031 A 
ATOM     86  C   UNL A   1      45.657  29.006  35.209  1.00  0.00     0.131 A 
ATOM     87  C   UNL A   1      45.215  27.008  37.075  1.00  0.00     0.055 A 
ATOM     88  C   UNL A   1      46.736  28.471  35.915  1.00  0.00     0.041 A 
ATOM     89  F   UNL A   1      45.911  29.988  34.330  1.00  0.00    -0.206 F 
ATOM     90  C   UNL A   1      46.517  27.473  36.860  1.00  0.00     0.022 A 
BRANCH  87  91
ATOM     91  S   UNL A   1      44.892  25.778  38.367  1.00  0.00     0.124 S 
ATOM     92  O   UNL A   1      44.366  24.658  37.592  1.00  0.00    -0.237 OA
ATOM     93  O   UNL A   1      46.214  25.582  38.953  1.00  0.00    -0.237 OA
ATOM     94  O   UNL A   1      43.923  26.440  39.237  1.00  0.00    -0.744 OA
ENDBRANCH  87  91
ENDBRANCH  61  84
ENDBRANCH  35  36
ENDBRANCH  27  30
ENDBRANCH  25  26
ENDBRANCH   1  25
TORSDOF 16
ENDMDL
MODEL 3
REMARK VINA RESULT:     -12.3      2.409      2.894
REMARK SMILES CC1(C)[C@H](C(=O)NCCCCNC(=O)c2ccc(-c3c4nc(c(-c5cc(S(=O)(=O)[O-])ccc5F)c5ccc([nH]5)c(-c5cc(S(=O)(=O)[O-])ccc5F)c5nc(c(-c6cc(S(=O)(=O)[O-])ccc6F)c6ccc3[nH]6)C=C5)C=C4)cc2)[C@@H]1C(=O)Nc1ccc(Cl)c(Br)c1
REMARK SMILES IDX 10 1 9 2 8 3 7 4 5 5 6 6 4 8 1 9 2 10 3 11 78 12 79 13 80 14
REMARK SMILES IDX 81 15 82 17 83 18 89 19 84 20 87 21 85 22 88 23 86 24 11 25
REMARK SMILES IDX 12 26 13 27 14 29 15 30 16 31 77 32 17 33 76 34 18 35 19 36
REMARK SMILES IDX 20 37 70 38 21 39 75 40 69 41 71 42 22 43 74 44 68 45 67 46
REMARK SMILES IDX 23 48 55 49 35 50 54 51 36 52 39 53 53 54 72 55 37 56 38 57
REMARK SMILES IDX 52 59 73 60 40 61 24 62 25 63 33 64 26 65 32 66 34 67 31 68
REMARK SMILES IDX 27 69 28 70 29 71 30 72 56 73 57 74 65 75 58 76 64 77 66 78
REMARK SMILES IDX 63 79 59 80 60 81 61 82 62 83 41 84 42 85 50 86 43 87 49 88
REMARK SMILES IDX 51 89 48 90 44 91 45 92 46 93 47 94
REMARK H PARENT 7 7 81 16 12 28 71 47 39 58
REMARK Flexibility Score: inf
ROOT
ATOM      1  C   UNL A   1      37.833  21.470  25.010  1.00  0.00     0.023 C 
ENDROOT
BRANCH   1   2
ATOM      2  C   UNL A   1      36.937  20.232  25.032  1.00  0.00     0.023 C 
BRANCH   2   3
ATOM      3  C   UNL A   1      35.449  20.530  24.869  1.00  0.00     0.116 C 
BRANCH   3   4
ATOM      4  N   UNL A   1      34.806  20.756  26.143  1.00  0.00    -0.356 N 
ATOM      5  C   UNL A   1      34.338  21.850  26.810  1.00  0.00     0.224 C 
ATOM      6  O   UNL A   1      33.845  21.620  27.916  1.00  0.00    -0.275 OA
ATOM      7  H   UNL A   1      34.675  19.922  26.651  1.00  0.00     0.163 HD
BRANCH   5   8
ATOM      8  C   UNL A   1      34.313  23.270  26.366  1.00  0.00     0.098 C 
ATOM      9  C   UNL A   1      34.723  24.818  24.364  1.00  0.00     0.013 C 
ATOM     10  C   UNL A   1      33.795  23.843  25.062  1.00  0.00    -0.011 C 
ATOM     11  C   UNL A   1      33.047  22.982  24.078  1.00  0.00     0.013 C 
ATOM     12  C   UNL A   1      33.212  24.289  26.421  1.00  0.00     0.098 C 
BRANCH  12  13
ATOM     13  C   UNL A   1      31.832  24.044  26.893  1.00  0.00     0.228 C 
ATOM     14  O   UNL A   1      31.613  23.107  27.657  1.00  0.00    -0.274 OA
ATOM     15  N   UNL A   1      30.792  24.854  26.495  1.00  0.00    -0.326 N 
ATOM     16  H   UNL A   1      29.925  24.647  26.913  1.00  0.00     0.169 HD
BRANCH  15  17
ATOM     17  C   UNL A   1      30.766  25.927  25.590  1.00  0.00     0.042 A 
ATOM     18  C   UNL A   1      30.153  25.707  24.353  1.00  0.00     0.028 A 
ATOM     19  C   UNL A   1      31.290  27.189  25.875  1.00  0.00     0.043 A 
ATOM     20  C   UNL A   1      29.955  26.769  23.465  1.00  0.00     0.024 A 
ATOM     21  C   UNL A   1      31.109  28.250  24.980  1.00  0.00     0.038 A 
ATOM     22  C   UNL A   1      30.419  28.047  23.783  1.00  0.00     0.055 A 
ATOM     23  Br  UNL A   1      31.829  29.937  25.480  1.00  0.00    -0.049 Br
ATOM     24  Cl  UNL A   1      30.110  29.317  22.655  1.00  0.00    -0.083 Cl
ENDBRANCH  15  17
ENDBRANCH  12  13
ENDBRANCH   5   8
ENDBRANCH   3   4
ENDBRANCH   2   3
ENDBRANCH   1   2
BRANCH   1  25
ATOM     25  C   UNL A   1      39.003  21.446  25.990  1.00  0.00     0.116 C 
BRANCH  25  26
ATOM     26  N   UNL A   1      39.772  20.208  25.938  1.00  0.00    -0.352 N 
ATOM     27  C   UNL A   1      41.132  20.035  26.044  1.00  0.00     0.251 C 
ATOM     28  H   UNL A   1      39.246  19.386  25.809  1.00  0.00     0.163 HD
ATOM     29  O   UNL A   1      41.635  18.931  25.856  1.00  0.00    -0.269 OA
BRANCH  27  30
ATOM     30  C   UNL A   1      41.975  21.204  26.352  1.00  0.00     0.039 A 
ATOM     31  C   UNL A   1      42.329  22.076  25.320  1.00  0.00     0.014 A 
ATOM     32  C   UNL A   1      42.328  21.481  27.675  1.00  0.00     0.014 A 
ATOM     33  C   UNL A   1      42.952  23.285  25.630  1.00  0.00     0.010 A 
ATOM     34  C   UNL A   1      42.894  22.711  27.986  1.00  0.00     0.010 A 
ATOM     35  C   UNL A   1      43.187  23.635  26.970  1.00  0.00    -0.014 A 
BRANCH  35  36
ATOM     36  C   UNL A   1      43.689  24.980  27.345  1.00  0.00     0.031 A 
ATOM     37  C   UNL A   1      42.737  26.018  27.865  1.00  0.00     0.074 A 
ATOM     38  C   UNL A   1      44.978  25.295  27.110  1.00  0.00     0.049 A 
ATOM     39  N   UNL A   1      42.945  27.286  28.105  1.00  0.00    -0.248 NA
ATOM     40  C   UNL A   1      41.360  25.572  28.118  1.00  0.00     0.031 C 
ATOM     41  C   UNL A   1      45.988  24.379  26.571  1.00  0.00     0.029 A 
ATOM     42  N   UNL A   1      45.657  26.476  27.272  1.00  0.00    -0.354 N 
ATOM     43  C   UNL A   1      41.722  27.796  28.524  1.00  0.00     0.074 A 
ATOM     44  C   UNL A   1      40.768  26.709  28.452  1.00  0.00     0.031 C 
ATOM     45  C   UNL A   1      47.156  25.032  26.456  1.00  0.00     0.029 A 
ATOM     46  C   UNL A   1      46.969  26.419  26.863  1.00  0.00     0.049 A 
ATOM     47  H   UNL A   1      45.243  27.288  27.645  1.00  0.00     0.167 HD
ATOM     48  C   UNL A   1      41.429  29.051  28.948  1.00  0.00     0.034 A 
ATOM     49  C   UNL A   1      47.908  27.385  26.798  1.00  0.00     0.034 A 
ATOM     50  C   UNL A   1      42.397  30.117  29.022  1.00  0.00     0.049 A 
ATOM     51  C   UNL A   1      47.548  28.783  27.224  1.00  0.00     0.074 A 
ATOM     52  C   UNL A   1      42.230  31.403  29.509  1.00  0.00     0.029 A 
ATOM     53  N   UNL A   1      43.713  30.028  28.584  1.00  0.00    -0.354 N 
ATOM     54  N   UNL A   1      46.398  29.239  27.666  1.00  0.00    -0.248 NA
ATOM     55  C   UNL A   1      48.607  29.795  27.140  1.00  0.00     0.031 C 
ATOM     56  C   UNL A   1      43.422  32.107  29.308  1.00  0.00     0.029 A 
ATOM     57  C   UNL A   1      44.355  31.245  28.752  1.00  0.00     0.049 A 
ATOM     58  H   UNL A   1      44.127  29.218  28.208  1.00  0.00     0.167 HD
ATOM     59  C   UNL A   1      46.603  30.589  27.929  1.00  0.00     0.074 A 
ATOM     60  C   UNL A   1      47.988  30.870  27.606  1.00  0.00     0.031 C 
ATOM     61  C   UNL A   1      45.728  31.513  28.400  1.00  0.00     0.034 A 
BRANCH  48  62
ATOM     62  C   UNL A   1      39.999  29.331  29.334  1.00  0.00     0.023 A 
ATOM     63  C   UNL A   1      39.601  29.407  30.681  1.00  0.00     0.031 A 
ATOM     64  C   UNL A   1      39.010  29.483  28.347  1.00  0.00     0.131 A 
ATOM     65  C   UNL A   1      38.244  29.546  31.004  1.00  0.00     0.055 A 
ATOM     66  C   UNL A   1      37.670  29.702  28.676  1.00  0.00     0.041 A 
ATOM     67  F   UNL A   1      39.325  29.401  27.045  1.00  0.00    -0.206 F 
ATOM     68  C   UNL A   1      37.278  29.717  30.010  1.00  0.00     0.022 A 
BRANCH  65  69
ATOM     69  S   UNL A   1      37.744  29.346  32.736  1.00  0.00     0.124 S 
ATOM     70  O   UNL A   1      38.844  30.001  33.439  1.00  0.00    -0.237 OA
ATOM     71  O   UNL A   1      36.460  30.036  32.774  1.00  0.00    -0.237 OA
ATOM     72  O   UNL A   1      37.680  27.896  32.910  1.00  0.00    -0.744 OA
ENDBRANCH  65  69
ENDBRANCH  48  62
BRANCH  49  73
ATOM     73  C   UNL A   1      49.269  27.075  26.279  1.00  0.00     0.023 A 
ATOM     74  C   UNL A   1      50.342  26.858  27.157  1.00  0.00     0.031 A 
ATOM     75  C   UNL A   1      49.523  27.018  24.898  1.00  0.00     0.131 A 
ATOM     76  C   UNL A   1      51.628  26.628  26.645  1.00  0.00     0.055 A 
ATOM     77  C   UNL A   1      50.796  26.748  24.392  1.00  0.00     0.041 A 
ATOM     78  F   UNL A   1      48.528  27.210  24.017  1.00  0.00    -0.206 F 
ATOM     79  C   UNL A   1      51.860  26.560  25.270  1.00  0.00     0.022 A 
BRANCH  76  80
ATOM     80  S   UNL A   1      53.011  26.475  27.809  1.00  0.00     0.124 S 
ATOM     81  O   UNL A   1      53.687  27.756  27.638  1.00  0.00    -0.237 OA
ATOM     82  O   UNL A   1      52.318  26.279  29.079  1.00  0.00    -0.237 OA
ATOM     83  O   UNL A   1      53.744  25.311  27.315  1.00  0.00    -0.744 OA
ENDBRANCH  76  80
ENDBRANCH  49  73
BRANCH  61  84
ATOM     84  C   UNL A   1      46.262  32.905  28.615  1.00  0.00     0.023 A 
ATOM     85  C   UNL A   1      46.283  33.851  27.575  1.00  0.00     0.031 A 
ATOM     86  C   UNL A   1      46.755  33.287  29.874  1.00  0.00     0.131 A 
ATOM     87  C   UNL A   1      46.828  35.124  27.803  1.00  0.00     0.055 A 
ATOM     88  C   UNL A   1      47.250  34.571  30.108  1.00  0.00     0.041 A 
ATOM     89  F   UNL A   1      46.757  32.420  30.898  1.00  0.00    -0.206 F 
ATOM     90  C   UNL A   1      47.297  35.494  29.067  1.00  0.00     0.022 A 
BRANCH  87  91
ATOM     91  S   UNL A   1      46.966  36.276  26.410  1.00  0.00     0.124 S 
ATOM     92  O   UNL A   1      46.455  35.474  25.302  1.00  0.00    -0.237 OA
ATOM     93  O   UNL A   1      46.121  37.387  26.835  1.00  0.00    -0.237 OA
ATOM     94  O   UNL A   1      48.396  36.574  26.352  1.00  0.00    -0.744 OA
ENDBRANCH  87  91
ENDBRANCH  61  84
ENDBRANCH  35  36
ENDBRANCH  27  30
ENDBRANCH  25  26
ENDBRANCH   1  25
TORSDOF 16
ENDMDL
