MODEL 1
REMARK VINA RESULT:     -11.4      0.000      0.000
REMARK SMILES CC(C)c1ccc(CCCC(=O)NCCCCNC(=O)c2ccc(-c3c4nc(c(-c5cc(S(=O)(=O)[O-])ccc5F)c5ccc([nH]5)c(-c5cc(S(=O)(=O)[O-])ccc5F)c5nc(c(-c6cc(S(=O)(=O)[O-])ccc6F)c6ccc3[nH]6)C=C5)C=C4)cc2)cc1
REMARK SMILES IDX 15 1 14 2 13 3 11 4 12 5 10 7 9 8 8 9 7 10 4 11 5 12 85 13
REMARK SMILES IDX 6 14 84 15 2 16 1 17 3 18 16 19 17 20 18 21 19 22 20 24
REMARK SMILES IDX 21 25 22 26 83 27 23 28 82 29 24 30 25 31 26 32 76 33 27 34
REMARK SMILES IDX 81 35 75 36 77 37 28 38 80 39 74 40 73 41 29 43 61 44 41 45
REMARK SMILES IDX 60 46 42 47 45 48 59 49 78 50 43 51 44 52 58 54 79 55 46 56
REMARK SMILES IDX 30 57 31 58 39 59 32 60 38 61 40 62 37 63 33 64 34 65 35 66
REMARK SMILES IDX 36 67 62 68 63 69 71 70 64 71 70 72 72 73 69 74 65 75 66 76
REMARK SMILES IDX 67 77 68 78 47 79 48 80 56 81 49 82 55 83 57 84 54 85 50 86
REMARK SMILES IDX 51 87 52 88 53 89
REMARK H PARENT 13 6 18 23 77 42 45 53
REMARK Flexibility Score: inf
ROOT
ATOM      1  C   UNL A   1      31.746  27.655  26.900  1.00  0.00     0.023 C 
ENDROOT
BRANCH   1   2
ATOM      2  C   UNL A   1      32.114  26.290  26.317  1.00  0.00     0.116 C 
BRANCH   2   3
ATOM      3  N   UNL A   1      31.383  25.243  27.001  1.00  0.00    -0.356 N 
ATOM      4  C   UNL A   1      30.933  24.055  26.511  1.00  0.00     0.220 C 
ATOM      5  O   UNL A   1      30.182  23.369  27.205  1.00  0.00    -0.275 OA
ATOM      6  H   UNL A   1      31.185  25.413  27.950  1.00  0.00     0.163 HD
BRANCH   4   7
ATOM      7  C   UNL A   1      31.416  23.564  25.162  1.00  0.00     0.100 C 
BRANCH   7   8
ATOM      8  C   UNL A   1      30.655  24.076  23.936  1.00  0.00     0.015 C 
BRANCH   8   9
ATOM      9  C   UNL A   1      31.303  25.134  23.027  1.00  0.00     0.036 C 
BRANCH   9  10
ATOM     10  C   UNL A   1      30.738  26.535  22.902  1.00  0.00    -0.048 A 
ATOM     11  C   UNL A   1      29.618  29.164  22.952  1.00  0.00    -0.045 A 
ATOM     12  C   UNL A   1      30.849  28.900  22.333  1.00  0.00     0.004 A 
ATOM     13  C   UNL A   1      28.931  28.078  23.502  1.00  0.00     0.004 A 
ATOM     14  C   UNL A   1      31.388  27.605  22.287  1.00  0.00     0.004 A 
ATOM     15  C   UNL A   1      29.484  26.789  23.482  1.00  0.00     0.004 A 
BRANCH  11  16
ATOM     16  C   UNL A   1      29.090  30.595  22.977  1.00  0.00     0.013 C 
ATOM     17  C   UNL A   1      27.570  30.738  22.822  1.00  0.00     0.012 C 
ATOM     18  C   UNL A   1      29.526  31.331  24.251  1.00  0.00     0.012 C 
ENDBRANCH  11  16
ENDBRANCH   9  10
ENDBRANCH   8   9
ENDBRANCH   7   8
ENDBRANCH   4   7
ENDBRANCH   2   3
ENDBRANCH   1   2
BRANCH   1  19
ATOM     19  C   UNL A   1      31.671  28.763  25.856  1.00  0.00     0.023 C 
BRANCH  19  20
ATOM     20  C   UNL A   1      32.837  29.743  25.907  1.00  0.00     0.116 C 
BRANCH  20  21
ATOM     21  N   UNL A   1      32.465  31.055  26.421  1.00  0.00    -0.352 N 
ATOM     22  C   UNL A   1      33.189  31.876  27.261  1.00  0.00     0.251 C 
ATOM     23  H   UNL A   1      31.588  31.398  26.135  1.00  0.00     0.163 HD
ATOM     24  O   UNL A   1      32.711  32.913  27.692  1.00  0.00    -0.269 OA
BRANCH  22  25
ATOM     25  C   UNL A   1      34.541  31.436  27.663  1.00  0.00     0.039 A 
ATOM     26  C   UNL A   1      35.548  32.392  27.811  1.00  0.00     0.014 A 
ATOM     27  C   UNL A   1      34.760  30.104  28.026  1.00  0.00     0.014 A 
ATOM     28  C   UNL A   1      36.746  32.032  28.430  1.00  0.00     0.010 A 
ATOM     29  C   UNL A   1      35.922  29.768  28.711  1.00  0.00     0.010 A 
ATOM     30  C   UNL A   1      36.916  30.734  28.942  1.00  0.00    -0.014 A 
BRANCH  30  31
ATOM     31  C   UNL A   1      38.098  30.371  29.767  1.00  0.00     0.031 A 
ATOM     32  C   UNL A   1      39.108  29.393  29.238  1.00  0.00     0.074 A 
ATOM     33  C   UNL A   1      38.198  30.835  31.030  1.00  0.00     0.049 A 
ATOM     34  N   UNL A   1      40.122  28.837  29.849  1.00  0.00    -0.248 NA
ATOM     35  C   UNL A   1      38.929  28.955  27.844  1.00  0.00     0.031 C 
ATOM     36  C   UNL A   1      37.251  31.749  31.674  1.00  0.00     0.029 A 
ATOM     37  N   UNL A   1      39.129  30.586  32.006  1.00  0.00    -0.354 N 
ATOM     38  C   UNL A   1      40.689  27.967  28.925  1.00  0.00     0.074 A 
ATOM     39  C   UNL A   1      39.871  28.031  27.731  1.00  0.00     0.031 C 
ATOM     40  C   UNL A   1      37.658  31.994  32.930  1.00  0.00     0.029 A 
ATOM     41  C   UNL A   1      38.863  31.217  33.201  1.00  0.00     0.049 A 
ATOM     42  H   UNL A   1      39.915  30.009  31.867  1.00  0.00     0.167 HD
ATOM     43  C   UNL A   1      41.801  27.202  29.054  1.00  0.00     0.034 A 
ATOM     44  C   UNL A   1      39.503  31.159  34.386  1.00  0.00     0.034 A 
ATOM     45  C   UNL A   1      42.618  27.170  30.242  1.00  0.00     0.049 A 
ATOM     46  C   UNL A   1      40.724  30.284  34.512  1.00  0.00     0.074 A 
ATOM     47  C   UNL A   1      43.812  26.502  30.448  1.00  0.00     0.029 A 
ATOM     48  N   UNL A   1      42.320  27.826  31.430  1.00  0.00    -0.354 N 
ATOM     49  N   UNL A   1      41.284  29.515  33.608  1.00  0.00    -0.248 NA
ATOM     50  C   UNL A   1      41.398  30.270  35.817  1.00  0.00     0.031 C 
ATOM     51  C   UNL A   1      44.202  26.702  31.777  1.00  0.00     0.029 A 
ATOM     52  C   UNL A   1      43.286  27.547  32.383  1.00  0.00     0.049 A 
ATOM     53  H   UNL A   1      41.536  28.404  31.573  1.00  0.00     0.167 HD
ATOM     54  C   UNL A   1      42.387  28.940  34.230  1.00  0.00     0.074 A 
ATOM     55  C   UNL A   1      42.423  29.463  35.581  1.00  0.00     0.031 C 
ATOM     56  C   UNL A   1      43.293  28.062  33.732  1.00  0.00     0.034 A 
BRANCH  43  57
ATOM     57  C   UNL A   1      42.179  26.326  27.886  1.00  0.00     0.023 A 
ATOM     58  C   UNL A   1      41.689  25.015  27.759  1.00  0.00     0.031 A 
ATOM     59  C   UNL A   1      43.064  26.797  26.900  1.00  0.00     0.131 A 
ATOM     60  C   UNL A   1      42.147  24.193  26.718  1.00  0.00     0.055 A 
ATOM     61  C   UNL A   1      43.455  26.002  25.821  1.00  0.00     0.041 A 
ATOM     62  F   UNL A   1      43.579  28.034  26.979  1.00  0.00    -0.206 F 
ATOM     63  C   UNL A   1      43.007  24.686  25.734  1.00  0.00     0.022 A 
BRANCH  60  64
ATOM     64  S   UNL A   1      41.710  22.434  26.749  1.00  0.00     0.124 S 
ATOM     65  O   UNL A   1      42.008  22.032  25.376  1.00  0.00    -0.237 OA
ATOM     66  O   UNL A   1      42.599  21.906  27.777  1.00  0.00    -0.237 OA
ATOM     67  O   UNL A   1      40.290  22.440  27.095  1.00  0.00    -0.744 OA
ENDBRANCH  60  64
ENDBRANCH  43  57
BRANCH  44  68
ATOM     68  C   UNL A   1      38.992  31.921  35.560  1.00  0.00     0.023 A 
ATOM     69  C   UNL A   1      38.351  31.267  36.623  1.00  0.00     0.031 A 
ATOM     70  C   UNL A   1      39.099  33.323  35.616  1.00  0.00     0.131 A 
ATOM     71  C   UNL A   1      37.804  32.014  37.678  1.00  0.00     0.055 A 
ATOM     72  C   UNL A   1      38.595  34.057  36.691  1.00  0.00     0.041 A 
ATOM     73  F   UNL A   1      39.707  33.997  34.628  1.00  0.00    -0.206 F 
ATOM     74  C   UNL A   1      37.932  33.405  37.725  1.00  0.00     0.022 A 
BRANCH  71  75
ATOM     75  S   UNL A   1      36.852  31.146  38.955  1.00  0.00     0.124 S 
ATOM     76  O   UNL A   1      37.760  31.203  40.094  1.00  0.00    -0.237 OA
ATOM     77  O   UNL A   1      35.650  31.969  39.049  1.00  0.00    -0.237 OA
ATOM     78  O   UNL A   1      36.650  29.816  38.383  1.00  0.00    -0.744 OA
ENDBRANCH  71  75
ENDBRANCH  44  68
BRANCH  56  79
ATOM     79  C   UNL A   1      44.410  27.638  34.649  1.00  0.00     0.023 A 
ATOM     80  C   UNL A   1      44.312  26.480  35.440  1.00  0.00     0.031 A 
ATOM     81  C   UNL A   1      45.587  28.401  34.732  1.00  0.00     0.131 A 
ATOM     82  C   UNL A   1      45.356  26.141  36.312  1.00  0.00     0.055 A 
ATOM     83  C   UNL A   1      46.644  28.032  35.564  1.00  0.00     0.041 A 
ATOM     84  F   UNL A   1      45.730  29.517  34.000  1.00  0.00    -0.206 F 
ATOM     85  C   UNL A   1      46.529  26.900  36.367  1.00  0.00     0.022 A 
BRANCH  82  86
ATOM     86  S   UNL A   1      45.141  24.723  37.423  1.00  0.00     0.124 S 
ATOM     87  O   UNL A   1      44.652  23.695  36.509  1.00  0.00    -0.237 OA
ATOM     88  O   UNL A   1      46.490  24.525  37.943  1.00  0.00    -0.237 OA
ATOM     89  O   UNL A   1      44.164  25.198  38.401  1.00  0.00    -0.744 OA
ENDBRANCH  82  86
ENDBRANCH  56  79
ENDBRANCH  30  31
ENDBRANCH  22  25
ENDBRANCH  20  21
ENDBRANCH  19  20
ENDBRANCH   1  19
TORSDOF 18
ENDMDL
MODEL 2
REMARK VINA RESULT:     -11.3      1.756      2.037
REMARK SMILES CC(C)c1ccc(CCCC(=O)NCCCCNC(=O)c2ccc(-c3c4nc(c(-c5cc(S(=O)(=O)[O-])ccc5F)c5ccc([nH]5)c(-c5cc(S(=O)(=O)[O-])ccc5F)c5nc(c(-c6cc(S(=O)(=O)[O-])ccc6F)c6ccc3[nH]6)C=C5)C=C4)cc2)cc1
REMARK SMILES IDX 15 1 14 2 13 3 11 4 12 5 10 7 9 8 8 9 7 10 4 11 5 12 85 13
REMARK SMILES IDX 6 14 84 15 2 16 1 17 3 18 16 19 17 20 18 21 19 22 20 24
REMARK SMILES IDX 21 25 22 26 83 27 23 28 82 29 24 30 25 31 26 32 76 33 27 34
REMARK SMILES IDX 81 35 75 36 77 37 28 38 80 39 74 40 73 41 29 43 61 44 41 45
REMARK SMILES IDX 60 46 42 47 45 48 59 49 78 50 43 51 44 52 58 54 79 55 46 56
REMARK SMILES IDX 30 57 31 58 39 59 32 60 38 61 40 62 37 63 33 64 34 65 35 66
REMARK SMILES IDX 36 67 62 68 63 69 71 70 64 71 70 72 72 73 69 74 65 75 66 76
REMARK SMILES IDX 67 77 68 78 47 79 48 80 56 81 49 82 55 83 57 84 54 85 50 86
REMARK SMILES IDX 51 87 52 88 53 89
REMARK H PARENT 13 6 18 23 77 42 45 53
REMARK Flexibility Score: inf
ROOT
ATOM      1  C   UNL A   1      33.215  29.335  24.905  1.00  0.00     0.023 C 
ENDROOT
BRANCH   1   2
ATOM      2  C   UNL A   1      33.862  28.171  25.654  1.00  0.00     0.116 C 
BRANCH   2   3
ATOM      3  N   UNL A   1      34.008  27.030  24.773  1.00  0.00    -0.356 N 
ATOM      4  C   UNL A   1      33.376  25.826  24.823  1.00  0.00     0.220 C 
ATOM      5  O   UNL A   1      33.760  24.919  24.083  1.00  0.00    -0.275 OA
ATOM      6  H   UNL A   1      34.652  27.142  24.036  1.00  0.00     0.163 HD
BRANCH   4   7
ATOM      7  C   UNL A   1      32.176  25.641  25.728  1.00  0.00     0.100 C 
BRANCH   7   8
ATOM      8  C   UNL A   1      30.821  25.462  25.037  1.00  0.00     0.015 C 
BRANCH   8   9
ATOM      9  C   UNL A   1      30.673  25.822  23.550  1.00  0.00     0.036 C 
BRANCH   9  10
ATOM     10  C   UNL A   1      30.169  27.179  23.101  1.00  0.00    -0.048 A 
ATOM     11  C   UNL A   1      29.119  29.776  22.528  1.00  0.00    -0.045 A 
ATOM     12  C   UNL A   1      30.423  29.411  22.160  1.00  0.00     0.004 A 
ATOM     13  C   UNL A   1      28.329  28.799  23.142  1.00  0.00     0.004 A 
ATOM     14  C   UNL A   1      30.931  28.129  22.421  1.00  0.00     0.004 A 
ATOM     15  C   UNL A   1      28.848  27.527  23.428  1.00  0.00     0.004 A 
BRANCH  11  16
ATOM     16  C   UNL A   1      28.628  31.187  22.226  1.00  0.00     0.013 C 
ATOM     17  C   UNL A   1      27.946  31.370  20.863  1.00  0.00     0.012 C 
ATOM     18  C   UNL A   1      27.683  31.699  23.321  1.00  0.00     0.012 C 
ENDBRANCH  11  16
ENDBRANCH   9  10
ENDBRANCH   8   9
ENDBRANCH   7   8
ENDBRANCH   4   7
ENDBRANCH   2   3
ENDBRANCH   1   2
BRANCH   1  19
ATOM     19  C   UNL A   1      31.942  29.852  25.564  1.00  0.00     0.023 C 
BRANCH  19  20
ATOM     20  C   UNL A   1      32.141  30.359  26.987  1.00  0.00     0.116 C 
BRANCH  20  21
ATOM     21  N   UNL A   1      32.022  31.806  27.106  1.00  0.00    -0.352 N 
ATOM     22  C   UNL A   1      32.975  32.706  27.536  1.00  0.00     0.251 C 
ATOM     23  H   UNL A   1      31.152  32.190  26.849  1.00  0.00     0.163 HD
ATOM     24  O   UNL A   1      32.705  33.888  27.679  1.00  0.00    -0.269 OA
BRANCH  22  25
ATOM     25  C   UNL A   1      34.318  32.186  27.868  1.00  0.00     0.039 A 
ATOM     26  C   UNL A   1      35.387  33.080  27.952  1.00  0.00     0.014 A 
ATOM     27  C   UNL A   1      34.475  30.846  28.230  1.00  0.00     0.014 A 
ATOM     28  C   UNL A   1      36.594  32.651  28.508  1.00  0.00     0.010 A 
ATOM     29  C   UNL A   1      35.651  30.443  28.853  1.00  0.00     0.010 A 
ATOM     30  C   UNL A   1      36.712  31.348  29.021  1.00  0.00    -0.014 A 
BRANCH  30  31
ATOM     31  C   UNL A   1      37.914  30.917  29.784  1.00  0.00     0.031 A 
ATOM     32  C   UNL A   1      38.851  29.903  29.193  1.00  0.00     0.074 A 
ATOM     33  C   UNL A   1      38.094  31.356  31.047  1.00  0.00     0.049 A 
ATOM     34  N   UNL A   1      39.866  29.292  29.748  1.00  0.00    -0.248 NA
ATOM     35  C   UNL A   1      38.587  29.497  27.804  1.00  0.00     0.031 C 
ATOM     36  C   UNL A   1      37.222  32.301  31.748  1.00  0.00     0.029 A 
ATOM     37  N   UNL A   1      39.058  31.048  31.974  1.00  0.00    -0.354 N 
ATOM     38  C   UNL A   1      40.348  28.412  28.786  1.00  0.00     0.074 A 
ATOM     39  C   UNL A   1      39.479  28.533  27.633  1.00  0.00     0.031 C 
ATOM     40  C   UNL A   1      37.699  32.506  32.987  1.00  0.00     0.029 A 
ATOM     41  C   UNL A   1      38.878  31.671  33.189  1.00  0.00     0.049 A 
ATOM     42  H   UNL A   1      39.809  30.438  31.789  1.00  0.00     0.167 HD
ATOM     43  C   UNL A   1      41.428  27.595  28.850  1.00  0.00     0.034 A 
ATOM     44  C   UNL A   1      39.569  31.565  34.341  1.00  0.00     0.034 A 
ATOM     45  C   UNL A   1      42.297  27.506  29.997  1.00  0.00     0.049 A 
ATOM     46  C   UNL A   1      40.753  30.633  34.397  1.00  0.00     0.074 A 
ATOM     47  C   UNL A   1      43.467  26.781  30.137  1.00  0.00     0.029 A 
ATOM     48  N   UNL A   1      42.086  28.155  31.207  1.00  0.00    -0.354 N 
ATOM     49  N   UNL A   1      41.233  29.854  33.456  1.00  0.00    -0.248 NA
ATOM     50  C   UNL A   1      41.486  30.566  35.668  1.00  0.00     0.031 C 
ATOM     51  C   UNL A   1      43.929  26.941  31.449  1.00  0.00     0.029 A 
ATOM     52  C   UNL A   1      43.082  27.817  32.109  1.00  0.00     0.049 A 
ATOM     53  H   UNL A   1      41.337  28.766  31.396  1.00  0.00     0.167 HD
ATOM     54  C   UNL A   1      42.337  29.219  34.017  1.00  0.00     0.074 A 
ATOM     55  C   UNL A   1      42.460  29.718  35.372  1.00  0.00     0.031 C 
ATOM     56  C   UNL A   1      43.176  28.309  33.463  1.00  0.00     0.034 A 
BRANCH  43  57
ATOM     57  C   UNL A   1      41.710  26.722  27.653  1.00  0.00     0.023 A 
ATOM     58  C   UNL A   1      41.293  25.380  27.605  1.00  0.00     0.031 A 
ATOM     59  C   UNL A   1      42.430  27.228  26.557  1.00  0.00     0.131 A 
ATOM     60  C   UNL A   1      41.666  24.569  26.523  1.00  0.00     0.055 A 
ATOM     61  C   UNL A   1      42.730  26.438  25.446  1.00  0.00     0.041 A 
ATOM     62  F   UNL A   1      42.870  28.496  26.556  1.00  0.00    -0.206 F 
ATOM     63  C   UNL A   1      42.361  25.095  25.431  1.00  0.00     0.022 A 
BRANCH  60  64
ATOM     64  S   UNL A   1      41.351  22.787  26.630  1.00  0.00     0.124 S 
ATOM     65  O   UNL A   1      42.067  22.290  25.456  1.00  0.00    -0.237 OA
ATOM     66  O   UNL A   1      41.927  22.441  27.923  1.00  0.00    -0.237 OA
ATOM     67  O   UNL A   1      39.895  22.692  26.548  1.00  0.00    -0.744 OA
ENDBRANCH  60  64
ENDBRANCH  43  57
BRANCH  44  68
ATOM     68  C   UNL A   1      39.149  32.330  35.549  1.00  0.00     0.023 A 
ATOM     69  C   UNL A   1      39.622  33.631  35.780  1.00  0.00     0.031 A 
ATOM     70  C   UNL A   1      38.302  31.755  36.514  1.00  0.00     0.131 A 
ATOM     71  C   UNL A   1      39.280  34.301  36.966  1.00  0.00     0.055 A 
ATOM     72  C   UNL A   1      37.926  32.443  37.668  1.00  0.00     0.041 A 
ATOM     73  F   UNL A   1      37.817  30.516  36.338  1.00  0.00    -0.206 F 
ATOM     74  C   UNL A   1      38.426  33.719  37.906  1.00  0.00     0.022 A 
BRANCH  71  75
ATOM     75  S   UNL A   1      40.033  35.917  37.298  1.00  0.00     0.124 S 
ATOM     76  O   UNL A   1      39.765  36.632  36.057  1.00  0.00    -0.237 OA
ATOM     77  O   UNL A   1      39.285  36.363  38.470  1.00  0.00    -0.237 OA
ATOM     78  O   UNL A   1      41.437  35.594  37.544  1.00  0.00    -0.744 OA
ENDBRANCH  71  75
ENDBRANCH  44  68
BRANCH  56  79
ATOM     79  C   UNL A   1      44.314  27.819  34.320  1.00  0.00     0.023 A 
ATOM     80  C   UNL A   1      44.198  26.656  35.101  1.00  0.00     0.031 A 
ATOM     81  C   UNL A   1      45.530  28.524  34.355  1.00  0.00     0.131 A 
ATOM     82  C   UNL A   1      45.266  26.255  35.918  1.00  0.00     0.055 A 
ATOM     83  C   UNL A   1      46.606  28.093  35.130  1.00  0.00     0.041 A 
ATOM     84  F   UNL A   1      45.691  29.642  33.630  1.00  0.00    -0.206 F 
ATOM     85  C   UNL A   1      46.475  26.957  35.925  1.00  0.00     0.022 A 
BRANCH  82  86
ATOM     86  S   UNL A   1      45.036  24.834  37.021  1.00  0.00     0.124 S 
ATOM     87  O   UNL A   1      44.187  25.398  38.066  1.00  0.00    -0.237 OA
ATOM     88  O   UNL A   1      44.403  23.855  36.144  1.00  0.00    -0.237 OA
ATOM     89  O   UNL A   1      46.396  24.501  37.440  1.00  0.00    -0.744 OA
ENDBRANCH  82  86
ENDBRANCH  56  79
ENDBRANCH  30  31
ENDBRANCH  22  25
ENDBRANCH  20  21
ENDBRANCH  19  20
ENDBRANCH   1  19
TORSDOF 18
ENDMDL
MODEL 3
REMARK VINA RESULT:     -11.1      2.236      3.061
REMARK SMILES CC(C)c1ccc(CCCC(=O)NCCCCNC(=O)c2ccc(-c3c4nc(c(-c5cc(S(=O)(=O)[O-])ccc5F)c5ccc([nH]5)c(-c5cc(S(=O)(=O)[O-])ccc5F)c5nc(c(-c6cc(S(=O)(=O)[O-])ccc6F)c6ccc3[nH]6)C=C5)C=C4)cc2)cc1
REMARK SMILES IDX 15 1 14 2 13 3 11 4 12 5 10 7 9 8 8 9 7 10 4 11 5 12 85 13
REMARK SMILES IDX 6 14 84 15 2 16 1 17 3 18 16 19 17 20 18 21 19 22 20 24
REMARK SMILES IDX 21 25 22 26 83 27 23 28 82 29 24 30 25 31 26 32 76 33 27 34
REMARK SMILES IDX 81 35 75 36 77 37 28 38 80 39 74 40 73 41 29 43 61 44 41 45
REMARK SMILES IDX 60 46 42 47 45 48 59 49 78 50 43 51 44 52 58 54 79 55 46 56
REMARK SMILES IDX 30 57 31 58 39 59 32 60 38 61 40 62 37 63 33 64 34 65 35 66
REMARK SMILES IDX 36 67 62 68 63 69 71 70 64 71 70 72 72 73 69 74 65 75 66 76
REMARK SMILES IDX 67 77 68 78 47 79 48 80 56 81 49 82 55 83 57 84 54 85 50 86
REMARK SMILES IDX 51 87 52 88 53 89
REMARK H PARENT 13 6 18 23 77 42 45 53
REMARK Flexibility Score: inf
ROOT
ATOM      1  C   UNL A   1      33.460  29.450  26.745  1.00  0.00     0.023 C 
ENDROOT
BRANCH   1   2
ATOM      2  C   UNL A   1      33.000  28.761  25.460  1.00  0.00     0.116 C 
BRANCH   2   3
ATOM      3  N   UNL A   1      33.220  27.332  25.555  1.00  0.00    -0.356 N 
ATOM      4  C   UNL A   1      32.338  26.353  25.897  1.00  0.00     0.220 C 
ATOM      5  O   UNL A   1      32.757  25.211  26.087  1.00  0.00    -0.275 OA
ATOM      6  H   UNL A   1      34.131  27.027  25.343  1.00  0.00     0.163 HD
BRANCH   4   7
ATOM      7  C   UNL A   1      30.857  26.664  25.969  1.00  0.00     0.100 C 
BRANCH   7   8
ATOM      8  C   UNL A   1      29.938  25.819  25.082  1.00  0.00     0.015 C 
BRANCH   8   9
ATOM      9  C   UNL A   1      29.598  26.303  23.663  1.00  0.00     0.036 C 
BRANCH   9  10
ATOM     10  C   UNL A   1      29.138  27.721  23.389  1.00  0.00    -0.048 A 
ATOM     11  C   UNL A   1      28.444  30.391  22.640  1.00  0.00    -0.045 A 
ATOM     12  C   UNL A   1      27.465  29.438  22.961  1.00  0.00     0.004 A 
ATOM     13  C   UNL A   1      29.781  29.998  22.752  1.00  0.00     0.004 A 
ATOM     14  C   UNL A   1      27.806  28.134  23.351  1.00  0.00     0.004 A 
ATOM     15  C   UNL A   1      30.120  28.687  23.113  1.00  0.00     0.004 A 
BRANCH  11  16
ATOM     16  C   UNL A   1      28.009  31.789  22.213  1.00  0.00     0.013 C 
ATOM     17  C   UNL A   1      28.749  32.946  22.897  1.00  0.00     0.012 C 
ATOM     18  C   UNL A   1      28.114  31.968  20.692  1.00  0.00     0.012 C 
ENDBRANCH  11  16
ENDBRANCH   9  10
ENDBRANCH   8   9
ENDBRANCH   7   8
ENDBRANCH   4   7
ENDBRANCH   2   3
ENDBRANCH   1   2
BRANCH   1  19
ATOM     19  C   UNL A   1      32.735  30.761  27.027  1.00  0.00     0.023 C 
BRANCH  19  20
ATOM     20  C   UNL A   1      33.659  31.916  27.389  1.00  0.00     0.116 C 
BRANCH  20  21
ATOM     21  N   UNL A   1      32.959  33.182  27.564  1.00  0.00    -0.352 N 
ATOM     22  C   UNL A   1      33.206  34.170  28.495  1.00  0.00     0.251 C 
ATOM     23  H   UNL A   1      32.216  33.354  26.941  1.00  0.00     0.163 HD
ATOM     24  O   UNL A   1      32.474  35.141  28.589  1.00  0.00    -0.269 OA
BRANCH  22  25
ATOM     25  C   UNL A   1      34.354  33.989  29.408  1.00  0.00     0.039 A 
ATOM     26  C   UNL A   1      34.168  33.280  30.596  1.00  0.00     0.014 A 
ATOM     27  C   UNL A   1      35.630  34.399  29.011  1.00  0.00     0.014 A 
ATOM     28  C   UNL A   1      35.283  32.884  31.337  1.00  0.00     0.010 A 
ATOM     29  C   UNL A   1      36.740  33.937  29.709  1.00  0.00     0.010 A 
ATOM     30  C   UNL A   1      36.578  33.154  30.864  1.00  0.00    -0.014 A 
BRANCH  30  31
ATOM     31  C   UNL A   1      37.783  32.589  31.527  1.00  0.00     0.031 A 
ATOM     32  C   UNL A   1      38.519  31.444  30.892  1.00  0.00     0.074 A 
ATOM     33  C   UNL A   1      38.142  33.033  32.750  1.00  0.00     0.049 A 
ATOM     34  N   UNL A   1      39.495  30.718  31.372  1.00  0.00    -0.248 NA
ATOM     35  C   UNL A   1      38.069  31.039  29.551  1.00  0.00     0.031 C 
ATOM     36  C   UNL A   1      37.473  34.104  33.492  1.00  0.00     0.029 A 
ATOM     37  N   UNL A   1      39.144  32.625  33.594  1.00  0.00    -0.354 N 
ATOM     38  C   UNL A   1      39.763  29.757  30.404  1.00  0.00     0.074 A 
ATOM     39  C   UNL A   1      38.808  29.961  29.335  1.00  0.00     0.031 C 
ATOM     40  C   UNL A   1      38.091  34.277  34.671  1.00  0.00     0.029 A 
ATOM     41  C   UNL A   1      39.166  33.299  34.794  1.00  0.00     0.049 A 
ATOM     42  H   UNL A   1      39.788  31.917  33.363  1.00  0.00     0.167 HD
ATOM     43  C   UNL A   1      40.729  28.807  30.400  1.00  0.00     0.034 A 
ATOM     44  C   UNL A   1      39.947  33.133  35.880  1.00  0.00     0.034 A 
ATOM     45  C   UNL A   1      41.688  28.633  31.462  1.00  0.00     0.049 A 
ATOM     46  C   UNL A   1      41.001  32.054  35.861  1.00  0.00     0.074 A 
ATOM     47  C   UNL A   1      42.763  27.764  31.520  1.00  0.00     0.029 A 
ATOM     48  N   UNL A   1      41.683  29.337  32.660  1.00  0.00    -0.354 N 
ATOM     49  N   UNL A   1      41.282  31.194  34.911  1.00  0.00    -0.248 NA
ATOM     50  C   UNL A   1      41.841  31.925  37.059  1.00  0.00     0.031 C 
ATOM     51  C   UNL A   1      43.368  27.897  32.776  1.00  0.00     0.029 A 
ATOM     52  C   UNL A   1      42.710  28.895  33.477  1.00  0.00     0.049 A 
ATOM     53  H   UNL A   1      41.041  30.047  32.894  1.00  0.00     0.167 HD
ATOM     54  C   UNL A   1      42.344  30.434  35.390  1.00  0.00     0.074 A 
ATOM     55  C   UNL A   1      42.663  30.947  36.706  1.00  0.00     0.031 C 
ATOM     56  C   UNL A   1      43.000  29.406  34.796  1.00  0.00     0.034 A 
BRANCH  43  57
ATOM     57  C   UNL A   1      40.776  27.872  29.217  1.00  0.00     0.023 A 
ATOM     58  C   UNL A   1      41.695  28.054  28.169  1.00  0.00     0.031 A 
ATOM     59  C   UNL A   1      39.871  26.800  29.121  1.00  0.00     0.131 A 
ATOM     60  C   UNL A   1      41.638  27.230  27.035  1.00  0.00     0.055 A 
ATOM     61  C   UNL A   1      39.872  25.933  28.026  1.00  0.00     0.041 A 
ATOM     62  F   UNL A   1      38.959  26.588  30.082  1.00  0.00    -0.206 F 
ATOM     63  C   UNL A   1      40.749  26.155  26.968  1.00  0.00     0.022 A 
BRANCH  60  64
ATOM     64  S   UNL A   1      42.647  27.671  25.595  1.00  0.00     0.124 S 
ATOM     65  O   UNL A   1      42.513  26.475  24.765  1.00  0.00    -0.237 OA
ATOM     66  O   UNL A   1      41.983  28.870  25.099  1.00  0.00    -0.237 OA
ATOM     67  O   UNL A   1      43.977  27.881  26.160  1.00  0.00    -0.744 OA
ENDBRANCH  60  64
ENDBRANCH  43  57
BRANCH  44  68
ATOM     68  C   UNL A   1      39.751  33.979  37.091  1.00  0.00     0.023 A 
ATOM     69  C   UNL A   1      39.086  33.480  38.221  1.00  0.00     0.031 A 
ATOM     70  C   UNL A   1      40.189  35.316  37.120  1.00  0.00     0.131 A 
ATOM     71  C   UNL A   1      38.840  34.321  39.318  1.00  0.00     0.055 A 
ATOM     72  C   UNL A   1      39.984  36.135  38.231  1.00  0.00     0.041 A 
ATOM     73  F   UNL A   1      40.835  35.840  36.067  1.00  0.00    -0.206 F 
ATOM     74  C   UNL A   1      39.294  35.643  39.335  1.00  0.00     0.022 A 
BRANCH  71  75
ATOM     75  S   UNL A   1      37.845  33.685  40.695  1.00  0.00     0.124 S 
ATOM     76  O   UNL A   1      36.731  33.059  39.994  1.00  0.00    -0.237 OA
ATOM     77  O   UNL A   1      38.783  32.779  41.351  1.00  0.00    -0.237 OA
ATOM     78  O   UNL A   1      37.509  34.887  41.455  1.00  0.00    -0.744 OA
ENDBRANCH  71  75
ENDBRANCH  44  68
BRANCH  56  79
ATOM     79  C   UNL A   1      44.144  28.792  35.561  1.00  0.00     0.023 A 
ATOM     80  C   UNL A   1      43.942  27.726  36.454  1.00  0.00     0.031 A 
ATOM     81  C   UNL A   1      45.451  29.281  35.394  1.00  0.00     0.131 A 
ATOM     82  C   UNL A   1      45.026  27.209  37.179  1.00  0.00     0.055 A 
ATOM     83  C   UNL A   1      46.534  28.730  36.079  1.00  0.00     0.041 A 
ATOM     84  F   UNL A   1      45.697  30.299  34.555  1.00  0.00    -0.206 F 
ATOM     85  C   UNL A   1      46.323  27.693  36.985  1.00  0.00     0.022 A 
BRANCH  82  86
ATOM     86  S   UNL A   1      44.713  25.931  38.428  1.00  0.00     0.124 S 
ATOM     87  O   UNL A   1      44.164  26.715  39.531  1.00  0.00    -0.237 OA
ATOM     88  O   UNL A   1      43.774  25.048  37.744  1.00  0.00    -0.237 OA
ATOM     89  O   UNL A   1      46.035  25.358  38.672  1.00  0.00    -0.744 OA
ENDBRANCH  82  86
ENDBRANCH  56  79
ENDBRANCH  30  31
ENDBRANCH  22  25
ENDBRANCH  20  21
ENDBRANCH  19  20
ENDBRANCH   1  19
TORSDOF 18
ENDMDL
