MODEL 1
REMARK VINA RESULT:     -11.3      0.000      0.000
REMARK SMILES CC[C@@H](C)[C@H](C(=O)NCCCCNC(=O)c1ccc(-c2c3nc(c(-c4cc(S(=O)(=O)[O-])ccc4F)c4ccc([nH]4)c(-c4cc(S(=O)(=O)[O-])ccc4F)c4nc(c(-c5cc(S(=O)(=O)[O-])ccc5F)c5ccc2[nH]5)C=C4)C=C3)cc1)S(=O)(=O)c1cccc(OC)c1
REMARK SMILES IDX 10 1 9 2 8 3 6 4 7 5 5 7 3 8 4 9 2 10 1 11 79 12 80 13 81 14
REMARK SMILES IDX 82 15 83 16 89 17 84 18 86 19 85 20 87 21 88 22 11 23 12 24
REMARK SMILES IDX 13 25 14 26 15 28 16 29 17 30 78 31 18 32 77 33 19 34 20 35
REMARK SMILES IDX 21 36 71 37 22 38 76 39 70 40 72 41 23 42 75 43 69 44 68 45
REMARK SMILES IDX 24 47 56 48 36 49 55 50 37 51 40 52 54 53 73 54 38 55 39 56
REMARK SMILES IDX 53 58 74 59 41 60 25 61 26 62 34 63 27 64 33 65 35 66 32 67
REMARK SMILES IDX 28 68 29 69 30 70 31 71 57 72 58 73 66 74 59 75 65 76 67 77
REMARK SMILES IDX 64 78 60 79 61 80 62 81 63 82 42 83 43 84 51 85 44 86 50 87
REMARK SMILES IDX 52 88 49 89 45 90 46 91 47 92 48 93
REMARK H PARENT 8 6 13 27 72 46 40 57
REMARK Flexibility Score: inf
ROOT
ATOM      1  C   UNL A   1      35.824  23.344  23.701  1.00  0.00     0.023 C 
ENDROOT
BRANCH   1   2
ATOM      2  C   UNL A   1      34.903  24.204  24.563  1.00  0.00     0.116 C 
BRANCH   2   3
ATOM      3  N   UNL A   1      34.075  25.085  23.769  1.00  0.00    -0.355 N 
ATOM      4  C   UNL A   1      32.919  25.760  23.974  1.00  0.00     0.239 C 
ATOM      5  O   UNL A   1      32.516  26.347  22.961  1.00  0.00    -0.274 OA
ATOM      6  H   UNL A   1      34.437  25.227  22.864  1.00  0.00     0.163 HD
BRANCH   4   7
ATOM      7  C   UNL A   1      32.110  25.858  25.264  1.00  0.00     0.205 C 
BRANCH   7   8
ATOM      8  C   UNL A   1      31.525  27.180  25.833  1.00  0.00     0.014 C 
ATOM      9  C   UNL A   1      31.034  28.172  24.768  1.00  0.00     0.009 C 
BRANCH   8  10
ATOM     10  C   UNL A   1      32.411  27.723  26.989  1.00  0.00     0.002 C 
ATOM     11  C   UNL A   1      32.452  29.232  27.175  1.00  0.00     0.004 C 
ENDBRANCH   8  10
ENDBRANCH   7   8
BRANCH   7  12
ATOM     12  S   UNL A   1      31.021  24.436  25.430  1.00  0.00     0.190 S 
ATOM     13  O   UNL A   1      30.046  24.654  26.479  1.00  0.00    -0.223 OA
ATOM     14  O   UNL A   1      30.531  24.132  24.091  1.00  0.00    -0.223 OA
BRANCH  12  15
ATOM     15  C   UNL A   1      31.974  23.014  25.939  1.00  0.00     0.071 A 
ATOM     16  C   UNL A   1      32.693  23.086  27.142  1.00  0.00     0.020 A 
ATOM     17  C   UNL A   1      32.087  21.889  25.116  1.00  0.00     0.066 A 
ATOM     18  C   UNL A   1      33.508  22.024  27.529  1.00  0.00     0.005 A 
ATOM     19  C   UNL A   1      32.869  20.810  25.535  1.00  0.00     0.120 A 
ATOM     20  C   UNL A   1      33.592  20.889  26.726  1.00  0.00     0.046 A 
BRANCH  19  21
ATOM     21  O   UNL A   1      33.056  19.661  24.816  1.00  0.00    -0.497 OA
ATOM     22  C   UNL A   1      32.790  18.458  25.531  1.00  0.00     0.278 C 
ENDBRANCH  19  21
ENDBRANCH  12  15
ENDBRANCH   7  12
ENDBRANCH   4   7
ENDBRANCH   2   3
ENDBRANCH   1   2
BRANCH   1  23
ATOM     23  C   UNL A   1      36.089  21.939  24.236  1.00  0.00     0.023 C 
BRANCH  23  24
ATOM     24  C   UNL A   1      36.920  21.864  25.512  1.00  0.00     0.116 C 
BRANCH  24  25
ATOM     25  N   UNL A   1      37.954  20.837  25.495  1.00  0.00    -0.352 N 
ATOM     26  C   UNL A   1      39.232  20.919  26.007  1.00  0.00     0.251 C 
ATOM     27  H   UNL A   1      37.711  19.985  25.067  1.00  0.00     0.163 HD
ATOM     28  O   UNL A   1      40.012  19.988  25.890  1.00  0.00    -0.269 OA
BRANCH  26  29
ATOM     29  C   UNL A   1      39.639  22.188  26.641  1.00  0.00     0.039 A 
ATOM     30  C   UNL A   1      40.643  22.159  27.611  1.00  0.00     0.014 A 
ATOM     31  C   UNL A   1      39.131  23.400  26.167  1.00  0.00     0.014 A 
ATOM     32  C   UNL A   1      41.212  23.357  28.039  1.00  0.00     0.010 A 
ATOM     33  C   UNL A   1      39.745  24.587  26.548  1.00  0.00     0.010 A 
ATOM     34  C   UNL A   1      40.805  24.574  27.469  1.00  0.00    -0.014 A 
BRANCH  34  35
ATOM     35  C   UNL A   1      41.498  25.846  27.793  1.00  0.00     0.031 A 
ATOM     36  C   UNL A   1      40.777  26.913  28.564  1.00  0.00     0.074 A 
ATOM     37  C   UNL A   1      42.734  26.072  27.306  1.00  0.00     0.049 A 
ATOM     38  N   UNL A   1      41.155  28.133  28.841  1.00  0.00    -0.248 NA
ATOM     39  C   UNL A   1      39.434  26.569  29.054  1.00  0.00     0.031 C 
ATOM     40  C   UNL A   1      43.513  25.131  26.498  1.00  0.00     0.029 A 
ATOM     41  N   UNL A   1      43.548  27.173  27.406  1.00  0.00    -0.354 N 
ATOM     42  C   UNL A   1      40.090  28.713  29.520  1.00  0.00     0.074 A 
ATOM     43  C   UNL A   1      39.032  27.724  29.562  1.00  0.00     0.031 C 
ATOM     44  C   UNL A   1      44.695  25.689  26.186  1.00  0.00     0.029 A 
ATOM     45  C   UNL A   1      44.744  27.038  26.739  1.00  0.00     0.049 A 
ATOM     46  H   UNL A   1      43.299  27.983  27.906  1.00  0.00     0.167 HD
ATOM     47  C   UNL A   1      40.010  29.948  30.075  1.00  0.00     0.034 A 
ATOM     48  C   UNL A   1      45.759  27.910  26.581  1.00  0.00     0.034 A 
ATOM     49  C   UNL A   1      41.081  30.912  30.041  1.00  0.00     0.049 A 
ATOM     50  C   UNL A   1      45.654  29.272  27.216  1.00  0.00     0.074 A 
ATOM     51  C   UNL A   1      41.131  32.168  30.620  1.00  0.00     0.029 A 
ATOM     52  N   UNL A   1      42.293  30.727  29.388  1.00  0.00    -0.354 N 
ATOM     53  N   UNL A   1      44.658  29.790  27.897  1.00  0.00    -0.248 NA
ATOM     54  C   UNL A   1      46.812  30.163  27.069  1.00  0.00     0.031 C 
ATOM     55  C   UNL A   1      42.354  32.761  30.279  1.00  0.00     0.029 A 
ATOM     56  C   UNL A   1      43.090  31.852  29.534  1.00  0.00     0.049 A 
ATOM     57  H   UNL A   1      42.549  29.915  28.894  1.00  0.00     0.167 HD
ATOM     58  C   UNL A   1      45.082  31.057  28.282  1.00  0.00     0.074 A 
ATOM     59  C   UNL A   1      46.425  31.222  27.765  1.00  0.00     0.031 C 
ATOM     60  C   UNL A   1      44.424  31.998  29.004  1.00  0.00     0.034 A 
BRANCH  47  61
ATOM     61  C   UNL A   1      38.707  30.318  30.738  1.00  0.00     0.023 A 
ATOM     62  C   UNL A   1      37.670  30.939  30.021  1.00  0.00     0.031 A 
ATOM     63  C   UNL A   1      38.518  30.099  32.113  1.00  0.00     0.131 A 
ATOM     64  C   UNL A   1      36.530  31.400  30.696  1.00  0.00     0.055 A 
ATOM     65  C   UNL A   1      37.345  30.485  32.764  1.00  0.00     0.041 A 
ATOM     66  F   UNL A   1      39.482  29.529  32.854  1.00  0.00    -0.206 F 
ATOM     67  C   UNL A   1      36.350  31.156  32.059  1.00  0.00     0.022 A 
BRANCH  64  68
ATOM     68  S   UNL A   1      35.363  32.455  29.795  1.00  0.00     0.124 S 
ATOM     69  O   UNL A   1      34.390  32.773  30.838  1.00  0.00    -0.237 OA
ATOM     70  O   UNL A   1      36.209  33.557  29.353  1.00  0.00    -0.237 OA
ATOM     71  O   UNL A   1      34.865  31.585  28.732  1.00  0.00    -0.744 OA
ENDBRANCH  64  68
ENDBRANCH  47  61
BRANCH  48  72
ATOM     72  C   UNL A   1      46.961  27.534  25.787  1.00  0.00     0.023 A 
ATOM     73  C   UNL A   1      47.070  27.886  24.434  1.00  0.00     0.031 A 
ATOM     74  C   UNL A   1      48.003  26.786  26.363  1.00  0.00     0.131 A 
ATOM     75  C   UNL A   1      48.177  27.455  23.686  1.00  0.00     0.055 A 
ATOM     76  C   UNL A   1      49.122  26.393  25.627  1.00  0.00     0.041 A 
ATOM     77  F   UNL A   1      47.950  26.435  27.658  1.00  0.00    -0.206 F 
ATOM     78  C   UNL A   1      49.207  26.718  24.276  1.00  0.00     0.022 A 
BRANCH  75  79
ATOM     79  S   UNL A   1      48.218  27.816  21.910  1.00  0.00     0.124 S 
ATOM     80  O   UNL A   1      46.908  28.419  21.698  1.00  0.00    -0.237 OA
ATOM     81  O   UNL A   1      49.363  28.716  21.813  1.00  0.00    -0.237 OA
ATOM     82  O   UNL A   1      48.408  26.502  21.300  1.00  0.00    -0.744 OA
ENDBRANCH  75  79
ENDBRANCH  48  72
BRANCH  60  83
ATOM     83  C   UNL A   1      45.174  33.267  29.311  1.00  0.00     0.023 A 
ATOM     84  C   UNL A   1      45.166  34.360  28.429  1.00  0.00     0.031 A 
ATOM     85  C   UNL A   1      45.914  33.375  30.502  1.00  0.00     0.131 A 
ATOM     86  C   UNL A   1      45.921  35.504  28.732  1.00  0.00     0.055 A 
ATOM     87  C   UNL A   1      46.625  34.533  30.820  1.00  0.00     0.041 A 
ATOM     88  F   UNL A   1      45.954  32.357  31.377  1.00  0.00    -0.206 F 
ATOM     89  C   UNL A   1      46.639  35.602  29.927  1.00  0.00     0.022 A 
BRANCH  86  90
ATOM     90  S   UNL A   1      46.004  36.842  27.511  1.00  0.00     0.124 S 
ATOM     91  O   UNL A   1      47.303  37.439  27.802  1.00  0.00    -0.237 OA
ATOM     92  O   UNL A   1      45.904  36.119  26.247  1.00  0.00    -0.237 OA
ATOM     93  O   UNL A   1      44.851  37.678  27.839  1.00  0.00    -0.744 OA
ENDBRANCH  86  90
ENDBRANCH  60  83
ENDBRANCH  34  35
ENDBRANCH  26  29
ENDBRANCH  24  25
ENDBRANCH  23  24
ENDBRANCH   1  23
TORSDOF 19
ENDMDL
MODEL 2
REMARK VINA RESULT:     -11.2      5.060      9.966
REMARK SMILES CC[C@@H](C)[C@H](C(=O)NCCCCNC(=O)c1ccc(-c2c3nc(c(-c4cc(S(=O)(=O)[O-])ccc4F)c4ccc([nH]4)c(-c4cc(S(=O)(=O)[O-])ccc4F)c4nc(c(-c5cc(S(=O)(=O)[O-])ccc5F)c5ccc2[nH]5)C=C4)C=C3)cc1)S(=O)(=O)c1cccc(OC)c1
REMARK SMILES IDX 10 1 9 2 8 3 6 4 7 5 5 7 3 8 4 9 2 10 1 11 79 12 80 13 81 14
REMARK SMILES IDX 82 15 83 16 89 17 84 18 86 19 85 20 87 21 88 22 11 23 12 24
REMARK SMILES IDX 13 25 14 26 15 28 16 29 17 30 78 31 18 32 77 33 19 34 20 35
REMARK SMILES IDX 21 36 71 37 22 38 76 39 70 40 72 41 23 42 75 43 69 44 68 45
REMARK SMILES IDX 24 47 56 48 36 49 55 50 37 51 40 52 54 53 73 54 38 55 39 56
REMARK SMILES IDX 53 58 74 59 41 60 25 61 26 62 34 63 27 64 33 65 35 66 32 67
REMARK SMILES IDX 28 68 29 69 30 70 31 71 57 72 58 73 66 74 59 75 65 76 67 77
REMARK SMILES IDX 64 78 60 79 61 80 62 81 63 82 42 83 43 84 51 85 44 86 50 87
REMARK SMILES IDX 52 88 49 89 45 90 46 91 47 92 48 93
REMARK H PARENT 8 6 13 27 72 46 40 57
REMARK Flexibility Score: inf
ROOT
ATOM      1  C   UNL A   1      32.759  27.169  26.425  1.00  0.00     0.023 C 
ENDROOT
BRANCH   1   2
ATOM      2  C   UNL A   1      32.222  25.984  25.627  1.00  0.00     0.116 C 
BRANCH   2   3
ATOM      3  N   UNL A   1      32.924  25.803  24.375  1.00  0.00    -0.355 N 
ATOM      4  C   UNL A   1      33.582  24.779  23.783  1.00  0.00     0.239 C 
ATOM      5  O   UNL A   1      34.116  25.101  22.712  1.00  0.00    -0.274 OA
ATOM      6  H   UNL A   1      32.925  26.619  23.823  1.00  0.00     0.163 HD
BRANCH   4   7
ATOM      7  C   UNL A   1      33.722  23.344  24.283  1.00  0.00     0.205 C 
BRANCH   7   8
ATOM      8  C   UNL A   1      34.661  22.908  25.442  1.00  0.00     0.014 C 
ATOM      9  C   UNL A   1      34.235  23.404  26.831  1.00  0.00     0.009 C 
BRANCH   8  10
ATOM     10  C   UNL A   1      36.153  23.064  25.032  1.00  0.00     0.002 C 
ATOM     11  C   UNL A   1      36.671  22.133  23.947  1.00  0.00     0.004 C 
ENDBRANCH   8  10
ENDBRANCH   7   8
BRANCH   7  12
ATOM     12  S   UNL A   1      32.124  22.520  24.277  1.00  0.00     0.190 S 
ATOM     13  O   UNL A   1      31.470  22.656  25.564  1.00  0.00    -0.223 OA
ATOM     14  O   UNL A   1      31.417  22.997  23.095  1.00  0.00    -0.223 OA
BRANCH  12  15
ATOM     15  C   UNL A   1      32.360  20.767  24.035  1.00  0.00     0.071 A 
ATOM     16  C   UNL A   1      32.199  20.241  22.744  1.00  0.00     0.020 A 
ATOM     17  C   UNL A   1      32.603  19.915  25.117  1.00  0.00     0.066 A 
ATOM     18  C   UNL A   1      32.300  18.867  22.535  1.00  0.00     0.005 A 
ATOM     19  C   UNL A   1      32.749  18.544  24.892  1.00  0.00     0.120 A 
ATOM     20  C   UNL A   1      32.576  18.023  23.608  1.00  0.00     0.046 A 
BRANCH  19  21
ATOM     21  O   UNL A   1      32.986  17.617  25.869  1.00  0.00    -0.497 OA
ATOM     22  C   UNL A   1      32.768  16.265  25.477  1.00  0.00     0.278 C 
ENDBRANCH  19  21
ENDBRANCH  12  15
ENDBRANCH   7  12
ENDBRANCH   4   7
ENDBRANCH   2   3
ENDBRANCH   1   2
BRANCH   1  23
ATOM     23  C   UNL A   1      32.028  28.490  26.200  1.00  0.00     0.023 C 
BRANCH  23  24
ATOM     24  C   UNL A   1      32.910  29.676  25.824  1.00  0.00     0.116 C 
BRANCH  24  25
ATOM     25  N   UNL A   1      32.479  30.946  26.393  1.00  0.00    -0.352 N 
ATOM     26  C   UNL A   1      33.184  31.768  27.249  1.00  0.00     0.251 C 
ATOM     27  H   UNL A   1      31.581  31.254  26.137  1.00  0.00     0.163 HD
ATOM     28  O   UNL A   1      32.684  32.794  27.681  1.00  0.00    -0.269 OA
BRANCH  26  29
ATOM     29  C   UNL A   1      34.530  31.331  27.670  1.00  0.00     0.039 A 
ATOM     30  C   UNL A   1      35.539  32.290  27.780  1.00  0.00     0.014 A 
ATOM     31  C   UNL A   1      34.738  30.014  28.088  1.00  0.00     0.014 A 
ATOM     32  C   UNL A   1      36.736  31.949  28.407  1.00  0.00     0.010 A 
ATOM     33  C   UNL A   1      35.907  29.697  28.769  1.00  0.00     0.010 A 
ATOM     34  C   UNL A   1      36.905  30.667  28.955  1.00  0.00    -0.014 A 
BRANCH  34  35
ATOM     35  C   UNL A   1      38.104  30.325  29.759  1.00  0.00     0.031 A 
ATOM     36  C   UNL A   1      39.119  29.361  29.215  1.00  0.00     0.074 A 
ATOM     37  C   UNL A   1      38.224  30.806  31.013  1.00  0.00     0.049 A 
ATOM     38  N   UNL A   1      40.163  28.839  29.803  1.00  0.00    -0.248 NA
ATOM     39  C   UNL A   1      38.902  28.896  27.837  1.00  0.00     0.031 C 
ATOM     40  C   UNL A   1      37.273  31.707  31.669  1.00  0.00     0.029 A 
ATOM     41  N   UNL A   1      39.186  30.590  31.967  1.00  0.00    -0.354 N 
ATOM     42  C   UNL A   1      40.719  27.965  28.875  1.00  0.00     0.074 A 
ATOM     43  C   UNL A   1      39.861  27.991  27.709  1.00  0.00     0.031 C 
ATOM     44  C   UNL A   1      37.707  31.977  32.912  1.00  0.00     0.029 A 
ATOM     45  C   UNL A   1      38.942  31.241  33.155  1.00  0.00     0.049 A 
ATOM     46  H   UNL A   1      39.976  30.023  31.815  1.00  0.00     0.167 HD
ATOM     47  C   UNL A   1      41.852  27.227  28.979  1.00  0.00     0.034 A 
ATOM     48  C   UNL A   1      39.632  31.233  34.312  1.00  0.00     0.034 A 
ATOM     49  C   UNL A   1      42.706  27.229  30.141  1.00  0.00     0.049 A 
ATOM     50  C   UNL A   1      40.894  30.415  34.402  1.00  0.00     0.074 A 
ATOM     51  C   UNL A   1      43.906  26.568  30.333  1.00  0.00     0.029 A 
ATOM     52  N   UNL A   1      42.447  27.930  31.313  1.00  0.00    -0.354 N 
ATOM     53  N   UNL A   1      41.434  29.630  33.499  1.00  0.00    -0.248 NA
ATOM     54  C   UNL A   1      41.643  30.489  35.663  1.00  0.00     0.031 C 
ATOM     55  C   UNL A   1      44.349  26.830  31.635  1.00  0.00     0.029 A 
ATOM     56  C   UNL A   1      43.454  27.701  32.237  1.00  0.00     0.049 A 
ATOM     57  H   UNL A   1      41.662  28.505  31.464  1.00  0.00     0.167 HD
ATOM     58  C   UNL A   1      42.601  29.138  34.074  1.00  0.00     0.074 A 
ATOM     59  C   UNL A   1      42.690  29.721  35.397  1.00  0.00     0.031 C 
ATOM     60  C   UNL A   1      43.520  28.287  33.554  1.00  0.00     0.034 A 
BRANCH  47  61
ATOM     61  C   UNL A   1      42.204  26.343  27.810  1.00  0.00     0.023 A 
ATOM     62  C   UNL A   1      41.758  25.011  27.737  1.00  0.00     0.031 A 
ATOM     63  C   UNL A   1      43.037  26.815  26.782  1.00  0.00     0.131 A 
ATOM     64  C   UNL A   1      42.220  24.174  26.712  1.00  0.00     0.055 A 
ATOM     65  C   UNL A   1      43.426  26.000  25.718  1.00  0.00     0.041 A 
ATOM     66  F   UNL A   1      43.510  28.072  26.809  1.00  0.00    -0.206 F 
ATOM     67  C   UNL A   1      43.032  24.665  25.688  1.00  0.00     0.022 A 
BRANCH  64  68
ATOM     68  S   UNL A   1      41.867  22.399  26.824  1.00  0.00     0.124 S 
ATOM     69  O   UNL A   1      40.451  22.403  27.184  1.00  0.00    -0.237 OA
ATOM     70  O   UNL A   1      42.184  21.927  25.481  1.00  0.00    -0.237 OA
ATOM     71  O   UNL A   1      42.769  21.936  27.877  1.00  0.00    -0.744 OA
ENDBRANCH  64  68
ENDBRANCH  47  61
BRANCH  48  72
ATOM     72  C   UNL A   1      39.150  32.016  35.483  1.00  0.00     0.023 A 
ATOM     73  C   UNL A   1      38.474  31.388  36.540  1.00  0.00     0.031 A 
ATOM     74  C   UNL A   1      39.330  33.408  35.545  1.00  0.00     0.131 A 
ATOM     75  C   UNL A   1      37.962  32.158  37.597  1.00  0.00     0.055 A 
ATOM     76  C   UNL A   1      38.854  34.165  36.618  1.00  0.00     0.041 A 
ATOM     77  F   UNL A   1      39.982  34.053  34.564  1.00  0.00    -0.206 F 
ATOM     78  C   UNL A   1      38.156  33.541  37.647  1.00  0.00     0.022 A 
BRANCH  75  79
ATOM     79  S   UNL A   1      36.980  31.330  38.876  1.00  0.00     0.124 S 
ATOM     80  O   UNL A   1      37.861  31.421  40.034  1.00  0.00    -0.237 OA
ATOM     81  O   UNL A   1      35.778  32.157  38.916  1.00  0.00    -0.237 OA
ATOM     82  O   UNL A   1      36.790  29.983  38.341  1.00  0.00    -0.744 OA
ENDBRANCH  75  79
ENDBRANCH  48  72
BRANCH  60  83
ATOM     83  C   UNL A   1      44.721  27.979  34.408  1.00  0.00     0.023 A 
ATOM     84  C   UNL A   1      44.757  26.858  35.254  1.00  0.00     0.031 A 
ATOM     85  C   UNL A   1      45.842  28.829  34.378  1.00  0.00     0.131 A 
ATOM     86  C   UNL A   1      45.877  26.638  36.070  1.00  0.00     0.055 A 
ATOM     87  C   UNL A   1      46.972  28.579  35.157  1.00  0.00     0.041 A 
ATOM     88  F   UNL A   1      45.855  29.914  33.587  1.00  0.00    -0.206 F 
ATOM     89  C   UNL A   1      46.988  27.483  36.017  1.00  0.00     0.022 A 
BRANCH  86  90
ATOM     90  S   UNL A   1      45.837  25.263  37.253  1.00  0.00     0.124 S 
ATOM     91  O   UNL A   1      44.559  24.631  36.940  1.00  0.00    -0.237 OA
ATOM     92  O   UNL A   1      47.029  24.504  36.892  1.00  0.00    -0.237 OA
ATOM     93  O   UNL A   1      45.896  25.928  38.553  1.00  0.00    -0.744 OA
ENDBRANCH  86  90
ENDBRANCH  60  83
ENDBRANCH  34  35
ENDBRANCH  26  29
ENDBRANCH  24  25
ENDBRANCH  23  24
ENDBRANCH   1  23
TORSDOF 19
ENDMDL
MODEL 3
REMARK VINA RESULT:     -11.1      1.393      2.975
REMARK SMILES CC[C@@H](C)[C@H](C(=O)NCCCCNC(=O)c1ccc(-c2c3nc(c(-c4cc(S(=O)(=O)[O-])ccc4F)c4ccc([nH]4)c(-c4cc(S(=O)(=O)[O-])ccc4F)c4nc(c(-c5cc(S(=O)(=O)[O-])ccc5F)c5ccc2[nH]5)C=C4)C=C3)cc1)S(=O)(=O)c1cccc(OC)c1
REMARK SMILES IDX 10 1 9 2 8 3 6 4 7 5 5 7 3 8 4 9 2 10 1 11 79 12 80 13 81 14
REMARK SMILES IDX 82 15 83 16 89 17 84 18 86 19 85 20 87 21 88 22 11 23 12 24
REMARK SMILES IDX 13 25 14 26 15 28 16 29 17 30 78 31 18 32 77 33 19 34 20 35
REMARK SMILES IDX 21 36 71 37 22 38 76 39 70 40 72 41 23 42 75 43 69 44 68 45
REMARK SMILES IDX 24 47 56 48 36 49 55 50 37 51 40 52 54 53 73 54 38 55 39 56
REMARK SMILES IDX 53 58 74 59 41 60 25 61 26 62 34 63 27 64 33 65 35 66 32 67
REMARK SMILES IDX 28 68 29 69 30 70 31 71 57 72 58 73 66 74 59 75 65 76 67 77
REMARK SMILES IDX 64 78 60 79 61 80 62 81 63 82 42 83 43 84 51 85 44 86 50 87
REMARK SMILES IDX 52 88 49 89 45 90 46 91 47 92 48 93
REMARK H PARENT 8 6 13 27 72 46 40 57
REMARK Flexibility Score: inf
ROOT
ATOM      1  C   UNL A   1      36.116  22.745  23.504  1.00  0.00     0.023 C 
ENDROOT
BRANCH   1   2
ATOM      2  C   UNL A   1      34.829  23.475  23.876  1.00  0.00     0.116 C 
BRANCH   2   3
ATOM      3  N   UNL A   1      34.454  24.462  22.887  1.00  0.00    -0.355 N 
ATOM      4  C   UNL A   1      33.627  25.534  22.867  1.00  0.00     0.239 C 
ATOM      5  O   UNL A   1      33.548  26.064  21.750  1.00  0.00    -0.274 OA
ATOM      6  H   UNL A   1      34.905  24.319  22.024  1.00  0.00     0.163 HD
BRANCH   4   7
ATOM      7  C   UNL A   1      32.827  26.120  24.027  1.00  0.00     0.205 C 
BRANCH   7   8
ATOM      8  C   UNL A   1      32.952  27.585  24.526  1.00  0.00     0.014 C 
ATOM      9  C   UNL A   1      33.880  28.471  23.682  1.00  0.00     0.009 C 
BRANCH   8  10
ATOM     10  C   UNL A   1      33.099  27.632  26.073  1.00  0.00     0.002 C 
ATOM     11  C   UNL A   1      31.846  27.950  26.875  1.00  0.00     0.004 C 
ENDBRANCH   8  10
ENDBRANCH   7   8
BRANCH   7  12
ATOM     12  S   UNL A   1      31.144  25.486  24.009  1.00  0.00     0.190 S 
ATOM     13  O   UNL A   1      30.992  24.457  22.999  1.00  0.00    -0.223 OA
ATOM     14  O   UNL A   1      30.815  25.145  25.388  1.00  0.00    -0.223 OA
BRANCH  12  15
ATOM     15  C   UNL A   1      30.021  26.794  23.544  1.00  0.00     0.071 A 
ATOM     16  C   UNL A   1      28.678  26.696  23.939  1.00  0.00     0.020 A 
ATOM     17  C   UNL A   1      30.439  27.845  22.722  1.00  0.00     0.066 A 
ATOM     18  C   UNL A   1      27.760  27.660  23.527  1.00  0.00     0.005 A 
ATOM     19  C   UNL A   1      29.523  28.832  22.352  1.00  0.00     0.120 A 
ATOM     20  C   UNL A   1      28.185  28.725  22.737  1.00  0.00     0.046 A 
BRANCH  19  21
ATOM     21  O   UNL A   1      29.815  29.903  21.553  1.00  0.00    -0.497 OA
ATOM     22  C   UNL A   1      28.723  30.784  21.310  1.00  0.00     0.278 C 
ENDBRANCH  19  21
ENDBRANCH  12  15
ENDBRANCH   7  12
ENDBRANCH   4   7
ENDBRANCH   2   3
ENDBRANCH   1   2
BRANCH   1  23
ATOM     23  C   UNL A   1      36.403  21.480  24.310  1.00  0.00     0.023 C 
BRANCH  23  24
ATOM     24  C   UNL A   1      37.356  21.651  25.488  1.00  0.00     0.116 C 
BRANCH  24  25
ATOM     25  N   UNL A   1      38.390  20.629  25.574  1.00  0.00    -0.352 N 
ATOM     26  C   UNL A   1      39.627  20.729  26.178  1.00  0.00     0.251 C 
ATOM     27  H   UNL A   1      38.182  19.764  25.153  1.00  0.00     0.163 HD
ATOM     28  O   UNL A   1      40.416  19.799  26.144  1.00  0.00    -0.269 OA
BRANCH  26  29
ATOM     29  C   UNL A   1      39.983  22.016  26.807  1.00  0.00     0.039 A 
ATOM     30  C   UNL A   1      40.991  22.032  27.772  1.00  0.00     0.014 A 
ATOM     31  C   UNL A   1      39.420  23.204  26.333  1.00  0.00     0.014 A 
ATOM     32  C   UNL A   1      41.511  23.255  28.194  1.00  0.00     0.010 A 
ATOM     33  C   UNL A   1      39.984  24.418  26.708  1.00  0.00     0.010 A 
ATOM     34  C   UNL A   1      41.049  24.452  27.623  1.00  0.00    -0.014 A 
BRANCH  34  35
ATOM     35  C   UNL A   1      41.688  25.753  27.940  1.00  0.00     0.031 A 
ATOM     36  C   UNL A   1      40.906  26.813  28.662  1.00  0.00     0.074 A 
ATOM     37  C   UNL A   1      42.932  26.010  27.491  1.00  0.00     0.049 A 
ATOM     38  N   UNL A   1      41.235  28.051  28.922  1.00  0.00    -0.248 NA
ATOM     39  C   UNL A   1      39.560  26.435  29.114  1.00  0.00     0.031 C 
ATOM     40  C   UNL A   1      43.769  25.077  26.731  1.00  0.00     0.029 A 
ATOM     41  N   UNL A   1      43.706  27.140  27.592  1.00  0.00    -0.354 N 
ATOM     42  C   UNL A   1      40.128  28.610  29.551  1.00  0.00     0.074 A 
ATOM     43  C   UNL A   1      39.103  27.587  29.581  1.00  0.00     0.031 C 
ATOM     44  C   UNL A   1      44.942  25.668  26.447  1.00  0.00     0.029 A 
ATOM     45  C   UNL A   1      44.928  27.030  26.969  1.00  0.00     0.049 A 
ATOM     46  H   UNL A   1      43.413  27.952  28.065  1.00  0.00     0.167 HD
ATOM     47  C   UNL A   1      39.988  29.853  30.074  1.00  0.00     0.034 A 
ATOM     48  C   UNL A   1      45.919  27.932  26.825  1.00  0.00     0.034 A 
ATOM     49  C   UNL A   1      41.028  30.852  30.054  1.00  0.00     0.049 A 
ATOM     50  C   UNL A   1      45.747  29.304  27.424  1.00  0.00     0.074 A 
ATOM     51  C   UNL A   1      41.017  32.121  30.605  1.00  0.00     0.029 A 
ATOM     52  N   UNL A   1      42.267  30.693  29.447  1.00  0.00    -0.354 N 
ATOM     53  N   UNL A   1      44.712  29.802  28.059  1.00  0.00    -0.248 NA
ATOM     54  C   UNL A   1      46.880  30.229  27.295  1.00  0.00     0.031 C 
ATOM     55  C   UNL A   1      42.230  32.747  30.291  1.00  0.00     0.029 A 
ATOM     56  C   UNL A   1      43.021  31.847  29.593  1.00  0.00     0.049 A 
ATOM     57  H   UNL A   1      42.567  29.880  28.981  1.00  0.00     0.167 HD
ATOM     58  C   UNL A   1      45.080  31.092  28.428  1.00  0.00     0.074 A 
ATOM     59  C   UNL A   1      46.434  31.290  27.954  1.00  0.00     0.031 C 
ATOM     60  C   UNL A   1      44.368  32.026  29.106  1.00  0.00     0.034 A 
BRANCH  47  61
ATOM     61  C   UNL A   1      38.652  30.194  30.684  1.00  0.00     0.023 A 
ATOM     62  C   UNL A   1      37.640  30.814  29.931  1.00  0.00     0.031 A 
ATOM     63  C   UNL A   1      38.405  29.948  32.045  1.00  0.00     0.131 A 
ATOM     64  C   UNL A   1      36.465  31.248  30.562  1.00  0.00     0.055 A 
ATOM     65  C   UNL A   1      37.198  30.307  32.649  1.00  0.00     0.041 A 
ATOM     66  F   UNL A   1      39.342  29.377  32.818  1.00  0.00    -0.206 F 
ATOM     67  C   UNL A   1      36.226  30.977  31.911  1.00  0.00     0.022 A 
BRANCH  64  68
ATOM     68  S   UNL A   1      35.325  32.304  29.628  1.00  0.00     0.124 S 
ATOM     69  O   UNL A   1      34.847  31.383  28.600  1.00  0.00    -0.237 OA
ATOM     70  O   UNL A   1      34.351  32.692  30.642  1.00  0.00    -0.237 OA
ATOM     71  O   UNL A   1      36.180  33.384  29.140  1.00  0.00    -0.744 OA
ENDBRANCH  64  68
ENDBRANCH  47  61
BRANCH  48  72
ATOM     72  C   UNL A   1      47.159  27.578  26.082  1.00  0.00     0.023 A 
ATOM     73  C   UNL A   1      47.265  27.815  24.703  1.00  0.00     0.031 A 
ATOM     74  C   UNL A   1      48.243  26.966  26.734  1.00  0.00     0.131 A 
ATOM     75  C   UNL A   1      48.414  27.404  24.010  1.00  0.00     0.055 A 
ATOM     76  C   UNL A   1      49.401  26.595  26.048  1.00  0.00     0.041 A 
ATOM     77  F   UNL A   1      48.195  26.730  28.055  1.00  0.00    -0.206 F 
ATOM     78  C   UNL A   1      49.486  26.804  24.675  1.00  0.00     0.022 A 
BRANCH  75  79
ATOM     79  S   UNL A   1      48.459  27.608  22.209  1.00  0.00     0.124 S 
ATOM     80  O   UNL A   1      47.130  28.141  21.935  1.00  0.00    -0.237 OA
ATOM     81  O   UNL A   1      49.572  28.537  22.038  1.00  0.00    -0.237 OA
ATOM     82  O   UNL A   1      48.702  26.252  21.719  1.00  0.00    -0.744 OA
ENDBRANCH  75  79
ENDBRANCH  48  72
BRANCH  60  83
ATOM     83  C   UNL A   1      45.065  33.326  29.408  1.00  0.00     0.023 A 
ATOM     84  C   UNL A   1      44.882  34.464  28.606  1.00  0.00     0.031 A 
ATOM     85  C   UNL A   1      45.931  33.419  30.512  1.00  0.00     0.131 A 
ATOM     86  C   UNL A   1      45.592  35.641  28.895  1.00  0.00     0.055 A 
ATOM     87  C   UNL A   1      46.598  34.604  30.823  1.00  0.00     0.041 A 
ATOM     88  F   UNL A   1      46.139  32.357  31.308  1.00  0.00    -0.206 F 
ATOM     89  C   UNL A   1      46.437  35.721  30.005  1.00  0.00     0.022 A 
BRANCH  86  90
ATOM     90  S   UNL A   1      45.444  37.049  27.762  1.00  0.00     0.124 S 
ATOM     91  O   UNL A   1      44.216  36.730  27.042  1.00  0.00    -0.237 OA
ATOM     92  O   UNL A   1      45.370  38.182  28.679  1.00  0.00    -0.237 OA
ATOM     93  O   UNL A   1      46.667  36.976  26.965  1.00  0.00    -0.744 OA
ENDBRANCH  86  90
ENDBRANCH  60  83
ENDBRANCH  34  35
ENDBRANCH  26  29
ENDBRANCH  24  25
ENDBRANCH  23  24
ENDBRANCH   1  23
TORSDOF 19
ENDMDL
