MODEL 1
REMARK VINA RESULT:     -11.8      0.000      0.000
REMARK SMILES C[C@@H](C(=O)NCCCCNC(=O)c1ccc(-c2c3nc(c(-c4cc(S(=O)(=O)[O-])ccc4F)c4ccc([nH]4)c(-c4cc(S(=O)(=O)[O-])ccc4F)c4nc(c(-c5cc(S(=O)(=O)[O-])ccc5F)c5ccc2[nH]5)C=C4)C=C3)cc1)c1ccc(-c2cccc(OC(=O)Nc3ccccc3)c2)c(F)c1
REMARK SMILES IDX 6 1 5 2 3 3 4 4 2 6 1 7 76 8 77 9 98 10 78 11 96 12 79 13
REMARK SMILES IDX 97 14 80 15 81 16 95 17 82 18 84 19 83 20 85 21 86 22 87 23
REMARK SMILES IDX 88 24 89 26 90 27 94 28 91 29 93 30 92 31 7 32 8 33 9 34
REMARK SMILES IDX 10 35 11 36 12 38 13 39 14 40 75 41 15 42 74 43 16 44 17 45
REMARK SMILES IDX 18 46 68 47 19 48 73 49 67 50 69 51 20 52 72 53 66 54 65 55
REMARK SMILES IDX 21 57 53 58 33 59 52 60 34 61 37 62 51 63 70 64 35 65 36 66
REMARK SMILES IDX 50 68 71 69 38 70 22 71 23 72 31 73 24 74 30 75 32 76 29 77
REMARK SMILES IDX 25 78 26 79 27 80 28 81 54 82 55 83 63 84 56 85 62 86 64 87
REMARK SMILES IDX 61 88 57 89 58 90 59 91 60 92 39 93 40 94 48 95 41 96 47 97
REMARK SMILES IDX 49 98 46 99 42 100 43 101 44 102 45 103
REMARK H PARENT 5 5 88 25 10 37 69 56 37 67
REMARK Flexibility Score: inf
ROOT
ATOM      1  C   UNL A   1      30.633  31.693  24.858  1.00  0.00     0.116 C 
ENDROOT
BRANCH   1   2
ATOM      2  N   UNL A   1      29.197  31.640  24.679  1.00  0.00    -0.356 N 
ATOM      3  C   UNL A   1      28.460  31.113  23.660  1.00  0.00     0.227 C 
ATOM      4  O   UNL A   1      27.242  31.302  23.699  1.00  0.00    -0.274 OA
ATOM      5  H   UNL A   1      28.672  32.049  25.405  1.00  0.00     0.163 HD
BRANCH   3   6
ATOM      6  C   UNL A   1      29.145  30.287  22.560  1.00  0.00     0.105 C 
ATOM      7  C   UNL A   1      28.309  30.202  21.276  1.00  0.00     0.023 C 
BRANCH   6   8
ATOM      8  C   UNL A   1      29.491  28.884  23.048  1.00  0.00    -0.033 A 
ATOM      9  C   UNL A   1      28.481  27.937  23.277  1.00  0.00     0.005 A 
ATOM     10  C   UNL A   1      30.823  28.511  23.273  1.00  0.00     0.044 A 
ATOM     11  C   UNL A   1      28.794  26.671  23.784  1.00  0.00     0.012 A 
ATOM     12  C   UNL A   1      31.124  27.255  23.782  1.00  0.00     0.131 A 
ATOM     13  C   UNL A   1      30.122  26.321  24.074  1.00  0.00     0.018 A 
ATOM     14  F   UNL A   1      32.412  26.965  24.026  1.00  0.00    -0.206 F 
BRANCH  13  15
ATOM     15  C   UNL A   1      30.450  25.064  24.755  1.00  0.00    -0.012 A 
ATOM     16  C   UNL A   1      30.138  24.836  26.102  1.00  0.00     0.009 A 
ATOM     17  C   UNL A   1      31.113  24.054  24.036  1.00  0.00     0.056 A 
ATOM     18  C   UNL A   1      30.473  23.623  26.712  1.00  0.00     0.004 A 
ATOM     19  C   UNL A   1      31.462  22.858  24.648  1.00  0.00     0.133 A 
ATOM     20  C   UNL A   1      31.136  22.633  25.984  1.00  0.00     0.047 A 
BRANCH  19  21
ATOM     21  O   UNL A   1      32.161  21.811  24.000  1.00  0.00    -0.410 OA
BRANCH  21  22
ATOM     22  C   UNL A   1      32.636  20.646  24.601  1.00  0.00     0.417 C 
ATOM     23  O   UNL A   1      32.011  19.596  24.734  1.00  0.00    -0.224 OA
ATOM     24  N   UNL A   1      33.956  20.679  24.965  1.00  0.00    -0.291 N 
ATOM     25  H   UNL A   1      34.320  19.817  25.270  1.00  0.00     0.173 HD
BRANCH  24  26
ATOM     26  C   UNL A   1      34.876  21.736  24.975  1.00  0.00     0.044 A 
ATOM     27  C   UNL A   1      34.913  22.530  26.128  1.00  0.00     0.026 A 
ATOM     28  C   UNL A   1      35.718  22.050  23.908  1.00  0.00     0.026 A 
ATOM     29  C   UNL A   1      35.815  23.590  26.233  1.00  0.00     0.002 A 
ATOM     30  C   UNL A   1      36.609  23.123  24.005  1.00  0.00     0.002 A 
ATOM     31  C   UNL A   1      36.665  23.885  25.170  1.00  0.00     0.000 A 
ENDBRANCH  24  26
ENDBRANCH  21  22
ENDBRANCH  19  21
ENDBRANCH  13  15
ENDBRANCH   6   8
ENDBRANCH   3   6
ENDBRANCH   1   2
BRANCH   1  32
ATOM     32  C   UNL A   1      31.014  31.424  26.314  1.00  0.00     0.023 C 
BRANCH  32  33
ATOM     33  C   UNL A   1      32.209  30.485  26.497  1.00  0.00     0.023 C 
BRANCH  33  34
ATOM     34  C   UNL A   1      33.397  31.082  27.242  1.00  0.00     0.116 C 
BRANCH  34  35
ATOM     35  N   UNL A   1      33.270  32.516  27.450  1.00  0.00    -0.352 N 
ATOM     36  C   UNL A   1      34.026  33.338  28.252  1.00  0.00     0.251 C 
ATOM     37  H   UNL A   1      32.545  32.956  26.951  1.00  0.00     0.163 HD
ATOM     38  O   UNL A   1      33.697  34.508  28.412  1.00  0.00    -0.269 OA
BRANCH  36  39
ATOM     39  C   UNL A   1      35.209  32.786  28.945  1.00  0.00     0.039 A 
ATOM     40  C   UNL A   1      35.017  31.954  30.051  1.00  0.00     0.014 A 
ATOM     41  C   UNL A   1      36.499  33.056  28.480  1.00  0.00     0.014 A 
ATOM     42  C   UNL A   1      36.115  31.328  30.644  1.00  0.00     0.010 A 
ATOM     43  C   UNL A   1      37.585  32.384  29.033  1.00  0.00     0.010 A 
ATOM     44  C   UNL A   1      37.403  31.505  30.112  1.00  0.00    -0.014 A 
BRANCH  44  45
ATOM     45  C   UNL A   1      38.574  30.768  30.653  1.00  0.00     0.031 A 
ATOM     46  C   UNL A   1      39.192  31.191  31.957  1.00  0.00     0.074 A 
ATOM     47  C   UNL A   1      39.134  29.781  29.924  1.00  0.00     0.049 A 
ATOM     48  N   UNL A   1      40.285  30.761  32.532  1.00  0.00    -0.248 NA
ATOM     49  C   UNL A   1      38.502  32.260  32.693  1.00  0.00     0.031 C 
ATOM     50  C   UNL A   1      38.646  29.310  28.624  1.00  0.00     0.029 A 
ATOM     51  N   UNL A   1      40.247  29.012  30.156  1.00  0.00    -0.354 N 
ATOM     52  C   UNL A   1      40.428  31.522  33.688  1.00  0.00     0.074 A 
ATOM     53  C   UNL A   1      39.334  32.470  33.704  1.00  0.00     0.031 C 
ATOM     54  C   UNL A   1      39.452  28.331  28.181  1.00  0.00     0.029 A 
ATOM     55  C   UNL A   1      40.539  28.137  29.135  1.00  0.00     0.049 A 
ATOM     56  H   UNL A   1      40.786  29.081  30.977  1.00  0.00     0.167 HD
ATOM     57  C   UNL A   1      41.378  31.427  34.652  1.00  0.00     0.034 A 
ATOM     58  C   UNL A   1      41.577  27.293  28.974  1.00  0.00     0.034 A 
ATOM     59  C   UNL A   1      42.449  30.462  34.628  1.00  0.00     0.049 A 
ATOM     60  C   UNL A   1      42.632  27.221  30.048  1.00  0.00     0.074 A 
ATOM     61  C   UNL A   1      43.412  30.220  35.592  1.00  0.00     0.029 A 
ATOM     62  N   UNL A   1      42.708  29.585  33.582  1.00  0.00    -0.354 N 
ATOM     63  N   UNL A   1      42.717  27.902  31.168  1.00  0.00    -0.248 NA
ATOM     64  C   UNL A   1      43.727  26.265  29.841  1.00  0.00     0.031 C 
ATOM     65  C   UNL A   1      44.291  29.249  35.102  1.00  0.00     0.029 A 
ATOM     66  C   UNL A   1      43.838  28.831  33.861  1.00  0.00     0.049 A 
ATOM     67  H   UNL A   1      42.169  29.511  32.761  1.00  0.00     0.167 HD
ATOM     68  C   UNL A   1      43.862  27.436  31.808  1.00  0.00     0.074 A 
ATOM     69  C   UNL A   1      44.425  26.409  30.957  1.00  0.00     0.031 C 
ATOM     70  C   UNL A   1      44.395  27.819  32.995  1.00  0.00     0.034 A 
BRANCH  57  71
ATOM     71  C   UNL A   1      41.313  32.411  35.793  1.00  0.00     0.023 A 
ATOM     72  C   UNL A   1      40.469  32.209  36.899  1.00  0.00     0.031 A 
ATOM     73  C   UNL A   1      42.096  33.578  35.768  1.00  0.00     0.131 A 
ATOM     74  C   UNL A   1      40.374  33.190  37.897  1.00  0.00     0.055 A 
ATOM     75  C   UNL A   1      42.055  34.514  36.803  1.00  0.00     0.041 A 
ATOM     76  F   UNL A   1      42.907  33.835  34.729  1.00  0.00    -0.206 F 
ATOM     77  C   UNL A   1      41.179  34.331  37.869  1.00  0.00     0.022 A 
BRANCH  74  78
ATOM     78  S   UNL A   1      39.084  33.018  39.161  1.00  0.00     0.124 S 
ATOM     79  O   UNL A   1      38.520  34.365  39.192  1.00  0.00    -0.237 OA
ATOM     80  O   UNL A   1      38.228  31.980  38.599  1.00  0.00    -0.237 OA
ATOM     81  O   UNL A   1      39.828  32.634  40.359  1.00  0.00    -0.744 OA
ENDBRANCH  74  78
ENDBRANCH  57  71
BRANCH  58  82
ATOM     82  C   UNL A   1      41.695  26.469  27.737  1.00  0.00     0.023 A 
ATOM     83  C   UNL A   1      41.305  25.120  27.725  1.00  0.00     0.031 A 
ATOM     84  C   UNL A   1      42.245  27.005  26.559  1.00  0.00     0.131 A 
ATOM     85  C   UNL A   1      41.511  24.342  26.576  1.00  0.00     0.055 A 
ATOM     86  C   UNL A   1      42.401  26.240  25.401  1.00  0.00     0.041 A 
ATOM     87  F   UNL A   1      42.630  28.291  26.513  1.00  0.00    -0.206 F 
ATOM     88  C   UNL A   1      42.045  24.895  25.411  1.00  0.00     0.022 A 
BRANCH  85  89
ATOM     89  S   UNL A   1      41.152  22.565  26.656  1.00  0.00     0.124 S 
ATOM     90  O   UNL A   1      39.702  22.547  26.494  1.00  0.00    -0.237 OA
ATOM     91  O   UNL A   1      41.930  22.049  25.535  1.00  0.00    -0.237 OA
ATOM     92  O   UNL A   1      41.636  22.179  27.979  1.00  0.00    -0.744 OA
ENDBRANCH  85  89
ENDBRANCH  58  82
BRANCH  70  93
ATOM     93  C   UNL A   1      45.632  27.091  33.457  1.00  0.00     0.023 A 
ATOM     94  C   UNL A   1      45.555  25.901  34.202  1.00  0.00     0.031 A 
ATOM     95  C   UNL A   1      46.906  27.596  33.145  1.00  0.00     0.131 A 
ATOM     96  C   UNL A   1      46.731  25.279  34.648  1.00  0.00     0.055 A 
ATOM     97  C   UNL A   1      48.073  26.944  33.544  1.00  0.00     0.041 A 
ATOM     98  F   UNL A   1      47.036  28.731  32.437  1.00  0.00    -0.206 F 
ATOM     99  C   UNL A   1      47.989  25.784  34.309  1.00  0.00     0.022 A 
BRANCH  96 100
ATOM    100  S   UNL A   1      46.597  23.833  35.734  1.00  0.00     0.124 S 
ATOM    101  O   UNL A   1      47.911  23.218  35.582  1.00  0.00    -0.237 OA
ATOM    102  O   UNL A   1      46.324  24.440  37.033  1.00  0.00    -0.237 OA
ATOM    103  O   UNL A   1      45.486  23.075  35.161  1.00  0.00    -0.744 OA
ENDBRANCH  96 100
ENDBRANCH  70  93
ENDBRANCH  44  45
ENDBRANCH  36  39
ENDBRANCH  34  35
ENDBRANCH  33  34
ENDBRANCH  32  33
ENDBRANCH   1  32
TORSDOF 19
ENDMDL
MODEL 2
REMARK VINA RESULT:     -11.7      2.277      3.409
REMARK SMILES C[C@@H](C(=O)NCCCCNC(=O)c1ccc(-c2c3nc(c(-c4cc(S(=O)(=O)[O-])ccc4F)c4ccc([nH]4)c(-c4cc(S(=O)(=O)[O-])ccc4F)c4nc(c(-c5cc(S(=O)(=O)[O-])ccc5F)c5ccc2[nH]5)C=C4)C=C3)cc1)c1ccc(-c2cccc(OC(=O)Nc3ccccc3)c2)c(F)c1
REMARK SMILES IDX 6 1 5 2 3 3 4 4 2 6 1 7 76 8 77 9 98 10 78 11 96 12 79 13
REMARK SMILES IDX 97 14 80 15 81 16 95 17 82 18 84 19 83 20 85 21 86 22 87 23
REMARK SMILES IDX 88 24 89 26 90 27 94 28 91 29 93 30 92 31 7 32 8 33 9 34
REMARK SMILES IDX 10 35 11 36 12 38 13 39 14 40 75 41 15 42 74 43 16 44 17 45
REMARK SMILES IDX 18 46 68 47 19 48 73 49 67 50 69 51 20 52 72 53 66 54 65 55
REMARK SMILES IDX 21 57 53 58 33 59 52 60 34 61 37 62 51 63 70 64 35 65 36 66
REMARK SMILES IDX 50 68 71 69 38 70 22 71 23 72 31 73 24 74 30 75 32 76 29 77
REMARK SMILES IDX 25 78 26 79 27 80 28 81 54 82 55 83 63 84 56 85 62 86 64 87
REMARK SMILES IDX 61 88 57 89 58 90 59 91 60 92 39 93 40 94 48 95 41 96 47 97
REMARK SMILES IDX 49 98 46 99 42 100 43 101 44 102 45 103
REMARK H PARENT 5 5 88 25 10 37 69 56 37 67
REMARK Flexibility Score: inf
ROOT
ATOM      1  C   UNL A   1      34.843  30.182  27.341  1.00  0.00     0.116 C 
ENDROOT
BRANCH   1   2
ATOM      2  N   UNL A   1      33.490  29.763  27.646  1.00  0.00    -0.356 N 
ATOM      3  C   UNL A   1      32.508  29.305  26.819  1.00  0.00     0.227 C 
ATOM      4  O   UNL A   1      31.397  29.122  27.323  1.00  0.00    -0.274 OA
ATOM      5  H   UNL A   1      33.243  29.817  28.597  1.00  0.00     0.163 HD
BRANCH   3   6
ATOM      6  C   UNL A   1      32.819  29.000  25.346  1.00  0.00     0.105 C 
ATOM      7  C   UNL A   1      31.611  29.218  24.427  1.00  0.00     0.023 C 
BRANCH   6   8
ATOM      8  C   UNL A   1      33.355  27.582  25.170  1.00  0.00    -0.033 A 
ATOM      9  C   UNL A   1      33.753  26.825  26.282  1.00  0.00     0.005 A 
ATOM     10  C   UNL A   1      33.458  27.006  23.897  1.00  0.00     0.044 A 
ATOM     11  C   UNL A   1      34.302  25.548  26.116  1.00  0.00     0.012 A 
ATOM     12  C   UNL A   1      34.009  25.742  23.740  1.00  0.00     0.131 A 
ATOM     13  C   UNL A   1      34.467  24.999  24.835  1.00  0.00     0.018 A 
ATOM     14  F   UNL A   1      34.130  25.256  22.494  1.00  0.00    -0.206 F 
BRANCH  13  15
ATOM     15  C   UNL A   1      35.188  23.738  24.632  1.00  0.00    -0.012 A 
ATOM     16  C   UNL A   1      36.411  23.672  23.953  1.00  0.00     0.009 A 
ATOM     17  C   UNL A   1      34.625  22.548  25.126  1.00  0.00     0.056 A 
ATOM     18  C   UNL A   1      37.062  22.446  23.780  1.00  0.00     0.004 A 
ATOM     19  C   UNL A   1      35.262  21.328  24.937  1.00  0.00     0.133 A 
ATOM     20  C   UNL A   1      36.486  21.273  24.273  1.00  0.00     0.047 A 
BRANCH  19  21
ATOM     21  O   UNL A   1      34.740  20.086  25.373  1.00  0.00    -0.410 OA
BRANCH  21  22
ATOM     22  C   UNL A   1      34.069  19.155  24.581  1.00  0.00     0.417 C 
ATOM     23  O   UNL A   1      34.410  17.990  24.390  1.00  0.00    -0.224 OA
ATOM     24  N   UNL A   1      32.869  19.583  24.077  1.00  0.00    -0.291 N 
ATOM     25  H   UNL A   1      32.340  18.885  23.628  1.00  0.00     0.173 HD
BRANCH  24  26
ATOM     26  C   UNL A   1      32.268  20.849  24.094  1.00  0.00     0.044 A 
ATOM     27  C   UNL A   1      31.659  21.244  25.291  1.00  0.00     0.026 A 
ATOM     28  C   UNL A   1      32.222  21.707  22.994  1.00  0.00     0.026 A 
ATOM     29  C   UNL A   1      31.058  22.498  25.402  1.00  0.00     0.002 A 
ATOM     30  C   UNL A   1      31.604  22.955  23.100  1.00  0.00     0.002 A 
ATOM     31  C   UNL A   1      31.031  23.355  24.306  1.00  0.00     0.000 A 
ENDBRANCH  24  26
ENDBRANCH  21  22
ENDBRANCH  19  21
ENDBRANCH  13  15
ENDBRANCH   6   8
ENDBRANCH   3   6
ENDBRANCH   1   2
BRANCH   1  32
ATOM     32  C   UNL A   1      35.183  31.494  28.048  1.00  0.00     0.023 C 
BRANCH  32  33
ATOM     33  C   UNL A   1      33.968  32.311  28.495  1.00  0.00     0.023 C 
BRANCH  33  34
ATOM     34  C   UNL A   1      34.021  33.795  28.151  1.00  0.00     0.116 C 
BRANCH  34  35
ATOM     35  N   UNL A   1      33.307  34.623  29.110  1.00  0.00    -0.352 N 
ATOM     36  C   UNL A   1      33.533  34.764  30.459  1.00  0.00     0.251 C 
ATOM     37  H   UNL A   1      32.562  35.153  28.745  1.00  0.00     0.163 HD
ATOM     38  O   UNL A   1      32.748  35.408  31.147  1.00  0.00    -0.269 OA
BRANCH  36  39
ATOM     39  C   UNL A   1      34.703  34.100  31.071  1.00  0.00     0.039 A 
ATOM     40  C   UNL A   1      34.492  33.039  31.954  1.00  0.00     0.014 A 
ATOM     41  C   UNL A   1      36.002  34.499  30.742  1.00  0.00     0.014 A 
ATOM     42  C   UNL A   1      35.585  32.323  32.448  1.00  0.00     0.010 A 
ATOM     43  C   UNL A   1      37.086  33.748  31.186  1.00  0.00     0.010 A 
ATOM     44  C   UNL A   1      36.888  32.646  32.034  1.00  0.00    -0.014 A 
BRANCH  44  45
ATOM     45  C   UNL A   1      38.059  31.835  32.456  1.00  0.00     0.031 A 
ATOM     46  C   UNL A   1      38.788  32.172  33.727  1.00  0.00     0.074 A 
ATOM     47  C   UNL A   1      38.520  30.860  31.647  1.00  0.00     0.049 A 
ATOM     48  N   UNL A   1      39.898  31.670  34.203  1.00  0.00    -0.248 NA
ATOM     49  C   UNL A   1      38.202  33.235  34.557  1.00  0.00     0.031 C 
ATOM     50  C   UNL A   1      37.920  30.469  30.368  1.00  0.00     0.029 A 
ATOM     51  N   UNL A   1      39.610  30.034  31.765  1.00  0.00    -0.354 N 
ATOM     52  C   UNL A   1      40.158  32.371  35.376  1.00  0.00     0.074 A 
ATOM     53  C   UNL A   1      39.112  33.363  35.512  1.00  0.00     0.031 C 
ATOM     54  C   UNL A   1      38.645  29.478  29.826  1.00  0.00     0.029 A 
ATOM     55  C   UNL A   1      39.787  29.194  30.689  1.00  0.00     0.049 A 
ATOM     56  H   UNL A   1      40.209  30.042  32.546  1.00  0.00     0.167 HD
ATOM     57  C   UNL A   1      41.168  32.191  36.263  1.00  0.00     0.034 A 
ATOM     58  C   UNL A   1      40.772  28.314  30.416  1.00  0.00     0.034 A 
ATOM     59  C   UNL A   1      42.189  31.183  36.121  1.00  0.00     0.049 A 
ATOM     60  C   UNL A   1      41.896  28.149  31.407  1.00  0.00     0.074 A 
ATOM     61  C   UNL A   1      43.207  30.857  37.000  1.00  0.00     0.029 A 
ATOM     62  N   UNL A   1      42.333  30.345  35.022  1.00  0.00    -0.354 N 
ATOM     63  N   UNL A   1      42.092  28.774  32.545  1.00  0.00    -0.248 NA
ATOM     64  C   UNL A   1      42.928  27.157  31.080  1.00  0.00     0.031 C 
ATOM     65  C   UNL A   1      44.003  29.873  36.407  1.00  0.00     0.029 A 
ATOM     66  C   UNL A   1      43.444  29.531  35.186  1.00  0.00     0.049 A 
ATOM     67  H   UNL A   1      41.734  30.331  34.241  1.00  0.00     0.167 HD
ATOM     68  C   UNL A   1      43.257  28.231  33.080  1.00  0.00     0.074 A 
ATOM     69  C   UNL A   1      43.710  27.220  32.147  1.00  0.00     0.031 C 
ATOM     70  C   UNL A   1      43.890  28.536  34.240  1.00  0.00     0.034 A 
BRANCH  57  71
ATOM     71  C   UNL A   1      41.230  33.125  37.447  1.00  0.00     0.023 A 
ATOM     72  C   UNL A   1      40.636  32.800  38.679  1.00  0.00     0.031 A 
ATOM     73  C   UNL A   1      41.880  34.367  37.336  1.00  0.00     0.131 A 
ATOM     74  C   UNL A   1      40.642  33.732  39.727  1.00  0.00     0.055 A 
ATOM     75  C   UNL A   1      41.950  35.258  38.409  1.00  0.00     0.041 A 
ATOM     76  F   UNL A   1      42.449  34.740  36.179  1.00  0.00    -0.206 F 
ATOM     77  C   UNL A   1      41.315  34.950  39.608  1.00  0.00     0.022 A 
BRANCH  74  78
ATOM     78  S   UNL A   1      39.640  33.386  41.199  1.00  0.00     0.124 S 
ATOM     79  O   UNL A   1      39.279  31.986  40.987  1.00  0.00    -0.237 OA
ATOM     80  O   UNL A   1      40.577  33.646  42.286  1.00  0.00    -0.237 OA
ATOM     81  O   UNL A   1      38.531  34.331  41.089  1.00  0.00    -0.744 OA
ENDBRANCH  74  78
ENDBRANCH  57  71
BRANCH  58  82
ATOM     82  C   UNL A   1      40.764  27.543  29.141  1.00  0.00     0.023 A 
ATOM     83  C   UNL A   1      41.674  27.833  28.113  1.00  0.00     0.031 A 
ATOM     84  C   UNL A   1      39.813  26.531  28.913  1.00  0.00     0.131 A 
ATOM     85  C   UNL A   1      41.586  27.155  26.888  1.00  0.00     0.055 A 
ATOM     86  C   UNL A   1      39.763  25.823  27.710  1.00  0.00     0.041 A 
ATOM     87  F   UNL A   1      38.922  26.209  29.865  1.00  0.00    -0.206 F 
ATOM     88  C   UNL A   1      40.645  26.144  26.684  1.00  0.00     0.022 A 
BRANCH  85  89
ATOM     89  S   UNL A   1      42.669  27.677  25.528  1.00  0.00     0.124 S 
ATOM     90  O   UNL A   1      43.917  27.950  26.229  1.00  0.00    -0.237 OA
ATOM     91  O   UNL A   1      42.660  26.499  24.667  1.00  0.00    -0.237 OA
ATOM     92  O   UNL A   1      41.989  28.849  24.983  1.00  0.00    -0.744 OA
ENDBRANCH  85  89
ENDBRANCH  58  82
BRANCH  70  93
ATOM     93  C   UNL A   1      45.123  27.735  34.579  1.00  0.00     0.023 A 
ATOM     94  C   UNL A   1      45.041  26.500  35.243  1.00  0.00     0.031 A 
ATOM     95  C   UNL A   1      46.396  28.218  34.229  1.00  0.00     0.131 A 
ATOM     96  C   UNL A   1      46.215  25.808  35.577  1.00  0.00     0.055 A 
ATOM     97  C   UNL A   1      47.557  27.500  34.515  1.00  0.00     0.041 A 
ATOM     98  F   UNL A   1      46.530  29.395  33.595  1.00  0.00    -0.206 F 
ATOM     99  C   UNL A   1      47.471  26.293  35.202  1.00  0.00     0.022 A 
BRANCH  96 100
ATOM    100  S   UNL A   1      46.086  24.294  36.567  1.00  0.00     0.124 S 
ATOM    101  O   UNL A   1      47.287  23.568  36.167  1.00  0.00    -0.237 OA
ATOM    102  O   UNL A   1      46.080  24.811  37.932  1.00  0.00    -0.237 OA
ATOM    103  O   UNL A   1      44.826  23.701  36.125  1.00  0.00    -0.744 OA
ENDBRANCH  96 100
ENDBRANCH  70  93
ENDBRANCH  44  45
ENDBRANCH  36  39
ENDBRANCH  34  35
ENDBRANCH  33  34
ENDBRANCH  32  33
ENDBRANCH   1  32
TORSDOF 19
ENDMDL
MODEL 3
REMARK VINA RESULT:     -11.2      7.153     10.591
REMARK SMILES C[C@@H](C(=O)NCCCCNC(=O)c1ccc(-c2c3nc(c(-c4cc(S(=O)(=O)[O-])ccc4F)c4ccc([nH]4)c(-c4cc(S(=O)(=O)[O-])ccc4F)c4nc(c(-c5cc(S(=O)(=O)[O-])ccc5F)c5ccc2[nH]5)C=C4)C=C3)cc1)c1ccc(-c2cccc(OC(=O)Nc3ccccc3)c2)c(F)c1
REMARK SMILES IDX 6 1 5 2 3 3 4 4 2 6 1 7 76 8 77 9 98 10 78 11 96 12 79 13
REMARK SMILES IDX 97 14 80 15 81 16 95 17 82 18 84 19 83 20 85 21 86 22 87 23
REMARK SMILES IDX 88 24 89 26 90 27 94 28 91 29 93 30 92 31 7 32 8 33 9 34
REMARK SMILES IDX 10 35 11 36 12 38 13 39 14 40 75 41 15 42 74 43 16 44 17 45
REMARK SMILES IDX 18 46 68 47 19 48 73 49 67 50 69 51 20 52 72 53 66 54 65 55
REMARK SMILES IDX 21 57 53 58 33 59 52 60 34 61 37 62 51 63 70 64 35 65 36 66
REMARK SMILES IDX 50 68 71 69 38 70 22 71 23 72 31 73 24 74 30 75 32 76 29 77
REMARK SMILES IDX 25 78 26 79 27 80 28 81 54 82 55 83 63 84 56 85 62 86 64 87
REMARK SMILES IDX 61 88 57 89 58 90 59 91 60 92 39 93 40 94 48 95 41 96 47 97
REMARK SMILES IDX 49 98 46 99 42 100 43 101 44 102 45 103
REMARK H PARENT 5 5 88 25 10 37 69 56 37 67
REMARK Flexibility Score: inf
ROOT
ATOM      1  C   UNL A   1      36.387  34.236  31.382  1.00  0.00     0.116 C 
ENDROOT
BRANCH   1   2
ATOM      2  N   UNL A   1      34.952  34.433  31.414  1.00  0.00    -0.356 N 
ATOM      3  C   UNL A   1      34.079  34.681  30.397  1.00  0.00     0.227 C 
ATOM      4  O   UNL A   1      32.912  34.924  30.712  1.00  0.00    -0.274 OA
ATOM      5  H   UNL A   1      34.545  34.380  32.309  1.00  0.00     0.163 HD
BRANCH   3   6
ATOM      6  C   UNL A   1      34.554  34.607  28.938  1.00  0.00     0.105 C 
ATOM      7  C   UNL A   1      34.165  35.848  28.124  1.00  0.00     0.023 C 
BRANCH   6   8
ATOM      8  C   UNL A   1      34.037  33.350  28.245  1.00  0.00    -0.033 A 
ATOM      9  C   UNL A   1      32.779  33.341  27.626  1.00  0.00     0.005 A 
ATOM     10  C   UNL A   1      34.810  32.181  28.211  1.00  0.00     0.044 A 
ATOM     11  C   UNL A   1      32.279  32.169  27.045  1.00  0.00     0.012 A 
ATOM     12  C   UNL A   1      34.304  31.022  27.639  1.00  0.00     0.131 A 
ATOM     13  C   UNL A   1      33.024  30.980  27.071  1.00  0.00     0.018 A 
ATOM     14  F   UNL A   1      35.064  29.916  27.676  1.00  0.00    -0.206 F 
BRANCH  13  15
ATOM     15  C   UNL A   1      32.451  29.710  26.615  1.00  0.00    -0.012 A 
ATOM     16  C   UNL A   1      31.782  28.833  27.480  1.00  0.00     0.009 A 
ATOM     17  C   UNL A   1      32.587  29.349  25.263  1.00  0.00     0.056 A 
ATOM     18  C   UNL A   1      31.254  27.630  27.002  1.00  0.00     0.004 A 
ATOM     19  C   UNL A   1      32.080  28.145  24.793  1.00  0.00     0.133 A 
ATOM     20  C   UNL A   1      31.403  27.285  25.657  1.00  0.00     0.047 A 
BRANCH  19  21
ATOM     21  O   UNL A   1      32.210  27.698  23.456  1.00  0.00    -0.410 OA
BRANCH  21  22
ATOM     22  C   UNL A   1      31.162  27.405  22.584  1.00  0.00     0.417 C 
ATOM     23  O   UNL A   1      30.425  28.222  22.039  1.00  0.00    -0.224 OA
ATOM     24  N   UNL A   1      31.046  26.082  22.245  1.00  0.00    -0.291 N 
ATOM     25  H   UNL A   1      30.391  25.896  21.534  1.00  0.00     0.173 HD
BRANCH  24  26
ATOM     26  C   UNL A   1      31.704  24.949  22.741  1.00  0.00     0.044 A 
ATOM     27  C   UNL A   1      32.894  24.579  22.104  1.00  0.00     0.026 A 
ATOM     28  C   UNL A   1      31.229  24.170  23.797  1.00  0.00     0.026 A 
ATOM     29  C   UNL A   1      33.626  23.477  22.548  1.00  0.00     0.002 A 
ATOM     30  C   UNL A   1      31.953  23.055  24.230  1.00  0.00     0.002 A 
ATOM     31  C   UNL A   1      33.155  22.715  23.614  1.00  0.00     0.000 A 
ENDBRANCH  24  26
ENDBRANCH  21  22
ENDBRANCH  19  21
ENDBRANCH  13  15
ENDBRANCH   6   8
ENDBRANCH   3   6
ENDBRANCH   1   2
BRANCH   1  32
ATOM     32  C   UNL A   1      36.865  33.487  32.627  1.00  0.00     0.023 C 
BRANCH  32  33
ATOM     33  C   UNL A   1      36.074  32.217  32.950  1.00  0.00     0.023 C 
BRANCH  33  34
ATOM     34  C   UNL A   1      36.329  31.038  32.019  1.00  0.00     0.116 C 
BRANCH  34  35
ATOM     35  N   UNL A   1      36.933  29.903  32.699  1.00  0.00    -0.352 N 
ATOM     36  C   UNL A   1      38.238  29.471  32.655  1.00  0.00     0.251 C 
ATOM     37  H   UNL A   1      36.327  29.373  33.265  1.00  0.00     0.163 HD
ATOM     38  O   UNL A   1      38.550  28.412  33.189  1.00  0.00    -0.269 OA
BRANCH  36  39
ATOM     39  C   UNL A   1      39.243  30.273  31.928  1.00  0.00     0.039 A 
ATOM     40  C   UNL A   1      40.161  31.030  32.660  1.00  0.00     0.014 A 
ATOM     41  C   UNL A   1      39.304  30.246  30.532  1.00  0.00     0.014 A 
ATOM     42  C   UNL A   1      41.192  31.698  31.996  1.00  0.00     0.010 A 
ATOM     43  C   UNL A   1      40.366  30.862  29.877  1.00  0.00     0.010 A 
ATOM     44  C   UNL A   1      41.327  31.583  30.603  1.00  0.00    -0.014 A 
BRANCH  44  45
ATOM     45  C   UNL A   1      42.475  32.193  29.882  1.00  0.00     0.031 A 
ATOM     46  C   UNL A   1      43.697  31.370  29.583  1.00  0.00     0.074 A 
ATOM     47  C   UNL A   1      42.451  33.508  29.585  1.00  0.00     0.049 A 
ATOM     48  N   UNL A   1      44.845  31.745  29.080  1.00  0.00    -0.248 NA
ATOM     49  C   UNL A   1      43.626  29.941  29.923  1.00  0.00     0.031 C 
ATOM     50  C   UNL A   1      41.336  34.417  29.863  1.00  0.00     0.029 A 
ATOM     51  N   UNL A   1      43.398  34.315  29.004  1.00  0.00    -0.354 N 
ATOM     52  C   UNL A   1      45.641  30.605  29.063  1.00  0.00     0.074 A 
ATOM     53  C   UNL A   1      44.858  29.538  29.651  1.00  0.00     0.031 C 
ATOM     54  C   UNL A   1      41.662  35.652  29.448  1.00  0.00     0.029 A 
ATOM     55  C   UNL A   1      43.022  35.636  28.920  1.00  0.00     0.049 A 
ATOM     56  H   UNL A   1      44.264  33.980  28.678  1.00  0.00     0.167 HD
ATOM     57  C   UNL A   1      46.904  30.461  28.588  1.00  0.00     0.034 A 
ATOM     58  C   UNL A   1      43.705  36.716  28.490  1.00  0.00     0.034 A 
ATOM     59  C   UNL A   1      47.660  31.532  27.988  1.00  0.00     0.049 A 
ATOM     60  C   UNL A   1      45.115  36.535  27.988  1.00  0.00     0.074 A 
ATOM     61  C   UNL A   1      48.910  31.477  27.396  1.00  0.00     0.029 A 
ATOM     62  N   UNL A   1      47.244  32.855  27.912  1.00  0.00    -0.354 N 
ATOM     63  N   UNL A   1      45.831  35.436  27.918  1.00  0.00    -0.248 NA
ATOM     64  C   UNL A   1      45.806  37.736  27.502  1.00  0.00     0.031 C 
ATOM     65  C   UNL A   1      49.278  32.774  27.025  1.00  0.00     0.029 A 
ATOM     66  C   UNL A   1      48.230  33.631  27.320  1.00  0.00     0.049 A 
ATOM     67  H   UNL A   1      46.377  33.194  28.232  1.00  0.00     0.167 HD
ATOM     68  C   UNL A   1      47.048  35.813  27.356  1.00  0.00     0.074 A 
ATOM     69  C   UNL A   1      46.963  37.235  27.095  1.00  0.00     0.031 C 
ATOM     70  C   UNL A   1      48.135  35.051  27.077  1.00  0.00     0.034 A 
BRANCH  57  71
ATOM     71  C   UNL A   1      47.551  29.105  28.728  1.00  0.00     0.023 A 
ATOM     72  C   UNL A   1      47.462  28.134  27.716  1.00  0.00     0.031 A 
ATOM     73  C   UNL A   1      48.255  28.774  29.899  1.00  0.00     0.131 A 
ATOM     74  C   UNL A   1      48.003  26.856  27.922  1.00  0.00     0.055 A 
ATOM     75  C   UNL A   1      48.858  27.526  30.066  1.00  0.00     0.041 A 
ATOM     76  F   UNL A   1      48.357  29.653  30.908  1.00  0.00    -0.206 F 
ATOM     77  C   UNL A   1      48.722  26.553  29.080  1.00  0.00     0.022 A 
BRANCH  74  78
ATOM     78  S   UNL A   1      47.637  25.556  26.712  1.00  0.00     0.124 S 
ATOM     79  O   UNL A   1      48.398  24.430  27.248  1.00  0.00    -0.237 OA
ATOM     80  O   UNL A   1      46.185  25.444  26.797  1.00  0.00    -0.237 OA
ATOM     81  O   UNL A   1      48.148  26.102  25.456  1.00  0.00    -0.744 OA
ENDBRANCH  74  78
ENDBRANCH  57  71
BRANCH  58  82
ATOM     82  C   UNL A   1      43.085  38.071  28.542  1.00  0.00     0.023 A 
ATOM     83  C   UNL A   1      43.345  38.946  29.608  1.00  0.00     0.031 A 
ATOM     84  C   UNL A   1      42.186  38.495  27.547  1.00  0.00     0.131 A 
ATOM     85  C   UNL A   1      42.679  40.179  29.681  1.00  0.00     0.055 A 
ATOM     86  C   UNL A   1      41.565  39.745  27.596  1.00  0.00     0.041 A 
ATOM     87  F   UNL A   1      41.906  37.700  26.501  1.00  0.00    -0.206 F 
ATOM     88  C   UNL A   1      41.801  40.589  28.676  1.00  0.00     0.022 A 
BRANCH  85  89
ATOM     89  S   UNL A   1      42.913  41.206  31.158  1.00  0.00     0.124 S 
ATOM     90  O   UNL A   1      42.652  40.251  32.229  1.00  0.00    -0.237 OA
ATOM     91  O   UNL A   1      44.298  41.640  31.008  1.00  0.00    -0.237 OA
ATOM     92  O   UNL A   1      41.912  42.258  31.003  1.00  0.00    -0.744 OA
ENDBRANCH  85  89
ENDBRANCH  58  82
BRANCH  70  93
ATOM     93  C   UNL A   1      49.304  35.740  26.419  1.00  0.00     0.023 A 
ATOM     94  C   UNL A   1      50.332  36.332  27.173  1.00  0.00     0.031 A 
ATOM     95  C   UNL A   1      49.387  35.802  25.017  1.00  0.00     0.131 A 
ATOM     96  C   UNL A   1      51.379  36.999  26.520  1.00  0.00     0.055 A 
ATOM     97  C   UNL A   1      50.459  36.420  24.373  1.00  0.00     0.041 A 
ATOM     98  F   UNL A   1      48.430  35.255  24.251  1.00  0.00    -0.206 F 
ATOM     99  C   UNL A   1      51.458  37.032  25.125  1.00  0.00     0.022 A 
BRANCH  96 100
ATOM    100  S   UNL A   1      52.609  37.882  27.518  1.00  0.00     0.124 S 
ATOM    101  O   UNL A   1      53.700  36.915  27.579  1.00  0.00    -0.237 OA
ATOM    102  O   UNL A   1      52.861  39.078  26.720  1.00  0.00    -0.237 OA
ATOM    103  O   UNL A   1      51.918  38.119  28.784  1.00  0.00    -0.744 OA
ENDBRANCH  96 100
ENDBRANCH  70  93
ENDBRANCH  44  45
ENDBRANCH  36  39
ENDBRANCH  34  35
ENDBRANCH  33  34
ENDBRANCH  32  33
ENDBRANCH   1  32
TORSDOF 19
ENDMDL
