MODEL 1
REMARK VINA RESULT:     -13.5      0.000      0.000
REMARK SMILES Cc1cc2n(n1)[C@H](C(F)(F)F)CCN2C(=O)c1cnn([C@@H](C)C(=O)NCCCCNC(=O)c2ccc(-c3c4nc(c(-c5cc(S(=O)(=O)[O-])ccc5F)c5ccc([nH]5)c(-c5cc(S(=O)(=O)[O-])ccc5F)c5nc(c(-c6cc(S(=O)(=O)[O-])ccc6F)c6ccc3[nH]6)C=C5)C=C4)cc2)c1
REMARK SMILES IDX 27 1 26 2 25 3 23 4 24 5 21 7 22 8 20 9 17 10 18 11 96 12
REMARK SMILES IDX 19 13 15 14 16 15 14 16 1 17 2 18 3 19 6 20 4 21 5 22 7 23
REMARK SMILES IDX 13 24 12 25 8 26 9 27 10 28 11 29 28 30 29 31 30 32 31 33
REMARK SMILES IDX 32 35 33 36 34 37 95 38 35 39 94 40 36 41 37 42 38 43 88 44
REMARK SMILES IDX 39 45 93 46 87 47 89 48 40 49 92 50 86 51 85 52 41 54 73 55
REMARK SMILES IDX 53 56 72 57 54 58 57 59 71 60 90 61 55 62 56 63 70 65 91 66
REMARK SMILES IDX 58 67 42 68 43 69 51 70 44 71 50 72 52 73 49 74 45 75 46 76
REMARK SMILES IDX 47 77 48 78 74 79 75 80 83 81 76 82 82 83 84 84 81 85 77 86
REMARK SMILES IDX 78 87 79 88 80 89 59 90 60 91 68 92 61 93 67 94 69 95 66 96
REMARK SMILES IDX 62 97 63 98 64 99 65 100
REMARK H PARENT 25 6 30 34 89 53 57 64
REMARK Flexibility Score: inf
ROOT
ATOM      1  C   UNL A   1      33.413  28.294  25.895  1.00  0.00     0.023 C 
ENDROOT
BRANCH   1   2
ATOM      2  C   UNL A   1      31.931  27.936  25.716  1.00  0.00     0.116 C 
BRANCH   2   3
ATOM      3  N   UNL A   1      31.220  28.922  24.917  1.00  0.00    -0.354 N 
ATOM      4  C   UNL A   1      30.501  28.802  23.765  1.00  0.00     0.244 C 
ATOM      5  O   UNL A   1      30.149  29.858  23.221  1.00  0.00    -0.273 OA
ATOM      6  H   UNL A   1      31.266  29.839  25.271  1.00  0.00     0.163 HD
BRANCH   4   7
ATOM      7  C   UNL A   1      30.100  27.472  23.128  1.00  0.00     0.193 C 
ATOM      8  C   UNL A   1      29.014  26.704  23.874  1.00  0.00     0.044 C 
BRANCH   7   9
ATOM      9  N   UNL A   1      31.258  26.665  22.758  1.00  0.00    -0.260 N 
ATOM     10  C   UNL A   1      32.615  24.998  22.261  1.00  0.00     0.078 A 
ATOM     11  C   UNL A   1      33.145  26.250  21.916  1.00  0.00     0.149 A 
ATOM     12  C   UNL A   1      31.356  25.298  22.754  1.00  0.00     0.123 A 
ATOM     13  N   UNL A   1      32.419  27.245  22.409  1.00  0.00    -0.180 NA
BRANCH  10  14
ATOM     14  C   UNL A   1      33.176  23.688  22.060  1.00  0.00     0.262 C 
ATOM     15  O   UNL A   1      33.651  23.315  21.001  1.00  0.00    -0.269 OA
BRANCH  14  16
ATOM     16  N   UNL A   1      33.061  22.804  23.225  1.00  0.00    -0.293 N 
ATOM     17  C   UNL A   1      37.705  22.135  25.024  1.00  0.00     0.069 C 
ATOM     18  C   UNL A   1      36.243  22.129  24.775  1.00  0.00     0.062 A 
ATOM     19  C   UNL A   1      35.525  22.848  23.790  1.00  0.00     0.072 A 
ATOM     20  N   UNL A   1      35.431  21.372  25.522  1.00  0.00    -0.176 NA
ATOM     21  C   UNL A   1      34.216  22.450  23.930  1.00  0.00     0.134 A 
ATOM     22  N   UNL A   1      34.229  21.549  24.959  1.00  0.00    -0.237 N 
ATOM     23  C   UNL A   1      33.063  20.861  25.463  1.00  0.00     0.216 C 
ATOM     24  C   UNL A   1      31.809  22.068  23.554  1.00  0.00     0.130 C 
ATOM     25  C   UNL A   1      31.781  21.560  25.000  1.00  0.00     0.059 C 
BRANCH  23  26
ATOM     26  C   UNL A   1      33.083  19.403  25.063  1.00  0.00     0.410 C 
ATOM     27  F   UNL A   1      34.242  19.079  24.446  1.00  0.00    -0.169 F 
ATOM     28  F   UNL A   1      32.902  18.558  26.093  1.00  0.00    -0.169 F 
ATOM     29  F   UNL A   1      32.084  19.162  24.176  1.00  0.00    -0.169 F 
ENDBRANCH  23  26
ENDBRANCH  14  16
ENDBRANCH  10  14
ENDBRANCH   7   9
ENDBRANCH   4   7
ENDBRANCH   2   3
ENDBRANCH   1   2
BRANCH   1  30
ATOM     30  C   UNL A   1      33.862  28.652  27.315  1.00  0.00     0.023 C 
BRANCH  30  31
ATOM     31  C   UNL A   1      35.220  29.329  27.400  1.00  0.00     0.116 C 
BRANCH  31  32
ATOM     32  N   UNL A   1      35.433  30.031  28.665  1.00  0.00    -0.352 N 
ATOM     33  C   UNL A   1      36.426  29.790  29.598  1.00  0.00     0.251 C 
ATOM     34  H   UNL A   1      34.798  30.754  28.876  1.00  0.00     0.163 HD
ATOM     35  O   UNL A   1      36.284  30.134  30.765  1.00  0.00    -0.269 OA
BRANCH  33  36
ATOM     36  C   UNL A   1      37.663  29.133  29.139  1.00  0.00     0.039 A 
ATOM     37  C   UNL A   1      38.345  29.544  27.992  1.00  0.00     0.014 A 
ATOM     38  C   UNL A   1      38.162  28.109  29.943  1.00  0.00     0.014 A 
ATOM     39  C   UNL A   1      39.584  28.970  27.709  1.00  0.00     0.010 A 
ATOM     40  C   UNL A   1      39.440  27.658  29.748  1.00  0.00     0.010 A 
ATOM     41  C   UNL A   1      40.134  28.038  28.605  1.00  0.00    -0.014 A 
BRANCH  41  42
ATOM     42  C   UNL A   1      41.504  27.550  28.466  1.00  0.00     0.031 A 
ATOM     43  C   UNL A   1      41.611  26.274  27.708  1.00  0.00     0.074 A 
ATOM     44  C   UNL A   1      42.578  28.326  28.740  1.00  0.00     0.049 A 
ATOM     45  N   UNL A   1      41.912  25.104  28.162  1.00  0.00    -0.248 NA
ATOM     46  C   UNL A   1      41.139  26.254  26.311  1.00  0.00     0.031 C 
ATOM     47  C   UNL A   1      42.580  29.728  29.183  1.00  0.00     0.029 A 
ATOM     48  N   UNL A   1      43.904  28.076  28.564  1.00  0.00    -0.354 N 
ATOM     49  C   UNL A   1      41.952  24.266  27.050  1.00  0.00     0.074 A 
ATOM     50  C   UNL A   1      41.218  24.953  26.025  1.00  0.00     0.031 C 
ATOM     51  C   UNL A   1      43.812  30.260  29.015  1.00  0.00     0.029 A 
ATOM     52  C   UNL A   1      44.727  29.204  28.621  1.00  0.00     0.049 A 
ATOM     53  H   UNL A   1      44.257  27.170  28.411  1.00  0.00     0.167 HD
ATOM     54  C   UNL A   1      42.841  23.233  26.983  1.00  0.00     0.034 A 
ATOM     55  C   UNL A   1      46.060  29.278  28.352  1.00  0.00     0.034 A 
ATOM     56  C   UNL A   1      43.404  22.970  28.292  1.00  0.00     0.049 A 
ATOM     57  C   UNL A   1      46.587  27.897  28.475  1.00  0.00     0.074 A 
ATOM     58  C   UNL A   1      42.885  22.625  29.525  1.00  0.00     0.029 A 
ATOM     59  N   UNL A   1      44.669  23.454  28.545  1.00  0.00    -0.354 N 
ATOM     60  N   UNL A   1      46.595  27.236  29.599  1.00  0.00    -0.248 NA
ATOM     61  C   UNL A   1      46.639  27.075  27.275  1.00  0.00     0.031 C 
ATOM     62  C   UNL A   1      43.654  23.371  30.468  1.00  0.00     0.029 A 
ATOM     63  C   UNL A   1      44.663  24.050  29.780  1.00  0.00     0.049 A 
ATOM     64  H   UNL A   1      45.444  23.384  27.942  1.00  0.00     0.167 HD
ATOM     65  C   UNL A   1      46.198  25.950  29.262  1.00  0.00     0.074 A 
ATOM     66  C   UNL A   1      46.350  25.883  27.808  1.00  0.00     0.031 C 
ATOM     67  C   UNL A   1      45.510  25.171  30.150  1.00  0.00     0.034 A 
BRANCH  54  68
ATOM     68  C   UNL A   1      43.524  22.743  25.715  1.00  0.00     0.023 A 
ATOM     69  C   UNL A   1      43.637  21.347  25.559  1.00  0.00     0.031 A 
ATOM     70  C   UNL A   1      44.307  23.514  24.827  1.00  0.00     0.131 A 
ATOM     71  C   UNL A   1      44.579  20.785  24.680  1.00  0.00     0.055 A 
ATOM     72  C   UNL A   1      45.197  22.950  23.907  1.00  0.00     0.041 A 
ATOM     73  F   UNL A   1      44.330  24.851  24.841  1.00  0.00    -0.206 F 
ATOM     74  C   UNL A   1      45.367  21.579  23.855  1.00  0.00     0.022 A 
BRANCH  71  75
ATOM     75  S   UNL A   1      44.889  19.004  24.781  1.00  0.00     0.124 S 
ATOM     76  O   UNL A   1      46.185  18.976  25.450  1.00  0.00    -0.237 OA
ATOM     77  O   UNL A   1      43.746  18.548  25.564  1.00  0.00    -0.237 OA
ATOM     78  O   UNL A   1      44.897  18.584  23.382  1.00  0.00    -0.744 OA
ENDBRANCH  71  75
ENDBRANCH  54  68
BRANCH  55  79
ATOM     79  C   UNL A   1      46.802  30.385  27.679  1.00  0.00     0.023 A 
ATOM     80  C   UNL A   1      46.171  31.462  27.014  1.00  0.00     0.031 A 
ATOM     81  C   UNL A   1      48.189  30.516  27.913  1.00  0.00     0.131 A 
ATOM     82  C   UNL A   1      46.922  32.600  26.620  1.00  0.00     0.055 A 
ATOM     83  C   UNL A   1      48.923  31.642  27.529  1.00  0.00     0.041 A 
ATOM     84  F   UNL A   1      48.865  29.585  28.605  1.00  0.00    -0.206 F 
ATOM     85  C   UNL A   1      48.289  32.694  26.888  1.00  0.00     0.022 A 
BRANCH  82  86
ATOM     86  S   UNL A   1      46.118  34.025  25.807  1.00  0.00     0.124 S 
ATOM     87  O   UNL A   1      47.200  34.576  25.001  1.00  0.00    -0.237 OA
ATOM     88  O   UNL A   1      45.021  33.393  25.083  1.00  0.00    -0.237 OA
ATOM     89  O   UNL A   1      45.702  34.868  26.930  1.00  0.00    -0.744 OA
ENDBRANCH  82  86
ENDBRANCH  55  79
BRANCH  67  90
ATOM     90  C   UNL A   1      45.483  25.601  31.605  1.00  0.00     0.023 A 
ATOM     91  C   UNL A   1      46.511  25.373  32.550  1.00  0.00     0.031 A 
ATOM     92  C   UNL A   1      44.387  26.383  32.012  1.00  0.00     0.131 A 
ATOM     93  C   UNL A   1      46.407  25.915  33.849  1.00  0.00     0.055 A 
ATOM     94  C   UNL A   1      44.299  26.934  33.288  1.00  0.00     0.041 A 
ATOM     95  F   UNL A   1      43.391  26.654  31.153  1.00  0.00    -0.206 F 
ATOM     96  C   UNL A   1      45.307  26.697  34.214  1.00  0.00     0.022 A 
BRANCH  93  97
ATOM     97  S   UNL A   1      47.692  25.595  35.105  1.00  0.00     0.124 S 
ATOM     98  O   UNL A   1      47.065  24.629  35.998  1.00  0.00    -0.237 OA
ATOM     99  O   UNL A   1      48.803  25.092  34.300  1.00  0.00    -0.237 OA
ATOM    100  O   UNL A   1      47.922  26.913  35.699  1.00  0.00    -0.744 OA
ENDBRANCH  93  97
ENDBRANCH  67  90
ENDBRANCH  41  42
ENDBRANCH  33  36
ENDBRANCH  31  32
ENDBRANCH  30  31
ENDBRANCH   1  30
TORSDOF 18
ENDMDL
MODEL 2
REMARK VINA RESULT:     -13.4      4.388      5.792
REMARK SMILES Cc1cc2n(n1)[C@H](C(F)(F)F)CCN2C(=O)c1cnn([C@@H](C)C(=O)NCCCCNC(=O)c2ccc(-c3c4nc(c(-c5cc(S(=O)(=O)[O-])ccc5F)c5ccc([nH]5)c(-c5cc(S(=O)(=O)[O-])ccc5F)c5nc(c(-c6cc(S(=O)(=O)[O-])ccc6F)c6ccc3[nH]6)C=C5)C=C4)cc2)c1
REMARK SMILES IDX 27 1 26 2 25 3 23 4 24 5 21 7 22 8 20 9 17 10 18 11 96 12
REMARK SMILES IDX 19 13 15 14 16 15 14 16 1 17 2 18 3 19 6 20 4 21 5 22 7 23
REMARK SMILES IDX 13 24 12 25 8 26 9 27 10 28 11 29 28 30 29 31 30 32 31 33
REMARK SMILES IDX 32 35 33 36 34 37 95 38 35 39 94 40 36 41 37 42 38 43 88 44
REMARK SMILES IDX 39 45 93 46 87 47 89 48 40 49 92 50 86 51 85 52 41 54 73 55
REMARK SMILES IDX 53 56 72 57 54 58 57 59 71 60 90 61 55 62 56 63 70 65 91 66
REMARK SMILES IDX 58 67 42 68 43 69 51 70 44 71 50 72 52 73 49 74 45 75 46 76
REMARK SMILES IDX 47 77 48 78 74 79 75 80 83 81 76 82 82 83 84 84 81 85 77 86
REMARK SMILES IDX 78 87 79 88 80 89 59 90 60 91 68 92 61 93 67 94 69 95 66 96
REMARK SMILES IDX 62 97 63 98 64 99 65 100
REMARK H PARENT 25 6 30 34 89 53 57 64
REMARK Flexibility Score: inf
ROOT
ATOM      1  C   UNL A   1      31.785  30.187  25.832  1.00  0.00     0.023 C 
ENDROOT
BRANCH   1   2
ATOM      2  C   UNL A   1      32.603  29.182  26.656  1.00  0.00     0.116 C 
BRANCH   2   3
ATOM      3  N   UNL A   1      31.866  27.956  26.918  1.00  0.00    -0.354 N 
ATOM      4  C   UNL A   1      31.121  27.159  26.101  1.00  0.00     0.244 C 
ATOM      5  O   UNL A   1      30.466  26.263  26.651  1.00  0.00    -0.273 OA
ATOM      6  H   UNL A   1      31.913  27.646  27.851  1.00  0.00     0.163 HD
BRANCH   4   7
ATOM      7  C   UNL A   1      31.059  27.294  24.580  1.00  0.00     0.193 C 
ATOM      8  C   UNL A   1      29.658  27.209  23.984  1.00  0.00     0.044 C 
BRANCH   7   9
ATOM      9  N   UNL A   1      32.048  26.456  23.910  1.00  0.00    -0.260 N 
ATOM     10  C   UNL A   1      33.101  24.785  22.926  1.00  0.00     0.078 A 
ATOM     11  C   UNL A   1      33.756  26.014  22.757  1.00  0.00     0.149 A 
ATOM     12  C   UNL A   1      31.956  25.116  23.633  1.00  0.00     0.123 A 
ATOM     13  N   UNL A   1      33.231  26.961  23.524  1.00  0.00    -0.180 NA
BRANCH  10  14
ATOM     14  C   UNL A   1      33.451  23.490  22.406  1.00  0.00     0.262 C 
ATOM     15  O   UNL A   1      33.718  23.286  21.234  1.00  0.00    -0.269 OA
BRANCH  14  16
ATOM     16  N   UNL A   1      33.386  22.411  23.397  1.00  0.00    -0.293 N 
ATOM     17  C   UNL A   1      37.991  21.939  25.352  1.00  0.00     0.069 C 
ATOM     18  C   UNL A   1      36.553  21.820  25.013  1.00  0.00     0.062 A 
ATOM     19  C   UNL A   1      35.801  22.618  24.118  1.00  0.00     0.072 A 
ATOM     20  N   UNL A   1      35.801  20.863  25.569  1.00  0.00    -0.176 NA
ATOM     21  C   UNL A   1      34.542  22.065  24.106  1.00  0.00     0.134 A 
ATOM     22  N   UNL A   1      34.613  21.006  24.968  1.00  0.00    -0.237 N 
ATOM     23  C   UNL A   1      33.513  20.121  25.275  1.00  0.00     0.216 C 
ATOM     24  C   UNL A   1      32.215  21.499  23.518  1.00  0.00     0.130 C 
ATOM     25  C   UNL A   1      32.181  20.750  24.854  1.00  0.00     0.059 C 
BRANCH  23  26
ATOM     26  C   UNL A   1      33.719  18.765  24.639  1.00  0.00     0.410 C 
ATOM     27  F   UNL A   1      32.878  18.579  23.597  1.00  0.00    -0.169 F 
ATOM     28  F   UNL A   1      34.977  18.556  24.209  1.00  0.00    -0.169 F 
ATOM     29  F   UNL A   1      33.446  17.792  25.545  1.00  0.00    -0.169 F 
ENDBRANCH  23  26
ENDBRANCH  14  16
ENDBRANCH  10  14
ENDBRANCH   7   9
ENDBRANCH   4   7
ENDBRANCH   2   3
ENDBRANCH   1   2
BRANCH   1  30
ATOM     30  C   UNL A   1      31.465  31.523  26.509  1.00  0.00     0.023 C 
BRANCH  30  31
ATOM     31  C   UNL A   1      32.647  32.185  27.199  1.00  0.00     0.116 C 
BRANCH  31  32
ATOM     32  N   UNL A   1      32.432  33.606  27.467  1.00  0.00    -0.352 N 
ATOM     33  C   UNL A   1      33.040  34.374  28.445  1.00  0.00     0.251 C 
ATOM     34  H   UNL A   1      31.783  34.067  26.888  1.00  0.00     0.163 HD
ATOM     35  O   UNL A   1      32.516  35.407  28.843  1.00  0.00    -0.269 OA
BRANCH  33  36
ATOM     36  C   UNL A   1      34.342  33.924  28.969  1.00  0.00     0.039 A 
ATOM     37  C   UNL A   1      34.449  33.108  30.098  1.00  0.00     0.014 A 
ATOM     38  C   UNL A   1      35.472  34.302  28.247  1.00  0.00     0.014 A 
ATOM     39  C   UNL A   1      35.703  32.605  30.442  1.00  0.00     0.010 A 
ATOM     40  C   UNL A   1      36.670  33.688  28.494  1.00  0.00     0.010 A 
ATOM     41  C   UNL A   1      36.808  32.885  29.622  1.00  0.00    -0.014 A 
BRANCH  41  42
ATOM     42  C   UNL A   1      38.101  32.232  29.818  1.00  0.00     0.031 A 
ATOM     43  C   UNL A   1      38.134  30.819  29.353  1.00  0.00     0.074 A 
ATOM     44  C   UNL A   1      39.223  32.927  30.115  1.00  0.00     0.049 A 
ATOM     45  N   UNL A   1      38.197  29.748  30.071  1.00  0.00    -0.248 NA
ATOM     46  C   UNL A   1      37.871  30.550  27.926  1.00  0.00     0.031 C 
ATOM     47  C   UNL A   1      39.360  34.383  30.270  1.00  0.00     0.029 A 
ATOM     48  N   UNL A   1      40.511  32.502  30.221  1.00  0.00    -0.354 N 
ATOM     49  C   UNL A   1      38.278  28.692  29.167  1.00  0.00     0.074 A 
ATOM     50  C   UNL A   1      37.805  29.218  27.918  1.00  0.00     0.031 C 
ATOM     51  C   UNL A   1      40.666  34.729  30.215  1.00  0.00     0.029 A 
ATOM     52  C   UNL A   1      41.469  33.520  30.196  1.00  0.00     0.049 A 
ATOM     53  H   UNL A   1      40.750  31.551  30.309  1.00  0.00     0.167 HD
ATOM     54  C   UNL A   1      39.011  27.578  29.455  1.00  0.00     0.034 A 
ATOM     55  C   UNL A   1      42.824  33.388  30.150  1.00  0.00     0.034 A 
ATOM     56  C   UNL A   1      39.335  27.543  30.868  1.00  0.00     0.049 A 
ATOM     57  C   UNL A   1      43.126  32.017  30.628  1.00  0.00     0.074 A 
ATOM     58  C   UNL A   1      38.600  27.530  32.037  1.00  0.00     0.029 A 
ATOM     59  N   UNL A   1      40.607  27.929  31.234  1.00  0.00    -0.354 N 
ATOM     60  N   UNL A   1      42.877  31.616  31.844  1.00  0.00    -0.248 NA
ATOM     61  C   UNL A   1      43.234  30.955  29.639  1.00  0.00     0.031 C 
ATOM     62  C   UNL A   1      39.322  28.373  32.934  1.00  0.00     0.029 A 
ATOM     63  C   UNL A   1      40.507  28.774  32.310  1.00  0.00     0.049 A 
ATOM     64  H   UNL A   1      41.443  27.647  30.798  1.00  0.00     0.167 HD
ATOM     65  C   UNL A   1      42.354  30.339  31.701  1.00  0.00     0.074 A 
ATOM     66  C   UNL A   1      42.704  29.944  30.336  1.00  0.00     0.031 C 
ATOM     67  C   UNL A   1      41.442  29.850  32.593  1.00  0.00     0.034 A 
BRANCH  54  68
ATOM     68  C   UNL A   1      39.794  26.755  28.444  1.00  0.00     0.023 A 
ATOM     69  C   UNL A   1      40.949  27.355  27.902  1.00  0.00     0.031 A 
ATOM     70  C   UNL A   1      39.349  25.593  27.775  1.00  0.00     0.131 A 
ATOM     71  C   UNL A   1      41.510  26.900  26.696  1.00  0.00     0.055 A 
ATOM     72  C   UNL A   1      39.950  25.104  26.610  1.00  0.00     0.041 A 
ATOM     73  F   UNL A   1      38.266  24.902  28.147  1.00  0.00    -0.206 F 
ATOM     74  C   UNL A   1      41.013  25.780  26.041  1.00  0.00     0.022 A 
BRANCH  71  75
ATOM     75  S   UNL A   1      42.777  27.921  25.903  1.00  0.00     0.124 S 
ATOM     76  O   UNL A   1      42.390  27.820  24.501  1.00  0.00    -0.237 OA
ATOM     77  O   UNL A   1      42.560  29.214  26.543  1.00  0.00    -0.237 OA
ATOM     78  O   UNL A   1      44.023  27.248  26.260  1.00  0.00    -0.744 OA
ENDBRANCH  71  75
ENDBRANCH  54  68
BRANCH  55  79
ATOM     79  C   UNL A   1      43.805  34.237  29.411  1.00  0.00     0.023 A 
ATOM     80  C   UNL A   1      44.313  33.915  28.131  1.00  0.00     0.031 A 
ATOM     81  C   UNL A   1      44.065  35.543  29.882  1.00  0.00     0.131 A 
ATOM     82  C   UNL A   1      45.039  34.881  27.386  1.00  0.00     0.055 A 
ATOM     83  C   UNL A   1      44.776  36.492  29.140  1.00  0.00     0.041 A 
ATOM     84  F   UNL A   1      43.561  35.971  31.051  1.00  0.00    -0.206 F 
ATOM     85  C   UNL A   1      45.258  36.166  27.884  1.00  0.00     0.022 A 
BRANCH  82  86
ATOM     86  S   UNL A   1      45.658  34.505  25.708  1.00  0.00     0.124 S 
ATOM     87  O   UNL A   1      44.473  34.710  24.885  1.00  0.00    -0.237 OA
ATOM     88  O   UNL A   1      46.739  35.470  25.550  1.00  0.00    -0.237 OA
ATOM     89  O   UNL A   1      46.096  33.110  25.811  1.00  0.00    -0.744 OA
ENDBRANCH  82  86
ENDBRANCH  55  79
BRANCH  67  90
ATOM     90  C   UNL A   1      41.265  30.583  33.910  1.00  0.00     0.023 A 
ATOM     91  C   UNL A   1      40.333  31.619  34.156  1.00  0.00     0.031 A 
ATOM     92  C   UNL A   1      42.022  30.116  34.999  1.00  0.00     0.131 A 
ATOM     93  C   UNL A   1      40.199  32.151  35.456  1.00  0.00     0.055 A 
ATOM     94  C   UNL A   1      41.870  30.629  36.285  1.00  0.00     0.041 A 
ATOM     95  F   UNL A   1      42.906  29.119  34.833  1.00  0.00    -0.206 F 
ATOM     96  C   UNL A   1      40.961  31.653  36.518  1.00  0.00     0.022 A 
BRANCH  93  97
ATOM     97  S   UNL A   1      39.043  33.522  35.795  1.00  0.00     0.124 S 
ATOM     98  O   UNL A   1      39.580  34.132  37.005  1.00  0.00    -0.237 OA
ATOM     99  O   UNL A   1      39.139  34.325  34.578  1.00  0.00    -0.237 OA
ATOM    100  O   UNL A   1      37.757  32.845  35.974  1.00  0.00    -0.744 OA
ENDBRANCH  93  97
ENDBRANCH  67  90
ENDBRANCH  41  42
ENDBRANCH  33  36
ENDBRANCH  31  32
ENDBRANCH  30  31
ENDBRANCH   1  30
TORSDOF 18
ENDMDL
MODEL 3
REMARK VINA RESULT:     -13.2      1.911      2.533
REMARK SMILES Cc1cc2n(n1)[C@H](C(F)(F)F)CCN2C(=O)c1cnn([C@@H](C)C(=O)NCCCCNC(=O)c2ccc(-c3c4nc(c(-c5cc(S(=O)(=O)[O-])ccc5F)c5ccc([nH]5)c(-c5cc(S(=O)(=O)[O-])ccc5F)c5nc(c(-c6cc(S(=O)(=O)[O-])ccc6F)c6ccc3[nH]6)C=C5)C=C4)cc2)c1
REMARK SMILES IDX 27 1 26 2 25 3 23 4 24 5 21 7 22 8 20 9 17 10 18 11 96 12
REMARK SMILES IDX 19 13 15 14 16 15 14 16 1 17 2 18 3 19 6 20 4 21 5 22 7 23
REMARK SMILES IDX 13 24 12 25 8 26 9 27 10 28 11 29 28 30 29 31 30 32 31 33
REMARK SMILES IDX 32 35 33 36 34 37 95 38 35 39 94 40 36 41 37 42 38 43 88 44
REMARK SMILES IDX 39 45 93 46 87 47 89 48 40 49 92 50 86 51 85 52 41 54 73 55
REMARK SMILES IDX 53 56 72 57 54 58 57 59 71 60 90 61 55 62 56 63 70 65 91 66
REMARK SMILES IDX 58 67 42 68 43 69 51 70 44 71 50 72 52 73 49 74 45 75 46 76
REMARK SMILES IDX 47 77 48 78 74 79 75 80 83 81 76 82 82 83 84 84 81 85 77 86
REMARK SMILES IDX 78 87 79 88 80 89 59 90 60 91 68 92 61 93 67 94 69 95 66 96
REMARK SMILES IDX 62 97 63 98 64 99 65 100
REMARK H PARENT 25 6 30 34 89 53 57 64
REMARK Flexibility Score: inf
ROOT
ATOM      1  C   UNL A   1      32.717  29.556  27.191  1.00  0.00     0.023 C 
ENDROOT
BRANCH   1   2
ATOM      2  C   UNL A   1      31.897  30.045  25.988  1.00  0.00     0.116 C 
BRANCH   2   3
ATOM      3  N   UNL A   1      32.613  29.885  24.732  1.00  0.00    -0.354 N 
ATOM      4  C   UNL A   1      32.341  29.134  23.627  1.00  0.00     0.244 C 
ATOM      5  O   UNL A   1      33.232  29.070  22.770  1.00  0.00    -0.273 OA
ATOM      6  H   UNL A   1      33.441  30.413  24.668  1.00  0.00     0.163 HD
BRANCH   4   7
ATOM      7  C   UNL A   1      31.025  28.396  23.384  1.00  0.00     0.193 C 
ATOM      8  C   UNL A   1      29.785  29.284  23.362  1.00  0.00     0.044 C 
BRANCH   7   9
ATOM      9  N   UNL A   1      30.896  27.207  24.219  1.00  0.00    -0.260 N 
ATOM     10  C   UNL A   1      31.297  25.461  25.508  1.00  0.00     0.078 A 
ATOM     11  C   UNL A   1      29.941  25.819  25.486  1.00  0.00     0.149 A 
ATOM     12  C   UNL A   1      31.905  26.424  24.718  1.00  0.00     0.123 A 
ATOM     13  N   UNL A   1      29.686  26.726  24.551  1.00  0.00    -0.180 NA
BRANCH  10  14
ATOM     14  C   UNL A   1      31.949  24.417  26.254  1.00  0.00     0.262 C 
ATOM     15  O   UNL A   1      31.566  24.030  27.344  1.00  0.00    -0.269 OA
BRANCH  14  16
ATOM     16  N   UNL A   1      33.167  23.903  25.619  1.00  0.00    -0.293 N 
ATOM     17  C   UNL A   1      32.375  19.035  24.655  1.00  0.00     0.069 C 
ATOM     18  C   UNL A   1      32.923  20.407  24.777  1.00  0.00     0.062 A 
ATOM     19  C   UNL A   1      32.273  21.564  25.269  1.00  0.00     0.072 A 
ATOM     20  N   UNL A   1      34.182  20.671  24.407  1.00  0.00    -0.176 NA
ATOM     21  C   UNL A   1      33.222  22.558  25.238  1.00  0.00     0.134 A 
ATOM     22  N   UNL A   1      34.346  21.957  24.742  1.00  0.00    -0.237 N 
ATOM     23  C   UNL A   1      35.610  22.625  24.530  1.00  0.00     0.216 C 
ATOM     24  C   UNL A   1      34.440  24.675  25.580  1.00  0.00     0.130 C 
ATOM     25  C   UNL A   1      35.424  24.146  24.531  1.00  0.00     0.059 C 
BRANCH  23  26
ATOM     26  C   UNL A   1      36.630  22.184  25.555  1.00  0.00     0.410 C 
ATOM     27  F   UNL A   1      37.037  23.223  26.319  1.00  0.00    -0.169 F 
ATOM     28  F   UNL A   1      36.190  21.208  26.370  1.00  0.00    -0.169 F 
ATOM     29  F   UNL A   1      37.731  21.704  24.924  1.00  0.00    -0.169 F 
ENDBRANCH  23  26
ENDBRANCH  14  16
ENDBRANCH  10  14
ENDBRANCH   7   9
ENDBRANCH   4   7
ENDBRANCH   2   3
ENDBRANCH   1   2
BRANCH   1  30
ATOM     30  C   UNL A   1      33.816  28.530  26.894  1.00  0.00     0.023 C 
BRANCH  30  31
ATOM     31  C   UNL A   1      35.232  29.034  27.122  1.00  0.00     0.116 C 
BRANCH  31  32
ATOM     32  N   UNL A   1      35.359  29.867  28.317  1.00  0.00    -0.352 N 
ATOM     33  C   UNL A   1      36.337  29.787  29.292  1.00  0.00     0.251 C 
ATOM     34  H   UNL A   1      34.672  30.562  28.441  1.00  0.00     0.163 HD
ATOM     35  O   UNL A   1      36.137  30.231  30.416  1.00  0.00    -0.269 OA
BRANCH  33  36
ATOM     36  C   UNL A   1      37.628  29.176  28.930  1.00  0.00     0.039 A 
ATOM     37  C   UNL A   1      38.365  29.591  27.818  1.00  0.00     0.014 A 
ATOM     38  C   UNL A   1      38.118  28.194  29.789  1.00  0.00     0.014 A 
ATOM     39  C   UNL A   1      39.643  29.066  27.629  1.00  0.00     0.010 A 
ATOM     40  C   UNL A   1      39.424  27.796  29.688  1.00  0.00     0.010 A 
ATOM     41  C   UNL A   1      40.174  28.181  28.581  1.00  0.00    -0.014 A 
BRANCH  41  42
ATOM     42  C   UNL A   1      41.570  27.752  28.543  1.00  0.00     0.031 A 
ATOM     43  C   UNL A   1      41.786  26.486  27.791  1.00  0.00     0.074 A 
ATOM     44  C   UNL A   1      42.587  28.571  28.898  1.00  0.00     0.049 A 
ATOM     45  N   UNL A   1      42.103  25.327  28.262  1.00  0.00    -0.248 NA
ATOM     46  C   UNL A   1      41.420  26.455  26.362  1.00  0.00     0.031 C 
ATOM     47  C   UNL A   1      42.497  29.969  29.344  1.00  0.00     0.029 A 
ATOM     48  N   UNL A   1      43.932  28.378  28.820  1.00  0.00    -0.354 N 
ATOM     49  C   UNL A   1      42.260  24.499  27.153  1.00  0.00     0.074 A 
ATOM     50  C   UNL A   1      41.574  25.161  26.079  1.00  0.00     0.031 C 
ATOM     51  C   UNL A   1      43.714  30.553  29.269  1.00  0.00     0.029 A 
ATOM     52  C   UNL A   1      44.699  29.539  28.940  1.00  0.00     0.049 A 
ATOM     53  H   UNL A   1      44.333  27.488  28.689  1.00  0.00     0.167 HD
ATOM     54  C   UNL A   1      43.194  23.504  27.148  1.00  0.00     0.034 A 
ATOM     55  C   UNL A   1      46.044  29.670  28.770  1.00  0.00     0.034 A 
ATOM     56  C   UNL A   1      43.670  23.257  28.495  1.00  0.00     0.049 A 
ATOM     57  C   UNL A   1      46.619  28.312  28.927  1.00  0.00     0.074 A 
ATOM     58  C   UNL A   1      43.077  22.883  29.685  1.00  0.00     0.029 A 
ATOM     59  N   UNL A   1      44.892  23.792  28.842  1.00  0.00    -0.354 N 
ATOM     60  N   UNL A   1      46.572  27.645  30.047  1.00  0.00    -0.248 NA
ATOM     61  C   UNL A   1      46.794  27.501  27.732  1.00  0.00     0.031 C 
ATOM     62  C   UNL A   1      43.742  23.654  30.685  1.00  0.00     0.029 A 
ATOM     63  C   UNL A   1      44.770  24.380  30.075  1.00  0.00     0.049 A 
ATOM     64  H   UNL A   1      45.711  23.759  28.298  1.00  0.00     0.167 HD
ATOM     65  C   UNL A   1      46.256  26.346  29.677  1.00  0.00     0.074 A 
ATOM     66  C   UNL A   1      46.517  26.294  28.239  1.00  0.00     0.031 C 
ATOM     67  C   UNL A   1      45.538  25.533  30.510  1.00  0.00     0.034 A 
BRANCH  54  68
ATOM     68  C   UNL A   1      43.989  23.051  25.933  1.00  0.00     0.023 A 
ATOM     69  C   UNL A   1      43.840  21.703  25.549  1.00  0.00     0.031 A 
ATOM     70  C   UNL A   1      45.066  23.736  25.327  1.00  0.00     0.131 A 
ATOM     71  C   UNL A   1      44.796  21.067  24.738  1.00  0.00     0.055 A 
ATOM     72  C   UNL A   1      45.979  23.115  24.468  1.00  0.00     0.041 A 
ATOM     73  F   UNL A   1      45.360  25.015  25.583  1.00  0.00    -0.206 F 
ATOM     74  C   UNL A   1      45.871  21.763  24.198  1.00  0.00     0.022 A 
BRANCH  71  75
ATOM     75  S   UNL A   1      44.709  19.267  24.565  1.00  0.00     0.124 S 
ATOM     76  O   UNL A   1      43.293  19.023  24.813  1.00  0.00    -0.237 OA
ATOM     77  O   UNL A   1      45.169  19.078  23.194  1.00  0.00    -0.237 OA
ATOM     78  O   UNL A   1      45.618  18.786  25.603  1.00  0.00    -0.744 OA
ENDBRANCH  71  75
ENDBRANCH  54  68
BRANCH  55  79
ATOM     79  C   UNL A   1      46.786  30.812  28.157  1.00  0.00     0.023 A 
ATOM     80  C   UNL A   1      46.205  31.731  27.253  1.00  0.00     0.031 A 
ATOM     81  C   UNL A   1      48.054  31.157  28.676  1.00  0.00     0.131 A 
ATOM     82  C   UNL A   1      46.887  32.927  26.909  1.00  0.00     0.055 A 
ATOM     83  C   UNL A   1      48.719  32.340  28.338  1.00  0.00     0.041 A 
ATOM     84  F   UNL A   1      48.656  30.390  29.600  1.00  0.00    -0.206 F 
ATOM     85  C   UNL A   1      48.132  33.235  27.459  1.00  0.00     0.022 A 
BRANCH  82  86
ATOM     86  S   UNL A   1      46.131  34.152  25.784  1.00  0.00     0.124 S 
ATOM     87  O   UNL A   1      47.264  34.564  24.965  1.00  0.00    -0.237 OA
ATOM     88  O   UNL A   1      45.096  33.369  25.119  1.00  0.00    -0.237 OA
ATOM     89  O   UNL A   1      45.627  35.184  26.692  1.00  0.00    -0.744 OA
ENDBRANCH  82  86
ENDBRANCH  55  79
BRANCH  67  90
ATOM     90  C   UNL A   1      45.386  25.953  31.960  1.00  0.00     0.023 A 
ATOM     91  C   UNL A   1      44.283  26.655  32.502  1.00  0.00     0.031 A 
ATOM     92  C   UNL A   1      46.378  25.511  32.853  1.00  0.00     0.131 A 
ATOM     93  C   UNL A   1      44.216  26.896  33.891  1.00  0.00     0.055 A 
ATOM     94  C   UNL A   1      46.296  25.732  34.226  1.00  0.00     0.041 A 
ATOM     95  F   UNL A   1      47.438  24.819  32.402  1.00  0.00    -0.206 F 
ATOM     96  C   UNL A   1      45.217  26.431  34.750  1.00  0.00     0.022 A 
BRANCH  93  97
ATOM     97  S   UNL A   1      42.832  27.842  34.613  1.00  0.00     0.124 S 
ATOM     98  O   UNL A   1      41.651  27.104  34.182  1.00  0.00    -0.237 OA
ATOM     99  O   UNL A   1      43.127  27.794  36.043  1.00  0.00    -0.237 OA
ATOM    100  O   UNL A   1      42.975  29.168  34.009  1.00  0.00    -0.744 OA
ENDBRANCH  93  97
ENDBRANCH  67  90
ENDBRANCH  41  42
ENDBRANCH  33  36
ENDBRANCH  31  32
ENDBRANCH  30  31
ENDBRANCH   1  30
TORSDOF 18
ENDMDL
