MODEL 1
REMARK VINA RESULT:     -13.5      0.000      0.000
REMARK SMILES Cn1cc(/C=C2\SC(=S)N(c3cccc(C(=O)NCCCCNC(=O)c4ccc(-c5c6nc(c(-c7cc(S(=O)(=O)[O-])ccc7F)c7ccc([nH]7)c(-c7cc(S(=O)(=O)[O-])ccc7F)c7nc(c(-c8cc(S(=O)(=O)[O-])ccc8F)c8ccc5[nH]8)C=C7)C=C6)cc4)c3)C2=O)c2ccccc21
REMARK SMILES IDX 21 1 20 2 19 3 18 4 16 5 17 6 15 8 11 9 12 10 89 11 13 12
REMARK SMILES IDX 14 13 10 14 5 15 6 16 7 17 90 18 8 19 91 20 9 21 4 22 1 23
REMARK SMILES IDX 2 24 3 25 97 26 92 27 96 28 93 29 95 30 94 31 22 32 23 33
REMARK SMILES IDX 24 34 25 36 26 37 27 38 88 39 28 40 87 41 29 42 30 43 31 44
REMARK SMILES IDX 81 45 32 46 86 47 80 48 82 49 33 50 85 51 79 52 78 53 34 55
REMARK SMILES IDX 66 56 46 57 65 58 47 59 50 60 64 61 83 62 48 63 49 64 63 66
REMARK SMILES IDX 84 67 51 68 35 69 36 70 44 71 37 72 43 73 45 74 42 75 38 76
REMARK SMILES IDX 39 77 40 78 41 79 67 80 68 81 76 82 69 83 75 84 77 85 74 86
REMARK SMILES IDX 70 87 71 88 72 89 73 90 52 91 53 92 61 93 54 94 60 95 62 96
REMARK SMILES IDX 59 97 55 98 56 99 57 100 58 101
REMARK H PARENT 18 7 23 35 82 54 50 65
REMARK Flexibility Score: inf
ROOT
ATOM      1  C   UNL A   1      31.018  32.050  26.551  1.00  0.00     0.023 C 
ENDROOT
BRANCH   1   2
ATOM      2  C   UNL A   1      30.883  31.214  25.285  1.00  0.00     0.023 C 
BRANCH   2   3
ATOM      3  C   UNL A   1      29.598  31.386  24.485  1.00  0.00     0.116 C 
BRANCH   3   4
ATOM      4  N   UNL A   1      29.716  31.097  23.064  1.00  0.00    -0.352 N 
ATOM      5  C   UNL A   1      29.628  29.908  22.370  1.00  0.00     0.251 C 
ATOM      6  O   UNL A   1      29.767  29.915  21.149  1.00  0.00    -0.269 OA
ATOM      7  H   UNL A   1      29.886  31.886  22.501  1.00  0.00     0.163 HD
BRANCH   5   8
ATOM      8  C   UNL A   1      29.448  28.605  23.065  1.00  0.00     0.041 A 
ATOM      9  C   UNL A   1      30.309  26.437  23.745  1.00  0.00     0.051 A 
ATOM     10  C   UNL A   1      28.992  26.011  23.972  1.00  0.00     0.027 A 
ATOM     11  C   UNL A   1      30.523  27.774  23.389  1.00  0.00     0.040 A 
ATOM     12  C   UNL A   1      27.918  26.889  23.813  1.00  0.00     0.003 A 
ATOM     13  C   UNL A   1      28.143  28.177  23.332  1.00  0.00     0.014 A 
BRANCH   9  14
ATOM     14  N   UNL A   1      31.387  25.497  23.675  1.00  0.00    -0.261 N 
ATOM     15  C   UNL A   1      33.085  22.790  25.397  1.00  0.00     0.031 C 
ATOM     16  C   UNL A   1      32.687  23.690  24.484  1.00  0.00     0.081 C 
ATOM     17  S   UNL A   1      33.100  23.760  22.821  1.00  0.00    -0.054 SA
ATOM     18  C   UNL A   1      31.717  24.764  24.819  1.00  0.00     0.270 C 
ATOM     19  C   UNL A   1      32.065  25.150  22.515  1.00  0.00     0.152 C 
ATOM     20  O   UNL A   1      31.272  24.900  25.953  1.00  0.00    -0.268 OA
ATOM     21  S   UNL A   1      32.084  25.902  21.020  1.00  0.00    -0.051 S 
BRANCH  15  22
ATOM     22  C   UNL A   1      34.013  21.722  25.205  1.00  0.00     0.001 A 
ATOM     23  C   UNL A   1      37.356  20.370  24.978  1.00  0.00     0.149 C 
ATOM     24  N   UNL A   1      35.935  20.628  25.029  1.00  0.00    -0.350 N 
ATOM     25  C   UNL A   1      35.381  21.848  25.303  1.00  0.00     0.094 A 
ATOM     26  C   UNL A   1      34.950  19.691  24.801  1.00  0.00     0.048 A 
ATOM     27  C   UNL A   1      33.721  20.354  24.920  1.00  0.00     0.007 A 
ATOM     28  C   UNL A   1      35.035  18.324  24.492  1.00  0.00     0.027 A 
ATOM     29  C   UNL A   1      32.535  19.613  24.723  1.00  0.00     0.011 A 
ATOM     30  C   UNL A   1      33.846  17.616  24.300  1.00  0.00     0.002 A 
ATOM     31  C   UNL A   1      32.612  18.249  24.415  1.00  0.00     0.001 A 
ENDBRANCH  15  22
ENDBRANCH   9  14
ENDBRANCH   5   8
ENDBRANCH   3   4
ENDBRANCH   2   3
ENDBRANCH   1   2
BRANCH   1  32
ATOM     32  C   UNL A   1      32.429  32.492  26.922  1.00  0.00     0.116 C 
BRANCH  32  33
ATOM     33  N   UNL A   1      32.506  33.836  27.470  1.00  0.00    -0.352 N 
ATOM     34  C   UNL A   1      33.440  34.394  28.323  1.00  0.00     0.251 C 
ATOM     35  H   UNL A   1      31.782  34.442  27.191  1.00  0.00     0.163 HD
ATOM     36  O   UNL A   1      33.287  35.537  28.720  1.00  0.00    -0.269 OA
BRANCH  34  37
ATOM     37  C   UNL A   1      34.588  33.582  28.791  1.00  0.00     0.039 A 
ATOM     38  C   UNL A   1      35.873  33.939  28.377  1.00  0.00     0.014 A 
ATOM     39  C   UNL A   1      34.407  32.506  29.660  1.00  0.00     0.014 A 
ATOM     40  C   UNL A   1      36.983  33.282  28.916  1.00  0.00     0.010 A 
ATOM     41  C   UNL A   1      35.512  31.909  30.261  1.00  0.00     0.010 A 
ATOM     42  C   UNL A   1      36.813  32.299  29.903  1.00  0.00    -0.014 A 
BRANCH  42  43
ATOM     43  C   UNL A   1      37.977  31.676  30.589  1.00  0.00     0.031 A 
ATOM     44  C   UNL A   1      38.784  30.615  29.893  1.00  0.00     0.074 A 
ATOM     45  C   UNL A   1      38.244  31.993  31.871  1.00  0.00     0.049 A 
ATOM     46  N   UNL A   1      39.757  29.874  30.357  1.00  0.00    -0.248 NA
ATOM     47  C   UNL A   1      38.412  30.320  28.503  1.00  0.00     0.031 C 
ATOM     48  C   UNL A   1      37.491  32.956  32.679  1.00  0.00     0.029 A 
ATOM     49  N   UNL A   1      39.205  31.524  32.730  1.00  0.00    -0.354 N 
ATOM     50  C   UNL A   1      40.101  29.011  29.321  1.00  0.00     0.074 A 
ATOM     51  C   UNL A   1      39.182  29.278  28.234  1.00  0.00     0.031 C 
ATOM     52  C   UNL A   1      38.022  33.009  33.911  1.00  0.00     0.029 A 
ATOM     53  C   UNL A   1      39.127  32.060  33.995  1.00  0.00     0.049 A 
ATOM     54  H   UNL A   1      39.888  30.864  32.466  1.00  0.00     0.167 HD
ATOM     55  C   UNL A   1      41.105  28.098  29.272  1.00  0.00     0.034 A 
ATOM     56  C   UNL A   1      39.851  31.806  35.102  1.00  0.00     0.034 A 
ATOM     57  C   UNL A   1      42.019  27.856  30.362  1.00  0.00     0.049 A 
ATOM     58  C   UNL A   1      40.971  30.801  35.027  1.00  0.00     0.074 A 
ATOM     59  C   UNL A   1      43.116  27.010  30.400  1.00  0.00     0.029 A 
ATOM     60  N   UNL A   1      41.937  28.450  31.616  1.00  0.00    -0.354 N 
ATOM     61  N   UNL A   1      41.332  30.042  34.019  1.00  0.00    -0.248 NA
ATOM     62  C   UNL A   1      41.791  30.633  36.234  1.00  0.00     0.031 C 
ATOM     63  C   UNL A   1      43.658  27.050  31.690  1.00  0.00     0.029 A 
ATOM     64  C   UNL A   1      42.945  27.971  32.441  1.00  0.00     0.049 A 
ATOM     65  H   UNL A   1      41.262  29.117  31.880  1.00  0.00     0.167 HD
ATOM     66  C   UNL A   1      42.433  29.319  34.465  1.00  0.00     0.074 A 
ATOM     67  C   UNL A   1      42.686  29.745  35.826  1.00  0.00     0.031 C 
ATOM     68  C   UNL A   1      43.172  28.390  33.806  1.00  0.00     0.034 A 
BRANCH  55  69
ATOM     69  C   UNL A   1      41.235  27.289  28.002  1.00  0.00     0.023 A 
ATOM     70  C   UNL A   1      40.823  25.945  27.940  1.00  0.00     0.031 A 
ATOM     71  C   UNL A   1      41.839  27.842  26.860  1.00  0.00     0.131 A 
ATOM     72  C   UNL A   1      41.115  25.173  26.807  1.00  0.00     0.055 A 
ATOM     73  C   UNL A   1      42.041  27.092  25.698  1.00  0.00     0.041 A 
ATOM     74  F   UNL A   1      42.268  29.113  26.859  1.00  0.00    -0.206 F 
ATOM     75  C   UNL A   1      41.699  25.742  25.674  1.00  0.00     0.022 A 
BRANCH  72  76
ATOM     76  S   UNL A   1      40.891  23.375  26.909  1.00  0.00     0.124 S 
ATOM     77  O   UNL A   1      41.746  22.909  25.820  1.00  0.00    -0.237 OA
ATOM     78  O   UNL A   1      41.356  23.076  28.259  1.00  0.00    -0.237 OA
ATOM     79  O   UNL A   1      39.458  23.194  26.687  1.00  0.00    -0.744 OA
ENDBRANCH  72  76
ENDBRANCH  55  69
BRANCH  56  80
ATOM     80  C   UNL A   1      39.529  32.502  36.378  1.00  0.00     0.023 A 
ATOM     81  C   UNL A   1      38.577  31.984  37.269  1.00  0.00     0.031 A 
ATOM     82  C   UNL A   1      40.172  33.705  36.721  1.00  0.00     0.131 A 
ATOM     83  C   UNL A   1      38.270  32.683  38.447  1.00  0.00     0.055 A 
ATOM     84  C   UNL A   1      39.894  34.374  37.914  1.00  0.00     0.041 A 
ATOM     85  F   UNL A   1      41.101  34.233  35.909  1.00  0.00    -0.206 F 
ATOM     86  C   UNL A   1      38.930  33.868  38.780  1.00  0.00     0.022 A 
BRANCH  83  87
ATOM     87  S   UNL A   1      36.957  32.042  39.523  1.00  0.00     0.124 S 
ATOM     88  O   UNL A   1      37.352  32.572  40.822  1.00  0.00    -0.237 OA
ATOM     89  O   UNL A   1      35.762  32.629  38.925  1.00  0.00    -0.237 OA
ATOM     90  O   UNL A   1      37.074  30.593  39.376  1.00  0.00    -0.744 OA
ENDBRANCH  83  87
ENDBRANCH  56  80
BRANCH  68  91
ATOM     91  C   UNL A   1      44.347  27.800  34.547  1.00  0.00     0.023 A 
ATOM     92  C   UNL A   1      44.231  26.608  35.285  1.00  0.00     0.031 A 
ATOM     93  C   UNL A   1      45.594  28.448  34.523  1.00  0.00     0.131 A 
ATOM     94  C   UNL A   1      45.333  26.128  36.010  1.00  0.00     0.055 A 
ATOM     95  C   UNL A   1      46.700  27.935  35.202  1.00  0.00     0.041 A 
ATOM     96  F   UNL A   1      45.758  29.590  33.837  1.00  0.00    -0.206 F 
ATOM     97  C   UNL A   1      46.570  26.775  35.960  1.00  0.00     0.022 A 
BRANCH  94  98
ATOM     98  S   UNL A   1      45.106  24.687  37.088  1.00  0.00     0.124 S 
ATOM     99  O   UNL A   1      44.267  25.232  38.150  1.00  0.00    -0.237 OA
ATOM    100  O   UNL A   1      44.463  23.727  36.196  1.00  0.00    -0.237 OA
ATOM    101  O   UNL A   1      46.468  24.342  37.490  1.00  0.00    -0.744 OA
ENDBRANCH  94  98
ENDBRANCH  68  91
ENDBRANCH  42  43
ENDBRANCH  34  37
ENDBRANCH  32  33
ENDBRANCH   1  32
TORSDOF 16
ENDMDL
MODEL 2
REMARK VINA RESULT:     -13.1      1.820      2.068
REMARK SMILES Cn1cc(/C=C2\SC(=S)N(c3cccc(C(=O)NCCCCNC(=O)c4ccc(-c5c6nc(c(-c7cc(S(=O)(=O)[O-])ccc7F)c7ccc([nH]7)c(-c7cc(S(=O)(=O)[O-])ccc7F)c7nc(c(-c8cc(S(=O)(=O)[O-])ccc8F)c8ccc5[nH]8)C=C7)C=C6)cc4)c3)C2=O)c2ccccc21
REMARK SMILES IDX 21 1 20 2 19 3 18 4 16 5 17 6 15 8 11 9 12 10 89 11 13 12
REMARK SMILES IDX 14 13 10 14 5 15 6 16 7 17 90 18 8 19 91 20 9 21 4 22 1 23
REMARK SMILES IDX 2 24 3 25 97 26 92 27 96 28 93 29 95 30 94 31 22 32 23 33
REMARK SMILES IDX 24 34 25 36 26 37 27 38 88 39 28 40 87 41 29 42 30 43 31 44
REMARK SMILES IDX 81 45 32 46 86 47 80 48 82 49 33 50 85 51 79 52 78 53 34 55
REMARK SMILES IDX 66 56 46 57 65 58 47 59 50 60 64 61 83 62 48 63 49 64 63 66
REMARK SMILES IDX 84 67 51 68 35 69 36 70 44 71 37 72 43 73 45 74 42 75 38 76
REMARK SMILES IDX 39 77 40 78 41 79 67 80 68 81 76 82 69 83 75 84 77 85 74 86
REMARK SMILES IDX 70 87 71 88 72 89 73 90 52 91 53 92 61 93 54 94 60 95 62 96
REMARK SMILES IDX 59 97 55 98 56 99 57 100 58 101
REMARK H PARENT 18 7 23 35 82 54 50 65
REMARK Flexibility Score: inf
ROOT
ATOM      1  C   UNL A   1      30.907  31.933  26.526  1.00  0.00     0.023 C 
ENDROOT
BRANCH   1   2
ATOM      2  C   UNL A   1      30.772  31.205  25.196  1.00  0.00     0.023 C 
BRANCH   2   3
ATOM      3  C   UNL A   1      29.525  31.503  24.374  1.00  0.00     0.116 C 
BRANCH   3   4
ATOM      4  N   UNL A   1      29.634  31.195  22.957  1.00  0.00    -0.352 N 
ATOM      5  C   UNL A   1      29.549  29.996  22.280  1.00  0.00     0.251 C 
ATOM      6  O   UNL A   1      29.679  29.986  21.058  1.00  0.00    -0.269 OA
ATOM      7  H   UNL A   1      29.795  31.977  22.380  1.00  0.00     0.163 HD
BRANCH   5   8
ATOM      8  C   UNL A   1      29.383  28.702  22.995  1.00  0.00     0.041 A 
ATOM      9  C   UNL A   1      30.265  26.550  23.700  1.00  0.00     0.051 A 
ATOM     10  C   UNL A   1      28.953  26.118  23.943  1.00  0.00     0.027 A 
ATOM     11  C   UNL A   1      30.467  27.883  23.323  1.00  0.00     0.040 A 
ATOM     12  C   UNL A   1      27.871  26.986  23.780  1.00  0.00     0.003 A 
ATOM     13  C   UNL A   1      28.083  28.269  23.278  1.00  0.00     0.014 A 
BRANCH   9  14
ATOM     14  N   UNL A   1      31.348  25.616  23.635  1.00  0.00    -0.261 N 
ATOM     15  C   UNL A   1      33.096  22.965  25.395  1.00  0.00     0.031 C 
ATOM     16  C   UNL A   1      32.675  23.839  24.467  1.00  0.00     0.081 C 
ATOM     17  S   UNL A   1      33.060  23.870  22.796  1.00  0.00    -0.054 SA
ATOM     18  C   UNL A   1      31.703  24.914  24.792  1.00  0.00     0.270 C 
ATOM     19  C   UNL A   1      32.009  25.244  22.473  1.00  0.00     0.152 C 
ATOM     20  O   UNL A   1      31.276  25.075  25.929  1.00  0.00    -0.268 OA
ATOM     21  S   UNL A   1      31.998  25.960  20.959  1.00  0.00    -0.051 S 
BRANCH  15  22
ATOM     22  C   UNL A   1      34.028  21.899  25.214  1.00  0.00     0.001 A 
ATOM     23  C   UNL A   1      37.377  20.566  24.966  1.00  0.00     0.149 C 
ATOM     24  N   UNL A   1      35.955  20.814  25.034  1.00  0.00    -0.350 N 
ATOM     25  C   UNL A   1      35.396  22.037  25.287  1.00  0.00     0.094 A 
ATOM     26  C   UNL A   1      34.973  19.866  24.845  1.00  0.00     0.048 A 
ATOM     27  C   UNL A   1      33.742  20.523  24.967  1.00  0.00     0.007 A 
ATOM     28  C   UNL A   1      35.064  18.492  24.567  1.00  0.00     0.027 A 
ATOM     29  C   UNL A   1      32.559  19.768  24.808  1.00  0.00     0.011 A 
ATOM     30  C   UNL A   1      33.878  17.771  24.412  1.00  0.00     0.002 A 
ATOM     31  C   UNL A   1      32.641  18.397  24.531  1.00  0.00     0.001 A 
ENDBRANCH  15  22
ENDBRANCH   9  14
ENDBRANCH   5   8
ENDBRANCH   3   4
ENDBRANCH   2   3
ENDBRANCH   1   2
BRANCH   1  32
ATOM     32  C   UNL A   1      32.280  32.513  26.844  1.00  0.00     0.116 C 
BRANCH  32  33
ATOM     33  N   UNL A   1      32.241  33.826  27.466  1.00  0.00    -0.352 N 
ATOM     34  C   UNL A   1      33.121  34.412  28.358  1.00  0.00     0.251 C 
ATOM     35  H   UNL A   1      31.470  34.383  27.215  1.00  0.00     0.163 HD
ATOM     36  O   UNL A   1      32.871  35.514  28.816  1.00  0.00    -0.269 OA
BRANCH  34  37
ATOM     37  C   UNL A   1      34.331  33.674  28.790  1.00  0.00     0.039 A 
ATOM     38  C   UNL A   1      35.579  34.279  28.624  1.00  0.00     0.014 A 
ATOM     39  C   UNL A   1      34.237  32.418  29.390  1.00  0.00     0.014 A 
ATOM     40  C   UNL A   1      36.721  33.671  29.154  1.00  0.00     0.010 A 
ATOM     41  C   UNL A   1      35.360  31.853  29.990  1.00  0.00     0.010 A 
ATOM     42  C   UNL A   1      36.612  32.479  29.888  1.00  0.00    -0.014 A 
BRANCH  42  43
ATOM     43  C   UNL A   1      37.788  31.878  30.573  1.00  0.00     0.031 A 
ATOM     44  C   UNL A   1      38.598  30.814  29.887  1.00  0.00     0.074 A 
ATOM     45  C   UNL A   1      38.063  32.218  31.848  1.00  0.00     0.049 A 
ATOM     46  N   UNL A   1      39.583  30.089  30.353  1.00  0.00    -0.248 NA
ATOM     47  C   UNL A   1      38.217  30.493  28.505  1.00  0.00     0.031 C 
ATOM     48  C   UNL A   1      37.308  33.187  32.647  1.00  0.00     0.029 A 
ATOM     49  N   UNL A   1      39.037  31.771  32.705  1.00  0.00    -0.354 N 
ATOM     50  C   UNL A   1      39.925  29.213  29.329  1.00  0.00     0.074 A 
ATOM     51  C   UNL A   1      38.994  29.454  28.246  1.00  0.00     0.031 C 
ATOM     52  C   UNL A   1      37.850  33.264  33.873  1.00  0.00     0.029 A 
ATOM     53  C   UNL A   1      38.965  32.327  33.961  1.00  0.00     0.049 A 
ATOM     54  H   UNL A   1      39.723  31.114  32.445  1.00  0.00     0.167 HD
ATOM     55  C   UNL A   1      40.938  28.308  29.285  1.00  0.00     0.034 A 
ATOM     56  C   UNL A   1      39.701  32.097  35.066  1.00  0.00     0.034 A 
ATOM     57  C   UNL A   1      41.864  28.092  30.371  1.00  0.00     0.049 A 
ATOM     58  C   UNL A   1      40.829  31.102  34.997  1.00  0.00     0.074 A 
ATOM     59  C   UNL A   1      42.968  27.257  30.412  1.00  0.00     0.029 A 
ATOM     60  N   UNL A   1      41.787  28.706  31.615  1.00  0.00    -0.354 N 
ATOM     61  N   UNL A   1      41.188  30.330  33.998  1.00  0.00    -0.248 NA
ATOM     62  C   UNL A   1      41.661  30.961  36.199  1.00  0.00     0.031 C 
ATOM     63  C   UNL A   1      43.521  27.322  31.696  1.00  0.00     0.029 A 
ATOM     64  C   UNL A   1      42.806  28.249  32.438  1.00  0.00     0.049 A 
ATOM     65  H   UNL A   1      41.108  29.370  31.875  1.00  0.00     0.167 HD
ATOM     66  C   UNL A   1      42.300  29.624  34.445  1.00  0.00     0.074 A 
ATOM     67  C   UNL A   1      42.562  30.075  35.797  1.00  0.00     0.031 C 
ATOM     68  C   UNL A   1      43.042  28.691  33.794  1.00  0.00     0.034 A 
BRANCH  55  69
ATOM     69  C   UNL A   1      41.064  27.480  28.027  1.00  0.00     0.023 A 
ATOM     70  C   UNL A   1      40.663  26.132  27.990  1.00  0.00     0.031 A 
ATOM     71  C   UNL A   1      41.652  28.020  26.870  1.00  0.00     0.131 A 
ATOM     72  C   UNL A   1      40.952  25.344  26.867  1.00  0.00     0.055 A 
ATOM     73  C   UNL A   1      41.851  27.254  25.719  1.00  0.00     0.041 A 
ATOM     74  F   UNL A   1      42.070  29.295  26.846  1.00  0.00    -0.206 F 
ATOM     75  C   UNL A   1      41.521  25.900  25.720  1.00  0.00     0.022 A 
BRANCH  72  76
ATOM     76  S   UNL A   1      40.745  23.546  27.000  1.00  0.00     0.124 S 
ATOM     77  O   UNL A   1      41.708  23.065  26.011  1.00  0.00    -0.237 OA
ATOM     78  O   UNL A   1      41.083  23.293  28.396  1.00  0.00    -0.237 OA
ATOM     79  O   UNL A   1      39.343  23.335  26.647  1.00  0.00    -0.744 OA
ENDBRANCH  72  76
ENDBRANCH  55  69
BRANCH  56  80
ATOM     80  C   UNL A   1      39.384  32.810  36.334  1.00  0.00     0.023 A 
ATOM     81  C   UNL A   1      39.966  34.050  36.637  1.00  0.00     0.031 A 
ATOM     82  C   UNL A   1      38.490  32.253  37.266  1.00  0.00     0.131 A 
ATOM     83  C   UNL A   1      39.673  34.680  37.857  1.00  0.00     0.055 A 
ATOM     84  C   UNL A   1      38.169  32.903  38.459  1.00  0.00     0.041 A 
ATOM     85  F   UNL A   1      37.896  31.075  37.016  1.00  0.00    -0.206 F 
ATOM     86  C   UNL A   1      38.771  34.120  38.764  1.00  0.00     0.022 A 
BRANCH  83  87
ATOM     87  S   UNL A   1      40.526  36.229  38.264  1.00  0.00     0.124 S 
ATOM     88  O   UNL A   1      39.408  37.144  38.452  1.00  0.00    -0.237 OA
ATOM     89  O   UNL A   1      41.265  35.860  39.468  1.00  0.00    -0.237 OA
ATOM     90  O   UNL A   1      41.351  36.483  37.085  1.00  0.00    -0.744 OA
ENDBRANCH  83  87
ENDBRANCH  56  80
BRANCH  68  91
ATOM     91  C   UNL A   1      44.228  28.124  34.534  1.00  0.00     0.023 A 
ATOM     92  C   UNL A   1      45.470  28.783  34.556  1.00  0.00     0.031 A 
ATOM     93  C   UNL A   1      44.114  26.900  35.217  1.00  0.00     0.131 A 
ATOM     94  C   UNL A   1      46.564  28.190  35.205  1.00  0.00     0.055 A 
ATOM     95  C   UNL A   1      45.191  26.342  35.907  1.00  0.00     0.041 A 
ATOM     96  F   UNL A   1      42.952  26.228  35.226  1.00  0.00    -0.206 F 
ATOM     97  C   UNL A   1      46.427  26.981  35.894  1.00  0.00     0.022 A 
BRANCH  94  98
ATOM     98  S   UNL A   1      48.191  28.978  35.069  1.00  0.00     0.124 S 
ATOM     99  O   UNL A   1      47.894  30.355  35.448  1.00  0.00    -0.237 OA
ATOM    100  O   UNL A   1      48.990  28.212  36.020  1.00  0.00    -0.237 OA
ATOM    101  O   UNL A   1      48.549  28.786  33.664  1.00  0.00    -0.744 OA
ENDBRANCH  94  98
ENDBRANCH  68  91
ENDBRANCH  42  43
ENDBRANCH  34  37
ENDBRANCH  32  33
ENDBRANCH   1  32
TORSDOF 16
ENDMDL
MODEL 3
REMARK VINA RESULT:     -13.1      1.451      7.333
REMARK SMILES Cn1cc(/C=C2\SC(=S)N(c3cccc(C(=O)NCCCCNC(=O)c4ccc(-c5c6nc(c(-c7cc(S(=O)(=O)[O-])ccc7F)c7ccc([nH]7)c(-c7cc(S(=O)(=O)[O-])ccc7F)c7nc(c(-c8cc(S(=O)(=O)[O-])ccc8F)c8ccc5[nH]8)C=C7)C=C6)cc4)c3)C2=O)c2ccccc21
REMARK SMILES IDX 21 1 20 2 19 3 18 4 16 5 17 6 15 8 11 9 12 10 89 11 13 12
REMARK SMILES IDX 14 13 10 14 5 15 6 16 7 17 90 18 8 19 91 20 9 21 4 22 1 23
REMARK SMILES IDX 2 24 3 25 97 26 92 27 96 28 93 29 95 30 94 31 22 32 23 33
REMARK SMILES IDX 24 34 25 36 26 37 27 38 88 39 28 40 87 41 29 42 30 43 31 44
REMARK SMILES IDX 81 45 32 46 86 47 80 48 82 49 33 50 85 51 79 52 78 53 34 55
REMARK SMILES IDX 66 56 46 57 65 58 47 59 50 60 64 61 83 62 48 63 49 64 63 66
REMARK SMILES IDX 84 67 51 68 35 69 36 70 44 71 37 72 43 73 45 74 42 75 38 76
REMARK SMILES IDX 39 77 40 78 41 79 67 80 68 81 76 82 69 83 75 84 77 85 74 86
REMARK SMILES IDX 70 87 71 88 72 89 73 90 52 91 53 92 61 93 54 94 60 95 62 96
REMARK SMILES IDX 59 97 55 98 56 99 57 100 58 101
REMARK H PARENT 18 7 23 35 82 54 50 65
REMARK Flexibility Score: inf
ROOT
ATOM      1  C   UNL A   1      30.886  31.819  26.430  1.00  0.00     0.023 C 
ENDROOT
BRANCH   1   2
ATOM      2  C   UNL A   1      30.657  31.099  25.109  1.00  0.00     0.023 C 
BRANCH   2   3
ATOM      3  C   UNL A   1      29.453  31.539  24.288  1.00  0.00     0.116 C 
BRANCH   3   4
ATOM      4  N   UNL A   1      29.513  31.198  22.875  1.00  0.00    -0.352 N 
ATOM      5  C   UNL A   1      29.472  29.977  22.235  1.00  0.00     0.251 C 
ATOM      6  O   UNL A   1      29.544  29.940  21.008  1.00  0.00    -0.269 OA
ATOM      7  H   UNL A   1      29.596  31.972  22.272  1.00  0.00     0.163 HD
BRANCH   5   8
ATOM      8  C   UNL A   1      29.423  28.696  22.990  1.00  0.00     0.041 A 
ATOM      9  C   UNL A   1      30.493  26.652  23.754  1.00  0.00     0.051 A 
ATOM     10  C   UNL A   1      29.225  26.115  24.019  1.00  0.00     0.027 A 
ATOM     11  C   UNL A   1      30.576  27.986  23.335  1.00  0.00     0.040 A 
ATOM     12  C   UNL A   1      28.071  26.880  23.836  1.00  0.00     0.003 A 
ATOM     13  C   UNL A   1      28.167  28.160  23.294  1.00  0.00     0.014 A 
BRANCH   9  14
ATOM     14  N   UNL A   1      31.654  25.816  23.711  1.00  0.00    -0.261 N 
ATOM     15  C   UNL A   1      33.738  23.525  25.605  1.00  0.00     0.031 C 
ATOM     16  C   UNL A   1      33.187  24.258  24.625  1.00  0.00     0.081 C 
ATOM     17  S   UNL A   1      33.473  24.150  22.937  1.00  0.00    -0.054 SA
ATOM     18  C   UNL A   1      32.137  25.271  24.905  1.00  0.00     0.270 C 
ATOM     19  C   UNL A   1      32.282  25.386  22.550  1.00  0.00     0.152 C 
ATOM     20  O   UNL A   1      31.760  25.511  26.046  1.00  0.00    -0.268 OA
ATOM     21  S   UNL A   1      32.120  25.938  20.978  1.00  0.00    -0.051 S 
BRANCH  15  22
ATOM     22  C   UNL A   1      34.755  22.532  25.469  1.00  0.00     0.001 A 
ATOM     23  C   UNL A   1      38.199  21.439  25.462  1.00  0.00     0.149 C 
ATOM     24  N   UNL A   1      36.762  21.588  25.418  1.00  0.00    -0.350 N 
ATOM     25  C   UNL A   1      36.100  22.759  25.662  1.00  0.00     0.094 A 
ATOM     26  C   UNL A   1      35.869  20.583  25.116  1.00  0.00     0.048 A 
ATOM     27  C   UNL A   1      34.588  21.150  25.155  1.00  0.00     0.007 A 
ATOM     28  C   UNL A   1      36.079  19.230  24.803  1.00  0.00     0.027 A 
ATOM     29  C   UNL A   1      33.478  20.324  24.871  1.00  0.00     0.011 A 
ATOM     30  C   UNL A   1      34.963  18.438  24.525  1.00  0.00     0.002 A 
ATOM     31  C   UNL A   1      33.679  18.973  24.559  1.00  0.00     0.001 A 
ENDBRANCH  15  22
ENDBRANCH   9  14
ENDBRANCH   5   8
ENDBRANCH   3   4
ENDBRANCH   2   3
ENDBRANCH   1   2
BRANCH   1  32
ATOM     32  C   UNL A   1      32.283  32.386  26.658  1.00  0.00     0.116 C 
BRANCH  32  33
ATOM     33  N   UNL A   1      32.298  33.692  27.295  1.00  0.00    -0.352 N 
ATOM     34  C   UNL A   1      33.193  34.225  28.204  1.00  0.00     0.251 C 
ATOM     35  H   UNL A   1      31.558  34.288  27.040  1.00  0.00     0.163 HD
ATOM     36  O   UNL A   1      32.989  35.333  28.672  1.00  0.00    -0.269 OA
BRANCH  34  37
ATOM     37  C   UNL A   1      34.361  33.426  28.644  1.00  0.00     0.039 A 
ATOM     38  C   UNL A   1      35.627  34.015  28.609  1.00  0.00     0.014 A 
ATOM     39  C   UNL A   1      34.208  32.125  29.125  1.00  0.00     0.014 A 
ATOM     40  C   UNL A   1      36.723  33.338  29.152  1.00  0.00     0.010 A 
ATOM     41  C   UNL A   1      35.281  31.486  29.740  1.00  0.00     0.010 A 
ATOM     42  C   UNL A   1      36.548  32.091  29.770  1.00  0.00    -0.014 A 
BRANCH  42  43
ATOM     43  C   UNL A   1      37.668  31.407  30.471  1.00  0.00     0.031 A 
ATOM     44  C   UNL A   1      37.981  31.744  31.902  1.00  0.00     0.074 A 
ATOM     45  C   UNL A   1      38.464  30.560  29.789  1.00  0.00     0.049 A 
ATOM     46  N   UNL A   1      38.979  31.348  32.651  1.00  0.00    -0.248 NA
ATOM     47  C   UNL A   1      37.072  32.691  32.563  1.00  0.00     0.031 C 
ATOM     48  C   UNL A   1      38.308  30.205  28.376  1.00  0.00     0.029 A 
ATOM     49  N   UNL A   1      39.578  29.861  30.182  1.00  0.00    -0.354 N 
ATOM     50  C   UNL A   1      38.828  32.012  33.864  1.00  0.00     0.074 A 
ATOM     51  C   UNL A   1      37.684  32.888  33.720  1.00  0.00     0.031 C 
ATOM     52  C   UNL A   1      39.284  29.353  28.025  1.00  0.00     0.029 A 
ATOM     53  C   UNL A   1      40.156  29.128  29.172  1.00  0.00     0.049 A 
ATOM     54  H   UNL A   1      39.930  29.883  31.102  1.00  0.00     0.167 HD
ATOM     55  C   UNL A   1      39.561  31.885  35.000  1.00  0.00     0.034 A 
ATOM     56  C   UNL A   1      41.273  28.375  29.165  1.00  0.00     0.034 A 
ATOM     57  C   UNL A   1      40.691  30.997  35.127  1.00  0.00     0.049 A 
ATOM     58  C   UNL A   1      42.067  28.232  30.436  1.00  0.00     0.074 A 
ATOM     59  C   UNL A   1      41.461  30.733  36.247  1.00  0.00     0.029 A 
ATOM     60  N   UNL A   1      41.224  30.234  34.094  1.00  0.00    -0.354 N 
ATOM     61  N   UNL A   1      41.873  28.811  31.598  1.00  0.00    -0.248 NA
ATOM     62  C   UNL A   1      43.219  27.322  30.399  1.00  0.00     0.031 C 
ATOM     63  C   UNL A   1      42.492  29.860  35.877  1.00  0.00     0.029 A 
ATOM     64  C   UNL A   1      42.327  29.522  34.543  1.00  0.00     0.049 A 
ATOM     65  H   UNL A   1      40.869  30.203  33.176  1.00  0.00     0.167 HD
ATOM     66  C   UNL A   1      42.868  28.320  32.437  1.00  0.00     0.074 A 
ATOM     67  C   UNL A   1      43.650  27.386  31.651  1.00  0.00     0.031 C 
ATOM     68  C   UNL A   1      43.111  28.610  33.741  1.00  0.00     0.034 A 
BRANCH  55  69
ATOM     69  C   UNL A   1      39.163  32.751  36.173  1.00  0.00     0.023 A 
ATOM     70  C   UNL A   1      39.621  34.076  36.299  1.00  0.00     0.031 A 
ATOM     71  C   UNL A   1      38.373  32.230  37.212  1.00  0.00     0.131 A 
ATOM     72  C   UNL A   1      39.379  34.793  37.479  1.00  0.00     0.055 A 
ATOM     73  C   UNL A   1      38.055  32.985  38.344  1.00  0.00     0.041 A 
ATOM     74  F   UNL A   1      37.918  30.969  37.160  1.00  0.00    -0.206 F 
ATOM     75  C   UNL A   1      38.578  34.267  38.494  1.00  0.00     0.022 A 
BRANCH  72  76
ATOM     76  S   UNL A   1      40.282  36.345  37.743  1.00  0.00     0.124 S 
ATOM     77  O   UNL A   1      41.498  35.870  38.399  1.00  0.00    -0.237 OA
ATOM     78  O   UNL A   1      40.443  36.851  36.385  1.00  0.00    -0.237 OA
ATOM     79  O   UNL A   1      39.385  37.122  38.598  1.00  0.00    -0.744 OA
ENDBRANCH  72  76
ENDBRANCH  55  69
BRANCH  56  80
ATOM     80  C   UNL A   1      41.714  27.711  27.907  1.00  0.00     0.023 A 
ATOM     81  C   UNL A   1      41.627  26.319  27.749  1.00  0.00     0.031 A 
ATOM     82  C   UNL A   1      42.236  28.467  26.842  1.00  0.00     0.131 A 
ATOM     83  C   UNL A   1      42.084  25.721  26.565  1.00  0.00     0.055 A 
ATOM     84  C   UNL A   1      42.650  27.871  25.649  1.00  0.00     0.041 A 
ATOM     85  F   UNL A   1      42.327  29.802  26.939  1.00  0.00    -0.206 F 
ATOM     86  C   UNL A   1      42.585  26.488  25.510  1.00  0.00     0.022 A 
BRANCH  83  87
ATOM     87  S   UNL A   1      42.056  23.911  26.437  1.00  0.00     0.124 S 
ATOM     88  O   UNL A   1      42.701  23.694  25.148  1.00  0.00    -0.237 OA
ATOM     89  O   UNL A   1      42.821  23.512  27.614  1.00  0.00    -0.237 OA
ATOM     90  O   UNL A   1      40.632  23.589  26.486  1.00  0.00    -0.744 OA
ENDBRANCH  83  87
ENDBRANCH  56  80
BRANCH  68  91
ATOM     91  C   UNL A   1      44.253  27.880  34.403  1.00  0.00     0.023 A 
ATOM     92  C   UNL A   1      44.066  26.642  35.042  1.00  0.00     0.031 A 
ATOM     93  C   UNL A   1      45.544  28.438  34.401  1.00  0.00     0.131 A 
ATOM     94  C   UNL A   1      45.144  26.026  35.698  1.00  0.00     0.055 A 
ATOM     95  C   UNL A   1      46.623  27.794  35.008  1.00  0.00     0.041 A 
ATOM     96  F   UNL A   1      45.776  29.619  33.807  1.00  0.00    -0.206 F 
ATOM     97  C   UNL A   1      46.424  26.587  35.671  1.00  0.00     0.022 A 
BRANCH  94  98
ATOM     98  S   UNL A   1      44.834  24.520  36.660  1.00  0.00     0.124 S 
ATOM     99  O   UNL A   1      46.184  24.125  37.049  1.00  0.00    -0.237 OA
ATOM    100  O   UNL A   1      43.975  25.005  37.735  1.00  0.00    -0.237 OA
ATOM    101  O   UNL A   1      44.182  23.629  35.701  1.00  0.00    -0.744 OA
ENDBRANCH  94  98
ENDBRANCH  68  91
ENDBRANCH  42  43
ENDBRANCH  34  37
ENDBRANCH  32  33
ENDBRANCH   1  32
TORSDOF 16
ENDMDL
