MODEL 1
REMARK VINA RESULT:     -11.6      0.000      0.000
REMARK SMILES CC1=C(C#N)C(=O)N(C)C(=O)/C1=C\Nc1ccc(C(=O)NCCCCNC(=O)c2ccc(-c3c4nc(c(-c5cc(S(=O)(=O)[O-])ccc5F)c5ccc([nH]5)c(-c5cc(S(=O)(=O)[O-])ccc5F)c5nc(c(-c6cc(S(=O)(=O)[O-])ccc6F)c6ccc3[nH]6)C=C5)C=C4)cc2)c(O)c1
REMARK SMILES IDX 23 1 22 2 21 3 19 4 20 5 18 7 15 8 16 9 94 10 17 11 92 12
REMARK SMILES IDX 14 13 13 15 1 16 2 17 3 18 12 19 6 20 10 21 7 22 8 23 11 24
REMARK SMILES IDX 9 25 4 26 5 27 93 28 24 30 25 31 26 32 27 33 28 35 29 36
REMARK SMILES IDX 30 37 91 38 31 39 90 40 32 41 33 42 34 43 84 44 35 45 89 46
REMARK SMILES IDX 83 47 85 48 36 49 88 50 82 51 81 52 37 54 69 55 49 56 68 57
REMARK SMILES IDX 50 58 53 59 67 60 86 61 51 62 52 63 66 65 87 66 54 67 38 68
REMARK SMILES IDX 39 69 47 70 40 71 46 72 48 73 45 74 41 75 42 76 43 77 44 78
REMARK SMILES IDX 70 79 71 80 79 81 72 82 78 83 80 84 77 85 73 86 74 87 75 88
REMARK SMILES IDX 76 89 55 90 56 91 64 92 57 93 63 94 65 95 62 96 58 97 59 98
REMARK SMILES IDX 60 99 61 100
REMARK H PARENT 21 6 14 14 93 29 26 34 85 53 53 64
REMARK Flexibility Score: inf
ROOT
ATOM      1  C   UNL A   1      31.483  29.763  26.972  1.00  0.00     0.023 C 
ENDROOT
BRANCH   1   2
ATOM      2  C   UNL A   1      31.566  30.820  25.880  1.00  0.00     0.116 C 
BRANCH   2   3
ATOM      3  N   UNL A   1      30.705  30.604  24.728  1.00  0.00    -0.352 N 
ATOM      4  C   UNL A   1      30.612  29.518  23.886  1.00  0.00     0.255 C 
ATOM      5  O   UNL A   1      29.790  29.543  22.972  1.00  0.00    -0.269 OA
ATOM      6  H   UNL A   1      30.095  31.347  24.519  1.00  0.00     0.163 HD
BRANCH   4   7
ATOM      7  C   UNL A   1      31.518  28.343  24.001  1.00  0.00     0.081 A 
ATOM      8  C   UNL A   1      33.007  25.933  24.081  1.00  0.00     0.042 A 
ATOM      9  C   UNL A   1      31.678  25.963  24.511  1.00  0.00     0.027 A 
ATOM     10  C   UNL A   1      33.591  27.135  23.663  1.00  0.00     0.073 A 
ATOM     11  C   UNL A   1      30.940  27.152  24.468  1.00  0.00     0.020 A 
ATOM     12  C   UNL A   1      32.877  28.333  23.688  1.00  0.00     0.130 A 
BRANCH   8  13
ATOM     13  N   UNL A   1      33.779  24.768  24.014  1.00  0.00    -0.361 N 
ATOM     14  H   UNL A   1      34.741  24.917  23.870  1.00  0.00     0.166 HD
BRANCH  13  15
ATOM     15  C   UNL A   1      33.408  23.449  24.117  1.00  0.00     0.097 C 
ATOM     16  C   UNL A   1      32.274  20.651  24.167  1.00  0.00     0.047 C 
ATOM     17  C   UNL A   1      33.737  20.986  24.387  1.00  0.00    -0.013 C 
ATOM     18  C   UNL A   1      34.618  19.988  24.623  1.00  0.00     0.121 C 
ATOM     19  C   UNL A   1      34.200  22.376  24.336  1.00  0.00     0.060 C 
ATOM     20  C   UNL A   1      36.058  20.261  24.870  1.00  0.00     0.271 C 
ATOM     21  C   UNL A   1      35.671  22.669  24.540  1.00  0.00     0.262 C 
ATOM     22  O   UNL A   1      36.832  19.329  25.090  1.00  0.00    -0.268 OA
ATOM     23  N   UNL A   1      36.475  21.580  24.839  1.00  0.00    -0.277 N 
ATOM     24  O   UNL A   1      36.124  23.811  24.439  1.00  0.00    -0.269 OA
ATOM     25  C   UNL A   1      37.883  21.823  25.107  1.00  0.00     0.157 C 
BRANCH  18  26
ATOM     26  C   UNL A   1      34.217  18.619  24.656  1.00  0.00     0.105 C 
ATOM     27  N   UNL A   1      33.930  17.493  24.634  1.00  0.00    -0.192 NA
ENDBRANCH  18  26
ENDBRANCH  13  15
ENDBRANCH   8  13
BRANCH  12  28
ATOM     28  O   UNL A   1      33.621  29.453  23.440  1.00  0.00    -0.507 OA
ATOM     29  H   UNL A   1      33.625  29.833  22.584  1.00  0.00     0.293 HD
ENDBRANCH  12  28
ENDBRANCH   4   7
ENDBRANCH   2   3
ENDBRANCH   1   2
BRANCH   1  30
ATOM     30  C   UNL A   1      32.779  29.036  27.318  1.00  0.00     0.023 C 
BRANCH  30  31
ATOM     31  C   UNL A   1      34.058  29.863  27.235  1.00  0.00     0.116 C 
BRANCH  31  32
ATOM     32  N   UNL A   1      34.104  30.964  28.187  1.00  0.00    -0.352 N 
ATOM     33  C   UNL A   1      35.059  31.287  29.126  1.00  0.00     0.251 C 
ATOM     34  H   UNL A   1      33.331  31.573  28.154  1.00  0.00     0.163 HD
ATOM     35  O   UNL A   1      34.841  32.194  29.925  1.00  0.00    -0.269 OA
BRANCH  33  36
ATOM     36  C   UNL A   1      36.319  30.515  29.201  1.00  0.00     0.039 A 
ATOM     37  C   UNL A   1      37.357  30.830  28.321  1.00  0.00     0.014 A 
ATOM     38  C   UNL A   1      36.495  29.519  30.163  1.00  0.00     0.014 A 
ATOM     39  C   UNL A   1      38.607  30.228  28.485  1.00  0.00     0.010 A 
ATOM     40  C   UNL A   1      37.765  28.993  30.386  1.00  0.00     0.010 A 
ATOM     41  C   UNL A   1      38.841  29.357  29.562  1.00  0.00    -0.014 A 
BRANCH  41  42
ATOM     42  C   UNL A   1      40.211  28.868  29.875  1.00  0.00     0.031 A 
ATOM     43  C   UNL A   1      41.058  29.564  30.903  1.00  0.00     0.074 A 
ATOM     44  C   UNL A   1      40.718  27.834  29.174  1.00  0.00     0.049 A 
ATOM     45  N   UNL A   1      42.290  29.315  31.266  1.00  0.00    -0.248 NA
ATOM     46  C   UNL A   1      40.446  30.707  31.595  1.00  0.00     0.031 C 
ATOM     47  C   UNL A   1      40.009  27.099  28.124  1.00  0.00     0.029 A 
ATOM     48  N   UNL A   1      41.944  27.220  29.233  1.00  0.00    -0.354 N 
ATOM     49  C   UNL A   1      42.607  30.277  32.220  1.00  0.00     0.074 A 
ATOM     50  C   UNL A   1      41.456  31.149  32.329  1.00  0.00     0.031 C 
ATOM     51  C   UNL A   1      40.793  26.108  27.673  1.00  0.00     0.029 A 
ATOM     52  C   UNL A   1      42.084  26.175  28.349  1.00  0.00     0.049 A 
ATOM     53  H   UNL A   1      42.658  27.500  29.851  1.00  0.00     0.167 HD
ATOM     54  C   UNL A   1      43.743  30.404  32.951  1.00  0.00     0.034 A 
ATOM     55  C   UNL A   1      43.135  25.370  28.095  1.00  0.00     0.034 A 
ATOM     56  C   UNL A   1      44.883  29.527  32.820  1.00  0.00     0.049 A 
ATOM     57  C   UNL A   1      44.412  25.577  28.868  1.00  0.00     0.074 A 
ATOM     58  C   UNL A   1      46.057  29.528  33.554  1.00  0.00     0.029 A 
ATOM     59  N   UNL A   1      45.006  28.512  31.880  1.00  0.00    -0.354 N 
ATOM     60  N   UNL A   1      44.670  26.445  29.818  1.00  0.00    -0.248 NA
ATOM     61  C   UNL A   1      45.537  24.697  28.531  1.00  0.00     0.031 C 
ATOM     62  C   UNL A   1      46.925  28.586  32.992  1.00  0.00     0.029 A 
ATOM     63  C   UNL A   1      46.260  27.924  31.972  1.00  0.00     0.049 A 
ATOM     64  H   UNL A   1      44.306  28.248  31.240  1.00  0.00     0.167 HD
ATOM     65  C   UNL A   1      45.985  26.200  30.207  1.00  0.00     0.074 A 
ATOM     66  C   UNL A   1      46.454  25.089  29.405  1.00  0.00     0.031 C 
ATOM     67  C   UNL A   1      46.733  26.836  31.146  1.00  0.00     0.034 A 
BRANCH  54  68
ATOM     68  C   UNL A   1      43.819  31.562  33.920  1.00  0.00     0.023 A 
ATOM     69  C   UNL A   1      43.303  31.472  35.226  1.00  0.00     0.031 A 
ATOM     70  C   UNL A   1      44.377  32.791  33.522  1.00  0.00     0.131 A 
ATOM     71  C   UNL A   1      43.264  32.610  36.045  1.00  0.00     0.055 A 
ATOM     72  C   UNL A   1      44.427  33.892  34.379  1.00  0.00     0.041 A 
ATOM     73  F   UNL A   1      44.866  32.950  32.282  1.00  0.00    -0.206 F 
ATOM     74  C   UNL A   1      43.848  33.812  35.642  1.00  0.00     0.022 A 
BRANCH  71  75
ATOM     75  S   UNL A   1      42.267  32.547  37.559  1.00  0.00     0.124 S 
ATOM     76  O   UNL A   1      42.940  33.537  38.397  1.00  0.00    -0.237 OA
ATOM     77  O   UNL A   1      40.940  32.912  37.078  1.00  0.00    -0.237 OA
ATOM     78  O   UNL A   1      42.412  31.162  38.006  1.00  0.00    -0.744 OA
ENDBRANCH  71  75
ENDBRANCH  54  68
BRANCH  55  79
ATOM     79  C   UNL A   1      43.032  24.303  27.058  1.00  0.00     0.023 A 
ATOM     80  C   UNL A   1      42.357  23.102  27.326  1.00  0.00     0.031 A 
ATOM     81  C   UNL A   1      43.624  24.459  25.792  1.00  0.00     0.131 A 
ATOM     82  C   UNL A   1      42.318  22.089  26.354  1.00  0.00     0.055 A 
ATOM     83  C   UNL A   1      43.531  23.473  24.807  1.00  0.00     0.041 A 
ATOM     84  F   UNL A   1      44.285  25.587  25.484  1.00  0.00    -0.206 F 
ATOM     85  C   UNL A   1      42.883  22.276  25.090  1.00  0.00     0.022 A 
BRANCH  82  86
ATOM     86  S   UNL A   1      41.585  20.491  26.794  1.00  0.00     0.124 S 
ATOM     87  O   UNL A   1      42.590  19.943  27.698  1.00  0.00    -0.237 OA
ATOM     88  O   UNL A   1      40.323  20.895  27.406  1.00  0.00    -0.237 OA
ATOM     89  O   UNL A   1      41.462  19.808  25.508  1.00  0.00    -0.744 OA
ENDBRANCH  82  86
ENDBRANCH  55  79
BRANCH  67  90
ATOM     90  C   UNL A   1      48.140  26.330  31.362  1.00  0.00     0.023 A 
ATOM     91  C   UNL A   1      48.415  25.277  32.252  1.00  0.00     0.031 A 
ATOM     92  C   UNL A   1      49.220  26.909  30.674  1.00  0.00     0.131 A 
ATOM     93  C   UNL A   1      49.740  24.874  32.473  1.00  0.00     0.055 A 
ATOM     94  C   UNL A   1      50.529  26.455  30.842  1.00  0.00     0.041 A 
ATOM     95  F   UNL A   1      49.022  27.924  29.818  1.00  0.00    -0.206 F 
ATOM     96  C   UNL A   1      50.797  25.440  31.756  1.00  0.00     0.022 A 
BRANCH  93  97
ATOM     97  S   UNL A   1      50.076  23.673  33.791  1.00  0.00     0.124 S 
ATOM     98  O   UNL A   1      51.160  24.323  34.521  1.00  0.00    -0.237 OA
ATOM     99  O   UNL A   1      48.794  23.602  34.483  1.00  0.00    -0.237 OA
ATOM    100  O   UNL A   1      50.457  22.464  33.063  1.00  0.00    -0.744 OA
ENDBRANCH  93  97
ENDBRANCH  67  90
ENDBRANCH  41  42
ENDBRANCH  33  36
ENDBRANCH  31  32
ENDBRANCH  30  31
ENDBRANCH   1  30
TORSDOF 18
ENDMDL
MODEL 2
REMARK VINA RESULT:     -11.5      3.111      8.166
REMARK SMILES CC1=C(C#N)C(=O)N(C)C(=O)/C1=C\Nc1ccc(C(=O)NCCCCNC(=O)c2ccc(-c3c4nc(c(-c5cc(S(=O)(=O)[O-])ccc5F)c5ccc([nH]5)c(-c5cc(S(=O)(=O)[O-])ccc5F)c5nc(c(-c6cc(S(=O)(=O)[O-])ccc6F)c6ccc3[nH]6)C=C5)C=C4)cc2)c(O)c1
REMARK SMILES IDX 23 1 22 2 21 3 19 4 20 5 18 7 15 8 16 9 94 10 17 11 92 12
REMARK SMILES IDX 14 13 13 15 1 16 2 17 3 18 12 19 6 20 10 21 7 22 8 23 11 24
REMARK SMILES IDX 9 25 4 26 5 27 93 28 24 30 25 31 26 32 27 33 28 35 29 36
REMARK SMILES IDX 30 37 91 38 31 39 90 40 32 41 33 42 34 43 84 44 35 45 89 46
REMARK SMILES IDX 83 47 85 48 36 49 88 50 82 51 81 52 37 54 69 55 49 56 68 57
REMARK SMILES IDX 50 58 53 59 67 60 86 61 51 62 52 63 66 65 87 66 54 67 38 68
REMARK SMILES IDX 39 69 47 70 40 71 46 72 48 73 45 74 41 75 42 76 43 77 44 78
REMARK SMILES IDX 70 79 71 80 79 81 72 82 78 83 80 84 77 85 73 86 74 87 75 88
REMARK SMILES IDX 76 89 55 90 56 91 64 92 57 93 63 94 65 95 62 96 58 97 59 98
REMARK SMILES IDX 60 99 61 100
REMARK H PARENT 21 6 14 14 93 29 26 34 85 53 53 64
REMARK Flexibility Score: inf
ROOT
ATOM      1  C   UNL A   1      32.801  31.134  27.154  1.00  0.00     0.023 C 
ENDROOT
BRANCH   1   2
ATOM      2  C   UNL A   1      32.306  30.075  26.179  1.00  0.00     0.116 C 
BRANCH   2   3
ATOM      3  N   UNL A   1      31.206  30.480  25.318  1.00  0.00    -0.352 N 
ATOM      4  C   UNL A   1      30.697  29.873  24.190  1.00  0.00     0.255 C 
ATOM      5  O   UNL A   1      29.738  30.389  23.620  1.00  0.00    -0.269 OA
ATOM      6  H   UNL A   1      30.757  31.314  25.580  1.00  0.00     0.163 HD
BRANCH   4   7
ATOM      7  C   UNL A   1      31.309  28.651  23.600  1.00  0.00     0.081 A 
ATOM      8  C   UNL A   1      32.717  26.369  22.684  1.00  0.00     0.042 A 
ATOM      9  C   UNL A   1      33.372  27.592  22.846  1.00  0.00     0.027 A 
ATOM     10  C   UNL A   1      31.340  26.322  22.936  1.00  0.00     0.073 A 
ATOM     11  C   UNL A   1      32.678  28.720  23.303  1.00  0.00     0.020 A 
ATOM     12  C   UNL A   1      30.636  27.462  23.322  1.00  0.00     0.130 A 
BRANCH   8  13
ATOM     13  N   UNL A   1      33.359  25.183  22.316  1.00  0.00    -0.361 N 
ATOM     14  H   UNL A   1      34.267  25.299  21.952  1.00  0.00     0.166 HD
BRANCH  13  15
ATOM     15  C   UNL A   1      32.927  23.880  22.383  1.00  0.00     0.097 C 
ATOM     16  C   UNL A   1      31.938  21.036  22.152  1.00  0.00     0.047 C 
ATOM     17  C   UNL A   1      32.661  21.596  23.362  1.00  0.00    -0.013 C 
ATOM     18  C   UNL A   1      32.896  20.794  24.426  1.00  0.00     0.121 C 
ATOM     19  C   UNL A   1      33.114  22.990  23.383  1.00  0.00     0.060 C 
ATOM     20  C   UNL A   1      33.577  21.296  25.646  1.00  0.00     0.271 C 
ATOM     21  C   UNL A   1      33.850  23.506  24.600  1.00  0.00     0.262 C 
ATOM     22  O   UNL A   1      33.767  20.541  26.600  1.00  0.00    -0.268 OA
ATOM     23  N   UNL A   1      33.979  22.620  25.657  1.00  0.00    -0.277 N 
ATOM     24  O   UNL A   1      34.312  24.648  24.641  1.00  0.00    -0.269 OA
ATOM     25  C   UNL A   1      34.623  23.094  26.872  1.00  0.00     0.157 C 
BRANCH  18  26
ATOM     26  C   UNL A   1      32.496  19.424  24.440  1.00  0.00     0.105 C 
ATOM     27  N   UNL A   1      32.151  18.315  24.391  1.00  0.00    -0.192 NA
ENDBRANCH  18  26
ENDBRANCH  13  15
ENDBRANCH   8  13
BRANCH  12  28
ATOM     28  O   UNL A   1      29.276  27.320  23.345  1.00  0.00    -0.507 OA
ATOM     29  H   UNL A   1      28.869  26.625  22.865  1.00  0.00     0.293 HD
ENDBRANCH  12  28
ENDBRANCH   4   7
ENDBRANCH   2   3
ENDBRANCH   1   2
BRANCH   1  30
ATOM     30  C   UNL A   1      32.029  32.451  27.182  1.00  0.00     0.023 C 
BRANCH  30  31
ATOM     31  C   UNL A   1      32.857  33.720  27.019  1.00  0.00     0.116 C 
BRANCH  31  32
ATOM     32  N   UNL A   1      32.695  34.668  28.112  1.00  0.00    -0.352 N 
ATOM     33  C   UNL A   1      33.376  34.775  29.305  1.00  0.00     0.251 C 
ATOM     34  H   UNL A   1      31.986  35.339  27.978  1.00  0.00     0.163 HD
ATOM     35  O   UNL A   1      32.991  35.575  30.154  1.00  0.00    -0.269 OA
BRANCH  33  36
ATOM     36  C   UNL A   1      34.535  33.897  29.580  1.00  0.00     0.039 A 
ATOM     37  C   UNL A   1      35.806  34.310  29.173  1.00  0.00     0.014 A 
ATOM     38  C   UNL A   1      34.379  32.696  30.275  1.00  0.00     0.014 A 
ATOM     39  C   UNL A   1      36.929  33.578  29.568  1.00  0.00     0.010 A 
ATOM     40  C   UNL A   1      35.502  32.023  30.749  1.00  0.00     0.010 A 
ATOM     41  C   UNL A   1      36.791  32.468  30.418  1.00  0.00    -0.014 A 
BRANCH  41  42
ATOM     42  C   UNL A   1      37.979  31.801  31.015  1.00  0.00     0.031 A 
ATOM     43  C   UNL A   1      38.739  30.756  30.247  1.00  0.00     0.074 A 
ATOM     44  C   UNL A   1      38.329  32.089  32.285  1.00  0.00     0.049 A 
ATOM     45  N   UNL A   1      39.760  30.031  30.625  1.00  0.00    -0.248 NA
ATOM     46  C   UNL A   1      38.270  30.471  28.883  1.00  0.00     0.031 C 
ATOM     47  C   UNL A   1      37.648  33.057  33.147  1.00  0.00     0.029 A 
ATOM     48  N   UNL A   1      39.340  31.600  33.075  1.00  0.00    -0.354 N 
ATOM     49  C   UNL A   1      40.051  29.195  29.551  1.00  0.00     0.074 A 
ATOM     50  C   UNL A   1      39.054  29.462  28.535  1.00  0.00     0.031 C 
ATOM     51  C   UNL A   1      38.287  33.125  34.325  1.00  0.00     0.029 A 
ATOM     52  C   UNL A   1      39.380  32.159  34.331  1.00  0.00     0.049 A 
ATOM     53  H   UNL A   1      39.977  30.914  32.770  1.00  0.00     0.167 HD
ATOM     54  C   UNL A   1      41.067  28.304  29.420  1.00  0.00     0.034 A 
ATOM     55  C   UNL A   1      40.192  31.912  35.379  1.00  0.00     0.034 A 
ATOM     56  C   UNL A   1      42.045  28.047  30.450  1.00  0.00     0.049 A 
ATOM     57  C   UNL A   1      41.267  30.867  35.235  1.00  0.00     0.074 A 
ATOM     58  C   UNL A   1      43.150  27.214  30.399  1.00  0.00     0.029 A 
ATOM     59  N   UNL A   1      42.023  28.596  31.727  1.00  0.00    -0.354 N 
ATOM     60  N   UNL A   1      41.574  30.137  34.188  1.00  0.00    -0.248 NA
ATOM     61  C   UNL A   1      42.103  30.613  36.415  1.00  0.00     0.031 C 
ATOM     62  C   UNL A   1      43.733  27.181  31.670  1.00  0.00     0.029 A 
ATOM     63  C   UNL A   1      43.057  28.070  32.490  1.00  0.00     0.049 A 
ATOM     64  H   UNL A   1      41.370  29.260  32.045  1.00  0.00     0.167 HD
ATOM     65  C   UNL A   1      42.654  29.350  34.579  1.00  0.00     0.074 A 
ATOM     66  C   UNL A   1      42.958  29.714  35.948  1.00  0.00     0.031 C 
ATOM     67  C   UNL A   1      43.334  28.414  33.867  1.00  0.00     0.034 A 
BRANCH  54  68
ATOM     68  C   UNL A   1      41.136  27.515  28.132  1.00  0.00     0.023 A 
ATOM     69  C   UNL A   1      40.772  26.157  28.074  1.00  0.00     0.031 A 
ATOM     70  C   UNL A   1      41.613  28.114  26.953  1.00  0.00     0.131 A 
ATOM     71  C   UNL A   1      40.985  25.423  26.898  1.00  0.00     0.055 A 
ATOM     72  C   UNL A   1      41.727  27.403  25.757  1.00  0.00     0.041 A 
ATOM     73  F   UNL A   1      41.999  29.400  26.946  1.00  0.00    -0.206 F 
ATOM     74  C   UNL A   1      41.433  26.043  25.730  1.00  0.00     0.022 A 
BRANCH  71  75
ATOM     75  S   UNL A   1      40.854  23.615  26.976  1.00  0.00     0.124 S 
ATOM     76  O   UNL A   1      41.762  23.208  25.907  1.00  0.00    -0.237 OA
ATOM     77  O   UNL A   1      41.295  23.326  28.335  1.00  0.00    -0.237 OA
ATOM     78  O   UNL A   1      39.438  23.364  26.709  1.00  0.00    -0.744 OA
ENDBRANCH  71  75
ENDBRANCH  54  68
BRANCH  55  79
ATOM     79  C   UNL A   1      40.015  32.657  36.659  1.00  0.00     0.023 A 
ATOM     80  C   UNL A   1      39.065  32.245  37.607  1.00  0.00     0.031 A 
ATOM     81  C   UNL A   1      40.777  33.804  36.945  1.00  0.00     0.131 A 
ATOM     82  C   UNL A   1      38.878  32.992  38.781  1.00  0.00     0.055 A 
ATOM     83  C   UNL A   1      40.629  34.509  38.141  1.00  0.00     0.041 A 
ATOM     84  F   UNL A   1      41.697  34.245  36.071  1.00  0.00    -0.206 F 
ATOM     85  C   UNL A   1      39.668  34.109  39.063  1.00  0.00     0.022 A 
BRANCH  82  86
ATOM     86  S   UNL A   1      37.531  32.527  39.900  1.00  0.00     0.124 S 
ATOM     87  O   UNL A   1      36.473  32.171  38.959  1.00  0.00    -0.237 OA
ATOM     88  O   UNL A   1      38.124  31.422  40.647  1.00  0.00    -0.237 OA
ATOM     89  O   UNL A   1      37.296  33.744  40.673  1.00  0.00    -0.744 OA
ENDBRANCH  82  86
ENDBRANCH  55  79
BRANCH  67  90
ATOM     90  C   UNL A   1      44.486  27.726  34.560  1.00  0.00     0.023 A 
ATOM     91  C   UNL A   1      44.319  26.500  35.227  1.00  0.00     0.031 A 
ATOM     92  C   UNL A   1      45.768  28.303  34.557  1.00  0.00     0.131 A 
ATOM     93  C   UNL A   1      45.398  25.921  35.911  1.00  0.00     0.055 A 
ATOM     94  C   UNL A   1      46.856  27.686  35.175  1.00  0.00     0.041 A 
ATOM     95  F   UNL A   1      45.988  29.478  33.944  1.00  0.00    -0.206 F 
ATOM     96  C   UNL A   1      46.671  26.494  35.870  1.00  0.00     0.022 A 
BRANCH  93  97
ATOM     97  S   UNL A   1      45.091  24.464  36.947  1.00  0.00     0.124 S 
ATOM     98  O   UNL A   1      44.421  23.566  36.012  1.00  0.00    -0.237 OA
ATOM     99  O   UNL A   1      46.439  24.076  37.349  1.00  0.00    -0.237 OA
ATOM    100  O   UNL A   1      44.247  24.980  38.023  1.00  0.00    -0.744 OA
ENDBRANCH  93  97
ENDBRANCH  67  90
ENDBRANCH  41  42
ENDBRANCH  33  36
ENDBRANCH  31  32
ENDBRANCH  30  31
ENDBRANCH   1  30
TORSDOF 18
ENDMDL
MODEL 3
REMARK VINA RESULT:     -11.5      2.945      7.971
REMARK SMILES CC1=C(C#N)C(=O)N(C)C(=O)/C1=C\Nc1ccc(C(=O)NCCCCNC(=O)c2ccc(-c3c4nc(c(-c5cc(S(=O)(=O)[O-])ccc5F)c5ccc([nH]5)c(-c5cc(S(=O)(=O)[O-])ccc5F)c5nc(c(-c6cc(S(=O)(=O)[O-])ccc6F)c6ccc3[nH]6)C=C5)C=C4)cc2)c(O)c1
REMARK SMILES IDX 23 1 22 2 21 3 19 4 20 5 18 7 15 8 16 9 94 10 17 11 92 12
REMARK SMILES IDX 14 13 13 15 1 16 2 17 3 18 12 19 6 20 10 21 7 22 8 23 11 24
REMARK SMILES IDX 9 25 4 26 5 27 93 28 24 30 25 31 26 32 27 33 28 35 29 36
REMARK SMILES IDX 30 37 91 38 31 39 90 40 32 41 33 42 34 43 84 44 35 45 89 46
REMARK SMILES IDX 83 47 85 48 36 49 88 50 82 51 81 52 37 54 69 55 49 56 68 57
REMARK SMILES IDX 50 58 53 59 67 60 86 61 51 62 52 63 66 65 87 66 54 67 38 68
REMARK SMILES IDX 39 69 47 70 40 71 46 72 48 73 45 74 41 75 42 76 43 77 44 78
REMARK SMILES IDX 70 79 71 80 79 81 72 82 78 83 80 84 77 85 73 86 74 87 75 88
REMARK SMILES IDX 76 89 55 90 56 91 64 92 57 93 63 94 65 95 62 96 58 97 59 98
REMARK SMILES IDX 60 99 61 100
REMARK H PARENT 21 6 14 14 93 29 26 34 85 53 53 64
REMARK Flexibility Score: inf
ROOT
ATOM      1  C   UNL A   1      31.023  30.605  24.542  1.00  0.00     0.023 C 
ENDROOT
BRANCH   1   2
ATOM      2  C   UNL A   1      29.546  30.949  24.416  1.00  0.00     0.116 C 
BRANCH   2   3
ATOM      3  N   UNL A   1      28.970  30.773  23.092  1.00  0.00    -0.352 N 
ATOM      4  C   UNL A   1      28.842  29.633  22.329  1.00  0.00     0.255 C 
ATOM      5  O   UNL A   1      28.300  29.713  21.229  1.00  0.00    -0.269 OA
ATOM      6  H   UNL A   1      28.617  31.593  22.679  1.00  0.00     0.163 HD
BRANCH   4   7
ATOM      7  C   UNL A   1      29.397  28.321  22.760  1.00  0.00     0.081 A 
ATOM      8  C   UNL A   1      30.721  25.985  23.666  1.00  0.00     0.042 A 
ATOM      9  C   UNL A   1      31.370  26.888  22.821  1.00  0.00     0.027 A 
ATOM     10  C   UNL A   1      29.386  26.243  24.005  1.00  0.00     0.073 A 
ATOM     11  C   UNL A   1      30.718  28.045  22.376  1.00  0.00     0.020 A 
ATOM     12  C   UNL A   1      28.716  27.358  23.504  1.00  0.00     0.130 A 
BRANCH   8  13
ATOM     13  N   UNL A   1      31.333  24.856  24.219  1.00  0.00    -0.361 N 
ATOM     14  H   UNL A   1      30.723  24.109  24.418  1.00  0.00     0.166 HD
BRANCH  13  15
ATOM     15  C   UNL A   1      32.652  24.620  24.527  1.00  0.00     0.097 C 
ATOM     16  C   UNL A   1      35.550  24.451  25.359  1.00  0.00     0.047 C 
ATOM     17  C   UNL A   1      34.696  23.256  24.979  1.00  0.00    -0.013 C 
ATOM     18  C   UNL A   1      35.239  22.017  25.005  1.00  0.00     0.121 C 
ATOM     19  C   UNL A   1      33.292  23.432  24.596  1.00  0.00     0.060 C 
ATOM     20  C   UNL A   1      34.457  20.815  24.620  1.00  0.00     0.271 C 
ATOM     21  C   UNL A   1      32.467  22.213  24.243  1.00  0.00     0.262 C 
ATOM     22  O   UNL A   1      34.985  19.702  24.646  1.00  0.00    -0.268 OA
ATOM     23  N   UNL A   1      33.139  21.001  24.240  1.00  0.00    -0.277 N 
ATOM     24  O   UNL A   1      31.266  22.298  23.981  1.00  0.00    -0.269 OA
ATOM     25  C   UNL A   1      32.402  19.812  23.844  1.00  0.00     0.157 C 
BRANCH  18  26
ATOM     26  C   UNL A   1      36.593  21.795  25.397  1.00  0.00     0.105 C 
ATOM     27  N   UNL A   1      37.694  21.670  25.747  1.00  0.00    -0.192 NA
ENDBRANCH  18  26
ENDBRANCH  13  15
ENDBRANCH   8  13
BRANCH  12  28
ATOM     28  O   UNL A   1      27.372  27.384  23.756  1.00  0.00    -0.507 OA
ATOM     29  H   UNL A   1      27.030  27.954  24.416  1.00  0.00     0.293 HD
ENDBRANCH  12  28
ENDBRANCH   4   7
ENDBRANCH   2   3
ENDBRANCH   1   2
BRANCH   1  30
ATOM     30  C   UNL A   1      31.399  29.598  25.626  1.00  0.00     0.023 C 
BRANCH  30  31
ATOM     31  C   UNL A   1      32.402  30.076  26.670  1.00  0.00     0.116 C 
BRANCH  31  32
ATOM     32  N   UNL A   1      32.360  31.513  26.906  1.00  0.00    -0.352 N 
ATOM     33  C   UNL A   1      33.281  32.342  27.506  1.00  0.00     0.251 C 
ATOM     34  H   UNL A   1      31.544  31.962  26.587  1.00  0.00     0.163 HD
ATOM     35  O   UNL A   1      32.991  33.516  27.722  1.00  0.00    -0.269 OA
BRANCH  33  36
ATOM     36  C   UNL A   1      34.596  31.810  27.930  1.00  0.00     0.039 A 
ATOM     37  C   UNL A   1      35.647  32.704  28.148  1.00  0.00     0.014 A 
ATOM     38  C   UNL A   1      34.780  30.445  28.157  1.00  0.00     0.014 A 
ATOM     39  C   UNL A   1      36.842  32.241  28.705  1.00  0.00     0.010 A 
ATOM     40  C   UNL A   1      35.932  30.002  28.802  1.00  0.00     0.010 A 
ATOM     41  C   UNL A   1      36.969  30.899  29.102  1.00  0.00    -0.014 A 
BRANCH  41  42
ATOM     42  C   UNL A   1      38.148  30.433  29.881  1.00  0.00     0.031 A 
ATOM     43  C   UNL A   1      39.116  29.447  29.291  1.00  0.00     0.074 A 
ATOM     44  C   UNL A   1      38.302  30.848  31.155  1.00  0.00     0.049 A 
ATOM     45  N   UNL A   1      40.164  28.888  29.839  1.00  0.00    -0.248 NA
ATOM     46  C   UNL A   1      38.855  29.014  27.911  1.00  0.00     0.031 C 
ATOM     47  C   UNL A   1      37.408  31.775  31.854  1.00  0.00     0.029 A 
ATOM     48  N   UNL A   1      39.260  30.548  32.091  1.00  0.00    -0.354 N 
ATOM     49  C   UNL A   1      40.682  28.027  28.877  1.00  0.00     0.074 A 
ATOM     50  C   UNL A   1      39.793  28.095  27.737  1.00  0.00     0.031 C 
ATOM     51  C   UNL A   1      37.885  32.002  33.086  1.00  0.00     0.029 A 
ATOM     52  C   UNL A   1      39.078  31.189  33.295  1.00  0.00     0.049 A 
ATOM     53  H   UNL A   1      40.008  29.932  31.917  1.00  0.00     0.167 HD
ATOM     54  C   UNL A   1      41.807  27.270  28.934  1.00  0.00     0.034 A 
ATOM     55  C   UNL A   1      39.780  31.120  34.444  1.00  0.00     0.034 A 
ATOM     56  C   UNL A   1      42.676  27.211  30.086  1.00  0.00     0.049 A 
ATOM     57  C   UNL A   1      40.984  30.217  34.507  1.00  0.00     0.074 A 
ATOM     58  C   UNL A   1      43.872  26.527  30.227  1.00  0.00     0.029 A 
ATOM     59  N   UNL A   1      42.432  27.835  31.303  1.00  0.00    -0.354 N 
ATOM     60  N   UNL A   1      41.502  29.465  33.564  1.00  0.00    -0.248 NA
ATOM     61  C   UNL A   1      41.694  30.152  35.790  1.00  0.00     0.031 C 
ATOM     62  C   UNL A   1      44.295  26.654  31.554  1.00  0.00     0.029 A 
ATOM     63  C   UNL A   1      43.421  27.500  32.218  1.00  0.00     0.049 A 
ATOM     64  H   UNL A   1      41.670  28.428  31.490  1.00  0.00     0.167 HD
ATOM     65  C   UNL A   1      42.614  28.852  34.137  1.00  0.00     0.074 A 
ATOM     66  C   UNL A   1      42.702  29.342  35.497  1.00  0.00     0.031 C 
ATOM     67  C   UNL A   1      43.484  27.967  33.584  1.00  0.00     0.034 A 
BRANCH  54  68
ATOM     68  C   UNL A   1      42.128  26.412  27.731  1.00  0.00     0.023 A 
ATOM     69  C   UNL A   1      41.750  25.059  27.662  1.00  0.00     0.031 A 
ATOM     70  C   UNL A   1      42.862  26.941  26.653  1.00  0.00     0.131 A 
ATOM     71  C   UNL A   1      42.189  24.261  26.595  1.00  0.00     0.055 A 
ATOM     72  C   UNL A   1      43.209  26.166  25.545  1.00  0.00     0.041 A 
ATOM     73  F   UNL A   1      43.274  28.218  26.668  1.00  0.00    -0.206 F 
ATOM     74  C   UNL A   1      42.891  24.811  25.521  1.00  0.00     0.022 A 
BRANCH  71  75
ATOM     75  S   UNL A   1      41.996  22.462  26.730  1.00  0.00     0.124 S 
ATOM     76  O   UNL A   1      42.992  22.135  27.747  1.00  0.00    -0.237 OA
ATOM     77  O   UNL A   1      40.602  22.324  27.132  1.00  0.00    -0.237 OA
ATOM     78  O   UNL A   1      42.310  21.984  25.384  1.00  0.00    -0.744 OA
ENDBRANCH  71  75
ENDBRANCH  54  68
BRANCH  55  79
ATOM     79  C   UNL A   1      39.359  31.919  35.631  1.00  0.00     0.023 A 
ATOM     80  C   UNL A   1      38.580  31.344  36.646  1.00  0.00     0.031 A 
ATOM     81  C   UNL A   1      39.711  33.275  35.758  1.00  0.00     0.131 A 
ATOM     82  C   UNL A   1      38.150  32.128  37.729  1.00  0.00     0.055 A 
ATOM     83  C   UNL A   1      39.331  34.035  36.865  1.00  0.00     0.041 A 
ATOM     84  F   UNL A   1      40.452  33.877  34.813  1.00  0.00    -0.206 F 
ATOM     85  C   UNL A   1      38.538  33.464  37.854  1.00  0.00     0.022 A 
BRANCH  82  86
ATOM     86  S   UNL A   1      37.009  31.397  38.932  1.00  0.00     0.124 S 
ATOM     87  O   UNL A   1      36.808  30.062  38.377  1.00  0.00    -0.237 OA
ATOM     88  O   UNL A   1      37.783  31.468  40.167  1.00  0.00    -0.237 OA
ATOM     89  O   UNL A   1      35.845  32.278  38.876  1.00  0.00    -0.744 OA
ENDBRANCH  82  86
ENDBRANCH  55  79
BRANCH  67  90
ATOM     90  C   UNL A   1      44.618  27.482  34.457  1.00  0.00     0.023 A 
ATOM     91  C   UNL A   1      44.517  26.296  35.206  1.00  0.00     0.031 A 
ATOM     92  C   UNL A   1      45.815  28.215  34.544  1.00  0.00     0.131 A 
ATOM     93  C   UNL A   1      45.567  25.910  36.051  1.00  0.00     0.055 A 
ATOM     94  C   UNL A   1      46.885  27.786  35.329  1.00  0.00     0.041 A 
ATOM     95  F   UNL A   1      45.968  29.360  33.859  1.00  0.00    -0.206 F 
ATOM     96  C   UNL A   1      46.760  26.634  36.100  1.00  0.00     0.022 A 
BRANCH  93  97
ATOM     97  S   UNL A   1      45.311  24.505  37.170  1.00  0.00     0.124 S 
ATOM     98  O   UNL A   1      44.757  23.499  36.268  1.00  0.00    -0.237 OA
ATOM     99  O   UNL A   1      46.659  24.246  37.662  1.00  0.00    -0.237 OA
ATOM    100  O   UNL A   1      44.376  25.026  38.165  1.00  0.00    -0.744 OA
ENDBRANCH  93  97
ENDBRANCH  67  90
ENDBRANCH  41  42
ENDBRANCH  33  36
ENDBRANCH  31  32
ENDBRANCH  30  31
ENDBRANCH   1  30
TORSDOF 18
ENDMDL
