MODEL 1
REMARK VINA RESULT:     -10.0      0.000      0.000
REMARK SMILES COCC[NH2+]CC(=O)N1C[C@H](OC)C[C@@H]1C(=O)NCCCCNC(=O)c1ccc(-c2c3nc(c(-c4cc(S(=O)(=O)[O-])ccc4F)c4ccc([nH]4)c(-c4cc(S(=O)(=O)[O-])ccc4F)c4nc(c(-c5cc(S(=O)(=O)[O-])ccc5F)c5ccc2[nH]5)C=C4)C=C3)cc1
REMARK SMILES IDX 19 1 18 2 16 3 17 4 15 6 9 7 10 8 11 9 14 10 7 11 8 12 6 13
REMARK SMILES IDX 5 14 4 17 3 18 2 19 1 20 12 21 13 22 20 23 21 24 22 25 23 26
REMARK SMILES IDX 24 27 25 29 26 30 27 31 88 32 28 33 87 34 29 35 30 36 31 37
REMARK SMILES IDX 81 38 32 39 86 40 80 41 82 42 33 43 85 44 79 45 78 46 34 48
REMARK SMILES IDX 66 49 46 50 65 51 47 52 50 53 64 54 83 55 48 56 49 57 63 59
REMARK SMILES IDX 84 60 51 61 35 62 36 63 44 64 37 65 43 66 45 67 42 68 38 69
REMARK SMILES IDX 39 70 40 71 41 72 67 73 68 74 76 75 69 76 75 77 77 78 74 79
REMARK SMILES IDX 70 80 71 81 72 82 73 83 52 84 53 85 61 86 54 87 60 88 62 89
REMARK SMILES IDX 59 90 55 91 56 92 57 93 58 94
REMARK H PARENT 18 5 5 15 5 16 23 28 82 47 50 58
REMARK Flexibility Score: inf
ROOT
ATOM      1  C   UNL A   1      31.253  27.460  26.365  1.00  0.00     0.116 C 
ENDROOT
BRANCH   1   2
ATOM      2  N   UNL A   1      31.010  26.125  26.851  1.00  0.00    -0.354 N 
ATOM      3  C   UNL A   1      31.678  24.972  26.556  1.00  0.00     0.242 C 
ATOM      4  O   UNL A   1      31.287  23.939  27.110  1.00  0.00    -0.273 OA
ATOM      5  H   UNL A   1      30.260  26.032  27.482  1.00  0.00     0.163 HD
BRANCH   3   6
ATOM      6  C   UNL A   1      32.760  24.897  25.452  1.00  0.00     0.177 C 
ATOM      7  N   UNL A   1      32.491  24.104  24.246  1.00  0.00    -0.323 N 
ATOM      8  C   UNL A   1      33.776  23.623  23.778  1.00  0.00     0.152 C 
ATOM      9  C   UNL A   1      34.530  23.234  25.033  1.00  0.00     0.139 C 
ATOM     10  C   UNL A   1      34.093  24.333  26.015  1.00  0.00     0.069 C 
BRANCH   7  11
ATOM     11  C   UNL A   1      31.586  24.543  23.285  1.00  0.00     0.278 C 
ATOM     12  O   UNL A   1      30.473  24.039  23.145  1.00  0.00    -0.268 OA
BRANCH  11  13
ATOM     13  C   UNL A   1      32.082  25.714  22.410  1.00  0.00     0.362 C 
BRANCH  13  14
ATOM     14  N   UNL A   1      31.006  26.604  21.908  1.00  0.00    -0.337 N 
ATOM     15  H   UNL A   1      31.355  27.119  21.099  1.00  0.00     0.346 HD
ATOM     16  H   UNL A   1      30.207  26.023  21.657  1.00  0.00     0.346 HD
BRANCH  14  17
ATOM     17  C   UNL A   1      30.570  27.562  22.925  1.00  0.00     0.289 C 
BRANCH  17  18
ATOM     18  C   UNL A   1      30.789  29.053  22.639  1.00  0.00     0.221 C 
BRANCH  18  19
ATOM     19  O   UNL A   1      29.952  29.529  21.582  1.00  0.00    -0.379 OA
ATOM     20  C   UNL A   1      28.621  29.785  22.001  1.00  0.00     0.195 C 
ENDBRANCH  18  19
ENDBRANCH  17  18
ENDBRANCH  14  17
ENDBRANCH  13  14
ENDBRANCH  11  13
ENDBRANCH   7  11
BRANCH   9  21
ATOM     21  O   UNL A   1      34.203  21.951  25.588  1.00  0.00    -0.380 OA
ATOM     22  C   UNL A   1      34.588  20.800  24.837  1.00  0.00     0.195 C 
ENDBRANCH   9  21
ENDBRANCH   3   6
ENDBRANCH   1   2
BRANCH   1  23
ATOM     23  C   UNL A   1      31.835  28.397  27.424  1.00  0.00     0.023 C 
BRANCH  23  24
ATOM     24  C   UNL A   1      33.330  28.669  27.279  1.00  0.00     0.023 C 
BRANCH  24  25
ATOM     25  C   UNL A   1      33.694  29.984  26.602  1.00  0.00     0.116 C 
BRANCH  25  26
ATOM     26  N   UNL A   1      33.564  31.158  27.456  1.00  0.00    -0.352 N 
ATOM     27  C   UNL A   1      34.439  31.612  28.423  1.00  0.00     0.251 C 
ATOM     28  H   UNL A   1      32.750  31.697  27.325  1.00  0.00     0.163 HD
ATOM     29  O   UNL A   1      34.163  32.579  29.101  1.00  0.00    -0.269 OA
BRANCH  27  30
ATOM     30  C   UNL A   1      35.692  30.847  28.652  1.00  0.00     0.039 A 
ATOM     31  C   UNL A   1      36.860  31.257  28.007  1.00  0.00     0.014 A 
ATOM     32  C   UNL A   1      35.727  29.806  29.582  1.00  0.00     0.014 A 
ATOM     33  C   UNL A   1      38.080  30.677  28.364  1.00  0.00     0.010 A 
ATOM     34  C   UNL A   1      36.952  29.309  30.010  1.00  0.00     0.010 A 
ATOM     35  C   UNL A   1      38.145  29.735  29.403  1.00  0.00    -0.014 A 
BRANCH  35  36
ATOM     36  C   UNL A   1      39.446  29.169  29.854  1.00  0.00     0.031 A 
ATOM     37  C   UNL A   1      40.159  29.772  31.035  1.00  0.00     0.074 A 
ATOM     38  C   UNL A   1      40.012  28.151  29.173  1.00  0.00     0.049 A 
ATOM     39  N   UNL A   1      41.312  29.451  31.562  1.00  0.00    -0.248 NA
ATOM     40  C   UNL A   1      39.502  30.918  31.683  1.00  0.00     0.031 C 
ATOM     41  C   UNL A   1      39.456  27.520  27.974  1.00  0.00     0.029 A 
ATOM     42  N   UNL A   1      41.181  27.466  29.393  1.00  0.00    -0.354 N 
ATOM     43  C   UNL A   1      41.524  30.361  32.593  1.00  0.00     0.074 A 
ATOM     44  C   UNL A   1      40.424  31.300  32.550  1.00  0.00     0.031 C 
ATOM     45  C   UNL A   1      40.257  26.510  27.596  1.00  0.00     0.029 A 
ATOM     46  C   UNL A   1      41.403  26.445  28.497  1.00  0.00     0.049 A 
ATOM     47  H   UNL A   1      41.802  27.683  30.126  1.00  0.00     0.167 HD
ATOM     48  C   UNL A   1      42.517  30.390  33.516  1.00  0.00     0.034 A 
ATOM     49  C   UNL A   1      42.412  25.554  28.416  1.00  0.00     0.034 A 
ATOM     50  C   UNL A   1      43.601  29.438  33.553  1.00  0.00     0.049 A 
ATOM     51  C   UNL A   1      43.511  25.604  29.448  1.00  0.00     0.074 A 
ATOM     52  C   UNL A   1      44.641  29.346  34.461  1.00  0.00     0.029 A 
ATOM     53  N   UNL A   1      43.786  28.412  32.634  1.00  0.00    -0.354 N 
ATOM     54  N   UNL A   1      43.667  26.437  30.451  1.00  0.00    -0.248 NA
ATOM     55  C   UNL A   1      44.557  24.580  29.345  1.00  0.00     0.031 C 
ATOM     56  C   UNL A   1      45.485  28.305  34.058  1.00  0.00     0.029 A 
ATOM     57  C   UNL A   1      44.933  27.695  32.943  1.00  0.00     0.049 A 
ATOM     58  H   UNL A   1      43.190  28.220  31.875  1.00  0.00     0.167 HD
ATOM     59  C   UNL A   1      44.812  26.012  31.121  1.00  0.00     0.074 A 
ATOM     60  C   UNL A   1      45.294  24.842  30.414  1.00  0.00     0.031 C 
ATOM     61  C   UNL A   1      45.407  26.534  32.225  1.00  0.00     0.034 A 
BRANCH  48  62
ATOM     62  C   UNL A   1      42.468  31.502  34.541  1.00  0.00     0.023 A 
ATOM     63  C   UNL A   1      41.548  31.478  35.606  1.00  0.00     0.031 A 
ATOM     64  C   UNL A   1      43.297  32.630  34.419  1.00  0.00     0.131 A 
ATOM     65  C   UNL A   1      41.403  32.601  36.434  1.00  0.00     0.055 A 
ATOM     66  C   UNL A   1      43.216  33.703  35.309  1.00  0.00     0.041 A 
ATOM     67  F   UNL A   1      44.183  32.722  33.414  1.00  0.00    -0.206 F 
ATOM     68  C   UNL A   1      42.249  33.703  36.311  1.00  0.00     0.022 A 
BRANCH  65  69
ATOM     69  S   UNL A   1      39.969  32.672  37.544  1.00  0.00     0.124 S 
ATOM     70  O   UNL A   1      40.589  32.410  38.841  1.00  0.00    -0.237 OA
ATOM     71  O   UNL A   1      39.474  34.027  37.334  1.00  0.00    -0.237 OA
ATOM     72  O   UNL A   1      39.100  31.605  37.051  1.00  0.00    -0.744 OA
ENDBRANCH  65  69
ENDBRANCH  48  62
BRANCH  49  73
ATOM     73  C   UNL A   1      42.423  24.520  27.342  1.00  0.00     0.023 A 
ATOM     74  C   UNL A   1      41.646  23.355  27.455  1.00  0.00     0.031 A 
ATOM     75  C   UNL A   1      43.239  24.660  26.207  1.00  0.00     0.131 A 
ATOM     76  C   UNL A   1      41.734  22.356  26.472  1.00  0.00     0.055 A 
ATOM     77  C   UNL A   1      43.286  23.686  25.208  1.00  0.00     0.041 A 
ATOM     78  F   UNL A   1      43.995  25.758  26.046  1.00  0.00    -0.206 F 
ATOM     79  C   UNL A   1      42.539  22.520  25.344  1.00  0.00     0.022 A 
BRANCH  76  80
ATOM     80  S   UNL A   1      40.832  20.804  26.727  1.00  0.00     0.124 S 
ATOM     81  O   UNL A   1      41.689  19.845  26.042  1.00  0.00    -0.237 OA
ATOM     82  O   UNL A   1      40.799  20.708  28.184  1.00  0.00    -0.237 OA
ATOM     83  O   UNL A   1      39.539  21.052  26.093  1.00  0.00    -0.744 OA
ENDBRANCH  76  80
ENDBRANCH  49  73
BRANCH  61  84
ATOM     84  C   UNL A   1      46.615  25.804  32.763  1.00  0.00     0.023 A 
ATOM     85  C   UNL A   1      46.499  24.780  33.720  1.00  0.00     0.031 A 
ATOM     86  C   UNL A   1      47.904  26.158  32.328  1.00  0.00     0.131 A 
ATOM     87  C   UNL A   1      47.654  24.197  34.262  1.00  0.00     0.055 A 
ATOM     88  C   UNL A   1      49.046  25.528  32.822  1.00  0.00     0.041 A 
ATOM     89  F   UNL A   1      48.075  27.130  31.416  1.00  0.00    -0.206 F 
ATOM     90  C   UNL A   1      48.926  24.552  33.807  1.00  0.00     0.022 A 
BRANCH  87  91
ATOM     91  S   UNL A   1      47.477  23.047  35.654  1.00  0.00     0.124 S 
ATOM     92  O   UNL A   1      46.079  22.643  35.538  1.00  0.00    -0.237 OA
ATOM     93  O   UNL A   1      48.465  22.021  35.339  1.00  0.00    -0.237 OA
ATOM     94  O   UNL A   1      47.788  23.871  36.821  1.00  0.00    -0.744 OA
ENDBRANCH  87  91
ENDBRANCH  61  84
ENDBRANCH  35  36
ENDBRANCH  27  30
ENDBRANCH  25  26
ENDBRANCH  24  25
ENDBRANCH  23  24
ENDBRANCH   1  23
TORSDOF 21
ENDMDL
MODEL 2
REMARK VINA RESULT:      -9.7      1.881      2.136
REMARK SMILES COCC[NH2+]CC(=O)N1C[C@H](OC)C[C@@H]1C(=O)NCCCCNC(=O)c1ccc(-c2c3nc(c(-c4cc(S(=O)(=O)[O-])ccc4F)c4ccc([nH]4)c(-c4cc(S(=O)(=O)[O-])ccc4F)c4nc(c(-c5cc(S(=O)(=O)[O-])ccc5F)c5ccc2[nH]5)C=C4)C=C3)cc1
REMARK SMILES IDX 19 1 18 2 16 3 17 4 15 6 9 7 10 8 11 9 14 10 7 11 8 12 6 13
REMARK SMILES IDX 5 14 4 17 3 18 2 19 1 20 12 21 13 22 20 23 21 24 22 25 23 26
REMARK SMILES IDX 24 27 25 29 26 30 27 31 88 32 28 33 87 34 29 35 30 36 31 37
REMARK SMILES IDX 81 38 32 39 86 40 80 41 82 42 33 43 85 44 79 45 78 46 34 48
REMARK SMILES IDX 66 49 46 50 65 51 47 52 50 53 64 54 83 55 48 56 49 57 63 59
REMARK SMILES IDX 84 60 51 61 35 62 36 63 44 64 37 65 43 66 45 67 42 68 38 69
REMARK SMILES IDX 39 70 40 71 41 72 67 73 68 74 76 75 69 76 75 77 77 78 74 79
REMARK SMILES IDX 70 80 71 81 72 82 73 83 52 84 53 85 61 86 54 87 60 88 62 89
REMARK SMILES IDX 59 90 55 91 56 92 57 93 58 94
REMARK H PARENT 18 5 5 15 5 16 23 28 82 47 50 58
REMARK Flexibility Score: inf
ROOT
ATOM      1  C   UNL A   1      31.385  27.333  26.084  1.00  0.00     0.116 C 
ENDROOT
BRANCH   1   2
ATOM      2  N   UNL A   1      31.194  25.967  26.503  1.00  0.00    -0.354 N 
ATOM      3  C   UNL A   1      31.974  24.877  26.246  1.00  0.00     0.242 C 
ATOM      4  O   UNL A   1      31.606  23.798  26.726  1.00  0.00    -0.273 OA
ATOM      5  H   UNL A   1      30.391  25.797  27.048  1.00  0.00     0.163 HD
BRANCH   3   6
ATOM      6  C   UNL A   1      33.167  24.920  25.262  1.00  0.00     0.177 C 
ATOM      7  N   UNL A   1      33.292  23.865  24.249  1.00  0.00    -0.323 N 
ATOM      8  C   UNL A   1      34.708  23.714  23.987  1.00  0.00     0.152 C 
ATOM      9  C   UNL A   1      35.373  23.823  25.344  1.00  0.00     0.139 C 
ATOM     10  C   UNL A   1      34.520  24.907  26.025  1.00  0.00     0.069 C 
BRANCH   7  11
ATOM     11  C   UNL A   1      32.432  23.814  23.156  1.00  0.00     0.278 C 
ATOM     12  O   UNL A   1      31.454  23.069  23.117  1.00  0.00    -0.268 OA
BRANCH  11  13
ATOM     13  C   UNL A   1      32.795  24.766  21.997  1.00  0.00     0.362 C 
BRANCH  13  14
ATOM     14  N   UNL A   1      31.655  25.560  21.473  1.00  0.00    -0.337 N 
ATOM     15  H   UNL A   1      32.005  26.219  20.778  1.00  0.00     0.346 HD
ATOM     16  H   UNL A   1      30.983  24.913  21.061  1.00  0.00     0.346 HD
BRANCH  14  17
ATOM     17  C   UNL A   1      30.977  26.306  22.534  1.00  0.00     0.289 C 
BRANCH  17  18
ATOM     18  C   UNL A   1      30.935  27.834  22.414  1.00  0.00     0.221 C 
BRANCH  18  19
ATOM     19  O   UNL A   1      29.639  28.365  22.702  1.00  0.00    -0.379 OA
ATOM     20  C   UNL A   1      29.682  29.688  23.209  1.00  0.00     0.195 C 
ENDBRANCH  18  19
ENDBRANCH  17  18
ENDBRANCH  14  17
ENDBRANCH  13  14
ENDBRANCH  11  13
ENDBRANCH   7  11
BRANCH   9  21
ATOM     21  O   UNL A   1      35.351  22.635  26.149  1.00  0.00    -0.380 OA
ATOM     22  C   UNL A   1      35.843  21.436  25.552  1.00  0.00     0.195 C 
ENDBRANCH   9  21
ENDBRANCH   3   6
ENDBRANCH   1   2
BRANCH   1  23
ATOM     23  C   UNL A   1      31.806  28.264  27.221  1.00  0.00     0.023 C 
BRANCH  23  24
ATOM     24  C   UNL A   1      33.303  28.562  27.274  1.00  0.00     0.023 C 
BRANCH  24  25
ATOM     25  C   UNL A   1      33.737  29.858  26.601  1.00  0.00     0.116 C 
BRANCH  25  26
ATOM     26  N   UNL A   1      33.608  31.045  27.436  1.00  0.00    -0.352 N 
ATOM     27  C   UNL A   1      34.476  31.505  28.408  1.00  0.00     0.251 C 
ATOM     28  H   UNL A   1      32.801  31.589  27.290  1.00  0.00     0.163 HD
ATOM     29  O   UNL A   1      34.201  32.484  29.069  1.00  0.00    -0.269 OA
BRANCH  27  30
ATOM     30  C   UNL A   1      35.720  30.732  28.661  1.00  0.00     0.039 A 
ATOM     31  C   UNL A   1      36.892  31.106  28.002  1.00  0.00     0.014 A 
ATOM     32  C   UNL A   1      35.742  29.722  29.625  1.00  0.00     0.014 A 
ATOM     33  C   UNL A   1      38.105  30.523  28.378  1.00  0.00     0.010 A 
ATOM     34  C   UNL A   1      36.962  29.224  30.069  1.00  0.00     0.010 A 
ATOM     35  C   UNL A   1      38.159  29.614  29.448  1.00  0.00    -0.014 A 
BRANCH  35  36
ATOM     36  C   UNL A   1      39.453  29.048  29.917  1.00  0.00     0.031 A 
ATOM     37  C   UNL A   1      40.135  29.631  31.125  1.00  0.00     0.074 A 
ATOM     38  C   UNL A   1      40.041  28.047  29.229  1.00  0.00     0.049 A 
ATOM     39  N   UNL A   1      41.278  29.306  31.672  1.00  0.00    -0.248 NA
ATOM     40  C   UNL A   1      39.457  30.760  31.780  1.00  0.00     0.031 C 
ATOM     41  C   UNL A   1      39.516  27.436  28.005  1.00  0.00     0.029 A 
ATOM     42  N   UNL A   1      41.209  27.364  29.462  1.00  0.00    -0.354 N 
ATOM     43  C   UNL A   1      41.461  30.197  32.726  1.00  0.00     0.074 A 
ATOM     44  C   UNL A   1      40.356  31.130  32.676  1.00  0.00     0.031 C 
ATOM     45  C   UNL A   1      40.332  26.439  27.625  1.00  0.00     0.029 A 
ATOM     46  C   UNL A   1      41.458  26.362  28.551  1.00  0.00     0.049 A 
ATOM     47  H   UNL A   1      41.811  27.570  30.212  1.00  0.00     0.167 HD
ATOM     48  C   UNL A   1      42.433  30.214  33.671  1.00  0.00     0.034 A 
ATOM     49  C   UNL A   1      42.473  25.480  28.476  1.00  0.00     0.034 A 
ATOM     50  C   UNL A   1      43.521  29.268  33.714  1.00  0.00     0.049 A 
ATOM     51  C   UNL A   1      43.549  25.516  29.532  1.00  0.00     0.074 A 
ATOM     52  C   UNL A   1      44.541  29.163  34.643  1.00  0.00     0.029 A 
ATOM     53  N   UNL A   1      43.734  28.261  32.779  1.00  0.00    -0.354 N 
ATOM     54  N   UNL A   1      43.677  26.330  30.556  1.00  0.00    -0.248 NA
ATOM     55  C   UNL A   1      44.603  24.500  29.433  1.00  0.00     0.031 C 
ATOM     56  C   UNL A   1      45.401  28.136  34.239  1.00  0.00     0.029 A 
ATOM     57  C   UNL A   1      44.878  27.545  33.099  1.00  0.00     0.049 A 
ATOM     58  H   UNL A   1      43.156  28.081  32.003  1.00  0.00     0.167 HD
ATOM     59  C   UNL A   1      44.809  25.897  31.242  1.00  0.00     0.074 A 
ATOM     60  C   UNL A   1      45.314  24.745  30.524  1.00  0.00     0.031 C 
ATOM     61  C   UNL A   1      45.376  26.402  32.369  1.00  0.00     0.034 A 
BRANCH  48  62
ATOM     62  C   UNL A   1      42.354  31.304  34.716  1.00  0.00     0.023 A 
ATOM     63  C   UNL A   1      42.988  32.547  34.530  1.00  0.00     0.031 A 
ATOM     64  C   UNL A   1      41.700  31.081  35.940  1.00  0.00     0.131 A 
ATOM     65  C   UNL A   1      43.050  33.469  35.585  1.00  0.00     0.055 A 
ATOM     66  C   UNL A   1      41.679  32.045  36.951  1.00  0.00     0.041 A 
ATOM     67  F   UNL A   1      41.092  29.910  36.188  1.00  0.00    -0.206 F 
ATOM     68  C   UNL A   1      42.376  33.240  36.785  1.00  0.00     0.022 A 
BRANCH  65  69
ATOM     69  S   UNL A   1      44.179  34.881  35.429  1.00  0.00     0.124 S 
ATOM     70  O   UNL A   1      43.277  36.006  35.666  1.00  0.00    -0.237 OA
ATOM     71  O   UNL A   1      45.160  34.617  36.474  1.00  0.00    -0.237 OA
ATOM     72  O   UNL A   1      44.678  34.771  34.059  1.00  0.00    -0.744 OA
ENDBRANCH  65  69
ENDBRANCH  48  62
BRANCH  49  73
ATOM     73  C   UNL A   1      42.516  24.467  27.382  1.00  0.00     0.023 A 
ATOM     74  C   UNL A   1      41.717  23.313  27.436  1.00  0.00     0.031 A 
ATOM     75  C   UNL A   1      43.382  24.617  26.285  1.00  0.00     0.131 A 
ATOM     76  C   UNL A   1      41.832  22.332  26.438  1.00  0.00     0.055 A 
ATOM     77  C   UNL A   1      43.457  23.663  25.269  1.00  0.00     0.041 A 
ATOM     78  F   UNL A   1      44.161  25.706  26.180  1.00  0.00    -0.206 F 
ATOM     79  C   UNL A   1      42.688  22.506  25.349  1.00  0.00     0.022 A 
BRANCH  76  80
ATOM     80  S   UNL A   1      40.896  20.790  26.622  1.00  0.00     0.124 S 
ATOM     81  O   UNL A   1      41.745  19.841  25.913  1.00  0.00    -0.237 OA
ATOM     82  O   UNL A   1      40.840  20.641  28.073  1.00  0.00    -0.237 OA
ATOM     83  O   UNL A   1      39.618  21.088  25.980  1.00  0.00    -0.744 OA
ENDBRANCH  76  80
ENDBRANCH  49  73
BRANCH  61  84
ATOM     84  C   UNL A   1      46.576  25.667  32.920  1.00  0.00     0.023 A 
ATOM     85  C   UNL A   1      47.879  25.918  32.456  1.00  0.00     0.031 A 
ATOM     86  C   UNL A   1      46.405  24.681  33.907  1.00  0.00     0.131 A 
ATOM     87  C   UNL A   1      48.949  25.144  32.927  1.00  0.00     0.055 A 
ATOM     88  C   UNL A   1      47.483  23.959  34.421  1.00  0.00     0.041 A 
ATOM     89  F   UNL A   1      45.182  24.398  34.387  1.00  0.00    -0.206 F 
ATOM     90  C   UNL A   1      48.763  24.178  33.919  1.00  0.00     0.022 A 
BRANCH  87  91
ATOM     91  S   UNL A   1      50.574  25.337  32.144  1.00  0.00     0.124 S 
ATOM     92  O   UNL A   1      50.480  24.413  31.017  1.00  0.00    -0.237 OA
ATOM     93  O   UNL A   1      50.590  26.756  31.805  1.00  0.00    -0.237 OA
ATOM     94  O   UNL A   1      51.510  24.940  33.194  1.00  0.00    -0.744 OA
ENDBRANCH  87  91
ENDBRANCH  61  84
ENDBRANCH  35  36
ENDBRANCH  27  30
ENDBRANCH  25  26
ENDBRANCH  24  25
ENDBRANCH  23  24
ENDBRANCH   1  23
TORSDOF 21
ENDMDL
MODEL 3
REMARK VINA RESULT:      -9.6      2.749      4.286
REMARK SMILES COCC[NH2+]CC(=O)N1C[C@H](OC)C[C@@H]1C(=O)NCCCCNC(=O)c1ccc(-c2c3nc(c(-c4cc(S(=O)(=O)[O-])ccc4F)c4ccc([nH]4)c(-c4cc(S(=O)(=O)[O-])ccc4F)c4nc(c(-c5cc(S(=O)(=O)[O-])ccc5F)c5ccc2[nH]5)C=C4)C=C3)cc1
REMARK SMILES IDX 19 1 18 2 16 3 17 4 15 6 9 7 10 8 11 9 14 10 7 11 8 12 6 13
REMARK SMILES IDX 5 14 4 17 3 18 2 19 1 20 12 21 13 22 20 23 21 24 22 25 23 26
REMARK SMILES IDX 24 27 25 29 26 30 27 31 88 32 28 33 87 34 29 35 30 36 31 37
REMARK SMILES IDX 81 38 32 39 86 40 80 41 82 42 33 43 85 44 79 45 78 46 34 48
REMARK SMILES IDX 66 49 46 50 65 51 47 52 50 53 64 54 83 55 48 56 49 57 63 59
REMARK SMILES IDX 84 60 51 61 35 62 36 63 44 64 37 65 43 66 45 67 42 68 38 69
REMARK SMILES IDX 39 70 40 71 41 72 67 73 68 74 76 75 69 76 75 77 77 78 74 79
REMARK SMILES IDX 70 80 71 81 72 82 73 83 52 84 53 85 61 86 54 87 60 88 62 89
REMARK SMILES IDX 59 90 55 91 56 92 57 93 58 94
REMARK H PARENT 18 5 5 15 5 16 23 28 82 47 50 58
REMARK Flexibility Score: inf
ROOT
ATOM      1  C   UNL A   1      34.263  28.881  26.752  1.00  0.00     0.116 C 
ENDROOT
BRANCH   1   2
ATOM      2  N   UNL A   1      34.180  29.300  25.375  1.00  0.00    -0.354 N 
ATOM      3  C   UNL A   1      33.393  28.805  24.376  1.00  0.00     0.242 C 
ATOM      4  O   UNL A   1      33.491  29.340  23.266  1.00  0.00    -0.273 OA
ATOM      5  H   UNL A   1      34.772  30.045  25.121  1.00  0.00     0.163 HD
BRANCH   3   6
ATOM      6  C   UNL A   1      32.540  27.525  24.546  1.00  0.00     0.177 C 
ATOM      7  N   UNL A   1      32.450  26.578  23.428  1.00  0.00    -0.323 N 
ATOM      8  C   UNL A   1      31.155  25.937  23.537  1.00  0.00     0.152 C 
ATOM      9  C   UNL A   1      30.201  27.046  23.933  1.00  0.00     0.139 C 
ATOM     10  C   UNL A   1      31.068  27.877  24.893  1.00  0.00     0.069 C 
BRANCH   7  11
ATOM     11  C   UNL A   1      33.532  25.774  23.080  1.00  0.00     0.278 C 
ATOM     12  O   UNL A   1      33.856  25.570  21.911  1.00  0.00    -0.268 OA
BRANCH  11  13
ATOM     13  C   UNL A   1      34.298  25.161  24.271  1.00  0.00     0.362 C 
BRANCH  13  14
ATOM     14  N   UNL A   1      33.610  24.018  24.921  1.00  0.00    -0.337 N 
ATOM     15  H   UNL A   1      32.755  23.810  24.404  1.00  0.00     0.346 HD
ATOM     16  H   UNL A   1      34.246  23.221  24.915  1.00  0.00     0.346 HD
BRANCH  14  17
ATOM     17  C   UNL A   1      33.262  24.310  26.313  1.00  0.00     0.289 C 
BRANCH  17  18
ATOM     18  C   UNL A   1      32.636  23.182  27.142  1.00  0.00     0.221 C 
BRANCH  18  19
ATOM     19  O   UNL A   1      31.279  23.462  27.498  1.00  0.00    -0.379 OA
ATOM     20  C   UNL A   1      30.394  23.417  26.391  1.00  0.00     0.195 C 
ENDBRANCH  18  19
ENDBRANCH  17  18
ENDBRANCH  14  17
ENDBRANCH  13  14
ENDBRANCH  11  13
ENDBRANCH   7  11
BRANCH   9  21
ATOM     21  O   UNL A   1      29.743  27.889  22.865  1.00  0.00    -0.380 OA
ATOM     22  C   UNL A   1      29.850  29.298  23.056  1.00  0.00     0.195 C 
ENDBRANCH   9  21
ENDBRANCH   3   6
ENDBRANCH   1   2
BRANCH   1  23
ATOM     23  C   UNL A   1      34.422  30.042  27.733  1.00  0.00     0.023 C 
BRANCH  23  24
ATOM     24  C   UNL A   1      33.390  31.156  27.571  1.00  0.00     0.023 C 
BRANCH  24  25
ATOM     25  C   UNL A   1      33.960  32.559  27.408  1.00  0.00     0.116 C 
BRANCH  25  26
ATOM     26  N   UNL A   1      33.228  33.595  28.125  1.00  0.00    -0.352 N 
ATOM     27  C   UNL A   1      33.520  34.152  29.355  1.00  0.00     0.251 C 
ATOM     28  H   UNL A   1      32.424  33.943  27.676  1.00  0.00     0.163 HD
ATOM     29  O   UNL A   1      32.777  34.969  29.856  1.00  0.00    -0.269 OA
BRANCH  27  30
ATOM     30  C   UNL A   1      34.732  33.676  30.072  1.00  0.00     0.039 A 
ATOM     31  C   UNL A   1      34.602  32.653  31.012  1.00  0.00     0.014 A 
ATOM     32  C   UNL A   1      35.994  34.166  29.730  1.00  0.00     0.014 A 
ATOM     33  C   UNL A   1      35.750  32.061  31.544  1.00  0.00     0.010 A 
ATOM     34  C   UNL A   1      37.131  33.504  30.179  1.00  0.00     0.010 A 
ATOM     35  C   UNL A   1      37.024  32.445  31.096  1.00  0.00    -0.014 A 
BRANCH  35  36
ATOM     36  C   UNL A   1      38.255  31.768  31.589  1.00  0.00     0.031 A 
ATOM     37  C   UNL A   1      38.882  32.200  32.888  1.00  0.00     0.074 A 
ATOM     38  C   UNL A   1      38.838  30.804  30.847  1.00  0.00     0.049 A 
ATOM     39  N   UNL A   1      39.969  31.765  33.471  1.00  0.00    -0.248 NA
ATOM     40  C   UNL A   1      38.217  33.300  33.604  1.00  0.00     0.031 C 
ATOM     41  C   UNL A   1      38.367  30.338  29.540  1.00  0.00     0.029 A 
ATOM     42  N   UNL A   1      39.953  30.040  31.086  1.00  0.00    -0.354 N 
ATOM     43  C   UNL A   1      40.123  32.543  34.614  1.00  0.00     0.074 A 
ATOM     44  C   UNL A   1      39.071  33.536  34.585  1.00  0.00     0.031 C 
ATOM     45  C   UNL A   1      39.157  29.337  29.119  1.00  0.00     0.029 A 
ATOM     46  C   UNL A   1      40.214  29.114  30.101  1.00  0.00     0.049 A 
ATOM     47  H   UNL A   1      40.513  30.144  31.889  1.00  0.00     0.167 HD
ATOM     48  C   UNL A   1      41.029  32.420  35.615  1.00  0.00     0.034 A 
ATOM     49  C   UNL A   1      41.188  28.188  30.005  1.00  0.00     0.034 A 
ATOM     50  C   UNL A   1      42.065  31.416  35.635  1.00  0.00     0.049 A 
ATOM     51  C   UNL A   1      42.191  28.068  31.126  1.00  0.00     0.074 A 
ATOM     52  C   UNL A   1      43.014  31.171  36.612  1.00  0.00     0.029 A 
ATOM     53  N   UNL A   1      42.291  30.490  34.624  1.00  0.00    -0.354 N 
ATOM     54  N   UNL A   1      42.290  28.776  32.228  1.00  0.00    -0.248 NA
ATOM     55  C   UNL A   1      43.199  27.010  30.996  1.00  0.00     0.031 C 
ATOM     56  C   UNL A   1      43.849  30.140  36.166  1.00  0.00     0.029 A 
ATOM     57  C   UNL A   1      43.375  29.686  34.945  1.00  0.00     0.049 A 
ATOM     58  H   UNL A   1      41.758  30.413  33.800  1.00  0.00     0.167 HD
ATOM     59  C   UNL A   1      43.351  28.222  32.939  1.00  0.00     0.074 A 
ATOM     60  C   UNL A   1      43.846  27.114  32.147  1.00  0.00     0.031 C 
ATOM     61  C   UNL A   1      43.865  28.589  34.142  1.00  0.00     0.034 A 
BRANCH  48  62
ATOM     62  C   UNL A   1      40.933  33.413  36.753  1.00  0.00     0.023 A 
ATOM     63  C   UNL A   1      40.438  33.037  38.016  1.00  0.00     0.031 A 
ATOM     64  C   UNL A   1      41.272  34.763  36.559  1.00  0.00     0.131 A 
ATOM     65  C   UNL A   1      40.192  34.012  38.992  1.00  0.00     0.055 A 
ATOM     66  C   UNL A   1      41.120  35.713  37.572  1.00  0.00     0.041 A 
ATOM     67  F   UNL A   1      41.733  35.190  35.373  1.00  0.00    -0.206 F 
ATOM     68  C   UNL A   1      40.555  35.344  38.790  1.00  0.00     0.022 A 
BRANCH  65  69
ATOM     69  S   UNL A   1      39.220  33.545  40.451  1.00  0.00     0.124 S 
ATOM     70  O   UNL A   1      38.947  32.134  40.183  1.00  0.00    -0.237 OA
ATOM     71  O   UNL A   1      40.140  33.822  41.547  1.00  0.00    -0.237 OA
ATOM     72  O   UNL A   1      38.051  34.420  40.379  1.00  0.00    -0.744 OA
ENDBRANCH  65  69
ENDBRANCH  48  62
BRANCH  49  73
ATOM     73  C   UNL A   1      41.255  27.279  28.825  1.00  0.00     0.023 A 
ATOM     74  C   UNL A   1      42.229  27.460  27.830  1.00  0.00     0.031 A 
ATOM     75  C   UNL A   1      40.324  26.240  28.654  1.00  0.00     0.131 A 
ATOM     76  C   UNL A   1      42.223  26.646  26.687  1.00  0.00     0.055 A 
ATOM     77  C   UNL A   1      40.352  25.401  27.539  1.00  0.00     0.041 A 
ATOM     78  F   UNL A   1      39.376  26.019  29.580  1.00  0.00    -0.206 F 
ATOM     79  C   UNL A   1      41.299  25.609  26.541  1.00  0.00     0.022 A 
BRANCH  76  80
ATOM     80  S   UNL A   1      43.401  27.007  25.356  1.00  0.00     0.124 S 
ATOM     81  O   UNL A   1      44.441  27.738  26.069  1.00  0.00    -0.237 OA
ATOM     82  O   UNL A   1      43.759  25.668  24.896  1.00  0.00    -0.237 OA
ATOM     83  O   UNL A   1      42.616  27.797  24.410  1.00  0.00    -0.744 OA
ENDBRANCH  76  80
ENDBRANCH  49  73
BRANCH  61  84
ATOM     84  C   UNL A   1      44.987  27.743  34.694  1.00  0.00     0.023 A 
ATOM     85  C   UNL A   1      44.744  26.628  35.515  1.00  0.00     0.031 A 
ATOM     86  C   UNL A   1      46.324  28.077  34.414  1.00  0.00     0.131 A 
ATOM     87  C   UNL A   1      45.820  25.930  36.083  1.00  0.00     0.055 A 
ATOM     88  C   UNL A   1      47.390  27.339  34.929  1.00  0.00     0.041 A 
ATOM     89  F   UNL A   1      46.617  29.133  33.637  1.00  0.00    -0.206 F 
ATOM     90  C   UNL A   1      47.142  26.268  35.782  1.00  0.00     0.022 A 
BRANCH  87  91
ATOM     91  S   UNL A   1      45.471  24.644  37.315  1.00  0.00     0.124 S 
ATOM     92  O   UNL A   1      44.021  24.743  37.454  1.00  0.00    -0.237 OA
ATOM     93  O   UNL A   1      45.969  23.440  36.658  1.00  0.00    -0.237 OA
ATOM     94  O   UNL A   1      46.236  25.074  38.485  1.00  0.00    -0.744 OA
ENDBRANCH  87  91
ENDBRANCH  61  84
ENDBRANCH  35  36
ENDBRANCH  27  30
ENDBRANCH  25  26
ENDBRANCH  24  25
ENDBRANCH  23  24
ENDBRANCH   1  23
TORSDOF 21
ENDMDL
