MODEL 1
REMARK VINA RESULT:     -13.4      0.000      0.000
REMARK SMILES Cc1ccccc1C(=O)Nc1ccc(OCC(=O)NCCCCNC(=O)c2ccc(-c3c4nc(c(-c5cc(S(=O)(=O)[O-])ccc5F)c5ccc([nH]5)c(-c5cc(S(=O)(=O)[O-])ccc5F)c5nc(c(-c6cc(S(=O)(=O)[O-])ccc6F)c6ccc3[nH]6)C=C5)C=C4)cc2)c(-c2nc3ccccc3s2)c1
REMARK SMILES IDX 21 1 20 2 19 3 17 4 18 5 16 7 15 8 14 9 11 10 12 11 100 12
REMARK SMILES IDX 13 13 90 14 10 15 8 16 9 17 7 19 1 20 2 21 3 22 4 23 6 24
REMARK SMILES IDX 5 25 91 26 92 27 99 28 93 29 98 30 94 31 97 32 95 33 96 34
REMARK SMILES IDX 22 35 23 36 24 37 25 38 26 40 27 41 28 42 89 43 29 44 88 45
REMARK SMILES IDX 30 46 31 47 32 48 82 49 33 50 87 51 81 52 83 53 34 54 86 55
REMARK SMILES IDX 80 56 79 57 35 59 67 60 47 61 66 62 48 63 51 64 65 65 84 66
REMARK SMILES IDX 49 67 50 68 64 70 85 71 52 72 36 73 37 74 45 75 38 76 44 77
REMARK SMILES IDX 46 78 43 79 39 80 40 81 41 82 42 83 68 84 69 85 77 86 70 87
REMARK SMILES IDX 76 88 78 89 75 90 71 91 72 92 73 93 74 94 53 95 54 96 62 97
REMARK SMILES IDX 55 98 61 99 63 100 60 101 56 102 57 103 58 104 59 105
REMARK H PARENT 19 6 10 18 24 39 83 58 51 69
REMARK Flexibility Score: inf
ROOT
ATOM      1  C   UNL A   1      35.193  31.180  28.252  1.00  0.00     0.023 C 
ENDROOT
BRANCH   1   2
ATOM      2  C   UNL A   1      34.741  30.057  27.314  1.00  0.00     0.116 C 
BRANCH   2   3
ATOM      3  N   UNL A   1      33.598  30.481  26.518  1.00  0.00    -0.353 N 
ATOM      4  C   UNL A   1      32.425  29.834  26.275  1.00  0.00     0.257 C 
ATOM      5  O   UNL A   1      31.711  30.312  25.390  1.00  0.00    -0.271 OA
ATOM      6  H   UNL A   1      33.688  31.365  26.094  1.00  0.00     0.163 HD
BRANCH   4   7
ATOM      7  C   UNL A   1      32.025  28.592  27.114  1.00  0.00     0.329 C 
BRANCH   7   8
ATOM      8  O   UNL A   1      31.347  27.472  26.537  1.00  0.00    -0.483 OA
BRANCH   8   9
ATOM      9  C   UNL A   1      32.145  26.695  25.744  1.00  0.00     0.130 A 
ATOM     10  C   UNL A   1      33.916  25.172  24.218  1.00  0.00     0.042 A 
ATOM     11  C   UNL A   1      33.978  25.119  25.611  1.00  0.00     0.030 A 
ATOM     12  C   UNL A   1      32.879  25.879  23.602  1.00  0.00     0.041 A 
ATOM     13  C   UNL A   1      33.121  25.911  26.372  1.00  0.00     0.049 A 
ATOM     14  C   UNL A   1      31.940  26.623  24.352  1.00  0.00     0.055 A 
BRANCH  10  15
ATOM     15  N   UNL A   1      34.942  24.538  23.499  1.00  0.00    -0.322 N 
ATOM     16  C   UNL A   1      35.279  23.203  23.403  1.00  0.00     0.255 C 
ATOM     17  O   UNL A   1      36.356  22.902  22.880  1.00  0.00    -0.269 OA
ATOM     18  H   UNL A   1      35.516  25.146  22.980  1.00  0.00     0.170 HD
BRANCH  16  19
ATOM     19  C   UNL A   1      34.358  22.100  23.813  1.00  0.00     0.043 A 
ATOM     20  C   UNL A   1      35.554  21.535  26.019  1.00  0.00     0.045 C 
ATOM     21  C   UNL A   1      34.512  21.309  24.967  1.00  0.00    -0.038 A 
ATOM     22  C   UNL A   1      33.594  20.269  25.214  1.00  0.00     0.004 A 
ATOM     23  C   UNL A   1      32.466  20.102  24.415  1.00  0.00     0.000 A 
ATOM     24  C   UNL A   1      33.191  21.947  23.042  1.00  0.00     0.014 A 
ATOM     25  C   UNL A   1      32.245  20.966  23.350  1.00  0.00     0.001 A 
ENDBRANCH  16  19
ENDBRANCH  10  15
BRANCH  14  26
ATOM     26  C   UNL A   1      30.871  27.327  23.601  1.00  0.00     0.128 A 
ATOM     27  N   UNL A   1      31.110  28.300  22.736  1.00  0.00    -0.236 NA
ATOM     28  S   UNL A   1      29.191  26.964  23.760  1.00  0.00    -0.114 S 
ATOM     29  C   UNL A   1      29.940  28.998  22.481  1.00  0.00     0.082 A 
ATOM     30  C   UNL A   1      28.795  28.476  23.074  1.00  0.00     0.055 A 
ATOM     31  C   UNL A   1      29.830  30.186  21.734  1.00  0.00     0.030 A 
ATOM     32  C   UNL A   1      27.561  29.141  23.046  1.00  0.00     0.021 A 
ATOM     33  C   UNL A   1      28.603  30.857  21.687  1.00  0.00     0.002 A 
ATOM     34  C   UNL A   1      27.493  30.355  22.360  1.00  0.00     0.002 A 
ENDBRANCH  14  26
ENDBRANCH   8   9
ENDBRANCH   7   8
ENDBRANCH   4   7
ENDBRANCH   2   3
ENDBRANCH   1   2
BRANCH   1  35
ATOM     35  C   UNL A   1      34.082  32.132  28.690  1.00  0.00     0.023 C 
BRANCH  35  36
ATOM     36  C   UNL A   1      34.524  33.527  29.087  1.00  0.00     0.116 C 
BRANCH  36  37
ATOM     37  N   UNL A   1      33.724  34.180  30.105  1.00  0.00    -0.352 N 
ATOM     38  C   UNL A   1      33.991  34.303  31.461  1.00  0.00     0.251 C 
ATOM     39  H   UNL A   1      32.883  34.588  29.793  1.00  0.00     0.163 HD
ATOM     40  O   UNL A   1      33.180  34.820  32.211  1.00  0.00    -0.269 OA
BRANCH  38  41
ATOM     41  C   UNL A   1      35.335  33.911  31.972  1.00  0.00     0.039 A 
ATOM     42  C   UNL A   1      36.406  34.767  31.690  1.00  0.00     0.014 A 
ATOM     43  C   UNL A   1      35.577  32.649  32.508  1.00  0.00     0.014 A 
ATOM     44  C   UNL A   1      37.705  34.264  31.707  1.00  0.00     0.010 A 
ATOM     45  C   UNL A   1      36.850  32.116  32.430  1.00  0.00     0.010 A 
ATOM     46  C   UNL A   1      37.902  32.907  31.971  1.00  0.00    -0.014 A 
BRANCH  46  47
ATOM     47  C   UNL A   1      39.156  32.224  31.687  1.00  0.00     0.031 A 
ATOM     48  C   UNL A   1      39.157  30.938  30.971  1.00  0.00     0.074 A 
ATOM     49  C   UNL A   1      40.328  32.735  32.122  1.00  0.00     0.049 A 
ATOM     50  N   UNL A   1      39.935  29.954  31.273  1.00  0.00    -0.248 NA
ATOM     51  C   UNL A   1      38.245  30.649  29.870  1.00  0.00     0.031 C 
ATOM     52  C   UNL A   1      41.669  32.240  31.828  1.00  0.00     0.029 A 
ATOM     53  N   UNL A   1      40.516  33.681  33.124  1.00  0.00    -0.354 N 
ATOM     54  C   UNL A   1      39.829  29.032  30.262  1.00  0.00     0.074 A 
ATOM     55  C   UNL A   1      38.707  29.464  29.458  1.00  0.00     0.031 C 
ATOM     56  C   UNL A   1      42.508  32.677  32.780  1.00  0.00     0.029 A 
ATOM     57  C   UNL A   1      41.717  33.373  33.781  1.00  0.00     0.049 A 
ATOM     58  H   UNL A   1      39.915  34.432  33.335  1.00  0.00     0.167 HD
ATOM     59  C   UNL A   1      40.787  28.081  30.092  1.00  0.00     0.034 A 
ATOM     60  C   UNL A   1      41.737  33.115  35.119  1.00  0.00     0.034 A 
ATOM     61  C   UNL A   1      41.889  28.237  31.031  1.00  0.00     0.049 A 
ATOM     62  C   UNL A   1      42.194  31.716  35.459  1.00  0.00     0.074 A 
ATOM     63  C   UNL A   1      43.136  28.830  30.908  1.00  0.00     0.029 A 
ATOM     64  N   UNL A   1      41.686  28.029  32.391  1.00  0.00    -0.354 N 
ATOM     65  N   UNL A   1      42.272  30.739  34.598  1.00  0.00    -0.248 NA
ATOM     66  C   UNL A   1      42.581  31.308  36.804  1.00  0.00     0.031 C 
ATOM     67  C   UNL A   1      43.664  29.020  32.208  1.00  0.00     0.029 A 
ATOM     68  C   UNL A   1      42.754  28.514  33.121  1.00  0.00     0.049 A 
ATOM     69  H   UNL A   1      40.891  27.597  32.778  1.00  0.00     0.167 HD
ATOM     70  C   UNL A   1      42.674  29.592  35.239  1.00  0.00     0.074 A 
ATOM     71  C   UNL A   1      42.885  30.012  36.613  1.00  0.00     0.031 C 
ATOM     72  C   UNL A   1      42.786  28.399  34.573  1.00  0.00     0.034 A 
BRANCH  59  73
ATOM     73  C   UNL A   1      40.853  27.243  28.846  1.00  0.00     0.023 A 
ATOM     74  C   UNL A   1      41.849  27.490  27.884  1.00  0.00     0.031 A 
ATOM     75  C   UNL A   1      39.937  26.216  28.543  1.00  0.00     0.131 A 
ATOM     76  C   UNL A   1      41.857  26.811  26.654  1.00  0.00     0.055 A 
ATOM     77  C   UNL A   1      39.917  25.570  27.300  1.00  0.00     0.041 A 
ATOM     78  F   UNL A   1      39.032  25.808  29.446  1.00  0.00    -0.206 F 
ATOM     79  C   UNL A   1      40.873  25.876  26.341  1.00  0.00     0.022 A 
BRANCH  76  80
ATOM     80  S   UNL A   1      43.177  27.178  25.463  1.00  0.00     0.124 S 
ATOM     81  O   UNL A   1      42.486  28.011  24.484  1.00  0.00    -0.237 OA
ATOM     82  O   UNL A   1      44.167  27.849  26.298  1.00  0.00    -0.237 OA
ATOM     83  O   UNL A   1      43.572  25.856  24.978  1.00  0.00    -0.744 OA
ENDBRANCH  76  80
ENDBRANCH  59  73
BRANCH  60  84
ATOM     84  C   UNL A   1      40.741  33.911  35.886  1.00  0.00     0.023 A 
ATOM     85  C   UNL A   1      39.566  33.251  36.299  1.00  0.00     0.031 A 
ATOM     86  C   UNL A   1      41.092  35.103  36.536  1.00  0.00     0.131 A 
ATOM     87  C   UNL A   1      38.858  33.703  37.421  1.00  0.00     0.055 A 
ATOM     88  C   UNL A   1      40.360  35.572  37.634  1.00  0.00     0.041 A 
ATOM     89  F   UNL A   1      42.215  35.757  36.205  1.00  0.00    -0.206 F 
ATOM     90  C   UNL A   1      39.267  34.847  38.110  1.00  0.00     0.022 A 
BRANCH  87  91
ATOM     91  S   UNL A   1      37.558  32.653  38.126  1.00  0.00     0.124 S 
ATOM     92  O   UNL A   1      37.664  32.933  39.552  1.00  0.00    -0.237 OA
ATOM     93  O   UNL A   1      36.345  33.138  37.472  1.00  0.00    -0.237 OA
ATOM     94  O   UNL A   1      37.956  31.309  37.713  1.00  0.00    -0.744 OA
ENDBRANCH  87  91
ENDBRANCH  60  84
BRANCH  72  95
ATOM     95  C   UNL A   1      43.039  27.033  35.191  1.00  0.00     0.023 A 
ATOM     96  C   UNL A   1      44.087  26.185  34.808  1.00  0.00     0.031 A 
ATOM     97  C   UNL A   1      42.237  26.554  36.259  1.00  0.00     0.131 A 
ATOM     98  C   UNL A   1      44.254  24.914  35.390  1.00  0.00     0.055 A 
ATOM     99  C   UNL A   1      42.453  25.325  36.892  1.00  0.00     0.041 A 
ATOM    100  F   UNL A   1      41.206  27.259  36.749  1.00  0.00    -0.206 F 
ATOM    101  C   UNL A   1      43.458  24.485  36.446  1.00  0.00     0.022 A 
BRANCH  98 102
ATOM    102  S   UNL A   1      45.500  23.807  34.681  1.00  0.00     0.124 S 
ATOM    103  O   UNL A   1      45.480  24.195  33.273  1.00  0.00    -0.237 OA
ATOM    104  O   UNL A   1      46.703  24.175  35.420  1.00  0.00    -0.237 OA
ATOM    105  O   UNL A   1      44.979  22.471  34.964  1.00  0.00    -0.744 OA
ENDBRANCH  98 102
ENDBRANCH  72  95
ENDBRANCH  46  47
ENDBRANCH  38  41
ENDBRANCH  36  37
ENDBRANCH  35  36
ENDBRANCH   1  35
TORSDOF 19
ENDMDL
MODEL 2
REMARK VINA RESULT:     -12.9      4.347     10.278
REMARK SMILES Cc1ccccc1C(=O)Nc1ccc(OCC(=O)NCCCCNC(=O)c2ccc(-c3c4nc(c(-c5cc(S(=O)(=O)[O-])ccc5F)c5ccc([nH]5)c(-c5cc(S(=O)(=O)[O-])ccc5F)c5nc(c(-c6cc(S(=O)(=O)[O-])ccc6F)c6ccc3[nH]6)C=C5)C=C4)cc2)c(-c2nc3ccccc3s2)c1
REMARK SMILES IDX 21 1 20 2 19 3 17 4 18 5 16 7 15 8 14 9 11 10 12 11 100 12
REMARK SMILES IDX 13 13 90 14 10 15 8 16 9 17 7 19 1 20 2 21 3 22 4 23 6 24
REMARK SMILES IDX 5 25 91 26 92 27 99 28 93 29 98 30 94 31 97 32 95 33 96 34
REMARK SMILES IDX 22 35 23 36 24 37 25 38 26 40 27 41 28 42 89 43 29 44 88 45
REMARK SMILES IDX 30 46 31 47 32 48 82 49 33 50 87 51 81 52 83 53 34 54 86 55
REMARK SMILES IDX 80 56 79 57 35 59 67 60 47 61 66 62 48 63 51 64 65 65 84 66
REMARK SMILES IDX 49 67 50 68 64 70 85 71 52 72 36 73 37 74 45 75 38 76 44 77
REMARK SMILES IDX 46 78 43 79 39 80 40 81 41 82 42 83 68 84 69 85 77 86 70 87
REMARK SMILES IDX 76 88 78 89 75 90 71 91 72 92 73 93 74 94 53 95 54 96 62 97
REMARK SMILES IDX 55 98 61 99 63 100 60 101 56 102 57 103 58 104 59 105
REMARK H PARENT 19 6 10 18 24 39 83 58 51 69
REMARK Flexibility Score: inf
ROOT
ATOM      1  C   UNL A   1      39.259  22.185  26.557  1.00  0.00     0.023 C 
ENDROOT
BRANCH   1   2
ATOM      2  C   UNL A   1      38.351  21.504  25.528  1.00  0.00     0.116 C 
BRANCH   2   3
ATOM      3  N   UNL A   1      37.912  22.456  24.519  1.00  0.00    -0.353 N 
ATOM      4  C   UNL A   1      36.707  22.560  23.893  1.00  0.00     0.257 C 
ATOM      5  O   UNL A   1      36.660  23.316  22.919  1.00  0.00    -0.271 OA
ATOM      6  H   UNL A   1      38.584  23.123  24.250  1.00  0.00     0.163 HD
BRANCH   4   7
ATOM      7  C   UNL A   1      35.474  21.786  24.430  1.00  0.00     0.329 C 
BRANCH   7   8
ATOM      8  O   UNL A   1      34.601  22.339  25.419  1.00  0.00    -0.483 OA
BRANCH   8   9
ATOM      9  C   UNL A   1      33.509  22.975  24.896  1.00  0.00     0.130 A 
ATOM     10  C   UNL A   1      31.287  24.385  23.970  1.00  0.00     0.042 A 
ATOM     11  C   UNL A   1      32.444  25.076  24.332  1.00  0.00     0.030 A 
ATOM     12  C   UNL A   1      31.300  22.987  23.943  1.00  0.00     0.041 A 
ATOM     13  C   UNL A   1      33.539  24.374  24.834  1.00  0.00     0.049 A 
ATOM     14  C   UNL A   1      32.428  22.247  24.364  1.00  0.00     0.055 A 
BRANCH  10  15
ATOM     15  N   UNL A   1      30.140  25.146  23.691  1.00  0.00    -0.322 N 
ATOM     16  C   UNL A   1      29.717  26.355  24.207  1.00  0.00     0.255 C 
ATOM     17  O   UNL A   1      28.565  26.728  23.966  1.00  0.00    -0.269 OA
ATOM     18  H   UNL A   1      29.541  24.753  23.017  1.00  0.00     0.170 HD
BRANCH  16  19
ATOM     19  C   UNL A   1      30.618  27.277  24.962  1.00  0.00     0.043 A 
ATOM     20  C   UNL A   1      30.912  28.998  23.073  1.00  0.00     0.045 C 
ATOM     21  C   UNL A   1      31.203  28.443  24.434  1.00  0.00    -0.038 A 
ATOM     22  C   UNL A   1      32.072  29.202  25.242  1.00  0.00     0.004 A 
ATOM     23  C   UNL A   1      32.251  28.896  26.588  1.00  0.00     0.000 A 
ATOM     24  C   UNL A   1      30.773  27.008  26.334  1.00  0.00     0.014 A 
ATOM     25  C   UNL A   1      31.570  27.820  27.144  1.00  0.00     0.001 A 
ENDBRANCH  16  19
ENDBRANCH  10  15
BRANCH  14  26
ATOM     26  C   UNL A   1      32.341  20.768  24.283  1.00  0.00     0.128 A 
ATOM     27  N   UNL A   1      32.264  19.984  25.347  1.00  0.00    -0.236 NA
ATOM     28  S   UNL A   1      32.330  19.890  22.797  1.00  0.00    -0.114 S 
ATOM     29  C   UNL A   1      32.565  18.679  24.991  1.00  0.00     0.082 A 
ATOM     30  C   UNL A   1      32.763  18.464  23.631  1.00  0.00     0.055 A 
ATOM     31  C   UNL A   1      32.733  17.598  25.876  1.00  0.00     0.030 A 
ATOM     32  C   UNL A   1      33.224  17.243  23.120  1.00  0.00     0.021 A 
ATOM     33  C   UNL A   1      33.183  16.368  25.381  1.00  0.00     0.002 A 
ATOM     34  C   UNL A   1      33.453  16.205  24.024  1.00  0.00     0.002 A 
ENDBRANCH  14  26
ENDBRANCH   8   9
ENDBRANCH   7   8
ENDBRANCH   4   7
ENDBRANCH   2   3
ENDBRANCH   1   2
BRANCH   1  35
ATOM     35  C   UNL A   1      40.754  21.982  26.321  1.00  0.00     0.023 C 
BRANCH  35  36
ATOM     36  C   UNL A   1      41.668  23.026  26.933  1.00  0.00     0.116 C 
BRANCH  36  37
ATOM     37  N   UNL A   1      42.432  23.827  25.995  1.00  0.00    -0.352 N 
ATOM     38  C   UNL A   1      42.303  25.180  25.717  1.00  0.00     0.251 C 
ATOM     39  H   UNL A   1      43.131  23.349  25.492  1.00  0.00     0.163 HD
ATOM     40  O   UNL A   1      42.974  25.702  24.842  1.00  0.00    -0.269 OA
BRANCH  38  41
ATOM     41  C   UNL A   1      41.428  26.017  26.585  1.00  0.00     0.039 A 
ATOM     42  C   UNL A   1      40.940  27.212  26.047  1.00  0.00     0.014 A 
ATOM     43  C   UNL A   1      41.276  25.753  27.944  1.00  0.00     0.014 A 
ATOM     44  C   UNL A   1      40.537  28.234  26.904  1.00  0.00     0.010 A 
ATOM     45  C   UNL A   1      40.974  26.794  28.802  1.00  0.00     0.010 A 
ATOM     46  C   UNL A   1      40.665  28.050  28.283  1.00  0.00    -0.014 A 
BRANCH  46  47
ATOM     47  C   UNL A   1      40.595  29.150  29.233  1.00  0.00     0.031 A 
ATOM     48  C   UNL A   1      39.440  30.062  29.233  1.00  0.00     0.074 A 
ATOM     49  C   UNL A   1      41.613  29.380  30.091  1.00  0.00     0.049 A 
ATOM     50  N   UNL A   1      39.537  31.337  29.408  1.00  0.00    -0.248 NA
ATOM     51  C   UNL A   1      38.075  29.604  28.999  1.00  0.00     0.031 C 
ATOM     52  C   UNL A   1      41.653  30.360  31.171  1.00  0.00     0.029 A 
ATOM     53  N   UNL A   1      42.921  28.915  29.992  1.00  0.00    -0.354 N 
ATOM     54  C   UNL A   1      38.264  31.817  29.583  1.00  0.00     0.074 A 
ATOM     55  C   UNL A   1      37.384  30.724  29.236  1.00  0.00     0.031 C 
ATOM     56  C   UNL A   1      42.935  30.621  31.470  1.00  0.00     0.029 A 
ATOM     57  C   UNL A   1      43.765  29.906  30.516  1.00  0.00     0.049 A 
ATOM     58  H   UNL A   1      43.203  28.047  29.622  1.00  0.00     0.167 HD
ATOM     59  C   UNL A   1      38.058  33.033  30.159  1.00  0.00     0.034 A 
ATOM     60  C   UNL A   1      44.748  30.463  29.753  1.00  0.00     0.034 A 
ATOM     61  C   UNL A   1      39.303  33.653  30.592  1.00  0.00     0.049 A 
ATOM     62  C   UNL A   1      44.571  31.946  29.529  1.00  0.00     0.074 A 
ATOM     63  C   UNL A   1      39.931  33.711  31.827  1.00  0.00     0.029 A 
ATOM     64  N   UNL A   1      40.242  34.069  29.654  1.00  0.00    -0.354 N 
ATOM     65  N   UNL A   1      43.465  32.598  29.757  1.00  0.00    -0.248 NA
ATOM     66  C   UNL A   1      45.630  32.806  29.012  1.00  0.00     0.031 C 
ATOM     67  C   UNL A   1      41.271  34.120  31.621  1.00  0.00     0.029 A 
ATOM     68  C   UNL A   1      41.450  34.343  30.266  1.00  0.00     0.049 A 
ATOM     69  H   UNL A   1      40.069  34.154  28.689  1.00  0.00     0.167 HD
ATOM     70  C   UNL A   1      43.625  33.917  29.405  1.00  0.00     0.074 A 
ATOM     71  C   UNL A   1      45.010  33.999  28.975  1.00  0.00     0.031 C 
ATOM     72  C   UNL A   1      42.594  34.814  29.495  1.00  0.00     0.034 A 
BRANCH  59  73
ATOM     73  C   UNL A   1      36.695  33.466  30.621  1.00  0.00     0.023 A 
ATOM     74  C   UNL A   1      35.788  34.030  29.705  1.00  0.00     0.031 A 
ATOM     75  C   UNL A   1      36.255  33.377  31.956  1.00  0.00     0.131 A 
ATOM     76  C   UNL A   1      34.559  34.561  30.131  1.00  0.00     0.055 A 
ATOM     77  C   UNL A   1      35.050  33.945  32.390  1.00  0.00     0.041 A 
ATOM     78  F   UNL A   1      36.983  32.735  32.883  1.00  0.00    -0.206 F 
ATOM     79  C   UNL A   1      34.199  34.554  31.477  1.00  0.00     0.022 A 
BRANCH  76  80
ATOM     80  S   UNL A   1      33.438  35.269  28.892  1.00  0.00     0.124 S 
ATOM     81  O   UNL A   1      34.348  36.054  28.065  1.00  0.00    -0.237 OA
ATOM     82  O   UNL A   1      32.870  34.077  28.274  1.00  0.00    -0.237 OA
ATOM     83  O   UNL A   1      32.501  36.055  29.694  1.00  0.00    -0.744 OA
ENDBRANCH  76  80
ENDBRANCH  59  73
BRANCH  60  84
ATOM     84  C   UNL A   1      45.356  29.508  28.788  1.00  0.00     0.023 A 
ATOM     85  C   UNL A   1      46.295  28.586  29.295  1.00  0.00     0.031 A 
ATOM     86  C   UNL A   1      44.759  29.229  27.551  1.00  0.00     0.131 A 
ATOM     87  C   UNL A   1      46.507  27.363  28.644  1.00  0.00     0.055 A 
ATOM     88  C   UNL A   1      45.003  28.021  26.885  1.00  0.00     0.041 A 
ATOM     89  F   UNL A   1      43.837  30.054  27.035  1.00  0.00    -0.206 F 
ATOM     90  C   UNL A   1      45.843  27.063  27.453  1.00  0.00     0.022 A 
BRANCH  87  91
ATOM     91  S   UNL A   1      47.457  26.068  29.488  1.00  0.00     0.124 S 
ATOM     92  O   UNL A   1      46.610  25.750  30.631  1.00  0.00    -0.237 OA
ATOM     93  O   UNL A   1      47.575  25.025  28.473  1.00  0.00    -0.237 OA
ATOM     94  O   UNL A   1      48.719  26.734  29.802  1.00  0.00    -0.744 OA
ENDBRANCH  87  91
ENDBRANCH  60  84
BRANCH  72  95
ATOM     95  C   UNL A   1      42.583  36.241  28.972  1.00  0.00     0.023 A 
ATOM     96  C   UNL A   1      43.233  37.309  29.604  1.00  0.00     0.031 A 
ATOM     97  C   UNL A   1      41.939  36.568  27.750  1.00  0.00     0.131 A 
ATOM     98  C   UNL A   1      43.161  38.619  29.094  1.00  0.00     0.055 A 
ATOM     99  C   UNL A   1      41.936  37.855  27.202  1.00  0.00     0.041 A 
ATOM    100  F   UNL A   1      41.288  35.650  27.020  1.00  0.00    -0.206 F 
ATOM    101  C   UNL A   1      42.536  38.898  27.885  1.00  0.00     0.022 A 
BRANCH  98 102
ATOM    102  S   UNL A   1      43.851  39.965  30.094  1.00  0.00     0.124 S 
ATOM    103  O   UNL A   1      43.122  41.122  29.581  1.00  0.00    -0.237 OA
ATOM    104  O   UNL A   1      43.510  39.553  31.451  1.00  0.00    -0.237 OA
ATOM    105  O   UNL A   1      45.277  39.938  29.774  1.00  0.00    -0.744 OA
ENDBRANCH  98 102
ENDBRANCH  72  95
ENDBRANCH  46  47
ENDBRANCH  38  41
ENDBRANCH  36  37
ENDBRANCH  35  36
ENDBRANCH   1  35
TORSDOF 19
ENDMDL
MODEL 3
REMARK VINA RESULT:     -12.8      5.024     10.939
REMARK SMILES Cc1ccccc1C(=O)Nc1ccc(OCC(=O)NCCCCNC(=O)c2ccc(-c3c4nc(c(-c5cc(S(=O)(=O)[O-])ccc5F)c5ccc([nH]5)c(-c5cc(S(=O)(=O)[O-])ccc5F)c5nc(c(-c6cc(S(=O)(=O)[O-])ccc6F)c6ccc3[nH]6)C=C5)C=C4)cc2)c(-c2nc3ccccc3s2)c1
REMARK SMILES IDX 21 1 20 2 19 3 17 4 18 5 16 7 15 8 14 9 11 10 12 11 100 12
REMARK SMILES IDX 13 13 90 14 10 15 8 16 9 17 7 19 1 20 2 21 3 22 4 23 6 24
REMARK SMILES IDX 5 25 91 26 92 27 99 28 93 29 98 30 94 31 97 32 95 33 96 34
REMARK SMILES IDX 22 35 23 36 24 37 25 38 26 40 27 41 28 42 89 43 29 44 88 45
REMARK SMILES IDX 30 46 31 47 32 48 82 49 33 50 87 51 81 52 83 53 34 54 86 55
REMARK SMILES IDX 80 56 79 57 35 59 67 60 47 61 66 62 48 63 51 64 65 65 84 66
REMARK SMILES IDX 49 67 50 68 64 70 85 71 52 72 36 73 37 74 45 75 38 76 44 77
REMARK SMILES IDX 46 78 43 79 39 80 40 81 41 82 42 83 68 84 69 85 77 86 70 87
REMARK SMILES IDX 76 88 78 89 75 90 71 91 72 92 73 93 74 94 53 95 54 96 62 97
REMARK SMILES IDX 55 98 61 99 63 100 60 101 56 102 57 103 58 104 59 105
REMARK H PARENT 19 6 10 18 24 39 83 58 51 69
REMARK Flexibility Score: inf
ROOT
ATOM      1  C   UNL A   1      39.417  22.134  26.363  1.00  0.00     0.023 C 
ENDROOT
BRANCH   1   2
ATOM      2  C   UNL A   1      38.165  21.610  25.654  1.00  0.00     0.116 C 
BRANCH   2   3
ATOM      3  N   UNL A   1      37.811  22.469  24.533  1.00  0.00    -0.353 N 
ATOM      4  C   UNL A   1      36.659  22.516  23.809  1.00  0.00     0.257 C 
ATOM      5  O   UNL A   1      36.693  23.181  22.771  1.00  0.00    -0.271 OA
ATOM      6  H   UNL A   1      38.507  23.109  24.259  1.00  0.00     0.163 HD
BRANCH   4   7
ATOM      7  C   UNL A   1      35.383  21.791  24.314  1.00  0.00     0.329 C 
BRANCH   7   8
ATOM      8  O   UNL A   1      34.535  22.359  25.317  1.00  0.00    -0.483 OA
BRANCH   8   9
ATOM      9  C   UNL A   1      33.421  22.972  24.812  1.00  0.00     0.130 A 
ATOM     10  C   UNL A   1      31.153  24.333  23.925  1.00  0.00     0.042 A 
ATOM     11  C   UNL A   1      32.299  25.049  24.276  1.00  0.00     0.030 A 
ATOM     12  C   UNL A   1      31.199  22.936  23.890  1.00  0.00     0.041 A 
ATOM     13  C   UNL A   1      33.417  24.371  24.758  1.00  0.00     0.049 A 
ATOM     14  C   UNL A   1      32.350  22.221  24.290  1.00  0.00     0.055 A 
BRANCH  10  15
ATOM     15  N   UNL A   1      29.985  25.068  23.666  1.00  0.00    -0.322 N 
ATOM     16  C   UNL A   1      29.554  26.277  24.174  1.00  0.00     0.255 C 
ATOM     17  O   UNL A   1      28.389  26.626  23.961  1.00  0.00    -0.269 OA
ATOM     18  H   UNL A   1      29.374  24.653  23.017  1.00  0.00     0.170 HD
BRANCH  16  19
ATOM     19  C   UNL A   1      30.458  27.229  24.888  1.00  0.00     0.043 A 
ATOM     20  C   UNL A   1      30.692  28.907  22.952  1.00  0.00     0.045 C 
ATOM     21  C   UNL A   1      31.018  28.389  24.320  1.00  0.00    -0.038 A 
ATOM     22  C   UNL A   1      31.893  29.178  25.091  1.00  0.00     0.004 A 
ATOM     23  C   UNL A   1      32.103  28.907  26.440  1.00  0.00     0.000 A 
ATOM     24  C   UNL A   1      30.645  26.995  26.263  1.00  0.00     0.014 A 
ATOM     25  C   UNL A   1      31.448  27.837  27.036  1.00  0.00     0.001 A 
ENDBRANCH  16  19
ENDBRANCH  10  15
BRANCH  14  26
ATOM     26  C   UNL A   1      32.298  20.741  24.201  1.00  0.00     0.128 A 
ATOM     27  N   UNL A   1      32.180  19.951  25.258  1.00  0.00    -0.236 NA
ATOM     28  S   UNL A   1      32.383  19.868  22.715  1.00  0.00    -0.114 S 
ATOM     29  C   UNL A   1      32.526  18.655  24.915  1.00  0.00     0.082 A 
ATOM     30  C   UNL A   1      32.799  18.448  23.567  1.00  0.00     0.055 A 
ATOM     31  C   UNL A   1      32.668  17.573  25.804  1.00  0.00     0.030 A 
ATOM     32  C   UNL A   1      33.311  17.239  23.078  1.00  0.00     0.021 A 
ATOM     33  C   UNL A   1      33.169  16.355  25.331  1.00  0.00     0.002 A 
ATOM     34  C   UNL A   1      33.513  16.202  23.990  1.00  0.00     0.002 A 
ENDBRANCH  14  26
ENDBRANCH   8   9
ENDBRANCH   7   8
ENDBRANCH   4   7
ENDBRANCH   2   3
ENDBRANCH   1   2
BRANCH   1  35
ATOM     35  C   UNL A   1      40.678  21.304  26.128  1.00  0.00     0.023 C 
BRANCH  35  36
ATOM     36  C   UNL A   1      41.974  22.084  26.022  1.00  0.00     0.116 C 
BRANCH  36  37
ATOM     37  N   UNL A   1      43.012  21.481  25.209  1.00  0.00    -0.352 N 
ATOM     38  C   UNL A   1      44.288  21.961  24.948  1.00  0.00     0.251 C 
ATOM     39  H   UNL A   1      42.781  20.622  24.787  1.00  0.00     0.163 HD
ATOM     40  O   UNL A   1      45.029  21.374  24.178  1.00  0.00    -0.269 OA
BRANCH  38  41
ATOM     41  C   UNL A   1      44.790  23.134  25.719  1.00  0.00     0.039 A 
ATOM     42  C   UNL A   1      45.148  22.921  27.054  1.00  0.00     0.014 A 
ATOM     43  C   UNL A   1      44.701  24.431  25.221  1.00  0.00     0.014 A 
ATOM     44  C   UNL A   1      45.164  23.999  27.938  1.00  0.00     0.010 A 
ATOM     45  C   UNL A   1      44.617  25.488  26.108  1.00  0.00     0.010 A 
ATOM     46  C   UNL A   1      44.788  25.260  27.472  1.00  0.00    -0.014 A 
BRANCH  46  47
ATOM     47  C   UNL A   1      44.451  26.360  28.365  1.00  0.00     0.031 A 
ATOM     48  C   UNL A   1      43.075  26.882  28.416  1.00  0.00     0.074 A 
ATOM     49  C   UNL A   1      45.406  26.950  29.117  1.00  0.00     0.049 A 
ATOM     50  N   UNL A   1      42.792  28.137  28.512  1.00  0.00    -0.248 NA
ATOM     51  C   UNL A   1      41.903  26.020  28.326  1.00  0.00     0.031 C 
ATOM     52  C   UNL A   1      45.217  27.977  30.135  1.00  0.00     0.029 A 
ATOM     53  N   UNL A   1      46.783  26.891  28.929  1.00  0.00    -0.354 N 
ATOM     54  C   UNL A   1      41.448  28.227  28.772  1.00  0.00     0.074 A 
ATOM     55  C   UNL A   1      40.921  26.897  28.562  1.00  0.00     0.031 C 
ATOM     56  C   UNL A   1      46.376  28.632  30.306  1.00  0.00     0.029 A 
ATOM     57  C   UNL A   1      47.319  28.126  29.324  1.00  0.00     0.049 A 
ATOM     58  H   UNL A   1      47.290  26.121  28.583  1.00  0.00     0.167 HD
ATOM     59  C   UNL A   1      40.921  29.366  29.297  1.00  0.00     0.034 A 
ATOM     60  C   UNL A   1      48.033  28.891  28.449  1.00  0.00     0.034 A 
ATOM     61  C   UNL A   1      41.944  30.362  29.586  1.00  0.00     0.049 A 
ATOM     62  C   UNL A   1      47.399  30.231  28.163  1.00  0.00     0.074 A 
ATOM     63  C   UNL A   1      42.605  30.701  30.756  1.00  0.00     0.029 A 
ATOM     64  N   UNL A   1      42.647  30.965  28.549  1.00  0.00    -0.354 N 
ATOM     65  N   UNL A   1      46.164  30.538  28.451  1.00  0.00    -0.248 NA
ATOM     66  C   UNL A   1      48.108  31.325  27.509  1.00  0.00     0.031 C 
ATOM     67  C   UNL A   1      43.740  31.475  30.413  1.00  0.00     0.029 A 
ATOM     68  C   UNL A   1      43.753  31.635  29.038  1.00  0.00     0.049 A 
ATOM     69  H   UNL A   1      42.392  30.919  27.599  1.00  0.00     0.167 HD
ATOM     70  C   UNL A   1      45.892  31.813  28.016  1.00  0.00     0.074 A 
ATOM     71  C   UNL A   1      47.154  32.272  27.462  1.00  0.00     0.031 C 
ATOM     72  C   UNL A   1      44.645  32.365  28.146  1.00  0.00     0.034 A 
BRANCH  59  73
ATOM     73  C   UNL A   1      39.524  29.406  29.852  1.00  0.00     0.023 A 
ATOM     74  C   UNL A   1      38.544  30.204  29.234  1.00  0.00     0.031 A 
ATOM     75  C   UNL A   1      39.119  28.706  31.005  1.00  0.00     0.131 A 
ATOM     76  C   UNL A   1      37.269  30.362  29.804  1.00  0.00     0.055 A 
ATOM     77  C   UNL A   1      37.864  28.895  31.598  1.00  0.00     0.041 A 
ATOM     78  F   UNL A   1      39.931  27.813  31.593  1.00  0.00    -0.206 F 
ATOM     79  C   UNL A   1      36.934  29.739  31.003  1.00  0.00     0.022 A 
BRANCH  76  80
ATOM     80  S   UNL A   1      36.055  31.405  28.948  1.00  0.00     0.124 S 
ATOM     81  O   UNL A   1      35.063  31.643  29.992  1.00  0.00    -0.237 OA
ATOM     82  O   UNL A   1      36.861  32.554  28.550  1.00  0.00    -0.237 OA
ATOM     83  O   UNL A   1      35.599  30.559  27.846  1.00  0.00    -0.744 OA
ENDBRANCH  76  80
ENDBRANCH  59  73
BRANCH  60  84
ATOM     84  C   UNL A   1      48.837  28.090  27.488  1.00  0.00     0.023 A 
ATOM     85  C   UNL A   1      48.243  27.783  26.246  1.00  0.00     0.031 A 
ATOM     86  C   UNL A   1      50.231  27.990  27.596  1.00  0.00     0.131 A 
ATOM     87  C   UNL A   1      49.043  27.531  25.124  1.00  0.00     0.055 A 
ATOM     88  C   UNL A   1      51.024  27.700  26.478  1.00  0.00     0.041 A 
ATOM     89  F   UNL A   1      50.852  28.298  28.743  1.00  0.00    -0.206 F 
ATOM     90  C   UNL A   1      50.436  27.516  25.228  1.00  0.00     0.022 A 
BRANCH  87  91
ATOM     91  S   UNL A   1      48.269  27.474  23.484  1.00  0.00     0.124 S 
ATOM     92  O   UNL A   1      49.319  28.001  22.621  1.00  0.00    -0.237 OA
ATOM     93  O   UNL A   1      47.956  26.058  23.312  1.00  0.00    -0.237 OA
ATOM     94  O   UNL A   1      47.093  28.325  23.642  1.00  0.00    -0.744 OA
ENDBRANCH  87  91
ENDBRANCH  60  84
BRANCH  72  95
ATOM     95  C   UNL A   1      44.165  33.679  27.550  1.00  0.00     0.023 A 
ATOM     96  C   UNL A   1      44.117  34.886  28.259  1.00  0.00     0.031 A 
ATOM     97  C   UNL A   1      43.780  33.766  26.187  1.00  0.00     0.131 A 
ATOM     98  C   UNL A   1      43.630  36.067  27.667  1.00  0.00     0.055 A 
ATOM     99  C   UNL A   1      43.373  34.958  25.577  1.00  0.00     0.041 A 
ATOM    100  F   UNL A   1      43.790  32.699  25.373  1.00  0.00    -0.206 F 
ATOM    101  C   UNL A   1      43.279  36.119  26.323  1.00  0.00     0.022 A 
BRANCH  98 102
ATOM    102  S   UNL A   1      43.405  37.522  28.724  1.00  0.00     0.124 S 
ATOM    103  O   UNL A   1      43.628  36.963  30.055  1.00  0.00    -0.237 OA
ATOM    104  O   UNL A   1      44.442  38.426  28.237  1.00  0.00    -0.237 OA
ATOM    105  O   UNL A   1      42.033  37.942  28.448  1.00  0.00    -0.744 OA
ENDBRANCH  98 102
ENDBRANCH  72  95
ENDBRANCH  46  47
ENDBRANCH  38  41
ENDBRANCH  36  37
ENDBRANCH  35  36
ENDBRANCH   1  35
TORSDOF 19
ENDMDL
