MODEL 1
REMARK VINA RESULT:     -11.6      0.000      0.000
REMARK SMILES O=C(CC1(CC(=O)NNc2ccc([N+](=O)[O-])cc2)CCCC1)NCCCCNC(=O)c1ccc(-c2c3nc(c(-c4cc(S(=O)(=O)[O-])ccc4F)c4ccc([nH]4)c(-c4cc(S(=O)(=O)[O-])ccc4F)c4nc(c(-c5cc(S(=O)(=O)[O-])ccc5F)c5ccc2[nH]5)C=C4)C=C3)cc1
REMARK SMILES IDX 24 1 23 2 1 3 2 4 3 6 4 7 19 8 22 9 20 10 21 11 5 12 6 13
REMARK SMILES IDX 7 14 8 15 9 17 10 19 11 20 18 21 12 22 17 23 13 24 14 25
REMARK SMILES IDX 15 26 16 27 25 28 26 29 27 30 28 31 29 32 30 34 31 35 32 36
REMARK SMILES IDX 93 37 33 38 92 39 34 40 35 41 36 42 86 43 37 44 91 45 85 46
REMARK SMILES IDX 87 47 38 48 90 49 84 50 83 51 39 53 71 54 51 55 70 56 52 57
REMARK SMILES IDX 55 58 69 59 88 60 53 61 54 62 68 64 89 65 56 66 40 67 41 68
REMARK SMILES IDX 49 69 42 70 48 71 50 72 47 73 43 74 44 75 45 76 46 77 72 78
REMARK SMILES IDX 73 79 81 80 74 81 80 82 82 83 79 84 75 85 76 86 77 87 78 88
REMARK SMILES IDX 57 89 58 90 66 91 59 92 65 93 67 94 64 95 60 96 61 97 62 98
REMARK SMILES IDX 63 99
REMARK H PARENT 23 5 8 16 9 18 28 33 87 52 55 63
REMARK Flexibility Score: inf
ROOT
ATOM      1  C   UNL A   1      35.739  21.355  25.545  1.00  0.00     0.116 C 
ENDROOT
BRANCH   1   2
ATOM      2  N   UNL A   1      35.385  22.723  25.870  1.00  0.00    -0.356 N 
ATOM      3  O   UNL A   1      34.317  23.189  23.878  1.00  0.00    -0.275 OA
ATOM      4  C   UNL A   1      34.625  23.497  25.025  1.00  0.00     0.220 C 
ATOM      5  H   UNL A   1      35.698  23.109  26.720  1.00  0.00     0.163 HD
BRANCH   4   6
ATOM      6  C   UNL A   1      34.190  24.811  25.633  1.00  0.00     0.107 C 
BRANCH   6   7
ATOM      7  C   UNL A   1      32.789  25.371  25.251  1.00  0.00    -0.012 C 
ATOM      8  C   UNL A   1      32.471  26.612  26.138  1.00  0.00     0.008 C 
ATOM      9  C   UNL A   1      32.878  26.099  23.892  1.00  0.00     0.008 C 
ATOM     10  C   UNL A   1      31.477  27.454  25.335  1.00  0.00     0.001 C 
ATOM     11  C   UNL A   1      31.714  27.087  23.872  1.00  0.00     0.001 C 
BRANCH   7  12
ATOM     12  C   UNL A   1      31.578  24.386  25.364  1.00  0.00     0.109 C 
BRANCH  12  13
ATOM     13  C   UNL A   1      31.563  23.306  26.444  1.00  0.00     0.238 C 
ATOM     14  O   UNL A   1      31.271  23.575  27.610  1.00  0.00    -0.273 OA
ATOM     15  N   UNL A   1      31.772  21.997  26.108  1.00  0.00    -0.270 N 
ATOM     16  H   UNL A   1      31.979  21.352  26.823  1.00  0.00     0.191 HD
BRANCH  15  17
ATOM     17  N   UNL A   1      31.706  21.545  24.805  1.00  0.00    -0.299 N 
ATOM     18  H   UNL A   1      31.252  22.061  24.100  1.00  0.00     0.188 HD
BRANCH  17  19
ATOM     19  C   UNL A   1      32.320  20.312  24.541  1.00  0.00     0.055 A 
ATOM     20  C   UNL A   1      32.199  19.768  23.255  1.00  0.00     0.034 A 
ATOM     21  C   UNL A   1      32.872  19.527  25.561  1.00  0.00     0.034 A 
ATOM     22  C   UNL A   1      32.649  18.477  22.974  1.00  0.00     0.088 A 
ATOM     23  C   UNL A   1      33.317  18.228  25.298  1.00  0.00     0.088 A 
ATOM     24  C   UNL A   1      33.197  17.706  24.004  1.00  0.00     0.269 A 
BRANCH  24  25
ATOM     25  N   UNL A   1      33.613  16.325  23.731  1.00  0.00     0.062 N 
ATOM     26  O   UNL A   1      33.263  15.447  24.532  1.00  0.00    -0.258 OA
ATOM     27  O   UNL A   1      34.297  16.119  22.718  1.00  0.00    -0.258 OA
ENDBRANCH  24  25
ENDBRANCH  17  19
ENDBRANCH  15  17
ENDBRANCH  12  13
ENDBRANCH   7  12
ENDBRANCH   6   7
ENDBRANCH   4   6
ENDBRANCH   1   2
BRANCH   1  28
ATOM     28  C   UNL A   1      36.952  21.268  24.624  1.00  0.00     0.023 C 
BRANCH  28  29
ATOM     29  C   UNL A   1      37.894  20.094  24.906  1.00  0.00     0.023 C 
BRANCH  29  30
ATOM     30  C   UNL A   1      38.935  20.335  25.997  1.00  0.00     0.116 C 
BRANCH  30  31
ATOM     31  N   UNL A   1      40.000  19.347  25.980  1.00  0.00    -0.352 N 
ATOM     32  C   UNL A   1      41.363  19.518  26.067  1.00  0.00     0.251 C 
ATOM     33  H   UNL A   1      39.701  18.412  25.894  1.00  0.00     0.163 HD
ATOM     34  O   UNL A   1      42.107  18.569  25.842  1.00  0.00    -0.269 OA
BRANCH  32  35
ATOM     35  C   UNL A   1      41.932  20.845  26.400  1.00  0.00     0.039 A 
ATOM     36  C   UNL A   1      42.166  21.758  25.368  1.00  0.00     0.014 A 
ATOM     37  C   UNL A   1      42.249  21.190  27.717  1.00  0.00     0.014 A 
ATOM     38  C   UNL A   1      42.646  23.038  25.664  1.00  0.00     0.010 A 
ATOM     39  C   UNL A   1      42.654  22.491  28.019  1.00  0.00     0.010 A 
ATOM     40  C   UNL A   1      42.853  23.433  26.996  1.00  0.00    -0.014 A 
BRANCH  40  41
ATOM     41  C   UNL A   1      43.268  24.823  27.336  1.00  0.00     0.031 A 
ATOM     42  C   UNL A   1      42.292  25.775  27.973  1.00  0.00     0.074 A 
ATOM     43  C   UNL A   1      44.508  25.246  27.018  1.00  0.00     0.049 A 
ATOM     44  N   UNL A   1      42.442  27.041  28.269  1.00  0.00    -0.248 NA
ATOM     45  C   UNL A   1      40.962  25.237  28.294  1.00  0.00     0.031 C 
ATOM     46  C   UNL A   1      45.537  24.432  26.367  1.00  0.00     0.029 A 
ATOM     47  N   UNL A   1      45.115  26.467  27.190  1.00  0.00    -0.354 N 
ATOM     48  C   UNL A   1      41.227  27.454  28.806  1.00  0.00     0.074 A 
ATOM     49  C   UNL A   1      40.332  26.318  28.728  1.00  0.00     0.031 C 
ATOM     50  C   UNL A   1      46.651  25.167  26.217  1.00  0.00     0.029 A 
ATOM     51  C   UNL A   1      46.404  26.518  26.709  1.00  0.00     0.049 A 
ATOM     52  H   UNL A   1      44.669  27.234  27.616  1.00  0.00     0.167 HD
ATOM     53  C   UNL A   1      40.896  28.658  29.337  1.00  0.00     0.034 A 
ATOM     54  C   UNL A   1      47.283  27.539  26.652  1.00  0.00     0.034 A 
ATOM     55  C   UNL A   1      41.800  29.781  29.409  1.00  0.00     0.049 A 
ATOM     56  C   UNL A   1      46.878  28.883  27.207  1.00  0.00     0.074 A 
ATOM     57  C   UNL A   1      41.580  31.031  29.963  1.00  0.00     0.029 A 
ATOM     58  N   UNL A   1      43.095  29.797  28.904  1.00  0.00    -0.354 N 
ATOM     59  N   UNL A   1      45.738  29.243  27.749  1.00  0.00    -0.248 NA
ATOM     60  C   UNL A   1      47.882  29.952  27.150  1.00  0.00     0.031 C 
ATOM     61  C   UNL A   1      42.708  31.823  29.724  1.00  0.00     0.029 A 
ATOM     62  C   UNL A   1      43.669  31.045  29.102  1.00  0.00     0.049 A 
ATOM     63  H   UNL A   1      43.540  29.035  28.469  1.00  0.00     0.167 HD
ATOM     64  C   UNL A   1      45.902  30.573  28.129  1.00  0.00     0.074 A 
ATOM     65  C   UNL A   1      47.255  30.943  27.767  1.00  0.00     0.031 C 
ATOM     66  C   UNL A   1      45.016  31.410  28.727  1.00  0.00     0.034 A 
BRANCH  53  67
ATOM     67  C   UNL A   1      39.486  28.825  29.855  1.00  0.00     0.023 A 
ATOM     68  C   UNL A   1      38.451  29.312  29.037  1.00  0.00     0.031 A 
ATOM     69  C   UNL A   1      39.173  28.514  31.191  1.00  0.00     0.131 A 
ATOM     70  C   UNL A   1      37.181  29.554  29.581  1.00  0.00     0.055 A 
ATOM     71  C   UNL A   1      37.882  28.673  31.702  1.00  0.00     0.041 A 
ATOM     72  F   UNL A   1      40.120  28.066  32.030  1.00  0.00    -0.206 F 
ATOM     73  C   UNL A   1      36.881  29.211  30.901  1.00  0.00     0.022 A 
BRANCH  70  74
ATOM     74  S   UNL A   1      35.974  30.471  28.584  1.00  0.00     0.124 S 
ATOM     75  O   UNL A   1      35.061  29.406  28.175  1.00  0.00    -0.237 OA
ATOM     76  O   UNL A   1      35.444  31.437  29.539  1.00  0.00    -0.237 OA
ATOM     77  O   UNL A   1      36.782  31.036  27.505  1.00  0.00    -0.744 OA
ENDBRANCH  70  74
ENDBRANCH  53  67
BRANCH  54  78
ATOM     78  C   UNL A   1      48.626  27.346  26.030  1.00  0.00     0.023 A 
ATOM     79  C   UNL A   1      48.825  27.540  24.655  1.00  0.00     0.031 A 
ATOM     80  C   UNL A   1      49.724  26.922  26.800  1.00  0.00     0.131 A 
ATOM     81  C   UNL A   1      50.076  27.261  24.082  1.00  0.00     0.055 A 
ATOM     82  C   UNL A   1      50.983  26.706  26.236  1.00  0.00     0.041 A 
ATOM     83  F   UNL A   1      49.591  26.723  28.122  1.00  0.00    -0.206 F 
ATOM     84  C   UNL A   1      51.160  26.862  24.865  1.00  0.00     0.022 A 
BRANCH  81  85
ATOM     85  S   UNL A   1      50.242  27.339  22.277  1.00  0.00     0.124 S 
ATOM     86  O   UNL A   1      49.949  28.744  22.013  1.00  0.00    -0.237 OA
ATOM     87  O   UNL A   1      51.627  26.925  22.081  1.00  0.00    -0.237 OA
ATOM     88  O   UNL A   1      49.236  26.392  21.802  1.00  0.00    -0.744 OA
ENDBRANCH  81  85
ENDBRANCH  54  78
BRANCH  66  89
ATOM     89  C   UNL A   1      45.503  32.798  29.071  1.00  0.00     0.023 A 
ATOM     90  C   UNL A   1      45.351  33.881  28.187  1.00  0.00     0.031 A 
ATOM     91  C   UNL A   1      46.139  33.039  30.303  1.00  0.00     0.131 A 
ATOM     92  C   UNL A   1      45.879  35.138  28.521  1.00  0.00     0.055 A 
ATOM     93  C   UNL A   1      46.602  34.306  30.658  1.00  0.00     0.041 A 
ATOM     94  F   UNL A   1      46.317  32.043  31.185  1.00  0.00    -0.206 F 
ATOM     95  C   UNL A   1      46.487  35.362  29.759  1.00  0.00     0.022 A 
BRANCH  92  96
ATOM     96  S   UNL A   1      45.852  36.455  27.273  1.00  0.00     0.124 S 
ATOM     97  O   UNL A   1      44.573  37.103  27.547  1.00  0.00    -0.237 OA
ATOM     98  O   UNL A   1      47.043  37.228  27.609  1.00  0.00    -0.237 OA
ATOM     99  O   UNL A   1      45.922  35.729  26.007  1.00  0.00    -0.744 OA
ENDBRANCH  92  96
ENDBRANCH  66  89
ENDBRANCH  40  41
ENDBRANCH  32  35
ENDBRANCH  30  31
ENDBRANCH  29  30
ENDBRANCH  28  29
ENDBRANCH   1  28
TORSDOF 20
ENDMDL
MODEL 2
REMARK VINA RESULT:     -11.5      5.342      8.779
REMARK SMILES O=C(CC1(CC(=O)NNc2ccc([N+](=O)[O-])cc2)CCCC1)NCCCCNC(=O)c1ccc(-c2c3nc(c(-c4cc(S(=O)(=O)[O-])ccc4F)c4ccc([nH]4)c(-c4cc(S(=O)(=O)[O-])ccc4F)c4nc(c(-c5cc(S(=O)(=O)[O-])ccc5F)c5ccc2[nH]5)C=C4)C=C3)cc1
REMARK SMILES IDX 24 1 23 2 1 3 2 4 3 6 4 7 19 8 22 9 20 10 21 11 5 12 6 13
REMARK SMILES IDX 7 14 8 15 9 17 10 19 11 20 18 21 12 22 17 23 13 24 14 25
REMARK SMILES IDX 15 26 16 27 25 28 26 29 27 30 28 31 29 32 30 34 31 35 32 36
REMARK SMILES IDX 93 37 33 38 92 39 34 40 35 41 36 42 86 43 37 44 91 45 85 46
REMARK SMILES IDX 87 47 38 48 90 49 84 50 83 51 39 53 71 54 51 55 70 56 52 57
REMARK SMILES IDX 55 58 69 59 88 60 53 61 54 62 68 64 89 65 56 66 40 67 41 68
REMARK SMILES IDX 49 69 42 70 48 71 50 72 47 73 43 74 44 75 45 76 46 77 72 78
REMARK SMILES IDX 73 79 81 80 74 81 80 82 82 83 79 84 75 85 76 86 77 87 78 88
REMARK SMILES IDX 57 89 58 90 66 91 59 92 65 93 67 94 64 95 60 96 61 97 62 98
REMARK SMILES IDX 63 99
REMARK H PARENT 23 5 8 16 9 18 28 33 87 52 55 63
REMARK Flexibility Score: inf
ROOT
ATOM      1  C   UNL A   1      33.953  26.117  25.512  1.00  0.00     0.116 C 
ENDROOT
BRANCH   1   2
ATOM      2  N   UNL A   1      33.682  24.713  25.752  1.00  0.00    -0.356 N 
ATOM      3  O   UNL A   1      35.262  23.895  24.280  1.00  0.00    -0.275 OA
ATOM      4  C   UNL A   1      34.429  23.719  25.164  1.00  0.00     0.220 C 
ATOM      5  H   UNL A   1      32.943  24.463  26.352  1.00  0.00     0.163 HD
BRANCH   4   6
ATOM      6  C   UNL A   1      34.129  22.337  25.701  1.00  0.00     0.107 C 
BRANCH   6   7
ATOM      7  C   UNL A   1      32.983  21.522  25.034  1.00  0.00    -0.012 C 
ATOM      8  C   UNL A   1      32.855  21.940  23.539  1.00  0.00     0.008 C 
ATOM      9  C   UNL A   1      33.452  20.067  24.808  1.00  0.00     0.008 C 
ATOM     10  C   UNL A   1      32.233  20.740  22.823  1.00  0.00     0.001 C 
ATOM     11  C   UNL A   1      32.586  19.523  23.674  1.00  0.00     0.001 C 
BRANCH   7  12
ATOM     12  C   UNL A   1      31.563  21.636  25.681  1.00  0.00     0.109 C 
BRANCH  12  13
ATOM     13  C   UNL A   1      31.139  22.924  26.384  1.00  0.00     0.238 C 
ATOM     14  O   UNL A   1      31.523  23.182  27.527  1.00  0.00    -0.273 OA
ATOM     15  N   UNL A   1      30.409  23.865  25.713  1.00  0.00    -0.270 N 
ATOM     16  H   UNL A   1      29.959  24.572  26.230  1.00  0.00     0.191 HD
BRANCH  15  17
ATOM     17  N   UNL A   1      30.276  23.859  24.339  1.00  0.00    -0.299 N 
ATOM     18  H   UNL A   1      30.189  23.021  23.830  1.00  0.00     0.188 HD
BRANCH  17  19
ATOM     19  C   UNL A   1      30.272  25.112  23.707  1.00  0.00     0.055 A 
ATOM     20  C   UNL A   1      31.292  25.401  22.791  1.00  0.00     0.034 A 
ATOM     21  C   UNL A   1      29.408  26.139  24.107  1.00  0.00     0.034 A 
ATOM     22  C   UNL A   1      31.434  26.680  22.252  1.00  0.00     0.088 A 
ATOM     23  C   UNL A   1      29.543  27.428  23.584  1.00  0.00     0.088 A 
ATOM     24  C   UNL A   1      30.563  27.695  22.661  1.00  0.00     0.269 A 
BRANCH  24  25
ATOM     25  N   UNL A   1      30.746  29.057  22.147  1.00  0.00     0.062 N 
ATOM     26  O   UNL A   1      31.848  29.596  22.320  1.00  0.00    -0.258 OA
ATOM     27  O   UNL A   1      29.785  29.592  21.576  1.00  0.00    -0.258 OA
ENDBRANCH  24  25
ENDBRANCH  17  19
ENDBRANCH  15  17
ENDBRANCH  12  13
ENDBRANCH   7  12
ENDBRANCH   6   7
ENDBRANCH   4   6
ENDBRANCH   1   2
BRANCH   1  28
ATOM     28  C   UNL A   1      32.801  27.017  25.948  1.00  0.00     0.023 C 
BRANCH  28  29
ATOM     29  C   UNL A   1      33.203  28.184  26.857  1.00  0.00     0.023 C 
BRANCH  29  30
ATOM     30  C   UNL A   1      34.062  29.262  26.201  1.00  0.00     0.116 C 
BRANCH  30  31
ATOM     31  N   UNL A   1      33.753  30.595  26.688  1.00  0.00    -0.352 N 
ATOM     32  C   UNL A   1      34.344  31.325  27.693  1.00  0.00     0.251 C 
ATOM     33  H   UNL A   1      33.006  31.045  26.229  1.00  0.00     0.163 HD
ATOM     34  O   UNL A   1      33.814  32.361  28.081  1.00  0.00    -0.269 OA
BRANCH  32  35
ATOM     35  C   UNL A   1      35.598  30.853  28.325  1.00  0.00     0.039 A 
ATOM     36  C   UNL A   1      35.531  29.832  29.278  1.00  0.00     0.014 A 
ATOM     37  C   UNL A   1      36.835  31.415  27.997  1.00  0.00     0.014 A 
ATOM     38  C   UNL A   1      36.706  29.328  29.844  1.00  0.00     0.010 A 
ATOM     39  C   UNL A   1      38.011  30.860  28.504  1.00  0.00     0.010 A 
ATOM     40  C   UNL A   1      37.961  29.806  29.431  1.00  0.00    -0.014 A 
BRANCH  40  41
ATOM     41  C   UNL A   1      39.225  29.211  29.949  1.00  0.00     0.031 A 
ATOM     42  C   UNL A   1      39.916  29.813  31.143  1.00  0.00     0.074 A 
ATOM     43  C   UNL A   1      39.781  28.162  29.311  1.00  0.00     0.049 A 
ATOM     44  N   UNL A   1      41.059  29.487  31.691  1.00  0.00    -0.248 NA
ATOM     45  C   UNL A   1      39.245  30.951  31.787  1.00  0.00     0.031 C 
ATOM     46  C   UNL A   1      39.228  27.508  28.122  1.00  0.00     0.029 A 
ATOM     47  N   UNL A   1      40.937  27.464  29.562  1.00  0.00    -0.354 N 
ATOM     48  C   UNL A   1      41.248  30.380  32.740  1.00  0.00     0.074 A 
ATOM     49  C   UNL A   1      40.134  31.304  32.705  1.00  0.00     0.031 C 
ATOM     50  C   UNL A   1      40.030  26.493  27.764  1.00  0.00     0.029 A 
ATOM     51  C   UNL A   1      41.182  26.454  28.659  1.00  0.00     0.049 A 
ATOM     52  H   UNL A   1      41.535  27.668  30.317  1.00  0.00     0.167 HD
ATOM     53  C   UNL A   1      42.244  30.412  33.662  1.00  0.00     0.034 A 
ATOM     54  C   UNL A   1      42.222  25.602  28.551  1.00  0.00     0.034 A 
ATOM     55  C   UNL A   1      43.349  29.482  33.685  1.00  0.00     0.049 A 
ATOM     56  C   UNL A   1      43.341  25.685  29.560  1.00  0.00     0.074 A 
ATOM     57  C   UNL A   1      44.387  29.401  34.598  1.00  0.00     0.029 A 
ATOM     58  N   UNL A   1      43.567  28.478  32.750  1.00  0.00    -0.354 N 
ATOM     59  N   UNL A   1      43.482  26.511  30.571  1.00  0.00    -0.248 NA
ATOM     60  C   UNL A   1      44.435  24.716  29.417  1.00  0.00     0.031 C 
ATOM     61  C   UNL A   1      45.270  28.403  34.172  1.00  0.00     0.029 A 
ATOM     62  C   UNL A   1      44.740  27.799  33.044  1.00  0.00     0.049 A 
ATOM     63  H   UNL A   1      42.975  28.278  31.989  1.00  0.00     0.167 HD
ATOM     64  C   UNL A   1      44.665  26.135  31.205  1.00  0.00     0.074 A 
ATOM     65  C   UNL A   1      45.187  25.002  30.469  1.00  0.00     0.031 C 
ATOM     66  C   UNL A   1      45.262  26.676  32.298  1.00  0.00     0.034 A 
BRANCH  53  67
ATOM     67  C   UNL A   1      42.192  31.507  34.703  1.00  0.00     0.023 A 
ATOM     68  C   UNL A   1      41.210  31.523  35.709  1.00  0.00     0.031 A 
ATOM     69  C   UNL A   1      43.122  32.562  34.678  1.00  0.00     0.131 A 
ATOM     70  C   UNL A   1      41.128  32.610  36.593  1.00  0.00     0.055 A 
ATOM     71  C   UNL A   1      43.089  33.595  35.618  1.00  0.00     0.041 A 
ATOM     72  F   UNL A   1      44.071  32.617  33.731  1.00  0.00    -0.206 F 
ATOM     73  C   UNL A   1      42.078  33.632  36.573  1.00  0.00     0.022 A 
BRANCH  70  74
ATOM     74  S   UNL A   1      39.668  32.745  37.661  1.00  0.00     0.124 S 
ATOM     75  O   UNL A   1      40.270  32.679  38.992  1.00  0.00    -0.237 OA
ATOM     76  O   UNL A   1      39.112  34.037  37.274  1.00  0.00    -0.237 OA
ATOM     77  O   UNL A   1      38.865  31.582  37.292  1.00  0.00    -0.744 OA
ENDBRANCH  70  74
ENDBRANCH  53  67
BRANCH  54  78
ATOM     78  C   UNL A   1      42.275  24.610  27.436  1.00  0.00     0.023 A 
ATOM     79  C   UNL A   1      41.627  23.370  27.536  1.00  0.00     0.031 A 
ATOM     80  C   UNL A   1      43.013  24.875  26.268  1.00  0.00     0.131 A 
ATOM     81  C   UNL A   1      41.770  22.421  26.512  1.00  0.00     0.055 A 
ATOM     82  C   UNL A   1      43.102  23.951  25.226  1.00  0.00     0.041 A 
ATOM     83  F   UNL A   1      43.652  26.047  26.119  1.00  0.00    -0.206 F 
ATOM     84  C   UNL A   1      42.490  22.709  25.351  1.00  0.00     0.022 A 
BRANCH  81  85
ATOM     85  S   UNL A   1      41.078  20.762  26.761  1.00  0.00     0.124 S 
ATOM     86  O   UNL A   1      39.887  20.809  25.920  1.00  0.00    -0.237 OA
ATOM     87  O   UNL A   1      42.162  19.907  26.291  1.00  0.00    -0.237 OA
ATOM     88  O   UNL A   1      40.825  20.713  28.200  1.00  0.00    -0.744 OA
ENDBRANCH  81  85
ENDBRANCH  54  78
BRANCH  66  89
ATOM     89  C   UNL A   1      46.525  26.013  32.793  1.00  0.00     0.023 A 
ATOM     90  C   UNL A   1      46.496  24.931  33.691  1.00  0.00     0.031 A 
ATOM     91  C   UNL A   1      47.782  26.478  32.364  1.00  0.00     0.131 A 
ATOM     92  C   UNL A   1      47.697  24.391  34.176  1.00  0.00     0.055 A 
ATOM     93  C   UNL A   1      48.972  25.893  32.797  1.00  0.00     0.041 A 
ATOM     94  F   UNL A   1      47.873  27.511  31.511  1.00  0.00    -0.206 F 
ATOM     95  C   UNL A   1      48.934  24.851  33.720  1.00  0.00     0.022 A 
BRANCH  92  96
ATOM     96  S   UNL A   1      47.624  23.140  35.489  1.00  0.00     0.124 S 
ATOM     97  O   UNL A   1      48.575  23.667  36.461  1.00  0.00    -0.237 OA
ATOM     98  O   UNL A   1      46.220  23.184  35.884  1.00  0.00    -0.237 OA
ATOM     99  O   UNL A   1      48.039  21.912  34.815  1.00  0.00    -0.744 OA
ENDBRANCH  92  96
ENDBRANCH  66  89
ENDBRANCH  40  41
ENDBRANCH  32  35
ENDBRANCH  30  31
ENDBRANCH  29  30
ENDBRANCH  28  29
ENDBRANCH   1  28
TORSDOF 20
ENDMDL
MODEL 3
REMARK VINA RESULT:     -11.5      0.624      7.360
REMARK SMILES O=C(CC1(CC(=O)NNc2ccc([N+](=O)[O-])cc2)CCCC1)NCCCCNC(=O)c1ccc(-c2c3nc(c(-c4cc(S(=O)(=O)[O-])ccc4F)c4ccc([nH]4)c(-c4cc(S(=O)(=O)[O-])ccc4F)c4nc(c(-c5cc(S(=O)(=O)[O-])ccc5F)c5ccc2[nH]5)C=C4)C=C3)cc1
REMARK SMILES IDX 24 1 23 2 1 3 2 4 3 6 4 7 19 8 22 9 20 10 21 11 5 12 6 13
REMARK SMILES IDX 7 14 8 15 9 17 10 19 11 20 18 21 12 22 17 23 13 24 14 25
REMARK SMILES IDX 15 26 16 27 25 28 26 29 27 30 28 31 29 32 30 34 31 35 32 36
REMARK SMILES IDX 93 37 33 38 92 39 34 40 35 41 36 42 86 43 37 44 91 45 85 46
REMARK SMILES IDX 87 47 38 48 90 49 84 50 83 51 39 53 71 54 51 55 70 56 52 57
REMARK SMILES IDX 55 58 69 59 88 60 53 61 54 62 68 64 89 65 56 66 40 67 41 68
REMARK SMILES IDX 49 69 42 70 48 71 50 72 47 73 43 74 44 75 45 76 46 77 72 78
REMARK SMILES IDX 73 79 81 80 74 81 80 82 82 83 79 84 75 85 76 86 77 87 78 88
REMARK SMILES IDX 57 89 58 90 66 91 59 92 65 93 67 94 64 95 60 96 61 97 62 98
REMARK SMILES IDX 63 99
REMARK H PARENT 23 5 8 16 9 18 28 33 87 52 55 63
REMARK Flexibility Score: inf
ROOT
ATOM      1  C   UNL A   1      36.612  21.914  24.230  1.00  0.00     0.116 C 
ENDROOT
BRANCH   1   2
ATOM      2  N   UNL A   1      36.090  23.048  24.967  1.00  0.00    -0.356 N 
ATOM      3  O   UNL A   1      34.470  23.627  23.429  1.00  0.00    -0.275 OA
ATOM      4  C   UNL A   1      34.998  23.759  24.529  1.00  0.00     0.220 C 
ATOM      5  H   UNL A   1      36.530  23.317  25.806  1.00  0.00     0.163 HD
BRANCH   4   6
ATOM      6  C   UNL A   1      34.484  24.763  25.535  1.00  0.00     0.107 C 
BRANCH   6   7
ATOM      7  C   UNL A   1      33.155  25.510  25.218  1.00  0.00    -0.012 C 
ATOM      8  C   UNL A   1      32.967  26.680  26.230  1.00  0.00     0.008 C 
ATOM      9  C   UNL A   1      33.336  26.361  23.941  1.00  0.00     0.008 C 
ATOM     10  C   UNL A   1      32.079  27.704  25.521  1.00  0.00     0.001 C 
ATOM     11  C   UNL A   1      32.287  27.467  24.027  1.00  0.00     0.001 C 
BRANCH   7  12
ATOM     12  C   UNL A   1      31.844  24.658  25.231  1.00  0.00     0.109 C 
BRANCH  12  13
ATOM     13  C   UNL A   1      31.668  23.530  26.247  1.00  0.00     0.238 C 
ATOM     14  O   UNL A   1      31.170  23.742  27.354  1.00  0.00    -0.273 OA
ATOM     15  N   UNL A   1      31.966  22.242  25.901  1.00  0.00    -0.270 N 
ATOM     16  H   UNL A   1      32.061  21.570  26.615  1.00  0.00     0.191 HD
BRANCH  15  17
ATOM     17  N   UNL A   1      32.139  21.847  24.589  1.00  0.00    -0.299 N 
ATOM     18  H   UNL A   1      32.117  22.493  23.846  1.00  0.00     0.188 HD
BRANCH  17  19
ATOM     19  C   UNL A   1      32.347  20.477  24.373  1.00  0.00     0.055 A 
ATOM     20  C   UNL A   1      32.950  19.724  25.388  1.00  0.00     0.034 A 
ATOM     21  C   UNL A   1      32.154  19.889  23.116  1.00  0.00     0.034 A 
ATOM     22  C   UNL A   1      33.327  18.397  25.174  1.00  0.00     0.088 A 
ATOM     23  C   UNL A   1      32.536  18.565  22.882  1.00  0.00     0.088 A 
ATOM     24  C   UNL A   1      33.128  17.825  23.914  1.00  0.00     0.269 A 
BRANCH  24  25
ATOM     25  N   UNL A   1      33.580  16.452  23.663  1.00  0.00     0.062 N 
ATOM     26  O   UNL A   1      33.314  15.591  24.513  1.00  0.00    -0.258 OA
ATOM     27  O   UNL A   1      34.210  16.235  22.618  1.00  0.00    -0.258 OA
ENDBRANCH  24  25
ENDBRANCH  17  19
ENDBRANCH  15  17
ENDBRANCH  12  13
ENDBRANCH   7  12
ENDBRANCH   6   7
ENDBRANCH   4   6
ENDBRANCH   1   2
BRANCH   1  28
ATOM     28  C   UNL A   1      36.567  20.621  25.037  1.00  0.00     0.023 C 
BRANCH  28  29
ATOM     29  C   UNL A   1      37.851  19.787  24.993  1.00  0.00     0.023 C 
BRANCH  29  30
ATOM     30  C   UNL A   1      39.051  20.390  25.720  1.00  0.00     0.116 C 
BRANCH  30  31
ATOM     31  N   UNL A   1      40.125  19.431  25.915  1.00  0.00    -0.352 N 
ATOM     32  C   UNL A   1      41.459  19.643  26.179  1.00  0.00     0.251 C 
ATOM     33  H   UNL A   1      39.858  18.485  25.848  1.00  0.00     0.163 HD
ATOM     34  O   UNL A   1      42.244  18.703  26.122  1.00  0.00    -0.269 OA
BRANCH  32  35
ATOM     35  C   UNL A   1      41.952  21.003  26.503  1.00  0.00     0.039 A 
ATOM     36  C   UNL A   1      42.194  21.899  25.458  1.00  0.00     0.014 A 
ATOM     37  C   UNL A   1      42.190  21.395  27.824  1.00  0.00     0.014 A 
ATOM     38  C   UNL A   1      42.602  23.207  25.742  1.00  0.00     0.010 A 
ATOM     39  C   UNL A   1      42.522  22.719  28.109  1.00  0.00     0.010 A 
ATOM     40  C   UNL A   1      42.728  23.643  27.071  1.00  0.00    -0.014 A 
BRANCH  40  41
ATOM     41  C   UNL A   1      43.064  25.059  27.392  1.00  0.00     0.031 A 
ATOM     42  C   UNL A   1      44.468  25.570  27.201  1.00  0.00     0.074 A 
ATOM     43  C   UNL A   1      42.119  25.870  27.908  1.00  0.00     0.049 A 
ATOM     44  N   UNL A   1      44.969  26.743  27.497  1.00  0.00    -0.248 NA
ATOM     45  C   UNL A   1      45.439  24.628  26.629  1.00  0.00     0.031 C 
ATOM     46  C   UNL A   1      40.731  25.486  28.173  1.00  0.00     0.029 A 
ATOM     47  N   UNL A   1      42.180  27.182  28.312  1.00  0.00    -0.354 N 
ATOM     48  C   UNL A   1      46.315  26.679  27.152  1.00  0.00     0.074 A 
ATOM     49  C   UNL A   1      46.562  25.329  26.691  1.00  0.00     0.031 C 
ATOM     50  C   UNL A   1      40.068  26.542  28.670  1.00  0.00     0.029 A 
ATOM     51  C   UNL A   1      40.991  27.663  28.813  1.00  0.00     0.049 A 
ATOM     52  H   UNL A   1      42.997  27.726  28.249  1.00  0.00     0.167 HD
ATOM     53  C   UNL A   1      47.252  27.660  27.192  1.00  0.00     0.034 A 
ATOM     54  C   UNL A   1      40.680  28.863  29.344  1.00  0.00     0.034 A 
ATOM     55  C   UNL A   1      46.990  29.004  27.653  1.00  0.00     0.049 A 
ATOM     56  C   UNL A   1      41.749  29.926  29.421  1.00  0.00     0.074 A 
ATOM     57  C   UNL A   1      47.855  30.084  27.696  1.00  0.00     0.029 A 
ATOM     58  N   UNL A   1      45.776  29.451  28.160  1.00  0.00    -0.354 N 
ATOM     59  N   UNL A   1      43.007  29.860  29.051  1.00  0.00    -0.248 NA
ATOM     60  C   UNL A   1      41.352  31.225  29.978  1.00  0.00     0.031 C 
ATOM     61  C   UNL A   1      47.190  31.157  28.299  1.00  0.00     0.029 A 
ATOM     62  C   UNL A   1      45.883  30.778  28.551  1.00  0.00     0.049 A 
ATOM     63  H   UNL A   1      44.959  28.906  28.233  1.00  0.00     0.167 HD
ATOM     64  C   UNL A   1      43.542  31.123  29.299  1.00  0.00     0.074 A 
ATOM     65  C   UNL A   1      42.466  31.930  29.836  1.00  0.00     0.031 C 
ATOM     66  C   UNL A   1      44.807  31.574  29.098  1.00  0.00     0.034 A 
BRANCH  53  67
ATOM     67  C   UNL A   1      48.652  27.303  26.748  1.00  0.00     0.023 A 
ATOM     68  C   UNL A   1      49.133  27.647  25.473  1.00  0.00     0.031 A 
ATOM     69  C   UNL A   1      49.513  26.590  27.602  1.00  0.00     0.131 A 
ATOM     70  C   UNL A   1      50.398  27.207  25.057  1.00  0.00     0.055 A 
ATOM     71  C   UNL A   1      50.807  26.233  27.214  1.00  0.00     0.041 A 
ATOM     72  F   UNL A   1      49.107  26.212  28.825  1.00  0.00    -0.206 F 
ATOM     73  C   UNL A   1      51.250  26.527  25.929  1.00  0.00     0.022 A 
BRANCH  70  74
ATOM     74  S   UNL A   1      50.848  27.398  23.310  1.00  0.00     0.124 S 
ATOM     75  O   UNL A   1      52.133  26.704  23.260  1.00  0.00    -0.237 OA
ATOM     76  O   UNL A   1      49.739  26.743  22.625  1.00  0.00    -0.237 OA
ATOM     77  O   UNL A   1      50.925  28.846  23.133  1.00  0.00    -0.744 OA
ENDBRANCH  70  74
ENDBRANCH  53  67
BRANCH  54  78
ATOM     78  C   UNL A   1      39.307  29.126  29.867  1.00  0.00     0.023 A 
ATOM     79  C   UNL A   1      38.387  29.896  29.140  1.00  0.00     0.031 A 
ATOM     80  C   UNL A   1      38.911  28.643  31.128  1.00  0.00     0.131 A 
ATOM     81  C   UNL A   1      37.137  30.205  29.698  1.00  0.00     0.055 A 
ATOM     82  C   UNL A   1      37.643  28.902  31.652  1.00  0.00     0.041 A 
ATOM     83  F   UNL A   1      39.751  27.900  31.867  1.00  0.00    -0.206 F 
ATOM     84  C   UNL A   1      36.752  29.699  30.941  1.00  0.00     0.022 A 
BRANCH  81  85
ATOM     85  S   UNL A   1      36.051  31.357  28.813  1.00  0.00     0.124 S 
ATOM     86  O   UNL A   1      36.965  32.452  28.510  1.00  0.00    -0.237 OA
ATOM     87  O   UNL A   1      35.614  30.552  27.677  1.00  0.00    -0.237 OA
ATOM     88  O   UNL A   1      35.011  31.665  29.793  1.00  0.00    -0.744 OA
ENDBRANCH  81  85
ENDBRANCH  54  78
BRANCH  66  89
ATOM     89  C   UNL A   1      45.080  33.025  29.416  1.00  0.00     0.023 A 
ATOM     90  C   UNL A   1      45.031  34.026  28.429  1.00  0.00     0.031 A 
ATOM     91  C   UNL A   1      45.404  33.412  30.729  1.00  0.00     0.131 A 
ATOM     92  C   UNL A   1      45.358  35.350  28.757  1.00  0.00     0.055 A 
ATOM     93  C   UNL A   1      45.663  34.741  31.064  1.00  0.00     0.041 A 
ATOM     94  F   UNL A   1      45.472  32.500  31.713  1.00  0.00    -0.206 F 
ATOM     95  C   UNL A   1      45.655  35.718  30.071  1.00  0.00     0.022 A 
BRANCH  92  96
ATOM     96  S   UNL A   1      45.488  36.573  27.423  1.00  0.00     0.124 S 
ATOM     97  O   UNL A   1      46.010  35.767  26.324  1.00  0.00    -0.237 OA
ATOM     98  O   UNL A   1      44.109  37.027  27.279  1.00  0.00    -0.237 OA
ATOM     99  O   UNL A   1      46.415  37.567  27.958  1.00  0.00    -0.744 OA
ENDBRANCH  92  96
ENDBRANCH  66  89
ENDBRANCH  40  41
ENDBRANCH  32  35
ENDBRANCH  30  31
ENDBRANCH  29  30
ENDBRANCH  28  29
ENDBRANCH   1  28
TORSDOF 20
ENDMDL
