MODEL 1
REMARK VINA RESULT:     -12.7      0.000      0.000
REMARK SMILES O=C(NCCCCNC(=O)[C@@H]1[C@@H](C(=O)NCCn2cc(Cl)cn2)[C@H]2CC[C@@H]1O2)c1ccc(-c2c3nc(c(-c4cc(S(=O)(=O)[O-])ccc4F)c4ccc([nH]4)c(-c4cc(S(=O)(=O)[O-])ccc4F)c4nc(c(-c5cc(S(=O)(=O)[O-])ccc5F)c5ccc2[nH]5)C=C4)C=C3)cc1
REMARK SMILES IDX 6 1 5 2 4 3 3 4 1 5 2 6 29 8 30 9 91 10 31 11 90 12 32 13
REMARK SMILES IDX 33 14 34 15 84 16 35 17 89 18 83 19 85 20 36 21 88 22 82 23
REMARK SMILES IDX 81 24 37 26 69 27 49 28 68 29 50 30 53 31 67 32 86 33 51 34
REMARK SMILES IDX 52 35 66 37 87 38 54 39 38 40 39 41 47 42 40 43 46 44 48 45
REMARK SMILES IDX 45 46 41 47 42 48 43 49 44 50 70 51 71 52 79 53 72 54 78 55
REMARK SMILES IDX 80 56 77 57 73 58 74 59 75 60 76 61 55 62 56 63 64 64 57 65
REMARK SMILES IDX 63 66 65 67 62 68 58 69 59 70 60 71 61 72 7 73 8 74 9 75
REMARK SMILES IDX 10 77 11 78 12 79 27 80 24 81 26 82 28 83 25 84 13 85 14 86
REMARK SMILES IDX 15 87 16 89 17 90 18 91 19 92 23 93 20 94 22 95 21 96
REMARK H PARENT 3 7 85 25 53 36 8 76 15 88
REMARK Flexibility Score: inf
ROOT
ATOM      1  C   UNL A   1      31.662  28.273  27.425  1.00  0.00     0.023 C 
ENDROOT
BRANCH   1   2
ATOM      2  C   UNL A   1      31.901  29.648  26.810  1.00  0.00     0.023 C 
BRANCH   2   3
ATOM      3  C   UNL A   1      33.356  30.114  26.752  1.00  0.00     0.116 C 
BRANCH   3   4
ATOM      4  N   UNL A   1      33.666  31.307  27.514  1.00  0.00    -0.352 N 
ATOM      5  O   UNL A   1      34.723  32.989  28.470  1.00  0.00    -0.269 OA
ATOM      6  C   UNL A   1      34.803  31.821  28.078  1.00  0.00     0.251 C 
ATOM      7  H   UNL A   1      32.878  31.880  27.660  1.00  0.00     0.163 HD
BRANCH   6   8
ATOM      8  C   UNL A   1      36.067  31.066  28.306  1.00  0.00     0.039 A 
ATOM      9  C   UNL A   1      36.279  29.724  27.996  1.00  0.00     0.014 A 
ATOM     10  C   UNL A   1      37.115  31.784  28.916  1.00  0.00     0.014 A 
ATOM     11  C   UNL A   1      37.460  29.089  28.381  1.00  0.00     0.010 A 
ATOM     12  C   UNL A   1      38.305  31.161  29.283  1.00  0.00     0.010 A 
ATOM     13  C   UNL A   1      38.463  29.798  29.049  1.00  0.00    -0.014 A 
BRANCH  13  14
ATOM     14  C   UNL A   1      39.736  29.120  29.307  1.00  0.00     0.031 A 
ATOM     15  C   UNL A   1      40.091  29.021  30.756  1.00  0.00     0.074 A 
ATOM     16  C   UNL A   1      40.483  28.501  28.366  1.00  0.00     0.049 A 
ATOM     17  N   UNL A   1      41.129  29.495  31.364  1.00  0.00    -0.248 NA
ATOM     18  C   UNL A   1      39.099  28.420  31.664  1.00  0.00     0.031 C 
ATOM     19  C   UNL A   1      40.159  28.274  26.957  1.00  0.00     0.029 A 
ATOM     20  N   UNL A   1      41.678  27.854  28.509  1.00  0.00    -0.354 N 
ATOM     21  C   UNL A   1      41.023  29.093  32.695  1.00  0.00     0.074 A 
ATOM     22  C   UNL A   1      39.693  28.565  32.848  1.00  0.00     0.031 C 
ATOM     23  C   UNL A   1      41.018  27.365  26.437  1.00  0.00     0.029 A 
ATOM     24  C   UNL A   1      42.034  27.046  27.430  1.00  0.00     0.049 A 
ATOM     25  H   UNL A   1      42.243  27.951  29.308  1.00  0.00     0.167 HD
ATOM     26  C   UNL A   1      42.100  29.065  33.530  1.00  0.00     0.034 A 
ATOM     27  C   UNL A   1      43.057  26.147  27.368  1.00  0.00     0.034 A 
ATOM     28  C   UNL A   1      43.163  29.908  33.040  1.00  0.00     0.049 A 
ATOM     29  C   UNL A   1      44.038  26.535  28.409  1.00  0.00     0.074 A 
ATOM     30  C   UNL A   1      43.274  31.260  32.778  1.00  0.00     0.029 A 
ATOM     31  N   UNL A   1      44.213  29.321  32.372  1.00  0.00    -0.354 N 
ATOM     32  N   UNL A   1      44.720  27.646  28.367  1.00  0.00    -0.248 NA
ATOM     33  C   UNL A   1      43.906  25.937  29.729  1.00  0.00     0.031 C 
ATOM     34  C   UNL A   1      44.024  31.335  31.567  1.00  0.00     0.029 A 
ATOM     35  C   UNL A   1      44.398  30.037  31.212  1.00  0.00     0.049 A 
ATOM     36  H   UNL A   1      44.733  28.540  32.669  1.00  0.00     0.167 HD
ATOM     37  C   UNL A   1      44.720  28.114  29.672  1.00  0.00     0.074 A 
ATOM     38  C   UNL A   1      44.282  26.977  30.480  1.00  0.00     0.031 C 
ATOM     39  C   UNL A   1      44.807  29.450  29.950  1.00  0.00     0.034 A 
BRANCH  26  40
ATOM     40  C   UNL A   1      42.305  28.055  34.638  1.00  0.00     0.023 A 
ATOM     41  C   UNL A   1      43.039  26.886  34.350  1.00  0.00     0.031 A 
ATOM     42  C   UNL A   1      41.596  28.048  35.861  1.00  0.00     0.131 A 
ATOM     43  C   UNL A   1      42.992  25.772  35.209  1.00  0.00     0.055 A 
ATOM     44  C   UNL A   1      41.604  26.962  36.741  1.00  0.00     0.041 A 
ATOM     45  F   UNL A   1      40.781  29.044  36.227  1.00  0.00    -0.206 F 
ATOM     46  C   UNL A   1      42.281  25.805  36.406  1.00  0.00     0.022 A 
BRANCH  43  47
ATOM     47  S   UNL A   1      43.737  24.212  34.659  1.00  0.00     0.124 S 
ATOM     48  O   UNL A   1      44.335  24.599  33.387  1.00  0.00    -0.237 OA
ATOM     49  O   UNL A   1      44.665  23.921  35.746  1.00  0.00    -0.237 OA
ATOM     50  O   UNL A   1      42.593  23.308  34.558  1.00  0.00    -0.744 OA
ENDBRANCH  43  47
ENDBRANCH  26  40
BRANCH  27  51
ATOM     51  C   UNL A   1      43.043  24.796  26.727  1.00  0.00     0.023 A 
ATOM     52  C   UNL A   1      44.035  24.347  25.824  1.00  0.00     0.031 A 
ATOM     53  C   UNL A   1      42.151  23.817  27.219  1.00  0.00     0.131 A 
ATOM     54  C   UNL A   1      44.096  22.979  25.450  1.00  0.00     0.055 A 
ATOM     55  C   UNL A   1      42.218  22.472  26.849  1.00  0.00     0.041 A 
ATOM     56  F   UNL A   1      41.234  24.120  28.151  1.00  0.00    -0.206 F 
ATOM     57  C   UNL A   1      43.196  22.045  25.968  1.00  0.00     0.022 A 
BRANCH  54  58
ATOM     58  S   UNL A   1      45.407  22.366  24.335  1.00  0.00     0.124 S 
ATOM     59  O   UNL A   1      46.284  21.646  25.251  1.00  0.00    -0.237 OA
ATOM     60  O   UNL A   1      44.657  21.555  23.382  1.00  0.00    -0.237 OA
ATOM     61  O   UNL A   1      45.981  23.590  23.774  1.00  0.00    -0.744 OA
ENDBRANCH  54  58
ENDBRANCH  27  51
BRANCH  39  62
ATOM     62  C   UNL A   1      45.147  30.403  28.817  1.00  0.00     0.023 A 
ATOM     63  C   UNL A   1      46.451  30.849  28.494  1.00  0.00     0.031 A 
ATOM     64  C   UNL A   1      44.103  30.781  27.954  1.00  0.00     0.131 A 
ATOM     65  C   UNL A   1      46.664  31.652  27.355  1.00  0.00     0.055 A 
ATOM     66  C   UNL A   1      44.320  31.555  26.815  1.00  0.00     0.041 A 
ATOM     67  F   UNL A   1      42.844  30.371  28.187  1.00  0.00    -0.206 F 
ATOM     68  C   UNL A   1      45.603  31.999  26.513  1.00  0.00     0.022 A 
BRANCH  65  69
ATOM     69  S   UNL A   1      48.329  32.277  26.949  1.00  0.00     0.124 S 
ATOM     70  O   UNL A   1      48.080  33.254  25.896  1.00  0.00    -0.237 OA
ATOM     71  O   UNL A   1      48.787  32.814  28.227  1.00  0.00    -0.237 OA
ATOM     72  O   UNL A   1      49.044  31.078  26.508  1.00  0.00    -0.744 OA
ENDBRANCH  65  69
ENDBRANCH  39  62
ENDBRANCH  13  14
ENDBRANCH   6   8
ENDBRANCH   3   4
ENDBRANCH   2   3
ENDBRANCH   1   2
BRANCH   1  73
ATOM     73  C   UNL A   1      31.907  27.071  26.528  1.00  0.00     0.116 C 
BRANCH  73  74
ATOM     74  N   UNL A   1      31.257  25.833  26.932  1.00  0.00    -0.356 N 
ATOM     75  C   UNL A   1      31.467  24.532  26.579  1.00  0.00     0.226 C 
ATOM     76  H   UNL A   1      30.529  25.957  27.583  1.00  0.00     0.163 HD
ATOM     77  O   UNL A   1      30.857  23.681  27.241  1.00  0.00    -0.275 OA
BRANCH  75  78
ATOM     78  C   UNL A   1      32.309  24.061  25.388  1.00  0.00     0.122 C 
ATOM     79  C   UNL A   1      32.292  24.925  24.128  1.00  0.00     0.122 C 
ATOM     80  C   UNL A   1      31.731  22.733  24.885  1.00  0.00     0.132 C 
ATOM     81  C   UNL A   1      31.641  23.970  23.108  1.00  0.00     0.132 C 
ATOM     82  C   UNL A   1      32.703  22.022  23.937  1.00  0.00     0.035 C 
ATOM     83  O   UNL A   1      30.740  23.201  23.941  1.00  0.00    -0.373 OA
ATOM     84  C   UNL A   1      32.573  22.850  22.656  1.00  0.00     0.035 C 
BRANCH  79  85
ATOM     85  C   UNL A   1      33.607  25.466  23.617  1.00  0.00     0.226 C 
ATOM     86  O   UNL A   1      34.688  24.960  23.863  1.00  0.00    -0.275 OA
ATOM     87  N   UNL A   1      33.540  26.595  22.833  1.00  0.00    -0.354 N 
ATOM     88  H   UNL A   1      34.405  26.932  22.507  1.00  0.00     0.163 HD
BRANCH  87  89
ATOM     89  C   UNL A   1      32.367  27.370  22.413  1.00  0.00     0.139 C 
BRANCH  89  90
ATOM     90  C   UNL A   1      32.027  28.523  23.353  1.00  0.00     0.165 C 
BRANCH  90  91
ATOM     91  N   UNL A   1      30.659  28.966  23.185  1.00  0.00    -0.269 N 
ATOM     92  C   UNL A   1      30.081  30.065  23.749  1.00  0.00     0.129 A 
ATOM     93  N   UNL A   1      29.842  28.295  22.350  1.00  0.00    -0.180 NA
ATOM     94  C   UNL A   1      28.802  30.107  23.253  1.00  0.00     0.079 A 
ATOM     95  C   UNL A   1      28.703  28.994  22.401  1.00  0.00     0.155 A 
ATOM     96  Cl  UNL A   1      27.594  31.245  23.570  1.00  0.00    -0.081 Cl
ENDBRANCH  90  91
ENDBRANCH  89  90
ENDBRANCH  87  89
ENDBRANCH  79  85
ENDBRANCH  75  78
ENDBRANCH  73  74
ENDBRANCH   1  73
TORSDOF 18
ENDMDL
MODEL 2
REMARK VINA RESULT:     -12.5      3.470      8.086
REMARK SMILES O=C(NCCCCNC(=O)[C@@H]1[C@@H](C(=O)NCCn2cc(Cl)cn2)[C@H]2CC[C@@H]1O2)c1ccc(-c2c3nc(c(-c4cc(S(=O)(=O)[O-])ccc4F)c4ccc([nH]4)c(-c4cc(S(=O)(=O)[O-])ccc4F)c4nc(c(-c5cc(S(=O)(=O)[O-])ccc5F)c5ccc2[nH]5)C=C4)C=C3)cc1
REMARK SMILES IDX 6 1 5 2 4 3 3 4 1 5 2 6 29 8 30 9 91 10 31 11 90 12 32 13
REMARK SMILES IDX 33 14 34 15 84 16 35 17 89 18 83 19 85 20 36 21 88 22 82 23
REMARK SMILES IDX 81 24 37 26 69 27 49 28 68 29 50 30 53 31 67 32 86 33 51 34
REMARK SMILES IDX 52 35 66 37 87 38 54 39 38 40 39 41 47 42 40 43 46 44 48 45
REMARK SMILES IDX 45 46 41 47 42 48 43 49 44 50 70 51 71 52 79 53 72 54 78 55
REMARK SMILES IDX 80 56 77 57 73 58 74 59 75 60 76 61 55 62 56 63 64 64 57 65
REMARK SMILES IDX 63 66 65 67 62 68 58 69 59 70 60 71 61 72 7 73 8 74 9 75
REMARK SMILES IDX 10 77 11 78 12 79 27 80 24 81 26 82 28 83 25 84 13 85 14 86
REMARK SMILES IDX 15 87 16 89 17 90 18 91 19 92 23 93 20 94 22 95 21 96
REMARK H PARENT 3 7 85 25 53 36 8 76 15 88
REMARK Flexibility Score: inf
ROOT
ATOM      1  C   UNL A   1      32.557  27.989  27.118  1.00  0.00     0.023 C 
ENDROOT
BRANCH   1   2
ATOM      2  C   UNL A   1      33.577  28.755  26.282  1.00  0.00     0.023 C 
BRANCH   2   3
ATOM      3  C   UNL A   1      34.989  28.844  26.862  1.00  0.00     0.116 C 
BRANCH   3   4
ATOM      4  N   UNL A   1      35.085  29.379  28.206  1.00  0.00    -0.352 N 
ATOM      5  O   UNL A   1      35.803  30.369  30.040  1.00  0.00    -0.269 OA
ATOM      6  C   UNL A   1      36.121  29.738  29.027  1.00  0.00     0.251 C 
ATOM      7  H   UNL A   1      34.203  29.516  28.624  1.00  0.00     0.163 HD
BRANCH   6   8
ATOM      8  C   UNL A   1      37.549  29.368  28.822  1.00  0.00     0.039 A 
ATOM      9  C   UNL A   1      38.325  29.708  27.716  1.00  0.00     0.014 A 
ATOM     10  C   UNL A   1      38.136  28.582  29.834  1.00  0.00     0.014 A 
ATOM     11  C   UNL A   1      39.611  29.189  27.570  1.00  0.00     0.010 A 
ATOM     12  C   UNL A   1      39.428  28.079  29.704  1.00  0.00     0.010 A 
ATOM     13  C   UNL A   1      40.155  28.352  28.550  1.00  0.00    -0.014 A 
BRANCH  13  14
ATOM     14  C   UNL A   1      41.558  27.948  28.415  1.00  0.00     0.031 A 
ATOM     15  C   UNL A   1      41.749  26.631  27.734  1.00  0.00     0.074 A 
ATOM     16  C   UNL A   1      42.617  28.724  28.733  1.00  0.00     0.049 A 
ATOM     17  N   UNL A   1      42.309  25.561  28.196  1.00  0.00    -0.248 NA
ATOM     18  C   UNL A   1      41.125  26.447  26.413  1.00  0.00     0.031 C 
ATOM     19  C   UNL A   1      42.618  30.125  29.159  1.00  0.00     0.029 A 
ATOM     20  N   UNL A   1      43.949  28.434  28.650  1.00  0.00    -0.354 N 
ATOM     21  C   UNL A   1      42.283  24.626  27.161  1.00  0.00     0.074 A 
ATOM     22  C   UNL A   1      41.421  25.174  26.149  1.00  0.00     0.031 C 
ATOM     23  C   UNL A   1      43.877  30.618  29.085  1.00  0.00     0.029 A 
ATOM     24  C   UNL A   1      44.792  29.540  28.739  1.00  0.00     0.049 A 
ATOM     25  H   UNL A   1      44.286  27.516  28.538  1.00  0.00     0.167 HD
ATOM     26  C   UNL A   1      43.115  23.546  27.142  1.00  0.00     0.034 A 
ATOM     27  C   UNL A   1      46.134  29.582  28.502  1.00  0.00     0.034 A 
ATOM     28  C   UNL A   1      43.625  23.255  28.459  1.00  0.00     0.049 A 
ATOM     29  C   UNL A   1      46.644  28.198  28.652  1.00  0.00     0.074 A 
ATOM     30  C   UNL A   1      43.039  22.909  29.662  1.00  0.00     0.029 A 
ATOM     31  N   UNL A   1      44.893  23.680  28.782  1.00  0.00    -0.354 N 
ATOM     32  N   UNL A   1      46.642  27.556  29.788  1.00  0.00    -0.248 NA
ATOM     33  C   UNL A   1      46.700  27.359  27.466  1.00  0.00     0.031 C 
ATOM     34  C   UNL A   1      43.767  23.641  30.645  1.00  0.00     0.029 A 
ATOM     35  C   UNL A   1      44.802  24.319  29.996  1.00  0.00     0.049 A 
ATOM     36  H   UNL A   1      45.709  23.549  28.247  1.00  0.00     0.167 HD
ATOM     37  C   UNL A   1      46.252  26.265  29.468  1.00  0.00     0.074 A 
ATOM     38  C   UNL A   1      46.389  26.180  28.014  1.00  0.00     0.031 C 
ATOM     39  C   UNL A   1      45.595  25.476  30.369  1.00  0.00     0.034 A 
BRANCH  26  40
ATOM     40  C   UNL A   1      43.695  22.928  25.889  1.00  0.00     0.023 A 
ATOM     41  C   UNL A   1      43.610  21.530  25.730  1.00  0.00     0.031 A 
ATOM     42  C   UNL A   1      44.557  23.595  24.988  1.00  0.00     0.131 A 
ATOM     43  C   UNL A   1      44.398  20.860  24.776  1.00  0.00     0.055 A 
ATOM     44  C   UNL A   1      45.290  22.932  24.001  1.00  0.00     0.041 A 
ATOM     45  F   UNL A   1      44.814  24.905  25.074  1.00  0.00    -0.206 F 
ATOM     46  C   UNL A   1      45.237  21.554  23.907  1.00  0.00     0.022 A 
BRANCH  43  47
ATOM     47  S   UNL A   1      44.445  19.046  24.798  1.00  0.00     0.124 S 
ATOM     48  O   UNL A   1      44.742  18.738  23.404  1.00  0.00    -0.237 OA
ATOM     49  O   UNL A   1      45.512  18.784  25.758  1.00  0.00    -0.237 OA
ATOM     50  O   UNL A   1      43.102  18.678  25.244  1.00  0.00    -0.744 OA
ENDBRANCH  43  47
ENDBRANCH  26  40
BRANCH  27  51
ATOM     51  C   UNL A   1      46.902  30.660  27.806  1.00  0.00     0.023 A 
ATOM     52  C   UNL A   1      46.293  31.731  27.110  1.00  0.00     0.031 A 
ATOM     53  C   UNL A   1      48.289  30.775  28.049  1.00  0.00     0.131 A 
ATOM     54  C   UNL A   1      47.068  32.843  26.689  1.00  0.00     0.055 A 
ATOM     55  C   UNL A   1      49.045  31.873  27.634  1.00  0.00     0.041 A 
ATOM     56  F   UNL A   1      48.943  29.860  28.781  1.00  0.00    -0.206 F 
ATOM     57  C   UNL A   1      48.436  32.917  26.958  1.00  0.00     0.022 A 
BRANCH  54  58
ATOM     58  S   UNL A   1      46.292  34.266  25.846  1.00  0.00     0.124 S 
ATOM     59  O   UNL A   1      45.175  33.643  25.146  1.00  0.00    -0.237 OA
ATOM     60  O   UNL A   1      45.953  35.145  26.958  1.00  0.00    -0.237 OA
ATOM     61  O   UNL A   1      47.355  34.769  24.973  1.00  0.00    -0.744 OA
ENDBRANCH  54  58
ENDBRANCH  27  51
BRANCH  39  62
ATOM     62  C   UNL A   1      45.508  25.943  31.811  1.00  0.00     0.023 A 
ATOM     63  C   UNL A   1      44.372  26.548  32.402  1.00  0.00     0.031 A 
ATOM     64  C   UNL A   1      46.595  25.651  32.655  1.00  0.00     0.131 A 
ATOM     65  C   UNL A   1      44.363  26.847  33.780  1.00  0.00     0.055 A 
ATOM     66  C   UNL A   1      46.574  25.926  34.021  1.00  0.00     0.041 A 
ATOM     67  F   UNL A   1      47.695  25.054  32.165  1.00  0.00    -0.206 F 
ATOM     68  C   UNL A   1      45.459  26.532  34.589  1.00  0.00     0.022 A 
BRANCH  65  69
ATOM     69  S   UNL A   1      42.928  27.670  34.550  1.00  0.00     0.124 S 
ATOM     70  O   UNL A   1      43.378  27.937  35.910  1.00  0.00    -0.237 OA
ATOM     71  O   UNL A   1      42.737  28.839  33.697  1.00  0.00    -0.237 OA
ATOM     72  O   UNL A   1      41.866  26.667  34.447  1.00  0.00    -0.744 OA
ENDBRANCH  65  69
ENDBRANCH  39  62
ENDBRANCH  13  14
ENDBRANCH   6   8
ENDBRANCH   3   4
ENDBRANCH   2   3
ENDBRANCH   1   2
BRANCH   1  73
ATOM     73  C   UNL A   1      31.384  27.375  26.372  1.00  0.00     0.116 C 
BRANCH  73  74
ATOM     74  N   UNL A   1      30.974  26.050  26.812  1.00  0.00    -0.356 N 
ATOM     75  C   UNL A   1      31.472  24.806  26.557  1.00  0.00     0.226 C 
ATOM     76  H   UNL A   1      30.188  26.051  27.406  1.00  0.00     0.163 HD
ATOM     77  O   UNL A   1      31.002  23.880  27.232  1.00  0.00    -0.275 OA
BRANCH  75  78
ATOM     78  C   UNL A   1      32.482  24.463  25.456  1.00  0.00     0.122 C 
ATOM     79  C   UNL A   1      32.638  22.989  25.078  1.00  0.00     0.122 C 
ATOM     80  C   UNL A   1      33.884  24.824  25.958  1.00  0.00     0.132 C 
ATOM     81  C   UNL A   1      34.099  22.720  25.488  1.00  0.00     0.132 C 
ATOM     82  C   UNL A   1      34.902  24.843  24.812  1.00  0.00     0.035 C 
ATOM     83  O   UNL A   1      34.264  23.599  26.626  1.00  0.00    -0.373 OA
ATOM     84  C   UNL A   1      35.113  23.352  24.540  1.00  0.00     0.035 C 
BRANCH  79  85
ATOM     85  C   UNL A   1      32.384  22.592  23.643  1.00  0.00     0.226 C 
ATOM     86  O   UNL A   1      32.271  23.390  22.729  1.00  0.00    -0.275 OA
ATOM     87  N   UNL A   1      32.279  21.243  23.392  1.00  0.00    -0.354 N 
ATOM     88  H   UNL A   1      32.116  21.002  22.452  1.00  0.00     0.163 HD
BRANCH  87  89
ATOM     89  C   UNL A   1      32.374  20.112  24.323  1.00  0.00     0.139 C 
BRANCH  89  90
ATOM     90  C   UNL A   1      33.792  19.574  24.489  1.00  0.00     0.165 C 
BRANCH  90  91
ATOM     91  N   UNL A   1      33.800  18.149  24.739  1.00  0.00    -0.269 N 
ATOM     92  C   UNL A   1      32.769  17.399  25.223  1.00  0.00     0.129 A 
ATOM     93  N   UNL A   1      34.892  17.426  24.423  1.00  0.00    -0.180 NA
ATOM     94  C   UNL A   1      33.224  16.103  25.229  1.00  0.00     0.079 A 
ATOM     95  C   UNL A   1      34.537  16.175  24.733  1.00  0.00     0.155 A 
ATOM     96  Cl  UNL A   1      32.402  14.708  25.711  1.00  0.00    -0.081 Cl
ENDBRANCH  90  91
ENDBRANCH  89  90
ENDBRANCH  87  89
ENDBRANCH  79  85
ENDBRANCH  75  78
ENDBRANCH  73  74
ENDBRANCH   1  73
TORSDOF 18
ENDMDL
MODEL 3
REMARK VINA RESULT:     -12.5      3.164      7.790
REMARK SMILES O=C(NCCCCNC(=O)[C@@H]1[C@@H](C(=O)NCCn2cc(Cl)cn2)[C@H]2CC[C@@H]1O2)c1ccc(-c2c3nc(c(-c4cc(S(=O)(=O)[O-])ccc4F)c4ccc([nH]4)c(-c4cc(S(=O)(=O)[O-])ccc4F)c4nc(c(-c5cc(S(=O)(=O)[O-])ccc5F)c5ccc2[nH]5)C=C4)C=C3)cc1
REMARK SMILES IDX 6 1 5 2 4 3 3 4 1 5 2 6 29 8 30 9 91 10 31 11 90 12 32 13
REMARK SMILES IDX 33 14 34 15 84 16 35 17 89 18 83 19 85 20 36 21 88 22 82 23
REMARK SMILES IDX 81 24 37 26 69 27 49 28 68 29 50 30 53 31 67 32 86 33 51 34
REMARK SMILES IDX 52 35 66 37 87 38 54 39 38 40 39 41 47 42 40 43 46 44 48 45
REMARK SMILES IDX 45 46 41 47 42 48 43 49 44 50 70 51 71 52 79 53 72 54 78 55
REMARK SMILES IDX 80 56 77 57 73 58 74 59 75 60 76 61 55 62 56 63 64 64 57 65
REMARK SMILES IDX 63 66 65 67 62 68 58 69 59 70 60 71 61 72 7 73 8 74 9 75
REMARK SMILES IDX 10 77 11 78 12 79 27 80 24 81 26 82 28 83 25 84 13 85 14 86
REMARK SMILES IDX 15 87 16 89 17 90 18 91 19 92 23 93 20 94 22 95 21 96
REMARK H PARENT 3 7 85 25 53 36 8 76 15 88
REMARK Flexibility Score: inf
ROOT
ATOM      1  C   UNL A   1      32.582  29.034  27.199  1.00  0.00     0.023 C 
ENDROOT
BRANCH   1   2
ATOM      2  C   UNL A   1      33.970  28.496  26.868  1.00  0.00     0.023 C 
BRANCH   2   3
ATOM      3  C   UNL A   1      35.149  29.360  27.314  1.00  0.00     0.116 C 
BRANCH   3   4
ATOM      4  N   UNL A   1      35.258  29.587  28.742  1.00  0.00    -0.352 N 
ATOM      5  O   UNL A   1      36.005  30.128  30.745  1.00  0.00    -0.269 OA
ATOM      6  C   UNL A   1      36.303  29.717  29.618  1.00  0.00     0.251 C 
ATOM      7  H   UNL A   1      34.381  29.666  29.182  1.00  0.00     0.163 HD
BRANCH   6   8
ATOM      8  C   UNL A   1      37.716  29.343  29.334  1.00  0.00     0.039 A 
ATOM      9  C   UNL A   1      38.489  29.826  28.281  1.00  0.00     0.014 A 
ATOM     10  C   UNL A   1      38.290  28.393  30.203  1.00  0.00     0.014 A 
ATOM     11  C   UNL A   1      39.757  29.300  28.036  1.00  0.00     0.010 A 
ATOM     12  C   UNL A   1      39.564  27.878  29.976  1.00  0.00     0.010 A 
ATOM     13  C   UNL A   1      40.286  28.306  28.866  1.00  0.00    -0.014 A 
BRANCH  13  14
ATOM     14  C   UNL A   1      41.673  27.886  28.646  1.00  0.00     0.031 A 
ATOM     15  C   UNL A   1      41.809  26.578  27.936  1.00  0.00     0.074 A 
ATOM     16  C   UNL A   1      42.758  28.645  28.916  1.00  0.00     0.049 A 
ATOM     17  N   UNL A   1      42.380  25.494  28.350  1.00  0.00    -0.248 NA
ATOM     18  C   UNL A   1      41.110  26.422  26.649  1.00  0.00     0.031 C 
ATOM     19  C   UNL A   1      42.802  30.039  29.362  1.00  0.00     0.029 A 
ATOM     20  N   UNL A   1      44.080  28.339  28.754  1.00  0.00    -0.354 N 
ATOM     21  C   UNL A   1      42.284  24.576  27.304  1.00  0.00     0.074 A 
ATOM     22  C   UNL A   1      41.374  25.150  26.350  1.00  0.00     0.031 C 
ATOM     23  C   UNL A   1      44.061  30.517  29.225  1.00  0.00     0.029 A 
ATOM     24  C   UNL A   1      44.941  29.434  28.812  1.00  0.00     0.049 A 
ATOM     25  H   UNL A   1      44.399  27.420  28.609  1.00  0.00     0.167 HD
ATOM     26  C   UNL A   1      43.099  23.486  27.222  1.00  0.00     0.034 A 
ATOM     27  C   UNL A   1      46.268  29.464  28.501  1.00  0.00     0.034 A 
ATOM     28  C   UNL A   1      43.679  23.169  28.504  1.00  0.00     0.049 A 
ATOM     29  C   UNL A   1      46.767  28.072  28.601  1.00  0.00     0.074 A 
ATOM     30  C   UNL A   1      43.157  22.811  29.733  1.00  0.00     0.029 A 
ATOM     31  N   UNL A   1      44.969  23.573  28.762  1.00  0.00    -0.354 N 
ATOM     32  N   UNL A   1      46.821  27.412  29.726  1.00  0.00    -0.248 NA
ATOM     33  C   UNL A   1      46.746  27.250  27.401  1.00  0.00     0.031 C 
ATOM     34  C   UNL A   1      43.948  23.519  30.684  1.00  0.00     0.029 A 
ATOM     35  C   UNL A   1      44.954  24.194  29.989  1.00  0.00     0.049 A 
ATOM     36  H   UNL A   1      45.751  23.441  28.180  1.00  0.00     0.167 HD
ATOM     37  C   UNL A   1      46.397  26.131  29.409  1.00  0.00     0.074 A 
ATOM     38  C   UNL A   1      46.451  26.067  27.949  1.00  0.00     0.031 C 
ATOM     39  C   UNL A   1      45.781  25.336  30.334  1.00  0.00     0.034 A 
BRANCH  26  40
ATOM     40  C   UNL A   1      43.600  22.881  25.929  1.00  0.00     0.023 A 
ATOM     41  C   UNL A   1      43.698  21.477  25.841  1.00  0.00     0.031 A 
ATOM     42  C   UNL A   1      44.239  23.606  24.896  1.00  0.00     0.131 A 
ATOM     43  C   UNL A   1      44.449  20.867  24.818  1.00  0.00     0.055 A 
ATOM     44  C   UNL A   1      44.930  22.992  23.849  1.00  0.00     0.041 A 
ATOM     45  F   UNL A   1      44.314  24.941  24.894  1.00  0.00    -0.206 F 
ATOM     46  C   UNL A   1      45.063  21.617  23.819  1.00  0.00     0.022 A 
BRANCH  43  47
ATOM     47  S   UNL A   1      44.758  19.081  24.908  1.00  0.00     0.124 S 
ATOM     48  O   UNL A   1      46.072  19.037  25.537  1.00  0.00    -0.237 OA
ATOM     49  O   UNL A   1      43.637  18.623  25.722  1.00  0.00    -0.237 OA
ATOM     50  O   UNL A   1      44.723  18.661  23.509  1.00  0.00    -0.744 OA
ENDBRANCH  43  47
ENDBRANCH  26  40
BRANCH  27  51
ATOM     51  C   UNL A   1      47.009  30.543  27.779  1.00  0.00     0.023 A 
ATOM     52  C   UNL A   1      46.376  31.621  27.117  1.00  0.00     0.031 A 
ATOM     53  C   UNL A   1      48.406  30.650  27.962  1.00  0.00     0.131 A 
ATOM     54  C   UNL A   1      47.137  32.732  26.670  1.00  0.00     0.055 A 
ATOM     55  C   UNL A   1      49.148  31.748  27.521  1.00  0.00     0.041 A 
ATOM     56  F   UNL A   1      49.087  29.728  28.659  1.00  0.00    -0.206 F 
ATOM     57  C   UNL A   1      48.516  32.799  26.880  1.00  0.00     0.022 A 
BRANCH  54  58
ATOM     58  S   UNL A   1      46.332  34.164  25.870  1.00  0.00     0.124 S 
ATOM     59  O   UNL A   1      47.401  34.699  25.037  1.00  0.00    -0.237 OA
ATOM     60  O   UNL A   1      45.211  33.546  25.171  1.00  0.00    -0.237 OA
ATOM     61  O   UNL A   1      45.950  35.017  26.998  1.00  0.00    -0.744 OA
ENDBRANCH  54  58
ENDBRANCH  27  51
BRANCH  39  62
ATOM     62  C   UNL A   1      45.781  25.782  31.785  1.00  0.00     0.023 A 
ATOM     63  C   UNL A   1      46.838  25.568  32.702  1.00  0.00     0.031 A 
ATOM     64  C   UNL A   1      44.698  26.566  32.222  1.00  0.00     0.131 A 
ATOM     65  C   UNL A   1      46.776  26.118  33.999  1.00  0.00     0.055 A 
ATOM     66  C   UNL A   1      44.649  27.129  33.496  1.00  0.00     0.041 A 
ATOM     67  F   UNL A   1      43.672  26.830  31.395  1.00  0.00    -0.206 F 
ATOM     68  C   UNL A   1      45.687  26.902  34.394  1.00  0.00     0.022 A 
BRANCH  65  69
ATOM     69  S   UNL A   1      48.106  25.814  35.210  1.00  0.00     0.124 S 
ATOM     70  O   UNL A   1      48.697  27.131  35.406  1.00  0.00    -0.237 OA
ATOM     71  O   UNL A   1      47.377  25.262  36.348  1.00  0.00    -0.237 OA
ATOM     72  O   UNL A   1      48.974  24.853  34.527  1.00  0.00    -0.744 OA
ENDBRANCH  65  69
ENDBRANCH  39  62
ENDBRANCH  13  14
ENDBRANCH   6   8
ENDBRANCH   3   4
ENDBRANCH   2   3
ENDBRANCH   1   2
BRANCH   1  73
ATOM     73  C   UNL A   1      31.961  29.990  26.194  1.00  0.00     0.116 C 
BRANCH  73  74
ATOM     74  N   UNL A   1      32.368  29.809  24.808  1.00  0.00    -0.356 N 
ATOM     75  C   UNL A   1      32.122  28.817  23.905  1.00  0.00     0.226 C 
ATOM     76  H   UNL A   1      32.924  30.541  24.456  1.00  0.00     0.163 HD
ATOM     77  O   UNL A   1      32.464  29.045  22.737  1.00  0.00    -0.275 OA
BRANCH  75  78
ATOM     78  C   UNL A   1      31.552  27.433  24.239  1.00  0.00     0.122 C 
ATOM     79  C   UNL A   1      32.466  26.226  24.027  1.00  0.00     0.122 C 
ATOM     80  C   UNL A   1      30.394  27.144  23.278  1.00  0.00     0.132 C 
ATOM     81  C   UNL A   1      31.712  25.462  22.920  1.00  0.00     0.132 C 
ATOM     82  C   UNL A   1      29.552  25.956  23.756  1.00  0.00     0.035 C 
ATOM     83  O   UNL A   1      31.098  26.537  22.170  1.00  0.00    -0.373 OA
ATOM     84  C   UNL A   1      30.453  24.764  23.424  1.00  0.00     0.035 C 
BRANCH  79  85
ATOM     85  C   UNL A   1      32.757  25.336  25.212  1.00  0.00     0.226 C 
ATOM     86  O   UNL A   1      32.147  25.390  26.266  1.00  0.00    -0.275 OA
ATOM     87  N   UNL A   1      33.778  24.427  25.056  1.00  0.00    -0.354 N 
ATOM     88  H   UNL A   1      33.953  23.854  25.837  1.00  0.00     0.163 HD
BRANCH  87  89
ATOM     89  C   UNL A   1      34.644  24.187  23.896  1.00  0.00     0.139 C 
BRANCH  89  90
ATOM     90  C   UNL A   1      35.365  22.843  23.938  1.00  0.00     0.165 C 
BRANCH  90  91
ATOM     91  N   UNL A   1      36.515  22.878  24.815  1.00  0.00    -0.269 N 
ATOM     92  C   UNL A   1      37.479  21.921  24.938  1.00  0.00     0.129 A 
ATOM     93  N   UNL A   1      36.742  23.973  25.568  1.00  0.00    -0.180 NA
ATOM     94  C   UNL A   1      38.388  22.424  25.836  1.00  0.00     0.079 A 
ATOM     95  C   UNL A   1      37.886  23.685  26.198  1.00  0.00     0.155 A 
ATOM     96  Cl  UNL A   1      39.813  21.707  26.393  1.00  0.00    -0.081 Cl
ENDBRANCH  90  91
ENDBRANCH  89  90
ENDBRANCH  87  89
ENDBRANCH  79  85
ENDBRANCH  75  78
ENDBRANCH  73  74
ENDBRANCH   1  73
TORSDOF 18
ENDMDL
