MODEL 1
REMARK VINA RESULT:     -12.2      0.000      0.000
REMARK SMILES NC(=O)c1ccc(NC(=O)Cc2ccccc2C(=O)NCCCCNC(=O)c2ccc(-c3c4nc(c(-c5cc(S(=O)(=O)[O-])ccc5F)c5ccc([nH]5)c(-c5cc(S(=O)(=O)[O-])ccc5F)c5nc(c(-c6cc(S(=O)(=O)[O-])ccc6F)c6ccc3[nH]6)C=C5)C=C4)cc2)cc1
REMARK SMILES IDX 22 1 21 2 20 3 18 4 19 5 17 7 12 8 13 9 14 10 16 11 15 12
REMARK SMILES IDX 11 13 9 14 8 15 10 17 7 18 4 19 5 20 92 21 6 22 91 23 2 24
REMARK SMILES IDX 1 25 3 28 23 29 24 30 25 31 26 32 27 34 28 35 29 36 90 37
REMARK SMILES IDX 30 38 89 39 31 40 32 41 33 42 83 43 34 44 88 45 82 46 84 47
REMARK SMILES IDX 35 48 87 49 81 50 80 51 36 53 68 54 48 55 67 56 49 57 52 58
REMARK SMILES IDX 66 59 85 60 50 61 51 62 65 64 86 65 53 66 37 67 38 68 46 69
REMARK SMILES IDX 39 70 45 71 47 72 44 73 40 74 41 75 42 76 43 77 69 78 70 79
REMARK SMILES IDX 78 80 71 81 77 82 79 83 76 84 72 85 73 86 74 87 75 88 54 89
REMARK SMILES IDX 55 90 63 91 56 92 62 93 64 94 61 95 57 96 58 97 59 98 60 99
REMARK H PARENT 20 6 8 16 1 26 1 27 25 33 84 52 52 63
REMARK Flexibility Score: inf
ROOT
ATOM      1  C   UNL A   1      31.437  27.717  25.834  1.00  0.00     0.023 C 
ENDROOT
BRANCH   1   2
ATOM      2  C   UNL A   1      32.252  26.465  26.178  1.00  0.00     0.116 C 
BRANCH   2   3
ATOM      3  N   UNL A   1      31.390  25.426  26.692  1.00  0.00    -0.352 N 
ATOM      4  C   UNL A   1      31.217  24.079  26.614  1.00  0.00     0.251 C 
ATOM      5  O   UNL A   1      30.222  23.697  27.250  1.00  0.00    -0.269 OA
ATOM      6  H   UNL A   1      30.711  25.818  27.289  1.00  0.00     0.163 HD
BRANCH   4   7
ATOM      7  C   UNL A   1      32.039  23.009  25.938  1.00  0.00     0.043 A 
ATOM      8  C   UNL A   1      32.136  22.581  24.591  1.00  0.00    -0.026 A 
ATOM      9  C   UNL A   1      32.834  21.375  24.307  1.00  0.00     0.005 A 
ATOM     10  C   UNL A   1      33.509  20.655  25.285  1.00  0.00     0.000 A 
ATOM     11  C   UNL A   1      32.764  22.255  26.901  1.00  0.00     0.014 A 
ATOM     12  C   UNL A   1      33.492  21.109  26.587  1.00  0.00     0.001 A 
BRANCH   8  13
ATOM     13  C   UNL A   1      31.542  23.286  23.399  1.00  0.00     0.136 C 
BRANCH  13  14
ATOM     14  C   UNL A   1      32.132  24.634  23.009  1.00  0.00     0.228 C 
ATOM     15  N   UNL A   1      33.436  24.989  23.218  1.00  0.00    -0.326 N 
ATOM     16  H   UNL A   1      33.624  25.916  22.949  1.00  0.00     0.169 HD
ATOM     17  O   UNL A   1      31.407  25.482  22.475  1.00  0.00    -0.274 OA
BRANCH  15  18
ATOM     18  C   UNL A   1      34.574  24.333  23.729  1.00  0.00     0.041 A 
ATOM     19  C   UNL A   1      36.730  22.761  24.651  1.00  0.00     0.039 A 
ATOM     20  C   UNL A   1      36.134  23.699  25.487  1.00  0.00     0.016 A 
ATOM     21  C   UNL A   1      36.288  22.636  23.332  1.00  0.00     0.016 A 
ATOM     22  C   UNL A   1      35.086  24.491  25.013  1.00  0.00     0.027 A 
ATOM     23  C   UNL A   1      35.218  23.423  22.878  1.00  0.00     0.027 A 
BRANCH  19  24
ATOM     24  C   UNL A   1      37.791  21.904  25.217  1.00  0.00     0.248 C 
ATOM     25  N   UNL A   1      38.871  22.534  25.756  1.00  0.00    -0.366 N 
ATOM     26  H   UNL A   1      39.605  22.007  26.146  1.00  0.00     0.159 HD
ATOM     27  H   UNL A   1      38.917  23.518  25.756  1.00  0.00     0.159 HD
ATOM     28  O   UNL A   1      37.686  20.681  25.232  1.00  0.00    -0.270 OA
ENDBRANCH  19  24
ENDBRANCH  15  18
ENDBRANCH  13  14
ENDBRANCH   8  13
ENDBRANCH   4   7
ENDBRANCH   2   3
ENDBRANCH   1   2
BRANCH   1  29
ATOM     29  C   UNL A   1      31.696  28.884  26.777  1.00  0.00     0.023 C 
BRANCH  29  30
ATOM     30  C   UNL A   1      32.782  29.827  26.284  1.00  0.00     0.116 C 
BRANCH  30  31
ATOM     31  N   UNL A   1      32.556  31.221  26.643  1.00  0.00    -0.352 N 
ATOM     32  C   UNL A   1      33.394  32.040  27.367  1.00  0.00     0.251 C 
ATOM     33  H   UNL A   1      31.711  31.621  26.335  1.00  0.00     0.163 HD
ATOM     34  O   UNL A   1      33.054  33.176  27.673  1.00  0.00    -0.269 OA
BRANCH  32  35
ATOM     35  C   UNL A   1      34.686  31.481  27.811  1.00  0.00     0.039 A 
ATOM     36  C   UNL A   1      35.760  32.347  28.011  1.00  0.00     0.014 A 
ATOM     37  C   UNL A   1      34.774  30.135  28.175  1.00  0.00     0.014 A 
ATOM     38  C   UNL A   1      36.904  31.875  28.654  1.00  0.00     0.010 A 
ATOM     39  C   UNL A   1      35.872  29.696  28.904  1.00  0.00     0.010 A 
ATOM     40  C   UNL A   1      36.950  30.561  29.151  1.00  0.00    -0.014 A 
BRANCH  40  41
ATOM     41  C   UNL A   1      38.122  30.072  29.924  1.00  0.00     0.031 A 
ATOM     42  C   UNL A   1      38.362  30.586  31.318  1.00  0.00     0.074 A 
ATOM     43  C   UNL A   1      38.990  29.209  29.358  1.00  0.00     0.049 A 
ATOM     44  N   UNL A   1      39.347  30.324  32.137  1.00  0.00    -0.248 NA
ATOM     45  C   UNL A   1      37.382  31.548  31.846  1.00  0.00     0.031 C 
ATOM     46  C   UNL A   1      38.888  28.676  27.998  1.00  0.00     0.029 A 
ATOM     47  N   UNL A   1      40.131  28.626  29.853  1.00  0.00    -0.354 N 
ATOM     48  C   UNL A   1      39.108  31.092  33.271  1.00  0.00     0.074 A 
ATOM     49  C   UNL A   1      37.930  31.888  33.000  1.00  0.00     0.031 C 
ATOM     50  C   UNL A   1      39.898  27.818  27.782  1.00  0.00     0.029 A 
ATOM     51  C   UNL A   1      40.752  27.777  28.965  1.00  0.00     0.049 A 
ATOM     52  H   UNL A   1      40.473  28.800  30.760  1.00  0.00     0.167 HD
ATOM     53  C   UNL A   1      39.789  31.109  34.443  1.00  0.00     0.034 A 
ATOM     54  C   UNL A   1      41.885  27.056  29.088  1.00  0.00     0.034 A 
ATOM     55  C   UNL A   1      40.952  30.300  34.700  1.00  0.00     0.049 A 
ATOM     56  C   UNL A   1      42.651  27.125  30.387  1.00  0.00     0.074 A 
ATOM     57  C   UNL A   1      41.685  30.193  35.869  1.00  0.00     0.029 A 
ATOM     58  N   UNL A   1      41.564  29.467  33.772  1.00  0.00    -0.354 N 
ATOM     59  N   UNL A   1      42.374  27.808  31.473  1.00  0.00    -0.248 NA
ATOM     60  C   UNL A   1      43.878  26.322  30.478  1.00  0.00     0.031 C 
ATOM     61  C   UNL A   1      42.783  29.363  35.622  1.00  0.00     0.029 A 
ATOM     62  C   UNL A   1      42.688  28.878  34.328  1.00  0.00     0.049 A 
ATOM     63  H   UNL A   1      41.244  29.317  32.852  1.00  0.00     0.167 HD
ATOM     64  C   UNL A   1      43.377  27.493  32.386  1.00  0.00     0.074 A 
ATOM     65  C   UNL A   1      44.254  26.545  31.728  1.00  0.00     0.031 C 
ATOM     66  C   UNL A   1      43.559  27.943  33.655  1.00  0.00     0.034 A 
BRANCH  53  67
ATOM     67  C   UNL A   1      39.298  32.049  35.518  1.00  0.00     0.023 A 
ATOM     68  C   UNL A   1      39.789  33.362  35.633  1.00  0.00     0.031 A 
ATOM     69  C   UNL A   1      38.345  31.620  36.459  1.00  0.00     0.131 A 
ATOM     70  C   UNL A   1      39.388  34.169  36.707  1.00  0.00     0.055 A 
ATOM     71  C   UNL A   1      37.882  32.460  37.474  1.00  0.00     0.041 A 
ATOM     72  F   UNL A   1      37.857  30.370  36.418  1.00  0.00    -0.206 F 
ATOM     73  C   UNL A   1      38.416  33.738  37.612  1.00  0.00     0.022 A 
BRANCH  70  74
ATOM     74  S   UNL A   1      40.269  35.729  36.992  1.00  0.00     0.124 S 
ATOM     75  O   UNL A   1      39.668  36.595  35.981  1.00  0.00    -0.237 OA
ATOM     76  O   UNL A   1      39.933  36.035  38.377  1.00  0.00    -0.237 OA
ATOM     77  O   UNL A   1      41.668  35.381  36.749  1.00  0.00    -0.744 OA
ENDBRANCH  70  74
ENDBRANCH  53  67
BRANCH  54  78
ATOM     78  C   UNL A   1      42.382  26.219  27.955  1.00  0.00     0.023 A 
ATOM     79  C   UNL A   1      41.999  24.874  27.823  1.00  0.00     0.031 A 
ATOM     80  C   UNL A   1      43.291  26.738  27.016  1.00  0.00     0.131 A 
ATOM     81  C   UNL A   1      42.561  24.081  26.811  1.00  0.00     0.055 A 
ATOM     82  C   UNL A   1      43.802  25.960  25.974  1.00  0.00     0.041 A 
ATOM     83  F   UNL A   1      43.694  28.016  27.093  1.00  0.00    -0.206 F 
ATOM     84  C   UNL A   1      43.449  24.619  25.876  1.00  0.00     0.022 A 
BRANCH  81  85
ATOM     85  S   UNL A   1      42.197  22.304  26.796  1.00  0.00     0.124 S 
ATOM     86  O   UNL A   1      41.038  22.232  27.679  1.00  0.00    -0.237 OA
ATOM     87  O   UNL A   1      41.942  22.058  25.381  1.00  0.00    -0.237 OA
ATOM     88  O   UNL A   1      43.420  21.702  27.321  1.00  0.00    -0.744 OA
ENDBRANCH  81  85
ENDBRANCH  54  78
BRANCH  66  89
ATOM     89  C   UNL A   1      44.729  27.384  34.426  1.00  0.00     0.023 A 
ATOM     90  C   UNL A   1      44.631  26.186  35.156  1.00  0.00     0.031 A 
ATOM     91  C   UNL A   1      45.964  28.056  34.422  1.00  0.00     0.131 A 
ATOM     92  C   UNL A   1      45.732  25.723  35.889  1.00  0.00     0.055 A 
ATOM     93  C   UNL A   1      47.076  27.556  35.100  1.00  0.00     0.041 A 
ATOM     94  F   UNL A   1      46.115  29.206  33.746  1.00  0.00    -0.206 F 
ATOM     95  C   UNL A   1      46.961  26.389  35.849  1.00  0.00     0.022 A 
BRANCH  92  96
ATOM     96  S   UNL A   1      45.517  24.282  36.970  1.00  0.00     0.124 S 
ATOM     97  O   UNL A   1      44.930  24.884  38.163  1.00  0.00    -0.237 OA
ATOM     98  O   UNL A   1      44.630  23.432  36.183  1.00  0.00    -0.237 OA
ATOM     99  O   UNL A   1      46.876  23.772  37.136  1.00  0.00    -0.744 OA
ENDBRANCH  92  96
ENDBRANCH  66  89
ENDBRANCH  40  41
ENDBRANCH  32  35
ENDBRANCH  30  31
ENDBRANCH  29  30
ENDBRANCH   1  29
TORSDOF 18
ENDMDL
MODEL 2
REMARK VINA RESULT:     -12.1      4.817      7.767
REMARK SMILES NC(=O)c1ccc(NC(=O)Cc2ccccc2C(=O)NCCCCNC(=O)c2ccc(-c3c4nc(c(-c5cc(S(=O)(=O)[O-])ccc5F)c5ccc([nH]5)c(-c5cc(S(=O)(=O)[O-])ccc5F)c5nc(c(-c6cc(S(=O)(=O)[O-])ccc6F)c6ccc3[nH]6)C=C5)C=C4)cc2)cc1
REMARK SMILES IDX 22 1 21 2 20 3 18 4 19 5 17 7 12 8 13 9 14 10 16 11 15 12
REMARK SMILES IDX 11 13 9 14 8 15 10 17 7 18 4 19 5 20 92 21 6 22 91 23 2 24
REMARK SMILES IDX 1 25 3 28 23 29 24 30 25 31 26 32 27 34 28 35 29 36 90 37
REMARK SMILES IDX 30 38 89 39 31 40 32 41 33 42 83 43 34 44 88 45 82 46 84 47
REMARK SMILES IDX 35 48 87 49 81 50 80 51 36 53 68 54 48 55 67 56 49 57 52 58
REMARK SMILES IDX 66 59 85 60 50 61 51 62 65 64 86 65 53 66 37 67 38 68 46 69
REMARK SMILES IDX 39 70 45 71 47 72 44 73 40 74 41 75 42 76 43 77 69 78 70 79
REMARK SMILES IDX 78 80 71 81 77 82 79 83 76 84 72 85 73 86 74 87 75 88 54 89
REMARK SMILES IDX 55 90 63 91 56 92 62 93 64 94 61 95 57 96 58 97 59 98 60 99
REMARK H PARENT 20 6 8 16 1 26 1 27 25 33 84 52 52 63
REMARK Flexibility Score: inf
ROOT
ATOM      1  C   UNL A   1      34.985  22.728  23.518  1.00  0.00     0.023 C 
ENDROOT
BRANCH   1   2
ATOM      2  C   UNL A   1      34.497  24.123  23.926  1.00  0.00     0.116 C 
BRANCH   2   3
ATOM      3  N   UNL A   1      34.146  24.897  22.758  1.00  0.00    -0.352 N 
ATOM      4  C   UNL A   1      33.110  25.626  22.261  1.00  0.00     0.251 C 
ATOM      5  O   UNL A   1      33.339  26.044  21.115  1.00  0.00    -0.269 OA
ATOM      6  H   UNL A   1      34.895  24.897  22.118  1.00  0.00     0.163 HD
BRANCH   4   7
ATOM      7  C   UNL A   1      31.793  26.029  22.876  1.00  0.00     0.043 A 
ATOM      8  C   UNL A   1      30.809  25.307  23.596  1.00  0.00    -0.026 A 
ATOM      9  C   UNL A   1      29.553  25.926  23.842  1.00  0.00     0.005 A 
ATOM     10  C   UNL A   1      29.289  27.245  23.492  1.00  0.00     0.000 A 
ATOM     11  C   UNL A   1      31.489  27.382  22.560  1.00  0.00     0.014 A 
ATOM     12  C   UNL A   1      30.270  27.985  22.866  1.00  0.00     0.001 A 
BRANCH   8  13
ATOM     13  C   UNL A   1      30.959  23.904  24.127  1.00  0.00     0.136 C 
BRANCH  13  14
ATOM     14  C   UNL A   1      30.848  23.703  25.631  1.00  0.00     0.228 C 
ATOM     15  N   UNL A   1      31.247  24.625  26.560  1.00  0.00    -0.326 N 
ATOM     16  H   UNL A   1      31.147  24.301  27.483  1.00  0.00     0.169 HD
ATOM     17  O   UNL A   1      30.378  22.645  26.069  1.00  0.00    -0.274 OA
BRANCH  15  18
ATOM     18  C   UNL A   1      31.768  25.933  26.500  1.00  0.00     0.041 A 
ATOM     19  C   UNL A   1      33.039  28.453  26.557  1.00  0.00     0.039 A 
ATOM     20  C   UNL A   1      31.676  28.345  26.812  1.00  0.00     0.016 A 
ATOM     21  C   UNL A   1      33.769  27.310  26.223  1.00  0.00     0.016 A 
ATOM     22  C   UNL A   1      31.051  27.097  26.755  1.00  0.00     0.027 A 
ATOM     23  C   UNL A   1      33.131  26.060  26.192  1.00  0.00     0.027 A 
BRANCH  19  24
ATOM     24  C   UNL A   1      33.666  29.783  26.693  1.00  0.00     0.248 C 
ATOM     25  N   UNL A   1      35.024  29.836  26.610  1.00  0.00    -0.366 N 
ATOM     26  H   UNL A   1      35.489  30.699  26.694  1.00  0.00     0.159 HD
ATOM     27  H   UNL A   1      35.540  29.010  26.465  1.00  0.00     0.159 HD
ATOM     28  O   UNL A   1      32.990  30.798  26.838  1.00  0.00    -0.270 OA
ENDBRANCH  19  24
ENDBRANCH  15  18
ENDBRANCH  13  14
ENDBRANCH   8  13
ENDBRANCH   4   7
ENDBRANCH   2   3
ENDBRANCH   1   2
BRANCH   1  29
ATOM     29  C   UNL A   1      36.464  22.500  23.800  1.00  0.00     0.023 C 
BRANCH  29  30
ATOM     30  C   UNL A   1      36.743  22.056  25.228  1.00  0.00     0.116 C 
BRANCH  30  31
ATOM     31  N   UNL A   1      37.679  20.943  25.325  1.00  0.00    -0.352 N 
ATOM     32  C   UNL A   1      38.944  20.965  25.869  1.00  0.00     0.251 C 
ATOM     33  H   UNL A   1      37.373  20.082  24.960  1.00  0.00     0.163 HD
ATOM     34  O   UNL A   1      39.667  19.978  25.820  1.00  0.00    -0.269 OA
BRANCH  32  35
ATOM     35  C   UNL A   1      39.416  22.233  26.459  1.00  0.00     0.039 A 
ATOM     36  C   UNL A   1      40.450  22.195  27.394  1.00  0.00     0.014 A 
ATOM     37  C   UNL A   1      38.940  23.450  25.965  1.00  0.00     0.014 A 
ATOM     38  C   UNL A   1      41.065  23.388  27.776  1.00  0.00     0.010 A 
ATOM     39  C   UNL A   1      39.621  24.622  26.270  1.00  0.00     0.010 A 
ATOM     40  C   UNL A   1      40.691  24.604  27.180  1.00  0.00    -0.014 A 
BRANCH  40  41
ATOM     41  C   UNL A   1      41.401  25.869  27.504  1.00  0.00     0.031 A 
ATOM     42  C   UNL A   1      40.709  26.923  28.326  1.00  0.00     0.074 A 
ATOM     43  C   UNL A   1      42.642  26.088  27.022  1.00  0.00     0.049 A 
ATOM     44  N   UNL A   1      41.134  28.109  28.676  1.00  0.00    -0.248 NA
ATOM     45  C   UNL A   1      39.347  26.613  28.787  1.00  0.00     0.031 C 
ATOM     46  C   UNL A   1      43.396  25.161  26.175  1.00  0.00     0.029 A 
ATOM     47  N   UNL A   1      43.489  27.158  27.171  1.00  0.00    -0.354 N 
ATOM     48  C   UNL A   1      40.090  28.687  29.389  1.00  0.00     0.074 A 
ATOM     49  C   UNL A   1      38.986  27.753  29.353  1.00  0.00     0.031 C 
ATOM     50  C   UNL A   1      44.605  25.685  25.915  1.00  0.00     0.029 A 
ATOM     51  C   UNL A   1      44.696  27.006  26.527  1.00  0.00     0.049 A 
ATOM     52  H   UNL A   1      43.254  27.961  27.691  1.00  0.00     0.167 HD
ATOM     53  C   UNL A   1      40.065  29.874  30.043  1.00  0.00     0.034 A 
ATOM     54  C   UNL A   1      45.751  27.841  26.433  1.00  0.00     0.034 A 
ATOM     55  C   UNL A   1      41.178  30.787  30.080  1.00  0.00     0.049 A 
ATOM     56  C   UNL A   1      45.683  29.177  27.132  1.00  0.00     0.074 A 
ATOM     57  C   UNL A   1      41.284  31.988  30.759  1.00  0.00     0.029 A 
ATOM     58  N   UNL A   1      42.377  30.609  29.401  1.00  0.00    -0.354 N 
ATOM     59  N   UNL A   1      44.710  29.680  27.858  1.00  0.00    -0.248 NA
ATOM     60  C   UNL A   1      46.854  30.054  27.005  1.00  0.00     0.031 C 
ATOM     61  C   UNL A   1      42.510  32.573  30.424  1.00  0.00     0.029 A 
ATOM     62  C   UNL A   1      43.209  31.698  29.610  1.00  0.00     0.049 A 
ATOM     63  H   UNL A   1      42.602  29.823  28.852  1.00  0.00     0.167 HD
ATOM     64  C   UNL A   1      45.168  30.920  28.297  1.00  0.00     0.074 A 
ATOM     65  C   UNL A   1      46.508  31.079  27.770  1.00  0.00     0.031 C 
ATOM     66  C   UNL A   1      44.540  31.845  29.068  1.00  0.00     0.034 A 
BRANCH  53  67
ATOM     67  C   UNL A   1      38.784  30.253  30.747  1.00  0.00     0.023 A 
ATOM     68  C   UNL A   1      37.786  31.013  30.110  1.00  0.00     0.031 A 
ATOM     69  C   UNL A   1      38.565  29.870  32.083  1.00  0.00     0.131 A 
ATOM     70  C   UNL A   1      36.659  31.435  30.830  1.00  0.00     0.055 A 
ATOM     71  C   UNL A   1      37.398  30.217  32.766  1.00  0.00     0.041 A 
ATOM     72  F   UNL A   1      39.490  29.165  32.753  1.00  0.00    -0.206 F 
ATOM     73  C   UNL A   1      36.443  31.018  32.144  1.00  0.00     0.022 A 
BRANCH  70  74
ATOM     74  S   UNL A   1      35.559  32.661  30.071  1.00  0.00     0.124 S 
ATOM     75  O   UNL A   1      35.359  32.092  28.740  1.00  0.00    -0.237 OA
ATOM     76  O   UNL A   1      34.401  32.638  30.956  1.00  0.00    -0.237 OA
ATOM     77  O   UNL A   1      36.346  33.892  30.101  1.00  0.00    -0.744 OA
ENDBRANCH  70  74
ENDBRANCH  53  67
BRANCH  54  78
ATOM     78  C   UNL A   1      46.956  27.459  25.638  1.00  0.00     0.023 A 
ATOM     79  C   UNL A   1      47.105  27.870  24.303  1.00  0.00     0.031 A 
ATOM     80  C   UNL A   1      47.952  26.629  26.184  1.00  0.00     0.131 A 
ATOM     81  C   UNL A   1      48.193  27.411  23.545  1.00  0.00     0.055 A 
ATOM     82  C   UNL A   1      49.065  26.224  25.443  1.00  0.00     0.041 A 
ATOM     83  F   UNL A   1      47.861  26.204  27.454  1.00  0.00    -0.206 F 
ATOM     84  C   UNL A   1      49.183  26.603  24.110  1.00  0.00     0.022 A 
BRANCH  81  85
ATOM     85  S   UNL A   1      48.244  27.800  21.774  1.00  0.00     0.124 S 
ATOM     86  O   UNL A   1      49.367  28.727  21.706  1.00  0.00    -0.237 OA
ATOM     87  O   UNL A   1      48.461  26.484  21.181  1.00  0.00    -0.237 OA
ATOM     88  O   UNL A   1      46.931  28.388  21.517  1.00  0.00    -0.744 OA
ENDBRANCH  81  85
ENDBRANCH  54  78
BRANCH  66  89
ATOM     89  C   UNL A   1      45.312  33.093  29.419  1.00  0.00     0.023 A 
ATOM     90  C   UNL A   1      45.318  34.221  28.579  1.00  0.00     0.031 A 
ATOM     91  C   UNL A   1      46.046  33.157  30.616  1.00  0.00     0.131 A 
ATOM     92  C   UNL A   1      46.080  35.345  28.926  1.00  0.00     0.055 A 
ATOM     93  C   UNL A   1      46.749  34.303  30.989  1.00  0.00     0.041 A 
ATOM     94  F   UNL A   1      46.080  32.108  31.454  1.00  0.00    -0.206 F 
ATOM     95  C   UNL A   1      46.779  35.402  30.135  1.00  0.00     0.022 A 
BRANCH  92  96
ATOM     96  S   UNL A   1      46.219  36.705  27.734  1.00  0.00     0.124 S 
ATOM     97  O   UNL A   1      45.294  37.688  28.288  1.00  0.00    -0.237 OA
ATOM     98  O   UNL A   1      47.635  37.047  27.814  1.00  0.00    -0.237 OA
ATOM     99  O   UNL A   1      45.799  36.099  26.472  1.00  0.00    -0.744 OA
ENDBRANCH  92  96
ENDBRANCH  66  89
ENDBRANCH  40  41
ENDBRANCH  32  35
ENDBRANCH  30  31
ENDBRANCH  29  30
ENDBRANCH   1  29
TORSDOF 18
ENDMDL
MODEL 3
REMARK VINA RESULT:     -12.1      1.954      3.160
REMARK SMILES NC(=O)c1ccc(NC(=O)Cc2ccccc2C(=O)NCCCCNC(=O)c2ccc(-c3c4nc(c(-c5cc(S(=O)(=O)[O-])ccc5F)c5ccc([nH]5)c(-c5cc(S(=O)(=O)[O-])ccc5F)c5nc(c(-c6cc(S(=O)(=O)[O-])ccc6F)c6ccc3[nH]6)C=C5)C=C4)cc2)cc1
REMARK SMILES IDX 22 1 21 2 20 3 18 4 19 5 17 7 12 8 13 9 14 10 16 11 15 12
REMARK SMILES IDX 11 13 9 14 8 15 10 17 7 18 4 19 5 20 92 21 6 22 91 23 2 24
REMARK SMILES IDX 1 25 3 28 23 29 24 30 25 31 26 32 27 34 28 35 29 36 90 37
REMARK SMILES IDX 30 38 89 39 31 40 32 41 33 42 83 43 34 44 88 45 82 46 84 47
REMARK SMILES IDX 35 48 87 49 81 50 80 51 36 53 68 54 48 55 67 56 49 57 52 58
REMARK SMILES IDX 66 59 85 60 50 61 51 62 65 64 86 65 53 66 37 67 38 68 46 69
REMARK SMILES IDX 39 70 45 71 47 72 44 73 40 74 41 75 42 76 43 77 69 78 70 79
REMARK SMILES IDX 78 80 71 81 77 82 79 83 76 84 72 85 73 86 74 87 75 88 54 89
REMARK SMILES IDX 55 90 63 91 56 92 62 93 64 94 61 95 57 96 58 97 59 98 60 99
REMARK H PARENT 20 6 8 16 1 26 1 27 25 33 84 52 52 63
REMARK Flexibility Score: inf
ROOT
ATOM      1  C   UNL A   1      31.766  28.340  27.604  1.00  0.00     0.023 C 
ENDROOT
BRANCH   1   2
ATOM      2  C   UNL A   1      32.390  27.163  26.845  1.00  0.00     0.116 C 
BRANCH   2   3
ATOM      3  N   UNL A   1      31.363  26.378  26.200  1.00  0.00    -0.352 N 
ATOM      4  C   UNL A   1      30.521  26.435  25.132  1.00  0.00     0.251 C 
ATOM      5  O   UNL A   1      29.763  25.454  25.082  1.00  0.00    -0.269 OA
ATOM      6  H   UNL A   1      31.231  25.532  26.687  1.00  0.00     0.163 HD
BRANCH   4   7
ATOM      7  C   UNL A   1      30.398  27.442  24.016  1.00  0.00     0.043 A 
ATOM      8  C   UNL A   1      31.344  28.274  23.366  1.00  0.00    -0.026 A 
ATOM      9  C   UNL A   1      30.870  29.298  22.501  1.00  0.00     0.005 A 
ATOM     10  C   UNL A   1      29.523  29.449  22.191  1.00  0.00     0.000 A 
ATOM     11  C   UNL A   1      29.036  27.617  23.651  1.00  0.00     0.014 A 
ATOM     12  C   UNL A   1      28.602  28.591  22.752  1.00  0.00     0.001 A 
BRANCH   8  13
ATOM     13  C   UNL A   1      32.841  28.191  23.518  1.00  0.00     0.136 C 
BRANCH  13  14
ATOM     14  C   UNL A   1      33.624  27.494  22.415  1.00  0.00     0.228 C 
ATOM     15  N   UNL A   1      33.809  26.140  22.343  1.00  0.00    -0.326 N 
ATOM     16  H   UNL A   1      34.384  25.876  21.590  1.00  0.00     0.169 HD
ATOM     17  O   UNL A   1      34.144  28.171  21.518  1.00  0.00    -0.274 OA
BRANCH  15  18
ATOM     18  C   UNL A   1      33.364  25.036  23.097  1.00  0.00     0.041 A 
ATOM     19  C   UNL A   1      32.192  22.938  24.577  1.00  0.00     0.039 A 
ATOM     20  C   UNL A   1      33.310  23.605  25.066  1.00  0.00     0.016 A 
ATOM     21  C   UNL A   1      31.681  23.278  23.323  1.00  0.00     0.016 A 
ATOM     22  C   UNL A   1      33.898  24.625  24.313  1.00  0.00     0.027 A 
ATOM     23  C   UNL A   1      32.270  24.320  22.590  1.00  0.00     0.027 A 
BRANCH  19  24
ATOM     24  C   UNL A   1      31.567  21.912  25.437  1.00  0.00     0.248 C 
ATOM     25  N   UNL A   1      30.776  22.357  26.452  1.00  0.00    -0.366 N 
ATOM     26  H   UNL A   1      30.336  21.714  27.053  1.00  0.00     0.159 HD
ATOM     27  H   UNL A   1      30.642  23.325  26.583  1.00  0.00     0.159 HD
ATOM     28  O   UNL A   1      31.727  20.714  25.225  1.00  0.00    -0.270 OA
ENDBRANCH  19  24
ENDBRANCH  15  18
ENDBRANCH  13  14
ENDBRANCH   8  13
ENDBRANCH   4   7
ENDBRANCH   2   3
ENDBRANCH   1   2
BRANCH   1  29
ATOM     29  C   UNL A   1      31.692  29.618  26.780  1.00  0.00     0.023 C 
BRANCH  29  30
ATOM     30  C   UNL A   1      33.019  30.357  26.694  1.00  0.00     0.116 C 
BRANCH  30  31
ATOM     31  N   UNL A   1      32.950  31.741  27.146  1.00  0.00    -0.352 N 
ATOM     32  C   UNL A   1      33.914  32.437  27.841  1.00  0.00     0.251 C 
ATOM     33  H   UNL A   1      32.124  32.231  26.932  1.00  0.00     0.163 HD
ATOM     34  O   UNL A   1      33.705  33.578  28.234  1.00  0.00    -0.269 OA
BRANCH  32  35
ATOM     35  C   UNL A   1      35.180  31.743  28.144  1.00  0.00     0.039 A 
ATOM     36  C   UNL A   1      36.368  32.474  28.133  1.00  0.00     0.014 A 
ATOM     37  C   UNL A   1      35.158  30.418  28.588  1.00  0.00     0.014 A 
ATOM     38  C   UNL A   1      37.528  31.894  28.648  1.00  0.00     0.010 A 
ATOM     39  C   UNL A   1      36.289  29.882  29.191  1.00  0.00     0.010 A 
ATOM     40  C   UNL A   1      37.487  30.614  29.226  1.00  0.00    -0.014 A 
BRANCH  40  41
ATOM     41  C   UNL A   1      38.691  30.022  29.866  1.00  0.00     0.031 A 
ATOM     42  C   UNL A   1      39.106  30.478  31.239  1.00  0.00     0.074 A 
ATOM     43  C   UNL A   1      39.433  29.115  29.197  1.00  0.00     0.049 A 
ATOM     44  N   UNL A   1      40.146  30.124  31.948  1.00  0.00    -0.248 NA
ATOM     45  C   UNL A   1      38.256  31.491  31.884  1.00  0.00     0.031 C 
ATOM     46  C   UNL A   1      39.156  28.629  27.843  1.00  0.00     0.029 A 
ATOM     47  N   UNL A   1      40.571  28.439  29.562  1.00  0.00    -0.354 N 
ATOM     48  C   UNL A   1      40.078  30.875  33.116  1.00  0.00     0.074 A 
ATOM     49  C   UNL A   1      38.941  31.759  32.983  1.00  0.00     0.031 C 
ATOM     50  C   UNL A   1      40.074  27.708  27.509  1.00  0.00     0.029 A 
ATOM     51  C   UNL A   1      41.036  27.573  28.598  1.00  0.00     0.049 A 
ATOM     52  H   UNL A   1      41.014  28.562  30.432  1.00  0.00     0.167 HD
ATOM     53  C   UNL A   1      40.872  30.810  34.213  1.00  0.00     0.034 A 
ATOM     54  C   UNL A   1      42.119  26.770  28.590  1.00  0.00     0.034 A 
ATOM     55  C   UNL A   1      41.993  29.914  34.334  1.00  0.00     0.049 A 
ATOM     56  C   UNL A   1      43.015  26.747  29.806  1.00  0.00     0.074 A 
ATOM     57  C   UNL A   1      42.828  29.722  35.420  1.00  0.00     0.029 A 
ATOM     58  N   UNL A   1      42.445  29.065  33.331  1.00  0.00    -0.354 N 
ATOM     59  N   UNL A   1      42.898  27.418  30.929  1.00  0.00    -0.248 NA
ATOM     60  C   UNL A   1      44.182  25.858  29.755  1.00  0.00     0.031 C 
ATOM     61  C   UNL A   1      43.832  28.823  35.046  1.00  0.00     0.029 A 
ATOM     62  C   UNL A   1      43.573  28.383  33.759  1.00  0.00     0.049 A 
ATOM     63  H   UNL A   1      42.025  28.964  32.446  1.00  0.00     0.167 HD
ATOM     64  C   UNL A   1      43.961  27.007  31.728  1.00  0.00     0.074 A 
ATOM     65  C   UNL A   1      44.696  26.019  30.965  1.00  0.00     0.031 C 
ATOM     66  C   UNL A   1      44.301  27.407  32.981  1.00  0.00     0.034 A 
BRANCH  53  67
ATOM     67  C   UNL A   1      40.562  31.752  35.352  1.00  0.00     0.023 A 
ATOM     68  C   UNL A   1      39.502  31.510  36.245  1.00  0.00     0.031 A 
ATOM     69  C   UNL A   1      41.319  32.922  35.535  1.00  0.00     0.131 A 
ATOM     70  C   UNL A   1      39.179  32.460  37.224  1.00  0.00     0.055 A 
ATOM     71  C   UNL A   1      41.049  33.820  36.569  1.00  0.00     0.041 A 
ATOM     72  F   UNL A   1      42.328  33.222  34.702  1.00  0.00    -0.206 F 
ATOM     73  C   UNL A   1      39.963  33.600  37.412  1.00  0.00     0.022 A 
BRANCH  70  74
ATOM     74  S   UNL A   1      37.629  32.259  38.145  1.00  0.00     0.124 S 
ATOM     75  O   UNL A   1      37.362  30.834  37.964  1.00  0.00    -0.237 OA
ATOM     76  O   UNL A   1      38.004  32.672  39.491  1.00  0.00    -0.237 OA
ATOM     77  O   UNL A   1      36.701  33.150  37.452  1.00  0.00    -0.744 OA
ENDBRANCH  70  74
ENDBRANCH  53  67
BRANCH  54  78
ATOM     78  C   UNL A   1      42.438  25.932  27.395  1.00  0.00     0.023 A 
ATOM     79  C   UNL A   1      42.039  24.588  27.324  1.00  0.00     0.031 A 
ATOM     80  C   UNL A   1      43.195  26.449  26.328  1.00  0.00     0.131 A 
ATOM     81  C   UNL A   1      42.441  23.793  26.239  1.00  0.00     0.055 A 
ATOM     82  C   UNL A   1      43.541  25.671  25.222  1.00  0.00     0.041 A 
ATOM     83  F   UNL A   1      43.605  27.727  26.343  1.00  0.00    -0.206 F 
ATOM     84  C   UNL A   1      43.176  24.330  25.180  1.00  0.00     0.022 A 
BRANCH  81  85
ATOM     85  S   UNL A   1      42.077  22.016  26.281  1.00  0.00     0.124 S 
ATOM     86  O   UNL A   1      40.640  22.002  26.035  1.00  0.00    -0.237 OA
ATOM     87  O   UNL A   1      42.919  21.509  25.203  1.00  0.00    -0.237 OA
ATOM     88  O   UNL A   1      42.484  21.618  27.627  1.00  0.00    -0.744 OA
ENDBRANCH  81  85
ENDBRANCH  54  78
BRANCH  66  89
ATOM     89  C   UNL A   1      45.498  26.745  33.618  1.00  0.00     0.023 A 
ATOM     90  C   UNL A   1      45.382  25.550  34.350  1.00  0.00     0.031 A 
ATOM     91  C   UNL A   1      46.777  27.314  33.481  1.00  0.00     0.131 A 
ATOM     92  C   UNL A   1      46.514  24.990  34.957  1.00  0.00     0.055 A 
ATOM     93  C   UNL A   1      47.911  26.717  34.031  1.00  0.00     0.041 A 
ATOM     94  F   UNL A   1      46.947  28.456  32.796  1.00  0.00    -0.206 F 
ATOM     95  C   UNL A   1      47.782  25.554  34.785  1.00  0.00     0.022 A 
BRANCH  92  96
ATOM     96  S   UNL A   1      46.299  23.558  36.050  1.00  0.00     0.124 S 
ATOM     97  O   UNL A   1      46.277  22.453  35.098  1.00  0.00    -0.237 OA
ATOM     98  O   UNL A   1      47.478  23.640  36.906  1.00  0.00    -0.237 OA
ATOM     99  O   UNL A   1      45.028  23.827  36.720  1.00  0.00    -0.744 OA
ENDBRANCH  92  96
ENDBRANCH  66  89
ENDBRANCH  40  41
ENDBRANCH  32  35
ENDBRANCH  30  31
ENDBRANCH  29  30
ENDBRANCH   1  29
TORSDOF 18
ENDMDL
