MODEL 1
REMARK VINA RESULT:     -12.5      0.000      0.000
REMARK SMILES CC(C)(C)OC(=O)N1CCN(C(=O)c2ccc3c(c2)OCO3)[C@H](C(=O)NCCCCNC(=O)c2ccc(-c3c4nc(c(-c5cc(S(=O)(=O)[O-])ccc5F)c5ccc([nH]5)c(-c5cc(S(=O)(=O)[O-])ccc5F)c5nc(c(-c6cc(S(=O)(=O)[O-])ccc6F)c6ccc3[nH]6)C=C5)C=C4)cc2)C1
REMARK SMILES IDX 28 1 27 2 26 3 24 4 25 5 23 7 8 8 9 9 97 10 10 11 11 12 6 13
REMARK SMILES IDX 7 14 5 15 2 16 1 17 3 18 4 19 12 20 13 21 14 22 15 23 19 24
REMARK SMILES IDX 16 25 18 26 17 27 20 28 22 29 21 30 29 31 30 32 31 33 32 34
REMARK SMILES IDX 33 36 34 37 35 38 96 39 36 40 95 41 37 42 38 43 39 44 89 45
REMARK SMILES IDX 40 46 94 47 88 48 90 49 41 50 93 51 87 52 86 53 42 55 74 56
REMARK SMILES IDX 54 57 73 58 55 59 58 60 72 61 91 62 56 63 57 64 71 66 92 67
REMARK SMILES IDX 59 68 43 69 44 70 52 71 45 72 51 73 53 74 50 75 46 76 47 77
REMARK SMILES IDX 48 78 49 79 75 80 76 81 84 82 77 83 83 84 85 85 82 86 78 87
REMARK SMILES IDX 79 88 80 89 81 90 60 91 61 92 69 93 62 94 68 95 70 96 67 97
REMARK SMILES IDX 63 98 64 99 65 100 66 101
REMARK H PARENT 26 6 31 35 90 54 58 65
REMARK Flexibility Score: inf
ROOT
ATOM      1  C   UNL A   1      32.370  27.672  27.107  1.00  0.00     0.023 C 
ENDROOT
BRANCH   1   2
ATOM      2  C   UNL A   1      32.429  26.269  26.505  1.00  0.00     0.116 C 
BRANCH   2   3
ATOM      3  N   UNL A   1      33.703  26.087  25.833  1.00  0.00    -0.354 N 
ATOM      4  C   UNL A   1      34.215  24.939  25.297  1.00  0.00     0.244 C 
ATOM      5  O   UNL A   1      35.438  24.833  25.194  1.00  0.00    -0.273 OA
ATOM      6  H   UNL A   1      34.267  26.889  25.754  1.00  0.00     0.163 HD
BRANCH   4   7
ATOM      7  C   UNL A   1      33.247  23.888  24.736  1.00  0.00     0.194 C 
ATOM      8  N   UNL A   1      33.125  21.409  24.530  1.00  0.00    -0.304 N 
ATOM      9  C   UNL A   1      32.639  21.485  23.158  1.00  0.00     0.144 C 
ATOM     10  C   UNL A   1      33.957  22.533  24.961  1.00  0.00     0.158 C 
ATOM     11  C   UNL A   1      31.951  22.833  22.904  1.00  0.00     0.142 C 
ATOM     12  N   UNL A   1      32.783  23.979  23.311  1.00  0.00    -0.323 N 
BRANCH   8  13
ATOM     13  C   UNL A   1      32.867  20.302  25.304  1.00  0.00     0.410 C 
ATOM     14  O   UNL A   1      33.184  20.224  26.485  1.00  0.00    -0.224 OA
BRANCH  13  15
ATOM     15  O   UNL A   1      32.279  19.310  24.591  1.00  0.00    -0.444 OA
BRANCH  15  16
ATOM     16  C   UNL A   1      32.978  18.075  24.283  1.00  0.00     0.106 C 
ATOM     17  C   UNL A   1      32.522  17.701  22.864  1.00  0.00     0.056 C 
ATOM     18  C   UNL A   1      32.521  16.993  25.262  1.00  0.00     0.056 C 
ATOM     19  C   UNL A   1      34.506  18.214  24.261  1.00  0.00     0.056 C 
ENDBRANCH  15  16
ENDBRANCH  13  15
ENDBRANCH   8  13
BRANCH  12  20
ATOM     20  C   UNL A   1      32.594  25.146  22.562  1.00  0.00     0.254 C 
ATOM     21  O   UNL A   1      33.396  25.530  21.710  1.00  0.00    -0.269 OA
BRANCH  20  22
ATOM     22  C   UNL A   1      31.444  26.035  22.819  1.00  0.00     0.044 A 
ATOM     23  C   UNL A   1      30.472  25.689  23.779  1.00  0.00     0.018 A 
ATOM     24  C   UNL A   1      31.375  27.258  22.140  1.00  0.00     0.064 A 
ATOM     25  C   UNL A   1      29.359  26.512  23.986  1.00  0.00     0.051 A 
ATOM     26  C   UNL A   1      30.272  28.051  22.375  1.00  0.00     0.166 A 
ATOM     27  C   UNL A   1      29.285  27.682  23.261  1.00  0.00     0.165 A 
ATOM     28  O   UNL A   1      30.008  29.242  21.775  1.00  0.00    -0.454 OA
ATOM     29  O   UNL A   1      28.271  28.586  23.315  1.00  0.00    -0.454 OA
ATOM     30  C   UNL A   1      28.737  29.578  22.375  1.00  0.00     0.468 C 
ENDBRANCH  20  22
ENDBRANCH  12  20
ENDBRANCH   4   7
ENDBRANCH   2   3
ENDBRANCH   1   2
BRANCH   1  31
ATOM     31  C   UNL A   1      31.889  28.744  26.122  1.00  0.00     0.023 C 
BRANCH  31  32
ATOM     32  C   UNL A   1      32.953  29.760  25.716  1.00  0.00     0.116 C 
BRANCH  32  33
ATOM     33  N   UNL A   1      32.647  31.094  26.203  1.00  0.00    -0.352 N 
ATOM     34  C   UNL A   1      33.236  31.806  27.216  1.00  0.00     0.251 C 
ATOM     35  H   UNL A   1      31.910  31.552  25.740  1.00  0.00     0.163 HD
ATOM     36  O   UNL A   1      32.700  32.838  27.612  1.00  0.00    -0.269 OA
BRANCH  34  37
ATOM     37  C   UNL A   1      34.485  31.320  27.841  1.00  0.00     0.039 A 
ATOM     38  C   UNL A   1      35.541  32.217  28.004  1.00  0.00     0.014 A 
ATOM     39  C   UNL A   1      34.623  29.991  28.257  1.00  0.00     0.014 A 
ATOM     40  C   UNL A   1      36.713  31.797  28.633  1.00  0.00     0.010 A 
ATOM     41  C   UNL A   1      35.764  29.596  28.954  1.00  0.00     0.010 A 
ATOM     42  C   UNL A   1      36.821  30.494  29.149  1.00  0.00    -0.014 A 
BRANCH  42  43
ATOM     43  C   UNL A   1      38.034  30.087  29.910  1.00  0.00     0.031 A 
ATOM     44  C   UNL A   1      38.288  30.618  31.294  1.00  0.00     0.074 A 
ATOM     45  C   UNL A   1      38.912  29.239  29.337  1.00  0.00     0.049 A 
ATOM     46  N   UNL A   1      39.277  30.353  32.110  1.00  0.00    -0.248 NA
ATOM     47  C   UNL A   1      37.320  31.590  31.824  1.00  0.00     0.031 C 
ATOM     48  C   UNL A   1      38.795  28.694  27.981  1.00  0.00     0.029 A 
ATOM     49  N   UNL A   1      40.065  28.674  29.818  1.00  0.00    -0.354 N 
ATOM     50  C   UNL A   1      39.045  31.114  33.252  1.00  0.00     0.074 A 
ATOM     51  C   UNL A   1      37.862  31.906  32.992  1.00  0.00     0.031 C 
ATOM     52  C   UNL A   1      39.805  27.839  27.760  1.00  0.00     0.029 A 
ATOM     53  C   UNL A   1      40.671  27.810  28.934  1.00  0.00     0.049 A 
ATOM     54  H   UNL A   1      40.427  28.868  30.714  1.00  0.00     0.167 HD
ATOM     55  C   UNL A   1      39.739  31.129  34.417  1.00  0.00     0.034 A 
ATOM     56  C   UNL A   1      41.797  27.081  29.052  1.00  0.00     0.034 A 
ATOM     57  C   UNL A   1      40.919  30.334  34.661  1.00  0.00     0.049 A 
ATOM     58  C   UNL A   1      42.568  27.147  30.348  1.00  0.00     0.074 A 
ATOM     59  C   UNL A   1      41.677  30.248  35.816  1.00  0.00     0.029 A 
ATOM     60  N   UNL A   1      41.519  29.490  33.735  1.00  0.00    -0.354 N 
ATOM     61  N   UNL A   1      42.299  27.830  31.437  1.00  0.00    -0.248 NA
ATOM     62  C   UNL A   1      43.784  26.329  30.434  1.00  0.00     0.031 C 
ATOM     63  C   UNL A   1      42.772  29.415  35.566  1.00  0.00     0.029 A 
ATOM     64  C   UNL A   1      42.653  28.908  34.283  1.00  0.00     0.049 A 
ATOM     65  H   UNL A   1      41.187  29.327  32.822  1.00  0.00     0.167 HD
ATOM     66  C   UNL A   1      43.299  27.496  32.348  1.00  0.00     0.074 A 
ATOM     67  C   UNL A   1      44.149  26.526  31.691  1.00  0.00     0.031 C 
ATOM     68  C   UNL A   1      43.503  27.953  33.611  1.00  0.00     0.034 A 
BRANCH  55  69
ATOM     69  C   UNL A   1      39.248  32.046  35.513  1.00  0.00     0.023 A 
ATOM     70  C   UNL A   1      39.667  33.386  35.596  1.00  0.00     0.031 A 
ATOM     71  C   UNL A   1      38.342  31.580  36.482  1.00  0.00     0.131 A 
ATOM     72  C   UNL A   1      39.227  34.194  36.655  1.00  0.00     0.055 A 
ATOM     73  C   UNL A   1      37.846  32.412  37.488  1.00  0.00     0.041 A 
ATOM     74  F   UNL A   1      37.924  30.304  36.469  1.00  0.00    -0.206 F 
ATOM     75  C   UNL A   1      38.297  33.725  37.585  1.00  0.00     0.022 A 
BRANCH  72  76
ATOM     76  S   UNL A   1      39.983  35.829  36.870  1.00  0.00     0.124 S 
ATOM     77  O   UNL A   1      39.664  36.469  35.595  1.00  0.00    -0.237 OA
ATOM     78  O   UNL A   1      39.283  36.349  38.039  1.00  0.00    -0.237 OA
ATOM     79  O   UNL A   1      41.399  35.528  37.071  1.00  0.00    -0.744 OA
ENDBRANCH  72  76
ENDBRANCH  55  69
BRANCH  56  80
ATOM     80  C   UNL A   1      42.284  26.231  27.924  1.00  0.00     0.023 A 
ATOM     81  C   UNL A   1      41.790  24.931  27.732  1.00  0.00     0.031 A 
ATOM     82  C   UNL A   1      43.311  26.675  27.073  1.00  0.00     0.131 A 
ATOM     83  C   UNL A   1      42.371  24.095  26.765  1.00  0.00     0.055 A 
ATOM     84  C   UNL A   1      43.837  25.865  26.064  1.00  0.00     0.041 A 
ATOM     85  F   UNL A   1      43.823  27.909  27.209  1.00  0.00    -0.206 F 
ATOM     86  C   UNL A   1      43.380  24.559  25.920  1.00  0.00     0.022 A 
BRANCH  83  87
ATOM     87  S   UNL A   1      41.879  22.350  26.721  1.00  0.00     0.124 S 
ATOM     88  O   UNL A   1      42.293  21.960  25.378  1.00  0.00    -0.237 OA
ATOM     89  O   UNL A   1      42.656  21.789  27.821  1.00  0.00    -0.237 OA
ATOM     90  O   UNL A   1      40.435  22.399  26.941  1.00  0.00    -0.744 OA
ENDBRANCH  83  87
ENDBRANCH  56  80
BRANCH  68  91
ATOM     91  C   UNL A   1      44.677  27.370  34.364  1.00  0.00     0.023 A 
ATOM     92  C   UNL A   1      44.543  26.216  35.156  1.00  0.00     0.031 A 
ATOM     93  C   UNL A   1      45.930  28.007  34.335  1.00  0.00     0.131 A 
ATOM     94  C   UNL A   1      45.612  25.788  35.957  1.00  0.00     0.055 A 
ATOM     95  C   UNL A   1      47.015  27.529  35.070  1.00  0.00     0.041 A 
ATOM     96  F   UNL A   1      46.119  29.114  33.599  1.00  0.00    -0.206 F 
ATOM     97  C   UNL A   1      46.854  26.426  35.905  1.00  0.00     0.022 A 
BRANCH  94  98
ATOM     98  S   UNL A   1      45.312  24.479  37.176  1.00  0.00     0.124 S 
ATOM     99  O   UNL A   1      46.571  24.459  37.913  1.00  0.00    -0.237 OA
ATOM    100  O   UNL A   1      44.156  24.991  37.904  1.00  0.00    -0.237 OA
ATOM    101  O   UNL A   1      45.055  23.298  36.354  1.00  0.00    -0.744 OA
ENDBRANCH  94  98
ENDBRANCH  68  91
ENDBRANCH  42  43
ENDBRANCH  34  37
ENDBRANCH  32  33
ENDBRANCH  31  32
ENDBRANCH   1  31
TORSDOF 19
ENDMDL
MODEL 2
REMARK VINA RESULT:     -12.2      1.359      1.721
REMARK SMILES CC(C)(C)OC(=O)N1CCN(C(=O)c2ccc3c(c2)OCO3)[C@H](C(=O)NCCCCNC(=O)c2ccc(-c3c4nc(c(-c5cc(S(=O)(=O)[O-])ccc5F)c5ccc([nH]5)c(-c5cc(S(=O)(=O)[O-])ccc5F)c5nc(c(-c6cc(S(=O)(=O)[O-])ccc6F)c6ccc3[nH]6)C=C5)C=C4)cc2)C1
REMARK SMILES IDX 28 1 27 2 26 3 24 4 25 5 23 7 8 8 9 9 97 10 10 11 11 12 6 13
REMARK SMILES IDX 7 14 5 15 2 16 1 17 3 18 4 19 12 20 13 21 14 22 15 23 19 24
REMARK SMILES IDX 16 25 18 26 17 27 20 28 22 29 21 30 29 31 30 32 31 33 32 34
REMARK SMILES IDX 33 36 34 37 35 38 96 39 36 40 95 41 37 42 38 43 39 44 89 45
REMARK SMILES IDX 40 46 94 47 88 48 90 49 41 50 93 51 87 52 86 53 42 55 74 56
REMARK SMILES IDX 54 57 73 58 55 59 58 60 72 61 91 62 56 63 57 64 71 66 92 67
REMARK SMILES IDX 59 68 43 69 44 70 52 71 45 72 51 73 53 74 50 75 46 76 47 77
REMARK SMILES IDX 48 78 49 79 75 80 76 81 84 82 77 83 83 84 85 85 82 86 78 87
REMARK SMILES IDX 79 88 80 89 81 90 60 91 61 92 69 93 62 94 68 95 70 96 67 97
REMARK SMILES IDX 63 98 64 99 65 100 66 101
REMARK H PARENT 26 6 31 35 90 54 58 65
REMARK Flexibility Score: inf
ROOT
ATOM      1  C   UNL A   1      31.818  27.756  27.182  1.00  0.00     0.023 C 
ENDROOT
BRANCH   1   2
ATOM      2  C   UNL A   1      32.021  26.390  26.527  1.00  0.00     0.116 C 
BRANCH   2   3
ATOM      3  N   UNL A   1      33.368  26.307  25.996  1.00  0.00    -0.354 N 
ATOM      4  C   UNL A   1      33.998  25.216  25.464  1.00  0.00     0.244 C 
ATOM      5  O   UNL A   1      35.229  25.175  25.495  1.00  0.00    -0.273 OA
ATOM      6  H   UNL A   1      33.894  27.138  26.021  1.00  0.00     0.163 HD
BRANCH   4   7
ATOM      7  C   UNL A   1      33.155  24.153  24.746  1.00  0.00     0.194 C 
ATOM      8  N   UNL A   1      33.196  21.687  24.398  1.00  0.00    -0.304 N 
ATOM      9  C   UNL A   1      32.856  21.818  22.987  1.00  0.00     0.144 C 
ATOM     10  C   UNL A   1      33.912  22.824  24.976  1.00  0.00     0.158 C 
ATOM     11  C   UNL A   1      32.124  23.142  22.730  1.00  0.00     0.142 C 
ATOM     12  N   UNL A   1      32.843  24.303  23.285  1.00  0.00    -0.323 N 
BRANCH   8  13
ATOM     13  C   UNL A   1      32.918  20.525  25.081  1.00  0.00     0.410 C 
ATOM     14  O   UNL A   1      33.050  20.415  26.293  1.00  0.00    -0.224 OA
BRANCH  13  15
ATOM     15  O   UNL A   1      32.542  19.525  24.246  1.00  0.00    -0.444 OA
BRANCH  15  16
ATOM     16  C   UNL A   1      33.163  18.213  24.301  1.00  0.00     0.106 C 
ATOM     17  C   UNL A   1      34.654  18.487  24.556  1.00  0.00     0.056 C 
ATOM     18  C   UNL A   1      32.999  17.533  22.941  1.00  0.00     0.056 C 
ATOM     19  C   UNL A   1      32.648  17.329  25.445  1.00  0.00     0.056 C 
ENDBRANCH  15  16
ENDBRANCH  13  15
ENDBRANCH   8  13
BRANCH  12  20
ATOM     20  C   UNL A   1      32.670  25.501  22.582  1.00  0.00     0.254 C 
ATOM     21  O   UNL A   1      33.527  25.963  21.829  1.00  0.00    -0.269 OA
BRANCH  20  22
ATOM     22  C   UNL A   1      31.462  26.328  22.776  1.00  0.00     0.044 A 
ATOM     23  C   UNL A   1      30.451  25.920  23.670  1.00  0.00     0.018 A 
ATOM     24  C   UNL A   1      31.374  27.555  22.108  1.00  0.00     0.064 A 
ATOM     25  C   UNL A   1      29.288  26.684  23.817  1.00  0.00     0.051 A 
ATOM     26  C   UNL A   1      30.220  28.289  22.283  1.00  0.00     0.166 A 
ATOM     27  C   UNL A   1      29.200  27.859  23.100  1.00  0.00     0.165 A 
ATOM     28  O   UNL A   1      29.934  29.474  21.680  1.00  0.00    -0.454 OA
ATOM     29  O   UNL A   1      28.141  28.711  23.101  1.00  0.00    -0.454 OA
ATOM     30  C   UNL A   1      28.613  29.737  22.203  1.00  0.00     0.468 C 
ENDBRANCH  20  22
ENDBRANCH  12  20
ENDBRANCH   4   7
ENDBRANCH   2   3
ENDBRANCH   1   2
BRANCH   1  31
ATOM     31  C   UNL A   1      31.740  28.913  26.179  1.00  0.00     0.023 C 
BRANCH  31  32
ATOM     32  C   UNL A   1      33.019  29.736  26.056  1.00  0.00     0.116 C 
BRANCH  32  33
ATOM     33  N   UNL A   1      32.825  31.112  26.482  1.00  0.00    -0.352 N 
ATOM     34  C   UNL A   1      33.548  31.854  27.381  1.00  0.00     0.251 C 
ATOM     35  H   UNL A   1      32.065  31.578  26.067  1.00  0.00     0.163 HD
ATOM     36  O   UNL A   1      33.103  32.934  27.761  1.00  0.00    -0.269 OA
BRANCH  34  37
ATOM     37  C   UNL A   1      34.832  31.343  27.907  1.00  0.00     0.039 A 
ATOM     38  C   UNL A   1      35.921  32.215  27.965  1.00  0.00     0.014 A 
ATOM     39  C   UNL A   1      34.972  30.018  28.332  1.00  0.00     0.014 A 
ATOM     40  C   UNL A   1      37.131  31.773  28.500  1.00  0.00     0.010 A 
ATOM     41  C   UNL A   1      36.157  29.602  28.937  1.00  0.00     0.010 A 
ATOM     42  C   UNL A   1      37.250  30.475  29.027  1.00  0.00    -0.014 A 
BRANCH  42  43
ATOM     43  C   UNL A   1      38.512  30.048  29.689  1.00  0.00     0.031 A 
ATOM     44  C   UNL A   1      38.879  30.565  31.053  1.00  0.00     0.074 A 
ATOM     45  C   UNL A   1      39.332  29.192  29.045  1.00  0.00     0.049 A 
ATOM     46  N   UNL A   1      39.924  30.281  31.789  1.00  0.00    -0.248 NA
ATOM     47  C   UNL A   1      37.967  31.544  31.663  1.00  0.00     0.031 C 
ATOM     48  C   UNL A   1      39.104  28.659  27.699  1.00  0.00     0.029 A 
ATOM     49  N   UNL A   1      40.511  28.609  29.433  1.00  0.00    -0.354 N 
ATOM     50  C   UNL A   1      39.791  31.036  32.950  1.00  0.00     0.074 A 
ATOM     51  C   UNL A   1      38.602  31.845  32.787  1.00  0.00     0.031 C 
ATOM     52  C   UNL A   1      40.082  27.793  27.395  1.00  0.00     0.029 A 
ATOM     53  C   UNL A   1      41.036  27.744  28.499  1.00  0.00     0.049 A 
ATOM     54  H   UNL A   1      40.943  28.792  30.299  1.00  0.00     0.167 HD
ATOM     55  C   UNL A   1      40.573  31.034  34.058  1.00  0.00     0.034 A 
ATOM     56  C   UNL A   1      42.159  27.000  28.525  1.00  0.00     0.034 A 
ATOM     57  C   UNL A   1      41.757  30.222  34.206  1.00  0.00     0.049 A 
ATOM     58  C   UNL A   1      43.027  27.047  29.758  1.00  0.00     0.074 A 
ATOM     59  C   UNL A   1      42.600  30.118  35.299  1.00  0.00     0.029 A 
ATOM     60  N   UNL A   1      42.273  29.377  33.230  1.00  0.00    -0.354 N 
ATOM     61  N   UNL A   1      42.852  27.725  30.869  1.00  0.00    -0.248 NA
ATOM     62  C   UNL A   1      44.235  26.213  29.744  1.00  0.00     0.031 C 
ATOM     63  C   UNL A   1      43.662  29.274  34.960  1.00  0.00     0.029 A 
ATOM     64  C   UNL A   1      43.438  28.777  33.686  1.00  0.00     0.049 A 
ATOM     65  H   UNL A   1      41.870  29.226  32.345  1.00  0.00     0.167 HD
ATOM     66  C   UNL A   1      43.915  27.372  31.698  1.00  0.00     0.074 A 
ATOM     67  C   UNL A   1      44.699  26.396  30.971  1.00  0.00     0.031 C 
ATOM     68  C   UNL A   1      44.221  27.817  32.944  1.00  0.00     0.034 A 
BRANCH  55  69
ATOM     69  C   UNL A   1      40.179  31.949  35.194  1.00  0.00     0.023 A 
ATOM     70  C   UNL A   1      39.271  31.541  36.188  1.00  0.00     0.031 A 
ATOM     71  C   UNL A   1      40.723  33.242  35.293  1.00  0.00     0.131 A 
ATOM     72  C   UNL A   1      38.892  32.434  37.201  1.00  0.00     0.055 A 
ATOM     73  C   UNL A   1      40.403  34.098  36.348  1.00  0.00     0.041 A 
ATOM     74  F   UNL A   1      41.577  33.696  34.362  1.00  0.00    -0.206 F 
ATOM     75  C   UNL A   1      39.473  33.700  37.305  1.00  0.00     0.022 A 
BRANCH  72  76
ATOM     76  S   UNL A   1      37.537  31.962  38.311  1.00  0.00     0.124 S 
ATOM     77  O   UNL A   1      38.143  32.178  39.623  1.00  0.00    -0.237 OA
ATOM     78  O   UNL A   1      36.481  32.894  37.933  1.00  0.00    -0.237 OA
ATOM     79  O   UNL A   1      37.287  30.563  37.970  1.00  0.00    -0.744 OA
ENDBRANCH  72  76
ENDBRANCH  55  69
BRANCH  56  80
ATOM     80  C   UNL A   1      42.545  26.152  27.358  1.00  0.00     0.023 A 
ATOM     81  C   UNL A   1      42.101  24.825  27.247  1.00  0.00     0.031 A 
ATOM     82  C   UNL A   1      43.435  26.630  26.378  1.00  0.00     0.131 A 
ATOM     83  C   UNL A   1      42.601  24.000  26.227  1.00  0.00     0.055 A 
ATOM     84  C   UNL A   1      43.873  25.826  25.323  1.00  0.00     0.041 A 
ATOM     85  F   UNL A   1      43.893  27.891  26.431  1.00  0.00    -0.206 F 
ATOM     86  C   UNL A   1      43.471  24.496  25.256  1.00  0.00     0.022 A 
BRANCH  83  87
ATOM     87  S   UNL A   1      42.200  22.232  26.270  1.00  0.00     0.124 S 
ATOM     88  O   UNL A   1      42.736  21.839  27.568  1.00  0.00    -0.237 OA
ATOM     89  O   UNL A   1      40.746  22.248  26.154  1.00  0.00    -0.237 OA
ATOM     90  O   UNL A   1      42.911  21.695  25.111  1.00  0.00    -0.744 OA
ENDBRANCH  83  87
ENDBRANCH  56  80
BRANCH  68  91
ATOM     91  C   UNL A   1      45.442  27.213  33.601  1.00  0.00     0.023 A 
ATOM     92  C   UNL A   1      45.358  26.043  34.375  1.00  0.00     0.031 A 
ATOM     93  C   UNL A   1      46.693  27.846  33.498  1.00  0.00     0.131 A 
ATOM     94  C   UNL A   1      46.477  25.594  35.091  1.00  0.00     0.055 A 
ATOM     95  C   UNL A   1      47.824  27.349  34.146  1.00  0.00     0.041 A 
ATOM     96  F   UNL A   1      46.836  28.969  32.775  1.00  0.00    -0.206 F 
ATOM     97  C   UNL A   1      47.716  26.229  34.966  1.00  0.00     0.022 A 
BRANCH  94  98
ATOM     98  S   UNL A   1      46.257  24.260  36.299  1.00  0.00     0.124 S 
ATOM     99  O   UNL A   1      44.986  23.678  35.878  1.00  0.00    -0.237 OA
ATOM    100  O   UNL A   1      47.439  23.436  36.072  1.00  0.00    -0.237 OA
ATOM    101  O   UNL A   1      46.224  24.960  37.582  1.00  0.00    -0.744 OA
ENDBRANCH  94  98
ENDBRANCH  68  91
ENDBRANCH  42  43
ENDBRANCH  34  37
ENDBRANCH  32  33
ENDBRANCH  31  32
ENDBRANCH   1  31
TORSDOF 19
ENDMDL
MODEL 3
REMARK VINA RESULT:     -11.9      2.132      7.520
REMARK SMILES CC(C)(C)OC(=O)N1CCN(C(=O)c2ccc3c(c2)OCO3)[C@H](C(=O)NCCCCNC(=O)c2ccc(-c3c4nc(c(-c5cc(S(=O)(=O)[O-])ccc5F)c5ccc([nH]5)c(-c5cc(S(=O)(=O)[O-])ccc5F)c5nc(c(-c6cc(S(=O)(=O)[O-])ccc6F)c6ccc3[nH]6)C=C5)C=C4)cc2)C1
REMARK SMILES IDX 28 1 27 2 26 3 24 4 25 5 23 7 8 8 9 9 97 10 10 11 11 12 6 13
REMARK SMILES IDX 7 14 5 15 2 16 1 17 3 18 4 19 12 20 13 21 14 22 15 23 19 24
REMARK SMILES IDX 16 25 18 26 17 27 20 28 22 29 21 30 29 31 30 32 31 33 32 34
REMARK SMILES IDX 33 36 34 37 35 38 96 39 36 40 95 41 37 42 38 43 39 44 89 45
REMARK SMILES IDX 40 46 94 47 88 48 90 49 41 50 93 51 87 52 86 53 42 55 74 56
REMARK SMILES IDX 54 57 73 58 55 59 58 60 72 61 91 62 56 63 57 64 71 66 92 67
REMARK SMILES IDX 59 68 43 69 44 70 52 71 45 72 51 73 53 74 50 75 46 76 47 77
REMARK SMILES IDX 48 78 49 79 75 80 76 81 84 82 77 83 83 84 85 85 82 86 78 87
REMARK SMILES IDX 79 88 80 89 81 90 60 91 61 92 69 93 62 94 68 95 70 96 67 97
REMARK SMILES IDX 63 98 64 99 65 100 66 101
REMARK H PARENT 26 6 31 35 90 54 58 65
REMARK Flexibility Score: inf
ROOT
ATOM      1  C   UNL A   1      32.071  27.476  26.905  1.00  0.00     0.023 C 
ENDROOT
BRANCH   1   2
ATOM      2  C   UNL A   1      32.294  26.019  26.501  1.00  0.00     0.116 C 
BRANCH   2   3
ATOM      3  N   UNL A   1      33.610  25.881  25.906  1.00  0.00    -0.354 N 
ATOM      4  C   UNL A   1      34.151  24.779  25.305  1.00  0.00     0.244 C 
ATOM      5  O   UNL A   1      35.378  24.667  25.278  1.00  0.00    -0.273 OA
ATOM      6  H   UNL A   1      34.185  26.679  25.939  1.00  0.00     0.163 HD
BRANCH   4   7
ATOM      7  C   UNL A   1      33.218  23.796  24.585  1.00  0.00     0.194 C 
ATOM      8  N   UNL A   1      33.100  21.348  24.140  1.00  0.00    -0.304 N 
ATOM      9  C   UNL A   1      32.707  21.558  22.751  1.00  0.00     0.144 C 
ATOM     10  C   UNL A   1      33.905  22.418  24.728  1.00  0.00     0.158 C 
ATOM     11  C   UNL A   1      32.044  22.930  22.580  1.00  0.00     0.142 C 
ATOM     12  N   UNL A   1      32.852  24.024  23.147  1.00  0.00    -0.323 N 
BRANCH   8  13
ATOM     13  C   UNL A   1      32.785  20.177  24.788  1.00  0.00     0.410 C 
ATOM     14  O   UNL A   1      31.770  20.037  25.460  1.00  0.00    -0.224 OA
BRANCH  13  15
ATOM     15  O   UNL A   1      33.750  19.238  24.635  1.00  0.00    -0.444 OA
BRANCH  15  16
ATOM     16  C   UNL A   1      33.451  17.913  24.120  1.00  0.00     0.106 C 
ATOM     17  C   UNL A   1      32.678  17.212  25.249  1.00  0.00     0.056 C 
ATOM     18  C   UNL A   1      34.765  17.172  23.872  1.00  0.00     0.056 C 
ATOM     19  C   UNL A   1      32.555  17.918  22.874  1.00  0.00     0.056 C 
ENDBRANCH  15  16
ENDBRANCH  13  15
ENDBRANCH   8  13
BRANCH  12  20
ATOM     20  C   UNL A   1      32.718  25.258  22.500  1.00  0.00     0.254 C 
ATOM     21  O   UNL A   1      33.595  25.731  21.777  1.00  0.00    -0.269 OA
BRANCH  20  22
ATOM     22  C   UNL A   1      31.532  26.109  22.723  1.00  0.00     0.044 A 
ATOM     23  C   UNL A   1      30.484  25.671  23.558  1.00  0.00     0.018 A 
ATOM     24  C   UNL A   1      31.501  27.383  22.144  1.00  0.00     0.064 A 
ATOM     25  C   UNL A   1      29.341  26.460  23.729  1.00  0.00     0.051 A 
ATOM     26  C   UNL A   1      30.366  28.140  22.342  1.00  0.00     0.166 A 
ATOM     27  C   UNL A   1      29.310  27.686  23.099  1.00  0.00     0.165 A 
ATOM     28  O   UNL A   1      30.134  29.374  21.820  1.00  0.00    -0.454 OA
ATOM     29  O   UNL A   1      28.278  28.569  23.134  1.00  0.00    -0.454 OA
ATOM     30  C   UNL A   1      28.807  29.642  22.326  1.00  0.00     0.468 C 
ENDBRANCH  20  22
ENDBRANCH  12  20
ENDBRANCH   4   7
ENDBRANCH   2   3
ENDBRANCH   1   2
BRANCH   1  31
ATOM     31  C   UNL A   1      31.866  28.419  25.713  1.00  0.00     0.023 C 
BRANCH  31  32
ATOM     32  C   UNL A   1      32.960  29.468  25.536  1.00  0.00     0.116 C 
BRANCH  32  33
ATOM     33  N   UNL A   1      32.481  30.810  25.823  1.00  0.00    -0.352 N 
ATOM     34  C   UNL A   1      32.843  31.665  26.833  1.00  0.00     0.251 C 
ATOM     35  H   UNL A   1      31.798  31.154  25.205  1.00  0.00     0.163 HD
ATOM     36  O   UNL A   1      32.176  32.677  27.028  1.00  0.00    -0.269 OA
BRANCH  34  37
ATOM     37  C   UNL A   1      34.006  31.354  27.692  1.00  0.00     0.039 A 
ATOM     38  C   UNL A   1      34.134  30.058  28.195  1.00  0.00     0.014 A 
ATOM     39  C   UNL A   1      34.960  32.327  28.009  1.00  0.00     0.014 A 
ATOM     40  C   UNL A   1      35.244  29.725  28.969  1.00  0.00     0.010 A 
ATOM     41  C   UNL A   1      36.107  31.971  28.717  1.00  0.00     0.010 A 
ATOM     42  C   UNL A   1      36.262  30.666  29.205  1.00  0.00    -0.014 A 
BRANCH  42  43
ATOM     43  C   UNL A   1      37.492  30.272  29.943  1.00  0.00     0.031 A 
ATOM     44  C   UNL A   1      38.521  29.380  29.304  1.00  0.00     0.074 A 
ATOM     45  C   UNL A   1      37.671  30.719  31.204  1.00  0.00     0.049 A 
ATOM     46  N   UNL A   1      39.661  28.957  29.789  1.00  0.00    -0.248 NA
ATOM     47  C   UNL A   1      38.224  28.880  27.954  1.00  0.00     0.031 C 
ATOM     48  C   UNL A   1      36.720  31.552  31.945  1.00  0.00     0.029 A 
ATOM     49  N   UNL A   1      38.712  30.552  32.080  1.00  0.00    -0.354 N 
ATOM     50  C   UNL A   1      40.221  28.152  28.803  1.00  0.00     0.074 A 
ATOM     51  C   UNL A   1      39.261  28.087  27.722  1.00  0.00     0.031 C 
ATOM     52  C   UNL A   1      37.242  31.862  33.141  1.00  0.00     0.029 A 
ATOM     53  C   UNL A   1      38.541  31.211  33.277  1.00  0.00     0.049 A 
ATOM     54  H   UNL A   1      39.509  30.011  31.873  1.00  0.00     0.167 HD
ATOM     55  C   UNL A   1      41.434  27.545  28.789  1.00  0.00     0.034 A 
ATOM     56  C   UNL A   1      39.337  31.281  34.362  1.00  0.00     0.034 A 
ATOM     57  C   UNL A   1      42.382  27.618  29.875  1.00  0.00     0.049 A 
ATOM     58  C   UNL A   1      40.666  30.565  34.330  1.00  0.00     0.074 A 
ATOM     59  C   UNL A   1      43.651  27.070  29.950  1.00  0.00     0.029 A 
ATOM     60  N   UNL A   1      42.165  28.272  31.082  1.00  0.00    -0.354 N 
ATOM     61  N   UNL A   1      41.201  29.856  33.363  1.00  0.00    -0.248 NA
ATOM     62  C   UNL A   1      41.502  30.676  35.531  1.00  0.00     0.031 C 
ATOM     63  C   UNL A   1      44.170  27.328  31.223  1.00  0.00     0.029 A 
ATOM     64  C   UNL A   1      43.263  28.113  31.915  1.00  0.00     0.049 A 
ATOM     65  H   UNL A   1      41.351  28.776  31.311  1.00  0.00     0.167 HD
ATOM     66  C   UNL A   1      42.453  29.464  33.832  1.00  0.00     0.074 A 
ATOM     67  C   UNL A   1      42.602  30.048  35.148  1.00  0.00     0.031 C 
ATOM     68  C   UNL A   1      43.393  28.686  33.234  1.00  0.00     0.034 A 
BRANCH  55  69
ATOM     69  C   UNL A   1      41.800  26.739  27.565  1.00  0.00     0.023 A 
ATOM     70  C   UNL A   1      41.527  25.362  27.480  1.00  0.00     0.031 A 
ATOM     71  C   UNL A   1      42.423  27.354  26.464  1.00  0.00     0.131 A 
ATOM     72  C   UNL A   1      41.924  24.636  26.348  1.00  0.00     0.055 A 
ATOM     73  C   UNL A   1      42.744  26.641  25.306  1.00  0.00     0.041 A 
ATOM     74  F   UNL A   1      42.731  28.660  26.494  1.00  0.00    -0.206 F 
ATOM     75  C   UNL A   1      42.505  25.271  25.248  1.00  0.00     0.022 A 
BRANCH  72  76
ATOM     76  S   UNL A   1      41.782  22.828  26.383  1.00  0.00     0.124 S 
ATOM     77  O   UNL A   1      42.496  22.454  25.164  1.00  0.00    -0.237 OA
ATOM     78  O   UNL A   1      42.438  22.484  27.639  1.00  0.00    -0.237 OA
ATOM     79  O   UNL A   1      40.339  22.597  26.348  1.00  0.00    -0.744 OA
ENDBRANCH  72  76
ENDBRANCH  55  69
BRANCH  56  80
ATOM     80  C   UNL A   1      38.915  32.040  35.576  1.00  0.00     0.023 A 
ATOM     81  C   UNL A   1      38.347  31.383  36.679  1.00  0.00     0.031 A 
ATOM     82  C   UNL A   1      38.994  33.444  35.618  1.00  0.00     0.131 A 
ATOM     83  C   UNL A   1      37.814  32.130  37.743  1.00  0.00     0.055 A 
ATOM     84  C   UNL A   1      38.529  34.178  36.711  1.00  0.00     0.041 A 
ATOM     85  F   UNL A   1      39.528  34.126  34.592  1.00  0.00    -0.206 F 
ATOM     86  C   UNL A   1      37.916  33.521  37.773  1.00  0.00     0.022 A 
BRANCH  83  87
ATOM     87  S   UNL A   1      36.867  31.260  39.021  1.00  0.00     0.124 S 
ATOM     88  O   UNL A   1      37.759  31.360  40.170  1.00  0.00    -0.237 OA
ATOM     89  O   UNL A   1      35.646  32.056  39.086  1.00  0.00    -0.237 OA
ATOM     90  O   UNL A   1      36.705  29.917  38.469  1.00  0.00    -0.744 OA
ENDBRANCH  83  87
ENDBRANCH  56  80
BRANCH  68  91
ATOM     91  C   UNL A   1      44.677  28.463  34.000  1.00  0.00     0.023 A 
ATOM     92  C   UNL A   1      45.776  29.330  33.865  1.00  0.00     0.031 A 
ATOM     93  C   UNL A   1      44.825  27.338  34.831  1.00  0.00     0.131 A 
ATOM     94  C   UNL A   1      46.999  29.012  34.472  1.00  0.00     0.055 A 
ATOM     95  C   UNL A   1      46.020  27.070  35.500  1.00  0.00     0.041 A 
ATOM     96  F   UNL A   1      43.813  26.472  34.998  1.00  0.00    -0.206 F 
ATOM     97  C   UNL A   1      47.123  27.897  35.305  1.00  0.00     0.022 A 
BRANCH  94  98
ATOM     98  S   UNL A   1      48.462  29.993  34.041  1.00  0.00     0.124 S 
ATOM     99  O   UNL A   1      49.536  29.016  34.195  1.00  0.00    -0.237 OA
ATOM    100  O   UNL A   1      48.169  30.405  32.673  1.00  0.00    -0.237 OA
ATOM    101  O   UNL A   1      48.456  31.070  35.029  1.00  0.00    -0.744 OA
ENDBRANCH  94  98
ENDBRANCH  68  91
ENDBRANCH  42  43
ENDBRANCH  34  37
ENDBRANCH  32  33
ENDBRANCH  31  32
ENDBRANCH   1  31
TORSDOF 19
ENDMDL
