MODEL 1
REMARK VINA RESULT:     -11.8      0.000      0.000
REMARK SMILES Nc1cnc(Cl)c(C(=O)NCCCCNC(=O)c2ccc(-c3c4nc(c(-c5cc(S(=O)(=O)[O-])ccc5F)c5ccc([nH]5)c(-c5cc(S(=O)(=O)[O-])ccc5F)c5nc(c(-c6cc(S(=O)(=O)[O-])ccc6F)c6ccc3[nH]6)C=C5)C=C4)cc2)c1
REMARK SMILES IDX 13 1 12 2 11 3 10 4 8 5 9 6 7 8 2 9 3 10 81 11 4 12 5 13
REMARK SMILES IDX 6 14 1 15 14 18 15 19 16 20 17 22 18 23 19 24 80 25 20 26
REMARK SMILES IDX 79 27 21 28 22 29 23 30 73 31 24 32 78 33 72 34 74 35 25 36
REMARK SMILES IDX 77 37 71 38 70 39 26 41 58 42 38 43 57 44 39 45 42 46 56 47
REMARK SMILES IDX 75 48 40 49 41 50 55 52 76 53 43 54 27 55 28 56 36 57 29 58
REMARK SMILES IDX 35 59 37 60 34 61 30 62 31 63 32 64 33 65 59 66 60 67 68 68
REMARK SMILES IDX 61 69 67 70 69 71 66 72 62 73 63 74 64 75 65 76 44 77 45 78
REMARK SMILES IDX 53 79 46 80 52 81 54 82 51 83 47 84 48 85 49 86 50 87
REMARK H PARENT 10 7 1 16 1 17 15 21 74 40 42 51
REMARK Flexibility Score: inf
ROOT
ATOM      1  C   UNL A   1      31.710  30.076  25.398  1.00  0.00     0.023 C 
ENDROOT
BRANCH   1   2
ATOM      2  C   UNL A   1      32.642  29.029  24.777  1.00  0.00     0.023 C 
BRANCH   2   3
ATOM      3  C   UNL A   1      32.098  27.595  24.790  1.00  0.00     0.116 C 
BRANCH   3   4
ATOM      4  N   UNL A   1      31.957  27.090  23.437  1.00  0.00    -0.352 N 
ATOM      5  C   UNL A   1      31.049  27.320  22.431  1.00  0.00     0.254 C 
ATOM      6  O   UNL A   1      31.163  26.624  21.425  1.00  0.00    -0.269 OA
ATOM      7  H   UNL A   1      32.661  26.448  23.187  1.00  0.00     0.163 HD
BRANCH   5   8
ATOM      8  C   UNL A   1      29.966  28.335  22.508  1.00  0.00     0.079 A 
ATOM      9  C   UNL A   1      29.077  30.571  22.088  1.00  0.00     0.051 A 
ATOM     10  C   UNL A   1      27.939  30.181  22.781  1.00  0.00     0.138 A 
ATOM     11  C   UNL A   1      30.117  29.641  22.023  1.00  0.00     0.044 A 
ATOM     12  N   UNL A   1      27.747  28.950  23.298  1.00  0.00    -0.242 NA
ATOM     13  C   UNL A   1      28.756  28.052  23.143  1.00  0.00     0.141 A 
ATOM     14  Cl  UNL A   1      28.298  26.519  23.784  1.00  0.00    -0.061 Cl
BRANCH   9  15
ATOM     15  N   UNL A   1      29.247  31.858  21.606  1.00  0.00    -0.397 N 
ATOM     16  H   UNL A   1      29.031  32.065  20.668  1.00  0.00     0.156 HD
ATOM     17  H   UNL A   1      29.584  32.566  22.202  1.00  0.00     0.156 HD
ENDBRANCH   9  15
ENDBRANCH   5   8
ENDBRANCH   3   4
ENDBRANCH   2   3
ENDBRANCH   1   2
BRANCH   1  18
ATOM     18  C   UNL A   1      32.106  30.540  26.794  1.00  0.00     0.116 C 
BRANCH  18  19
ATOM     19  N   UNL A   1      31.986  31.978  26.987  1.00  0.00    -0.352 N 
ATOM     20  C   UNL A   1      32.909  32.846  27.532  1.00  0.00     0.251 C 
ATOM     21  H   UNL A   1      31.137  32.381  26.693  1.00  0.00     0.163 HD
ATOM     22  O   UNL A   1      32.611  34.018  27.716  1.00  0.00    -0.269 OA
BRANCH  20  23
ATOM     23  C   UNL A   1      34.233  32.325  27.943  1.00  0.00     0.039 A 
ATOM     24  C   UNL A   1      34.372  31.014  28.396  1.00  0.00     0.014 A 
ATOM     25  C   UNL A   1      35.336  33.184  27.931  1.00  0.00     0.014 A 
ATOM     26  C   UNL A   1      35.557  30.619  29.005  1.00  0.00     0.010 A 
ATOM     27  C   UNL A   1      36.556  32.755  28.464  1.00  0.00     0.010 A 
ATOM     28  C   UNL A   1      36.660  31.489  29.059  1.00  0.00    -0.014 A 
BRANCH  28  29
ATOM     29  C   UNL A   1      37.895  31.039  29.755  1.00  0.00     0.031 A 
ATOM     30  C   UNL A   1      38.172  31.446  31.178  1.00  0.00     0.074 A 
ATOM     31  C   UNL A   1      38.721  30.179  29.126  1.00  0.00     0.049 A 
ATOM     32  N   UNL A   1      39.134  31.051  31.972  1.00  0.00    -0.248 NA
ATOM     33  C   UNL A   1      37.253  32.418  31.794  1.00  0.00     0.031 C 
ATOM     34  C   UNL A   1      38.546  29.717  27.748  1.00  0.00     0.029 A 
ATOM     35  N   UNL A   1      39.833  29.504  29.565  1.00  0.00    -0.354 N 
ATOM     36  C   UNL A   1      38.945  31.728  33.172  1.00  0.00     0.074 A 
ATOM     37  C   UNL A   1      37.799  32.591  32.990  1.00  0.00     0.031 C 
ATOM     38  C   UNL A   1      39.462  28.777  27.482  1.00  0.00     0.029 A 
ATOM     39  C   UNL A   1      40.333  28.612  28.644  1.00  0.00     0.049 A 
ATOM     40  H   UNL A   1      40.234  29.645  30.452  1.00  0.00     0.167 HD
ATOM     41  C   UNL A   1      39.651  31.624  34.324  1.00  0.00     0.034 A 
ATOM     42  C   UNL A   1      41.367  27.749  28.724  1.00  0.00     0.034 A 
ATOM     43  C   UNL A   1      40.782  30.748  34.496  1.00  0.00     0.049 A 
ATOM     44  C   UNL A   1      42.144  27.666  30.012  1.00  0.00     0.074 A 
ATOM     45  C   UNL A   1      41.564  30.575  35.624  1.00  0.00     0.029 A 
ATOM     46  N   UNL A   1      41.285  29.892  33.527  1.00  0.00    -0.354 N 
ATOM     47  N   UNL A   1      41.930  28.293  31.145  1.00  0.00    -0.248 NA
ATOM     48  C   UNL A   1      43.301  26.761  30.038  1.00  0.00     0.031 C 
ATOM     49  C   UNL A   1      42.567  29.652  35.324  1.00  0.00     0.029 A 
ATOM     50  C   UNL A   1      42.375  29.200  34.028  1.00  0.00     0.049 A 
ATOM     51  H   UNL A   1      40.921  29.792  32.618  1.00  0.00     0.167 HD
ATOM     52  C   UNL A   1      42.913  27.844  32.022  1.00  0.00     0.074 A 
ATOM     53  C   UNL A   1      43.703  26.871  31.298  1.00  0.00     0.031 C 
ATOM     54  C   UNL A   1      43.144  28.213  33.307  1.00  0.00     0.034 A 
BRANCH  41  55
ATOM     55  C   UNL A   1      39.226  32.455  35.510  1.00  0.00     0.023 A 
ATOM     56  C   UNL A   1      39.718  33.764  35.670  1.00  0.00     0.031 A 
ATOM     57  C   UNL A   1      38.448  31.905  36.544  1.00  0.00     0.131 A 
ATOM     58  C   UNL A   1      39.454  34.466  36.852  1.00  0.00     0.055 A 
ATOM     59  C   UNL A   1      38.157  32.624  37.704  1.00  0.00     0.041 A 
ATOM     60  F   UNL A   1      37.954  30.661  36.438  1.00  0.00    -0.206 F 
ATOM     61  C   UNL A   1      38.672  33.906  37.867  1.00  0.00     0.022 A 
BRANCH  58  62
ATOM     62  S   UNL A   1      40.162  36.111  37.147  1.00  0.00     0.124 S 
ATOM     63  O   UNL A   1      39.366  36.582  38.278  1.00  0.00    -0.237 OA
ATOM     64  O   UNL A   1      41.555  35.793  37.453  1.00  0.00    -0.237 OA
ATOM     65  O   UNL A   1      39.937  36.819  35.892  1.00  0.00    -0.744 OA
ENDBRANCH  58  62
ENDBRANCH  41  55
BRANCH  42  66
ATOM     66  C   UNL A   1      41.663  26.856  27.565  1.00  0.00     0.023 A 
ATOM     67  C   UNL A   1      41.394  25.477  27.624  1.00  0.00     0.031 A 
ATOM     68  C   UNL A   1      42.319  27.352  26.425  1.00  0.00     0.131 A 
ATOM     69  C   UNL A   1      41.847  24.633  26.602  1.00  0.00     0.055 A 
ATOM     70  C   UNL A   1      42.703  26.518  25.374  1.00  0.00     0.041 A 
ATOM     71  F   UNL A   1      42.610  28.658  26.327  1.00  0.00    -0.206 F 
ATOM     72  C   UNL A   1      42.485  25.146  25.469  1.00  0.00     0.022 A 
BRANCH  69  73
ATOM     73  S   UNL A   1      41.761  22.829  26.783  1.00  0.00     0.124 S 
ATOM     74  O   UNL A   1      41.893  22.379  25.401  1.00  0.00    -0.237 OA
ATOM     75  O   UNL A   1      42.907  22.559  27.649  1.00  0.00    -0.237 OA
ATOM     76  O   UNL A   1      40.457  22.608  27.399  1.00  0.00    -0.744 OA
ENDBRANCH  69  73
ENDBRANCH  42  66
BRANCH  54  77
ATOM     77  C   UNL A   1      44.292  27.573  34.047  1.00  0.00     0.023 A 
ATOM     78  C   UNL A   1      44.099  26.354  34.725  1.00  0.00     0.031 A 
ATOM     79  C   UNL A   1      45.518  28.241  34.211  1.00  0.00     0.131 A 
ATOM     80  C   UNL A   1      45.104  25.859  35.566  1.00  0.00     0.055 A 
ATOM     81  C   UNL A   1      46.532  27.721  35.016  1.00  0.00     0.041 A 
ATOM     82  F   UNL A   1      45.743  29.412  33.595  1.00  0.00    -0.206 F 
ATOM     83  C   UNL A   1      46.322  26.532  35.709  1.00  0.00     0.022 A 
BRANCH  80  84
ATOM     84  S   UNL A   1      44.835  24.374  36.573  1.00  0.00     0.124 S 
ATOM     85  O   UNL A   1      46.144  23.728  36.512  1.00  0.00    -0.237 OA
ATOM     86  O   UNL A   1      44.481  24.942  37.871  1.00  0.00    -0.237 OA
ATOM     87  O   UNL A   1      43.760  23.669  35.882  1.00  0.00    -0.744 OA
ENDBRANCH  80  84
ENDBRANCH  54  77
ENDBRANCH  28  29
ENDBRANCH  20  23
ENDBRANCH  18  19
ENDBRANCH   1  18
TORSDOF 15
ENDMDL
MODEL 2
REMARK VINA RESULT:     -11.5      1.340      2.388
REMARK SMILES Nc1cnc(Cl)c(C(=O)NCCCCNC(=O)c2ccc(-c3c4nc(c(-c5cc(S(=O)(=O)[O-])ccc5F)c5ccc([nH]5)c(-c5cc(S(=O)(=O)[O-])ccc5F)c5nc(c(-c6cc(S(=O)(=O)[O-])ccc6F)c6ccc3[nH]6)C=C5)C=C4)cc2)c1
REMARK SMILES IDX 13 1 12 2 11 3 10 4 8 5 9 6 7 8 2 9 3 10 81 11 4 12 5 13
REMARK SMILES IDX 6 14 1 15 14 18 15 19 16 20 17 22 18 23 19 24 80 25 20 26
REMARK SMILES IDX 79 27 21 28 22 29 23 30 73 31 24 32 78 33 72 34 74 35 25 36
REMARK SMILES IDX 77 37 71 38 70 39 26 41 58 42 38 43 57 44 39 45 42 46 56 47
REMARK SMILES IDX 75 48 40 49 41 50 55 52 76 53 43 54 27 55 28 56 36 57 29 58
REMARK SMILES IDX 35 59 37 60 34 61 30 62 31 63 32 64 33 65 59 66 60 67 68 68
REMARK SMILES IDX 61 69 67 70 69 71 66 72 62 73 63 74 64 75 65 76 44 77 45 78
REMARK SMILES IDX 53 79 46 80 52 81 54 82 51 83 47 84 48 85 49 86 50 87
REMARK H PARENT 10 7 1 16 1 17 15 21 74 40 42 51
REMARK Flexibility Score: inf
ROOT
ATOM      1  C   UNL A   1      31.250  30.341  25.497  1.00  0.00     0.023 C 
ENDROOT
BRANCH   1   2
ATOM      2  C   UNL A   1      31.773  29.082  24.797  1.00  0.00     0.023 C 
BRANCH   2   3
ATOM      3  C   UNL A   1      31.401  28.969  23.313  1.00  0.00     0.116 C 
BRANCH   3   4
ATOM      4  N   UNL A   1      32.596  28.907  22.491  1.00  0.00    -0.352 N 
ATOM      5  C   UNL A   1      33.532  27.930  22.255  1.00  0.00     0.254 C 
ATOM      6  O   UNL A   1      34.501  28.257  21.574  1.00  0.00    -0.269 OA
ATOM      7  H   UNL A   1      32.771  29.741  21.998  1.00  0.00     0.163 HD
BRANCH   5   8
ATOM      8  C   UNL A   1      33.431  26.541  22.777  1.00  0.00     0.079 A 
ATOM      9  C   UNL A   1      33.649  24.892  24.565  1.00  0.00     0.051 A 
ATOM     10  C   UNL A   1      33.305  23.925  23.630  1.00  0.00     0.138 A 
ATOM     11  C   UNL A   1      33.773  26.200  24.092  1.00  0.00     0.044 A 
ATOM     12  N   UNL A   1      32.995  24.186  22.344  1.00  0.00    -0.242 NA
ATOM     13  C   UNL A   1      33.054  25.485  21.947  1.00  0.00     0.141 A 
ATOM     14  Cl  UNL A   1      32.542  25.634  20.308  1.00  0.00    -0.061 Cl
BRANCH   9  15
ATOM     15  N   UNL A   1      33.996  24.574  25.867  1.00  0.00    -0.397 N 
ATOM     16  H   UNL A   1      34.514  25.213  26.409  1.00  0.00     0.156 HD
ATOM     17  H   UNL A   1      33.726  23.709  26.252  1.00  0.00     0.156 HD
ENDBRANCH   9  15
ENDBRANCH   5   8
ENDBRANCH   3   4
ENDBRANCH   2   3
ENDBRANCH   1   2
BRANCH   1  18
ATOM     18  C   UNL A   1      32.079  30.805  26.688  1.00  0.00     0.116 C 
BRANCH  18  19
ATOM     19  N   UNL A   1      31.949  32.227  26.971  1.00  0.00    -0.352 N 
ATOM     20  C   UNL A   1      32.858  33.061  27.589  1.00  0.00     0.251 C 
ATOM     21  H   UNL A   1      31.104  32.646  26.688  1.00  0.00     0.163 HD
ATOM     22  O   UNL A   1      32.551  34.218  27.843  1.00  0.00    -0.269 OA
BRANCH  20  23
ATOM     23  C   UNL A   1      34.176  32.519  27.991  1.00  0.00     0.039 A 
ATOM     24  C   UNL A   1      34.297  31.205  28.441  1.00  0.00     0.014 A 
ATOM     25  C   UNL A   1      35.292  33.361  27.974  1.00  0.00     0.014 A 
ATOM     26  C   UNL A   1      35.479  30.791  29.042  1.00  0.00     0.010 A 
ATOM     27  C   UNL A   1      36.508  32.911  28.499  1.00  0.00     0.010 A 
ATOM     28  C   UNL A   1      36.596  31.643  29.091  1.00  0.00    -0.014 A 
BRANCH  28  29
ATOM     29  C   UNL A   1      37.829  31.173  29.779  1.00  0.00     0.031 A 
ATOM     30  C   UNL A   1      38.116  31.566  31.203  1.00  0.00     0.074 A 
ATOM     31  C   UNL A   1      38.640  30.307  29.140  1.00  0.00     0.049 A 
ATOM     32  N   UNL A   1      39.077  31.154  31.990  1.00  0.00    -0.248 NA
ATOM     33  C   UNL A   1      37.212  32.545  31.830  1.00  0.00     0.031 C 
ATOM     34  C   UNL A   1      38.454  29.857  27.760  1.00  0.00     0.029 A 
ATOM     35  N   UNL A   1      39.745  29.615  29.569  1.00  0.00    -0.354 N 
ATOM     36  C   UNL A   1      38.900  31.823  33.196  1.00  0.00     0.074 A 
ATOM     37  C   UNL A   1      37.764  32.702  33.025  1.00  0.00     0.031 C 
ATOM     38  C   UNL A   1      39.358  28.908  27.483  1.00  0.00     0.029 A 
ATOM     39  C   UNL A   1      40.231  28.723  28.640  1.00  0.00     0.049 A 
ATOM     40  H   UNL A   1      40.152  29.745  30.456  1.00  0.00     0.167 HD
ATOM     41  C   UNL A   1      39.609  31.702  34.344  1.00  0.00     0.034 A 
ATOM     42  C   UNL A   1      41.254  27.847  28.709  1.00  0.00     0.034 A 
ATOM     43  C   UNL A   1      40.731  30.812  34.505  1.00  0.00     0.049 A 
ATOM     44  C   UNL A   1      42.036  27.745  29.994  1.00  0.00     0.074 A 
ATOM     45  C   UNL A   1      41.515  30.620  35.629  1.00  0.00     0.029 A 
ATOM     46  N   UNL A   1      41.219  29.956  33.528  1.00  0.00    -0.354 N 
ATOM     47  N   UNL A   1      41.834  28.366  31.132  1.00  0.00    -0.248 NA
ATOM     48  C   UNL A   1      43.181  26.825  30.009  1.00  0.00     0.031 C 
ATOM     49  C   UNL A   1      42.505  29.687  35.318  1.00  0.00     0.029 A 
ATOM     50  C   UNL A   1      42.302  29.247  34.020  1.00  0.00     0.049 A 
ATOM     51  H   UNL A   1      40.850  29.867  32.620  1.00  0.00     0.167 HD
ATOM     52  C   UNL A   1      42.815  27.898  32.002  1.00  0.00     0.074 A 
ATOM     53  C   UNL A   1      43.589  26.921  31.267  1.00  0.00     0.031 C 
ATOM     54  C   UNL A   1      43.055  28.256  33.288  1.00  0.00     0.034 A 
BRANCH  41  55
ATOM     55  C   UNL A   1      39.200  32.530  35.538  1.00  0.00     0.023 A 
ATOM     56  C   UNL A   1      39.680  33.845  35.686  1.00  0.00     0.031 A 
ATOM     57  C   UNL A   1      38.449  31.973  36.589  1.00  0.00     0.131 A 
ATOM     58  C   UNL A   1      39.433  34.546  36.873  1.00  0.00     0.055 A 
ATOM     59  C   UNL A   1      38.174  32.690  37.754  1.00  0.00     0.041 A 
ATOM     60  F   UNL A   1      37.967  30.723  36.494  1.00  0.00    -0.206 F 
ATOM     61  C   UNL A   1      38.679  33.978  37.905  1.00  0.00     0.022 A 
BRANCH  58  62
ATOM     62  S   UNL A   1      40.129  36.198  37.151  1.00  0.00     0.124 S 
ATOM     63  O   UNL A   1      39.892  36.844  35.862  1.00  0.00    -0.237 OA
ATOM     64  O   UNL A   1      39.311  36.692  38.256  1.00  0.00    -0.237 OA
ATOM     65  O   UNL A   1      41.529  35.940  37.468  1.00  0.00    -0.744 OA
ENDBRANCH  58  62
ENDBRANCH  41  55
BRANCH  42  66
ATOM     66  C   UNL A   1      41.534  26.959  27.543  1.00  0.00     0.023 A 
ATOM     67  C   UNL A   1      41.130  25.612  27.543  1.00  0.00     0.031 A 
ATOM     68  C   UNL A   1      42.305  27.417  26.461  1.00  0.00     0.131 A 
ATOM     69  C   UNL A   1      41.563  24.753  26.524  1.00  0.00     0.055 A 
ATOM     70  C   UNL A   1      42.671  26.575  25.408  1.00  0.00     0.041 A 
ATOM     71  F   UNL A   1      42.726  28.690  26.421  1.00  0.00    -0.206 F 
ATOM     72  C   UNL A   1      42.316  25.230  25.448  1.00  0.00     0.022 A 
BRANCH  69  73
ATOM     73  S   UNL A   1      41.291  22.962  26.643  1.00  0.00     0.124 S 
ATOM     74  O   UNL A   1      39.843  22.864  26.491  1.00  0.00    -0.237 OA
ATOM     75  O   UNL A   1      42.081  22.464  25.519  1.00  0.00    -0.237 OA
ATOM     76  O   UNL A   1      41.814  22.624  27.962  1.00  0.00    -0.744 OA
ENDBRANCH  69  73
ENDBRANCH  42  66
BRANCH  54  77
ATOM     77  C   UNL A   1      44.198  27.596  34.019  1.00  0.00     0.023 A 
ATOM     78  C   UNL A   1      43.964  26.450  34.803  1.00  0.00     0.031 A 
ATOM     79  C   UNL A   1      45.473  28.187  34.066  1.00  0.00     0.131 A 
ATOM     80  C   UNL A   1      44.979  25.952  35.630  1.00  0.00     0.055 A 
ATOM     81  C   UNL A   1      46.494  27.661  34.859  1.00  0.00     0.041 A 
ATOM     82  F   UNL A   1      45.740  29.288  33.346  1.00  0.00    -0.206 F 
ATOM     83  C   UNL A   1      46.245  26.547  35.656  1.00  0.00     0.022 A 
BRANCH  80  84
ATOM     84  S   UNL A   1      44.669  24.572  36.766  1.00  0.00     0.124 S 
ATOM     85  O   UNL A   1      43.692  25.152  37.684  1.00  0.00    -0.237 OA
ATOM     86  O   UNL A   1      44.147  23.546  35.868  1.00  0.00    -0.237 OA
ATOM     87  O   UNL A   1      45.979  24.292  37.346  1.00  0.00    -0.744 OA
ENDBRANCH  80  84
ENDBRANCH  54  77
ENDBRANCH  28  29
ENDBRANCH  20  23
ENDBRANCH  18  19
ENDBRANCH   1  18
TORSDOF 15
ENDMDL
MODEL 3
REMARK VINA RESULT:     -11.5      5.822     10.734
REMARK SMILES Nc1cnc(Cl)c(C(=O)NCCCCNC(=O)c2ccc(-c3c4nc(c(-c5cc(S(=O)(=O)[O-])ccc5F)c5ccc([nH]5)c(-c5cc(S(=O)(=O)[O-])ccc5F)c5nc(c(-c6cc(S(=O)(=O)[O-])ccc6F)c6ccc3[nH]6)C=C5)C=C4)cc2)c1
REMARK SMILES IDX 13 1 12 2 11 3 10 4 8 5 9 6 7 8 2 9 3 10 81 11 4 12 5 13
REMARK SMILES IDX 6 14 1 15 14 18 15 19 16 20 17 22 18 23 19 24 80 25 20 26
REMARK SMILES IDX 79 27 21 28 22 29 23 30 73 31 24 32 78 33 72 34 74 35 25 36
REMARK SMILES IDX 77 37 71 38 70 39 26 41 58 42 38 43 57 44 39 45 42 46 56 47
REMARK SMILES IDX 75 48 40 49 41 50 55 52 76 53 43 54 27 55 28 56 36 57 29 58
REMARK SMILES IDX 35 59 37 60 34 61 30 62 31 63 32 64 33 65 59 66 60 67 68 68
REMARK SMILES IDX 61 69 67 70 69 71 66 72 62 73 63 74 64 75 65 76 44 77 45 78
REMARK SMILES IDX 53 79 46 80 52 81 54 82 51 83 47 84 48 85 49 86 50 87
REMARK H PARENT 10 7 1 16 1 17 15 21 74 40 42 51
REMARK Flexibility Score: inf
ROOT
ATOM      1  C   UNL A   1      36.818  22.665  23.818  1.00  0.00     0.023 C 
ENDROOT
BRANCH   1   2
ATOM      2  C   UNL A   1      35.337  22.984  23.582  1.00  0.00     0.023 C 
BRANCH   2   3
ATOM      3  C   UNL A   1      34.531  23.274  24.855  1.00  0.00     0.116 C 
BRANCH   3   4
ATOM      4  N   UNL A   1      33.126  23.453  24.538  1.00  0.00    -0.352 N 
ATOM      5  C   UNL A   1      32.114  22.586  24.204  1.00  0.00     0.254 C 
ATOM      6  O   UNL A   1      31.043  23.096  23.882  1.00  0.00    -0.269 OA
ATOM      7  H   UNL A   1      32.838  24.394  24.570  1.00  0.00     0.163 HD
BRANCH   5   8
ATOM      8  C   UNL A   1      32.255  21.106  24.209  1.00  0.00     0.079 A 
ATOM      9  C   UNL A   1      32.609  18.980  25.359  1.00  0.00     0.051 A 
ATOM     10  C   UNL A   1      32.600  18.374  24.110  1.00  0.00     0.138 A 
ATOM     11  C   UNL A   1      32.502  20.372  25.377  1.00  0.00     0.044 A 
ATOM     12  N   UNL A   1      32.398  19.028  22.948  1.00  0.00    -0.242 NA
ATOM     13  C   UNL A   1      32.220  20.374  23.021  1.00  0.00     0.141 A 
ATOM     14  Cl  UNL A   1      31.891  21.021  21.458  1.00  0.00    -0.061 Cl
BRANCH   9  15
ATOM     15  N   UNL A   1      32.857  18.274  26.524  1.00  0.00    -0.397 N 
ATOM     16  H   UNL A   1      33.012  18.756  27.369  1.00  0.00     0.156 HD
ATOM     17  H   UNL A   1      32.879  17.290  26.508  1.00  0.00     0.156 HD
ENDBRANCH   9  15
ENDBRANCH   5   8
ENDBRANCH   3   4
ENDBRANCH   2   3
ENDBRANCH   1   2
BRANCH   1  18
ATOM     18  C   UNL A   1      37.201  22.432  25.275  1.00  0.00     0.116 C 
BRANCH  18  19
ATOM     19  N   UNL A   1      38.191  21.381  25.458  1.00  0.00    -0.352 N 
ATOM     20  C   UNL A   1      39.402  21.455  26.114  1.00  0.00     0.251 C 
ATOM     21  H   UNL A   1      37.969  20.508  25.062  1.00  0.00     0.163 HD
ATOM     22  O   UNL A   1      40.169  20.502  26.092  1.00  0.00    -0.269 OA
BRANCH  20  23
ATOM     23  C   UNL A   1      39.782  22.718  26.788  1.00  0.00     0.039 A 
ATOM     24  C   UNL A   1      39.276  23.940  26.345  1.00  0.00     0.014 A 
ATOM     25  C   UNL A   1      40.704  22.679  27.838  1.00  0.00     0.014 A 
ATOM     26  C   UNL A   1      39.826  25.124  26.822  1.00  0.00     0.010 A 
ATOM     27  C   UNL A   1      41.191  23.874  28.379  1.00  0.00     0.010 A 
ATOM     28  C   UNL A   1      40.800  25.106  27.835  1.00  0.00    -0.014 A 
BRANCH  28  29
ATOM     29  C   UNL A   1      41.390  26.395  28.287  1.00  0.00     0.031 A 
ATOM     30  C   UNL A   1      42.795  26.777  27.907  1.00  0.00     0.074 A 
ATOM     31  C   UNL A   1      40.613  27.265  28.962  1.00  0.00     0.049 A 
ATOM     32  N   UNL A   1      43.423  27.906  28.114  1.00  0.00    -0.248 NA
ATOM     33  C   UNL A   1      43.604  25.766  27.204  1.00  0.00     0.031 C 
ATOM     34  C   UNL A   1      39.235  26.998  29.379  1.00  0.00     0.029 A 
ATOM     35  N   UNL A   1      40.840  28.555  29.373  1.00  0.00    -0.354 N 
ATOM     36  C   UNL A   1      44.695  27.743  27.577  1.00  0.00     0.074 A 
ATOM     37  C   UNL A   1      44.767  26.390  27.071  1.00  0.00     0.031 C 
ATOM     38  C   UNL A   1      38.715  28.112  29.910  1.00  0.00     0.029 A 
ATOM     39  C   UNL A   1      39.737  29.156  29.934  1.00  0.00     0.049 A 
ATOM     40  H   UNL A   1      41.710  29.006  29.277  1.00  0.00     0.167 HD
ATOM     41  C   UNL A   1      45.704  28.645  27.498  1.00  0.00     0.034 A 
ATOM     42  C   UNL A   1      39.559  30.407  30.405  1.00  0.00     0.034 A 
ATOM     43  C   UNL A   1      45.614  29.995  27.993  1.00  0.00     0.049 A 
ATOM     44  C   UNL A   1      40.702  31.385  30.318  1.00  0.00     0.074 A 
ATOM     45  C   UNL A   1      46.583  30.982  27.962  1.00  0.00     0.029 A 
ATOM     46  N   UNL A   1      44.495  30.554  28.594  1.00  0.00    -0.354 N 
ATOM     47  N   UNL A   1      41.888  31.219  29.780  1.00  0.00    -0.248 NA
ATOM     48  C   UNL A   1      40.489  32.718  30.899  1.00  0.00     0.031 C 
ATOM     49  C   UNL A   1      46.069  32.120  28.584  1.00  0.00     0.029 A 
ATOM     50  C   UNL A   1      44.756  31.866  28.949  1.00  0.00     0.049 A 
ATOM     51  H   UNL A   1      43.642  30.086  28.745  1.00  0.00     0.167 HD
ATOM     52  C   UNL A   1      42.553  32.431  29.941  1.00  0.00     0.074 A 
ATOM     53  C   UNL A   1      41.628  33.329  30.599  1.00  0.00     0.031 C 
ATOM     54  C   UNL A   1      43.819  32.763  29.584  1.00  0.00     0.034 A 
BRANCH  41  55
ATOM     55  C   UNL A   1      46.996  28.229  26.838  1.00  0.00     0.023 A 
ATOM     56  C   UNL A   1      47.098  28.200  25.435  1.00  0.00     0.031 A 
ATOM     57  C   UNL A   1      48.075  27.737  27.595  1.00  0.00     0.131 A 
ATOM     58  C   UNL A   1      48.239  27.656  24.832  1.00  0.00     0.055 A 
ATOM     59  C   UNL A   1      49.225  27.231  26.988  1.00  0.00     0.041 A 
ATOM     60  F   UNL A   1      48.027  27.746  28.937  1.00  0.00    -0.206 F 
ATOM     61  C   UNL A   1      49.305  27.177  25.600  1.00  0.00     0.022 A 
BRANCH  58  62
ATOM     62  S   UNL A   1      48.363  27.495  23.029  1.00  0.00     0.124 S 
ATOM     63  O   UNL A   1      48.295  26.046  22.852  1.00  0.00    -0.237 OA
ATOM     64  O   UNL A   1      47.188  28.234  22.575  1.00  0.00    -0.237 OA
ATOM     65  O   UNL A   1      49.651  28.099  22.711  1.00  0.00    -0.744 OA
ENDBRANCH  58  62
ENDBRANCH  41  55
BRANCH  42  66
ATOM     66  C   UNL A   1      38.219  30.806  30.929  1.00  0.00     0.023 A 
ATOM     67  C   UNL A   1      37.259  31.401  30.090  1.00  0.00     0.031 A 
ATOM     68  C   UNL A   1      37.922  30.696  32.298  1.00  0.00     0.131 A 
ATOM     69  C   UNL A   1      36.085  31.932  30.640  1.00  0.00     0.055 A 
ATOM     70  C   UNL A   1      36.717  31.160  32.830  1.00  0.00     0.041 A 
ATOM     71  F   UNL A   1      38.810  30.148  33.141  1.00  0.00    -0.206 F 
ATOM     72  C   UNL A   1      35.800  31.800  32.001  1.00  0.00     0.022 A 
BRANCH  69  73
ATOM     73  S   UNL A   1      34.966  32.945  29.632  1.00  0.00     0.124 S 
ATOM     74  O   UNL A   1      35.895  33.854  28.968  1.00  0.00    -0.237 OA
ATOM     75  O   UNL A   1      34.342  31.940  28.774  1.00  0.00    -0.237 OA
ATOM     76  O   UNL A   1      34.077  33.555  30.615  1.00  0.00    -0.744 OA
ENDBRANCH  69  73
ENDBRANCH  42  66
BRANCH  54  77
ATOM     77  C   UNL A   1      44.310  34.159  29.880  1.00  0.00     0.023 A 
ATOM     78  C   UNL A   1      44.047  35.203  28.972  1.00  0.00     0.031 A 
ATOM     79  C   UNL A   1      45.161  34.419  30.967  1.00  0.00     0.131 A 
ATOM     80  C   UNL A   1      44.662  36.450  29.148  1.00  0.00     0.055 A 
ATOM     81  C   UNL A   1      45.736  35.676  31.162  1.00  0.00     0.041 A 
ATOM     82  F   UNL A   1      45.450  33.451  31.852  1.00  0.00    -0.206 F 
ATOM     83  C   UNL A   1      45.499  36.693  30.242  1.00  0.00     0.022 A 
BRANCH  80  84
ATOM     84  S   UNL A   1      44.470  37.771  27.920  1.00  0.00     0.124 S 
ATOM     85  O   UNL A   1      43.804  38.812  28.699  1.00  0.00    -0.237 OA
ATOM     86  O   UNL A   1      45.855  38.056  27.556  1.00  0.00    -0.237 OA
ATOM     87  O   UNL A   1      43.658  37.163  26.871  1.00  0.00    -0.744 OA
ENDBRANCH  80  84
ENDBRANCH  54  77
ENDBRANCH  28  29
ENDBRANCH  20  23
ENDBRANCH  18  19
ENDBRANCH   1  18
TORSDOF 15
ENDMDL
