MODEL 1
REMARK VINA RESULT:     -11.8      0.000      0.000
REMARK SMILES Cc1cc(C)nc(SCC(=O)N2CCC[C@H](C(=O)NCCCCNC(=O)c3ccc(-c4c5nc(c(-c6cc(S(=O)(=O)[O-])ccc6F)c6ccc([nH]6)c(-c6cc(S(=O)(=O)[O-])ccc6F)c6nc(c(-c7cc(S(=O)(=O)[O-])ccc7F)c7ccc4[nH]7)C=C6)C=C5)cc3)C2)n1
REMARK SMILES IDX 21 1 20 2 19 3 17 4 18 5 16 7 12 8 13 9 90 10 14 11 15 12
REMARK SMILES IDX 10 13 11 14 9 15 8 16 7 17 1 18 2 19 3 20 91 21 4 22 5 23
REMARK SMILES IDX 6 24 22 25 23 26 24 27 25 28 26 30 27 31 28 32 89 33 29 34
REMARK SMILES IDX 88 35 30 36 31 37 32 38 82 39 33 40 87 41 81 42 83 43 34 44
REMARK SMILES IDX 86 45 80 46 79 47 35 49 67 50 47 51 66 52 48 53 51 54 65 55
REMARK SMILES IDX 84 56 49 57 50 58 64 60 85 61 52 62 36 63 37 64 45 65 38 66
REMARK SMILES IDX 44 67 46 68 43 69 39 70 40 71 41 72 42 73 68 74 69 75 77 76
REMARK SMILES IDX 70 77 76 78 78 79 75 80 71 81 72 82 73 83 74 84 53 85 54 86
REMARK SMILES IDX 62 87 55 88 61 89 63 90 60 91 56 92 57 93 58 94 59 95
REMARK H PARENT 19 6 24 29 83 48 51 59
REMARK Flexibility Score: inf
ROOT
ATOM      1  C   UNL A   1      32.554  27.151  26.724  1.00  0.00     0.023 C 
ENDROOT
BRANCH   1   2
ATOM      2  C   UNL A   1      32.872  26.137  25.631  1.00  0.00     0.116 C 
BRANCH   2   3
ATOM      3  N   UNL A   1      34.065  25.367  25.898  1.00  0.00    -0.356 N 
ATOM      4  C   UNL A   1      34.450  24.140  25.466  1.00  0.00     0.224 C 
ATOM      5  O   UNL A   1      35.599  23.791  25.764  1.00  0.00    -0.275 OA
ATOM      6  H   UNL A   1      34.709  25.808  26.497  1.00  0.00     0.163 HD
BRANCH   4   7
ATOM      7  C   UNL A   1      33.565  23.183  24.653  1.00  0.00     0.098 C 
ATOM      8  N   UNL A   1      32.427  24.259  22.691  1.00  0.00    -0.341 N 
ATOM      9  C   UNL A   1      31.116  23.777  23.136  1.00  0.00     0.119 C 
ATOM     10  C   UNL A   1      33.559  23.461  23.146  1.00  0.00     0.133 C 
ATOM     11  C   UNL A   1      31.010  23.583  24.646  1.00  0.00     0.022 C 
ATOM     12  C   UNL A   1      32.200  22.853  25.258  1.00  0.00     0.017 C 
BRANCH   8  13
ATOM     13  C   UNL A   1      32.500  25.484  22.037  1.00  0.00     0.233 C 
ATOM     14  O   UNL A   1      33.601  25.843  21.584  1.00  0.00    -0.274 OA
BRANCH  13  15
ATOM     15  C   UNL A   1      31.390  26.533  22.036  1.00  0.00     0.178 C 
BRANCH  15  16
ATOM     16  S   UNL A   1      31.671  28.237  22.518  1.00  0.00    -0.076 SA
BRANCH  16  17
ATOM     17  C   UNL A   1      30.032  28.915  22.392  1.00  0.00     0.188 A 
ATOM     18  C   UNL A   1      28.300  31.758  20.868  1.00  0.00     0.067 C 
ATOM     19  C   UNL A   1      28.554  30.492  21.631  1.00  0.00     0.042 A 
ATOM     20  C   UNL A   1      27.508  29.858  22.274  1.00  0.00     0.047 A 
ATOM     21  N   UNL A   1      29.820  30.022  21.665  1.00  0.00    -0.228 NA
ATOM     22  C   UNL A   1      27.820  28.712  22.976  1.00  0.00     0.042 A 
ATOM     23  C   UNL A   1      26.750  27.963  23.712  1.00  0.00     0.067 C 
ATOM     24  N   UNL A   1      29.077  28.233  23.047  1.00  0.00    -0.228 NA
ENDBRANCH  16  17
ENDBRANCH  15  16
ENDBRANCH  13  15
ENDBRANCH   8  13
ENDBRANCH   4   7
ENDBRANCH   2   3
ENDBRANCH   1   2
BRANCH   1  25
ATOM     25  C   UNL A   1      32.057  28.498  26.209  1.00  0.00     0.023 C 
BRANCH  25  26
ATOM     26  C   UNL A   1      33.142  29.545  25.975  1.00  0.00     0.116 C 
BRANCH  26  27
ATOM     27  N   UNL A   1      32.775  30.897  26.369  1.00  0.00    -0.352 N 
ATOM     28  C   UNL A   1      33.436  31.730  27.251  1.00  0.00     0.251 C 
ATOM     29  H   UNL A   1      31.958  31.261  25.960  1.00  0.00     0.163 HD
ATOM     30  O   UNL A   1      32.962  32.809  27.567  1.00  0.00    -0.269 OA
BRANCH  28  31
ATOM     31  C   UNL A   1      34.710  31.262  27.841  1.00  0.00     0.039 A 
ATOM     32  C   UNL A   1      35.763  32.165  27.994  1.00  0.00     0.014 A 
ATOM     33  C   UNL A   1      34.829  29.950  28.310  1.00  0.00     0.014 A 
ATOM     34  C   UNL A   1      36.907  31.774  28.692  1.00  0.00     0.010 A 
ATOM     35  C   UNL A   1      35.927  29.594  29.082  1.00  0.00     0.010 A 
ATOM     36  C   UNL A   1      36.983  30.499  29.278  1.00  0.00    -0.014 A 
BRANCH  36  37
ATOM     37  C   UNL A   1      38.168  30.081  30.072  1.00  0.00     0.031 A 
ATOM     38  C   UNL A   1      38.371  30.633  31.457  1.00  0.00     0.074 A 
ATOM     39  C   UNL A   1      39.095  29.272  29.524  1.00  0.00     0.049 A 
ATOM     40  N   UNL A   1      39.371  30.459  32.283  1.00  0.00    -0.248 NA
ATOM     41  C   UNL A   1      37.331  31.544  31.956  1.00  0.00     0.031 C 
ATOM     42  C   UNL A   1      39.050  28.731  28.163  1.00  0.00     0.029 A 
ATOM     43  N   UNL A   1      40.262  28.769  30.040  1.00  0.00    -0.354 N 
ATOM     44  C   UNL A   1      39.089  31.255  33.389  1.00  0.00     0.074 A 
ATOM     45  C   UNL A   1      37.872  31.976  33.083  1.00  0.00     0.031 C 
ATOM     46  C   UNL A   1      40.125  27.951  27.964  1.00  0.00     0.029 A 
ATOM     47  C   UNL A   1      40.950  27.959  29.169  1.00  0.00     0.049 A 
ATOM     48  H   UNL A   1      40.577  28.969  30.951  1.00  0.00     0.167 HD
ATOM     49  C   UNL A   1      39.760  31.350  34.564  1.00  0.00     0.034 A 
ATOM     50  C   UNL A   1      42.113  27.295  29.323  1.00  0.00     0.034 A 
ATOM     51  C   UNL A   1      40.962  30.606  34.858  1.00  0.00     0.049 A 
ATOM     52  C   UNL A   1      42.825  27.377  30.648  1.00  0.00     0.074 A 
ATOM     53  C   UNL A   1      41.703  30.583  36.026  1.00  0.00     0.029 A 
ATOM     54  N   UNL A   1      41.599  29.748  33.969  1.00  0.00    -0.354 N 
ATOM     55  N   UNL A   1      42.519  28.089  31.709  1.00  0.00    -0.248 NA
ATOM     56  C   UNL A   1      44.026  26.546  30.804  1.00  0.00     0.031 C 
ATOM     57  C   UNL A   1      42.813  29.754  35.827  1.00  0.00     0.029 A 
ATOM     58  C   UNL A   1      42.730  29.202  34.558  1.00  0.00     0.049 A 
ATOM     59  H   UNL A   1      41.292  29.555  33.054  1.00  0.00     0.167 HD
ATOM     60  C   UNL A   1      43.474  27.767  32.669  1.00  0.00     0.074 A 
ATOM     61  C   UNL A   1      44.355  26.789  32.065  1.00  0.00     0.031 C 
ATOM     62  C   UNL A   1      43.605  28.235  33.938  1.00  0.00     0.034 A 
BRANCH  49  63
ATOM     63  C   UNL A   1      39.205  32.309  35.594  1.00  0.00     0.023 A 
ATOM     64  C   UNL A   1      39.619  33.653  35.644  1.00  0.00     0.031 A 
ATOM     65  C   UNL A   1      38.316  31.862  36.587  1.00  0.00     0.131 A 
ATOM     66  C   UNL A   1      39.244  34.464  36.726  1.00  0.00     0.055 A 
ATOM     67  C   UNL A   1      37.865  32.705  37.605  1.00  0.00     0.041 A 
ATOM     68  F   UNL A   1      37.896  30.587  36.607  1.00  0.00    -0.206 F 
ATOM     69  C   UNL A   1      38.349  34.008  37.693  1.00  0.00     0.022 A 
BRANCH  66  70
ATOM     70  S   UNL A   1      40.102  36.046  36.951  1.00  0.00     0.124 S 
ATOM     71  O   UNL A   1      41.488  35.608  37.109  1.00  0.00    -0.237 OA
ATOM     72  O   UNL A   1      39.792  36.753  35.715  1.00  0.00    -0.237 OA
ATOM     73  O   UNL A   1      39.491  36.597  38.159  1.00  0.00    -0.744 OA
ENDBRANCH  66  70
ENDBRANCH  49  63
BRANCH  50  74
ATOM     74  C   UNL A   1      42.664  26.480  28.205  1.00  0.00     0.023 A 
ATOM     75  C   UNL A   1      43.798  26.901  27.491  1.00  0.00     0.031 A 
ATOM     76  C   UNL A   1      42.057  25.271  27.826  1.00  0.00     0.131 A 
ATOM     77  C   UNL A   1      44.265  26.140  26.409  1.00  0.00     0.055 A 
ATOM     78  C   UNL A   1      42.551  24.494  26.776  1.00  0.00     0.041 A 
ATOM     79  F   UNL A   1      40.979  24.817  28.487  1.00  0.00    -0.206 F 
ATOM     80  C   UNL A   1      43.657  24.934  26.054  1.00  0.00     0.022 A 
BRANCH  77  81
ATOM     81  S   UNL A   1      45.659  26.774  25.436  1.00  0.00     0.124 S 
ATOM     82  O   UNL A   1      45.960  25.638  24.572  1.00  0.00    -0.237 OA
ATOM     83  O   UNL A   1      45.067  27.937  24.782  1.00  0.00    -0.237 OA
ATOM     84  O   UNL A   1      46.670  27.079  26.446  1.00  0.00    -0.744 OA
ENDBRANCH  77  81
ENDBRANCH  50  74
BRANCH  62  85
ATOM     85  C   UNL A   1      44.721  27.647  34.768  1.00  0.00     0.023 A 
ATOM     86  C   UNL A   1      44.539  26.484  35.537  1.00  0.00     0.031 A 
ATOM     87  C   UNL A   1      45.977  28.277  34.805  1.00  0.00     0.131 A 
ATOM     88  C   UNL A   1      45.579  26.021  36.358  1.00  0.00     0.055 A 
ATOM     89  C   UNL A   1      47.026  27.777  35.577  1.00  0.00     0.041 A 
ATOM     90  F   UNL A   1      46.205  29.391  34.092  1.00  0.00    -0.206 F 
ATOM     91  C   UNL A   1      46.826  26.651  36.372  1.00  0.00     0.022 A 
BRANCH  88  92
ATOM     92  S   UNL A   1      45.247  24.643  37.490  1.00  0.00     0.124 S 
ATOM     93  O   UNL A   1      46.444  24.639  38.324  1.00  0.00    -0.237 OA
ATOM     94  O   UNL A   1      44.014  25.069  38.144  1.00  0.00    -0.237 OA
ATOM     95  O   UNL A   1      45.110  23.493  36.598  1.00  0.00    -0.744 OA
ENDBRANCH  88  92
ENDBRANCH  62  85
ENDBRANCH  36  37
ENDBRANCH  28  31
ENDBRANCH  26  27
ENDBRANCH  25  26
ENDBRANCH   1  25
TORSDOF 18
ENDMDL
MODEL 2
REMARK VINA RESULT:     -11.8      2.612      8.599
REMARK SMILES Cc1cc(C)nc(SCC(=O)N2CCC[C@H](C(=O)NCCCCNC(=O)c3ccc(-c4c5nc(c(-c6cc(S(=O)(=O)[O-])ccc6F)c6ccc([nH]6)c(-c6cc(S(=O)(=O)[O-])ccc6F)c6nc(c(-c7cc(S(=O)(=O)[O-])ccc7F)c7ccc4[nH]7)C=C6)C=C5)cc3)C2)n1
REMARK SMILES IDX 21 1 20 2 19 3 17 4 18 5 16 7 12 8 13 9 90 10 14 11 15 12
REMARK SMILES IDX 10 13 11 14 9 15 8 16 7 17 1 18 2 19 3 20 91 21 4 22 5 23
REMARK SMILES IDX 6 24 22 25 23 26 24 27 25 28 26 30 27 31 28 32 89 33 29 34
REMARK SMILES IDX 88 35 30 36 31 37 32 38 82 39 33 40 87 41 81 42 83 43 34 44
REMARK SMILES IDX 86 45 80 46 79 47 35 49 67 50 47 51 66 52 48 53 51 54 65 55
REMARK SMILES IDX 84 56 49 57 50 58 64 60 85 61 52 62 36 63 37 64 45 65 38 66
REMARK SMILES IDX 44 67 46 68 43 69 39 70 40 71 41 72 42 73 68 74 69 75 77 76
REMARK SMILES IDX 70 77 76 78 78 79 75 80 71 81 72 82 73 83 74 84 53 85 54 86
REMARK SMILES IDX 62 87 55 88 61 89 63 90 60 91 56 92 57 93 58 94 59 95
REMARK H PARENT 19 6 24 29 83 48 51 59
REMARK Flexibility Score: inf
ROOT
ATOM      1  C   UNL A   1      33.483  28.350  25.273  1.00  0.00     0.023 C 
ENDROOT
BRANCH   1   2
ATOM      2  C   UNL A   1      33.109  26.877  25.156  1.00  0.00     0.116 C 
BRANCH   2   3
ATOM      3  N   UNL A   1      31.977  26.510  25.976  1.00  0.00    -0.356 N 
ATOM      4  C   UNL A   1      30.773  25.980  25.647  1.00  0.00     0.224 C 
ATOM      5  O   UNL A   1      30.045  25.649  26.591  1.00  0.00    -0.275 OA
ATOM      6  H   UNL A   1      32.102  26.672  26.938  1.00  0.00     0.163 HD
BRANCH   4   7
ATOM      7  C   UNL A   1      30.270  25.777  24.209  1.00  0.00     0.098 C 
ATOM      8  N   UNL A   1      31.952  24.713  22.679  1.00  0.00    -0.341 N 
ATOM      9  C   UNL A   1      31.806  25.796  21.701  1.00  0.00     0.119 C 
ATOM     10  C   UNL A   1      30.792  24.503  23.536  1.00  0.00     0.133 C 
ATOM     11  C   UNL A   1      31.396  27.131  22.315  1.00  0.00     0.022 C 
ATOM     12  C   UNL A   1      30.256  27.022  23.321  1.00  0.00     0.017 C 
BRANCH   8  13
ATOM     13  C   UNL A   1      33.195  24.107  22.821  1.00  0.00     0.233 C 
ATOM     14  O   UNL A   1      34.185  24.677  22.331  1.00  0.00    -0.274 OA
BRANCH  13  15
ATOM     15  C   UNL A   1      33.411  22.681  23.324  1.00  0.00     0.178 C 
BRANCH  15  16
ATOM     16  S   UNL A   1      33.542  22.281  25.066  1.00  0.00    -0.076 SA
BRANCH  16  17
ATOM     17  C   UNL A   1      35.304  22.157  25.270  1.00  0.00     0.188 A 
ATOM     18  C   UNL A   1      38.151  24.240  26.252  1.00  0.00     0.067 C 
ATOM     19  C   UNL A   1      37.339  23.055  25.818  1.00  0.00     0.042 A 
ATOM     20  C   UNL A   1      37.970  21.858  25.539  1.00  0.00     0.047 A 
ATOM     21  N   UNL A   1      36.002  23.216  25.706  1.00  0.00    -0.228 NA
ATOM     22  C   UNL A   1      37.165  20.819  25.122  1.00  0.00     0.042 A 
ATOM     23  C   UNL A   1      37.764  19.486  24.789  1.00  0.00     0.067 C 
ATOM     24  N   UNL A   1      35.832  20.956  24.979  1.00  0.00    -0.228 NA
ENDBRANCH  16  17
ENDBRANCH  15  16
ENDBRANCH  13  15
ENDBRANCH   8  13
ENDBRANCH   4   7
ENDBRANCH   2   3
ENDBRANCH   1   2
BRANCH   1  25
ATOM     25  C   UNL A   1      32.292  29.296  25.390  1.00  0.00     0.023 C 
BRANCH  25  26
ATOM     26  C   UNL A   1      32.078  29.902  26.775  1.00  0.00     0.116 C 
BRANCH  26  27
ATOM     27  N   UNL A   1      31.908  31.347  26.783  1.00  0.00    -0.352 N 
ATOM     28  C   UNL A   1      32.772  32.297  27.294  1.00  0.00     0.251 C 
ATOM     29  H   UNL A   1      31.079  31.689  26.378  1.00  0.00     0.163 HD
ATOM     30  O   UNL A   1      32.459  33.476  27.323  1.00  0.00    -0.269 OA
BRANCH  28  31
ATOM     31  C   UNL A   1      34.068  31.845  27.849  1.00  0.00     0.039 A 
ATOM     32  C   UNL A   1      35.080  32.780  28.065  1.00  0.00     0.014 A 
ATOM     33  C   UNL A   1      34.245  30.510  28.226  1.00  0.00     0.014 A 
ATOM     34  C   UNL A   1      36.243  32.392  28.734  1.00  0.00     0.010 A 
ATOM     35  C   UNL A   1      35.360  30.149  28.971  1.00  0.00     0.010 A 
ATOM     36  C   UNL A   1      36.376  31.083  29.229  1.00  0.00    -0.014 A 
BRANCH  36  37
ATOM     37  C   UNL A   1      37.580  30.663  29.992  1.00  0.00     0.031 A 
ATOM     38  C   UNL A   1      38.574  29.726  29.360  1.00  0.00     0.074 A 
ATOM     39  C   UNL A   1      37.741  31.058  31.270  1.00  0.00     0.049 A 
ATOM     40  N   UNL A   1      39.645  29.178  29.876  1.00  0.00    -0.248 NA
ATOM     41  C   UNL A   1      38.294  29.311  27.978  1.00  0.00     0.031 C 
ATOM     42  C   UNL A   1      36.809  31.905  32.018  1.00  0.00     0.029 A 
ATOM     43  N   UNL A   1      38.742  30.794  32.168  1.00  0.00    -0.354 N 
ATOM     44  C   UNL A   1      40.152  28.339  28.888  1.00  0.00     0.074 A 
ATOM     45  C   UNL A   1      39.220  28.387  27.783  1.00  0.00     0.031 C 
ATOM     46  C   UNL A   1      37.298  32.112  33.252  1.00  0.00     0.029 A 
ATOM     47  C   UNL A   1      38.559  31.390  33.394  1.00  0.00     0.049 A 
ATOM     48  H   UNL A   1      39.521  30.229  31.957  1.00  0.00     0.167 HD
ATOM     49  C   UNL A   1      41.306  27.625  28.887  1.00  0.00     0.034 A 
ATOM     50  C   UNL A   1      39.322  31.361  34.504  1.00  0.00     0.034 A 
ATOM     51  C   UNL A   1      42.233  27.607  29.993  1.00  0.00     0.049 A 
ATOM     52  C   UNL A   1      40.620  30.597  34.474  1.00  0.00     0.074 A 
ATOM     53  C   UNL A   1      43.453  26.960  30.091  1.00  0.00     0.029 A 
ATOM     54  N   UNL A   1      42.041  28.272  31.198  1.00  0.00    -0.354 N 
ATOM     55  N   UNL A   1      41.119  29.853  33.513  1.00  0.00    -0.248 NA
ATOM     56  C   UNL A   1      41.469  30.690  35.668  1.00  0.00     0.031 C 
ATOM     57  C   UNL A   1      43.972  27.192  31.370  1.00  0.00     0.029 A 
ATOM     58  C   UNL A   1      43.112  28.041  32.049  1.00  0.00     0.049 A 
ATOM     59  H   UNL A   1      41.259  28.828  31.417  1.00  0.00     0.167 HD
ATOM     60  C   UNL A   1      42.355  29.414  33.978  1.00  0.00     0.074 A 
ATOM     61  C   UNL A   1      42.529  29.989  35.296  1.00  0.00     0.031 C 
ATOM     62  C   UNL A   1      43.266  28.613  33.366  1.00  0.00     0.034 A 
BRANCH  49  63
ATOM     63  C   UNL A   1      41.597  26.798  27.654  1.00  0.00     0.023 A 
ATOM     64  C   UNL A   1      41.443  25.399  27.655  1.00  0.00     0.031 A 
ATOM     65  C   UNL A   1      42.111  27.398  26.491  1.00  0.00     0.131 A 
ATOM     66  C   UNL A   1      41.909  24.640  26.572  1.00  0.00     0.055 A 
ATOM     67  C   UNL A   1      42.478  26.643  25.375  1.00  0.00     0.041 A 
ATOM     68  F   UNL A   1      42.299  28.725  26.432  1.00  0.00    -0.206 F 
ATOM     69  C   UNL A   1      42.401  25.253  25.420  1.00  0.00     0.022 A 
BRANCH  66  70
ATOM     70  S   UNL A   1      42.045  22.843  26.777  1.00  0.00     0.124 S 
ATOM     71  O   UNL A   1      43.339  22.722  27.447  1.00  0.00    -0.237 OA
ATOM     72  O   UNL A   1      40.875  22.527  27.586  1.00  0.00    -0.237 OA
ATOM     73  O   UNL A   1      42.015  22.339  25.405  1.00  0.00    -0.744 OA
ENDBRANCH  66  70
ENDBRANCH  49  63
BRANCH  50  74
ATOM     74  C   UNL A   1      38.891  32.093  35.728  1.00  0.00     0.023 A 
ATOM     75  C   UNL A   1      38.213  31.434  36.766  1.00  0.00     0.031 A 
ATOM     76  C   UNL A   1      39.142  33.469  35.871  1.00  0.00     0.131 A 
ATOM     77  C   UNL A   1      37.774  32.158  37.885  1.00  0.00     0.055 A 
ATOM     78  C   UNL A   1      38.740  34.177  37.005  1.00  0.00     0.041 A 
ATOM     79  F   UNL A   1      39.800  34.142  34.913  1.00  0.00    -0.206 F 
ATOM     80  C   UNL A   1      38.042  33.523  38.016  1.00  0.00     0.022 A 
BRANCH  77  81
ATOM     81  S   UNL A   1      36.799  31.299  39.151  1.00  0.00     0.124 S 
ATOM     82  O   UNL A   1      37.722  31.286  40.279  1.00  0.00    -0.237 OA
ATOM     83  O   UNL A   1      35.636  32.173  39.282  1.00  0.00    -0.237 OA
ATOM     84  O   UNL A   1      36.529  29.996  38.546  1.00  0.00    -0.744 OA
ENDBRANCH  77  81
ENDBRANCH  50  74
BRANCH  62  85
ATOM     85  C   UNL A   1      44.556  28.358  34.108  1.00  0.00     0.023 A 
ATOM     86  C   UNL A   1      44.675  27.325  35.055  1.00  0.00     0.031 A 
ATOM     87  C   UNL A   1      45.675  29.177  33.878  1.00  0.00     0.131 A 
ATOM     88  C   UNL A   1      45.867  27.178  35.781  1.00  0.00     0.055 A 
ATOM     89  C   UNL A   1      46.877  28.988  34.560  1.00  0.00     0.041 A 
ATOM     90  F   UNL A   1      45.616  30.179  32.986  1.00  0.00    -0.206 F 
ATOM     91  C   UNL A   1      46.974  27.993  35.529  1.00  0.00     0.022 A 
BRANCH  88  92
ATOM     92  S   UNL A   1      45.918  25.972  37.136  1.00  0.00     0.124 S 
ATOM     93  O   UNL A   1      46.594  24.840  36.510  1.00  0.00    -0.237 OA
ATOM     94  O   UNL A   1      46.679  26.685  38.157  1.00  0.00    -0.237 OA
ATOM     95  O   UNL A   1      44.508  25.753  37.453  1.00  0.00    -0.744 OA
ENDBRANCH  88  92
ENDBRANCH  62  85
ENDBRANCH  36  37
ENDBRANCH  28  31
ENDBRANCH  26  27
ENDBRANCH  25  26
ENDBRANCH   1  25
TORSDOF 18
ENDMDL
MODEL 3
REMARK VINA RESULT:     -11.8      2.689      8.576
REMARK SMILES Cc1cc(C)nc(SCC(=O)N2CCC[C@H](C(=O)NCCCCNC(=O)c3ccc(-c4c5nc(c(-c6cc(S(=O)(=O)[O-])ccc6F)c6ccc([nH]6)c(-c6cc(S(=O)(=O)[O-])ccc6F)c6nc(c(-c7cc(S(=O)(=O)[O-])ccc7F)c7ccc4[nH]7)C=C6)C=C5)cc3)C2)n1
REMARK SMILES IDX 21 1 20 2 19 3 17 4 18 5 16 7 12 8 13 9 90 10 14 11 15 12
REMARK SMILES IDX 10 13 11 14 9 15 8 16 7 17 1 18 2 19 3 20 91 21 4 22 5 23
REMARK SMILES IDX 6 24 22 25 23 26 24 27 25 28 26 30 27 31 28 32 89 33 29 34
REMARK SMILES IDX 88 35 30 36 31 37 32 38 82 39 33 40 87 41 81 42 83 43 34 44
REMARK SMILES IDX 86 45 80 46 79 47 35 49 67 50 47 51 66 52 48 53 51 54 65 55
REMARK SMILES IDX 84 56 49 57 50 58 64 60 85 61 52 62 36 63 37 64 45 65 38 66
REMARK SMILES IDX 44 67 46 68 43 69 39 70 40 71 41 72 42 73 68 74 69 75 77 76
REMARK SMILES IDX 70 77 76 78 78 79 75 80 71 81 72 82 73 83 74 84 53 85 54 86
REMARK SMILES IDX 62 87 55 88 61 89 63 90 60 91 56 92 57 93 58 94 59 95
REMARK H PARENT 19 6 24 29 83 48 51 59
REMARK Flexibility Score: inf
ROOT
ATOM      1  C   UNL A   1      32.278  29.901  26.977  1.00  0.00     0.023 C 
ENDROOT
BRANCH   1   2
ATOM      2  C   UNL A   1      33.739  29.488  26.837  1.00  0.00     0.116 C 
BRANCH   2   3
ATOM      3  N   UNL A   1      33.915  28.063  26.684  1.00  0.00    -0.356 N 
ATOM      4  C   UNL A   1      33.550  27.221  25.686  1.00  0.00     0.224 C 
ATOM      5  O   UNL A   1      33.956  26.055  25.776  1.00  0.00    -0.275 OA
ATOM      6  H   UNL A   1      34.381  27.627  27.434  1.00  0.00     0.163 HD
BRANCH   4   7
ATOM      7  C   UNL A   1      32.681  27.618  24.482  1.00  0.00     0.098 C 
ATOM      8  N   UNL A   1      31.874  25.671  23.118  1.00  0.00    -0.341 N 
ATOM      9  C   UNL A   1      32.402  26.264  21.885  1.00  0.00     0.119 C 
ATOM     10  C   UNL A   1      31.553  26.628  24.169  1.00  0.00     0.133 C 
ATOM     11  C   UNL A   1      33.604  27.178  22.107  1.00  0.00     0.022 C 
ATOM     12  C   UNL A   1      33.430  28.156  23.263  1.00  0.00     0.017 C 
BRANCH   8  13
ATOM     13  C   UNL A   1      31.877  24.287  23.245  1.00  0.00     0.233 C 
ATOM     14  O   UNL A   1      32.576  23.627  22.456  1.00  0.00    -0.274 OA
BRANCH  13  15
ATOM     15  C   UNL A   1      30.909  23.494  24.122  1.00  0.00     0.178 C 
BRANCH  15  16
ATOM     16  S   UNL A   1      31.350  22.901  25.755  1.00  0.00    -0.076 SA
BRANCH  16  17
ATOM     17  C   UNL A   1      32.471  21.578  25.361  1.00  0.00     0.188 A 
ATOM     18  C   UNL A   1      32.386  18.088  24.260  1.00  0.00     0.067 C 
ATOM     19  C   UNL A   1      32.899  19.433  24.679  1.00  0.00     0.042 A 
ATOM     20  C   UNL A   1      34.259  19.642  24.794  1.00  0.00     0.047 A 
ATOM     21  N   UNL A   1      31.990  20.398  24.941  1.00  0.00    -0.228 NA
ATOM     22  C   UNL A   1      34.658  20.896  25.208  1.00  0.00     0.042 A 
ATOM     23  C   UNL A   1      36.115  21.211  25.368  1.00  0.00     0.067 C 
ATOM     24  N   UNL A   1      33.775  21.871  25.499  1.00  0.00    -0.228 NA
ENDBRANCH  16  17
ENDBRANCH  15  16
ENDBRANCH  13  15
ENDBRANCH   8  13
ENDBRANCH   4   7
ENDBRANCH   2   3
ENDBRANCH   1   2
BRANCH   1  25
ATOM     25  C   UNL A   1      32.034  31.402  26.869  1.00  0.00     0.023 C 
BRANCH  25  26
ATOM     26  C   UNL A   1      33.128  32.284  27.465  1.00  0.00     0.116 C 
BRANCH  26  27
ATOM     27  N   UNL A   1      32.749  33.675  27.656  1.00  0.00    -0.352 N 
ATOM     28  C   UNL A   1      33.274  34.579  28.559  1.00  0.00     0.251 C 
ATOM     29  H   UNL A   1      32.031  34.013  27.073  1.00  0.00     0.163 HD
ATOM     30  O   UNL A   1      32.793  35.694  28.681  1.00  0.00    -0.269 OA
BRANCH  28  31
ATOM     31  C   UNL A   1      34.405  34.147  29.411  1.00  0.00     0.039 A 
ATOM     32  C   UNL A   1      34.144  33.424  30.575  1.00  0.00     0.014 A 
ATOM     33  C   UNL A   1      35.722  34.394  29.011  1.00  0.00     0.014 A 
ATOM     34  C   UNL A   1      35.207  32.878  31.297  1.00  0.00     0.010 A 
ATOM     35  C   UNL A   1      36.770  33.773  29.678  1.00  0.00     0.010 A 
ATOM     36  C   UNL A   1      36.526  33.012  30.833  1.00  0.00    -0.014 A 
BRANCH  36  37
ATOM     37  C   UNL A   1      37.668  32.393  31.556  1.00  0.00     0.031 A 
ATOM     38  C   UNL A   1      38.433  31.265  30.917  1.00  0.00     0.074 A 
ATOM     39  C   UNL A   1      37.967  32.787  32.809  1.00  0.00     0.049 A 
ATOM     40  N   UNL A   1      39.406  30.539  31.404  1.00  0.00    -0.248 NA
ATOM     41  C   UNL A   1      38.008  30.871  29.565  1.00  0.00     0.031 C 
ATOM     42  C   UNL A   1      37.252  33.818  33.566  1.00  0.00     0.029 A 
ATOM     43  N   UNL A   1      38.946  32.364  33.671  1.00  0.00    -0.354 N 
ATOM     44  C   UNL A   1      39.694  29.590  30.428  1.00  0.00     0.074 A 
ATOM     45  C   UNL A   1      38.731  29.782  29.365  1.00  0.00     0.031 C 
ATOM     46  C   UNL A   1      37.835  33.964  34.767  1.00  0.00     0.029 A 
ATOM     47  C   UNL A   1      38.942  33.020  34.879  1.00  0.00     0.049 A 
ATOM     48  H   UNL A   1      39.591  31.655  33.446  1.00  0.00     0.167 HD
ATOM     49  C   UNL A   1      40.690  28.669  30.402  1.00  0.00     0.034 A 
ATOM     50  C   UNL A   1      39.743  32.879  35.954  1.00  0.00     0.034 A 
ATOM     51  C   UNL A   1      41.654  28.507  31.464  1.00  0.00     0.049 A 
ATOM     52  C   UNL A   1      40.870  31.881  35.894  1.00  0.00     0.074 A 
ATOM     53  C   UNL A   1      42.733  27.643  31.532  1.00  0.00     0.029 A 
ATOM     54  N   UNL A   1      41.654  29.232  32.650  1.00  0.00    -0.354 N 
ATOM     55  N   UNL A   1      41.168  31.027  34.942  1.00  0.00    -0.248 NA
ATOM     56  C   UNL A   1      41.782  31.846  37.044  1.00  0.00     0.031 C 
ATOM     57  C   UNL A   1      43.352  27.809  32.776  1.00  0.00     0.029 A 
ATOM     58  C   UNL A   1      42.704  28.826  33.460  1.00  0.00     0.049 A 
ATOM     59  H   UNL A   1      41.003  29.933  32.883  1.00  0.00     0.167 HD
ATOM     60  C   UNL A   1      42.322  30.375  35.366  1.00  0.00     0.074 A 
ATOM     61  C   UNL A   1      42.670  30.945  36.652  1.00  0.00     0.031 C 
ATOM     62  C   UNL A   1      43.032  29.397  34.745  1.00  0.00     0.034 A 
BRANCH  49  63
ATOM     63  C   UNL A   1      40.755  27.766  29.190  1.00  0.00     0.023 A 
ATOM     64  C   UNL A   1      41.716  27.961  28.180  1.00  0.00     0.031 A 
ATOM     65  C   UNL A   1      39.801  26.752  28.996  1.00  0.00     0.131 A 
ATOM     66  C   UNL A   1      41.629  27.242  26.979  1.00  0.00     0.055 A 
ATOM     67  C   UNL A   1      39.783  25.969  27.840  1.00  0.00     0.041 A 
ATOM     68  F   UNL A   1      38.847  26.526  29.913  1.00  0.00    -0.206 F 
ATOM     69  C   UNL A   1      40.686  26.228  26.811  1.00  0.00     0.022 A 
BRANCH  66  70
ATOM     70  S   UNL A   1      42.635  27.792  25.573  1.00  0.00     0.124 S 
ATOM     71  O   UNL A   1      43.924  28.043  26.216  1.00  0.00    -0.237 OA
ATOM     72  O   UNL A   1      42.581  26.643  24.678  1.00  0.00    -0.237 OA
ATOM     73  O   UNL A   1      41.941  28.988  25.102  1.00  0.00    -0.744 OA
ENDBRANCH  66  70
ENDBRANCH  49  63
BRANCH  50  74
ATOM     74  C   UNL A   1      39.522  33.716  37.167  1.00  0.00     0.023 A 
ATOM     75  C   UNL A   1      38.844  33.206  38.285  1.00  0.00     0.031 A 
ATOM     76  C   UNL A   1      39.978  35.044  37.219  1.00  0.00     0.131 A 
ATOM     77  C   UNL A   1      38.606  34.032  39.394  1.00  0.00     0.055 A 
ATOM     78  C   UNL A   1      39.776  35.849  38.342  1.00  0.00     0.041 A 
ATOM     79  F   UNL A   1      40.645  35.574  36.180  1.00  0.00    -0.206 F 
ATOM     80  C   UNL A   1      39.076  35.346  39.434  1.00  0.00     0.022 A 
BRANCH  77  81
ATOM     81  S   UNL A   1      37.623  33.377  40.773  1.00  0.00     0.124 S 
ATOM     82  O   UNL A   1      37.664  34.486  41.719  1.00  0.00    -0.237 OA
ATOM     83  O   UNL A   1      36.335  33.125  40.134  1.00  0.00    -0.237 OA
ATOM     84  O   UNL A   1      38.359  32.181  41.177  1.00  0.00    -0.744 OA
ENDBRANCH  77  81
ENDBRANCH  50  74
BRANCH  62  85
ATOM     85  C   UNL A   1      44.287  28.923  35.437  1.00  0.00     0.023 A 
ATOM     86  C   UNL A   1      44.275  27.840  36.334  1.00  0.00     0.031 A 
ATOM     87  C   UNL A   1      45.508  29.582  35.210  1.00  0.00     0.131 A 
ATOM     88  C   UNL A   1      45.449  27.487  37.017  1.00  0.00     0.055 A 
ATOM     89  C   UNL A   1      46.685  29.188  35.848  1.00  0.00     0.041 A 
ATOM     90  F   UNL A   1      45.576  30.623  34.365  1.00  0.00    -0.206 F 
ATOM     91  C   UNL A   1      46.657  28.144  36.769  1.00  0.00     0.022 A 
BRANCH  88  92
ATOM     92  S   UNL A   1      45.355  26.223  38.315  1.00  0.00     0.124 S 
ATOM     93  O   UNL A   1      45.105  25.011  37.542  1.00  0.00    -0.237 OA
ATOM     94  O   UNL A   1      46.670  26.321  38.941  1.00  0.00    -0.237 OA
ATOM     95  O   UNL A   1      44.238  26.668  39.146  1.00  0.00    -0.744 OA
ENDBRANCH  88  92
ENDBRANCH  62  85
ENDBRANCH  36  37
ENDBRANCH  28  31
ENDBRANCH  26  27
ENDBRANCH  25  26
ENDBRANCH   1  25
TORSDOF 18
ENDMDL
