MODEL 1
REMARK VINA RESULT:     -10.9      0.000      0.000
REMARK SMILES CC[C@@H]1CCC[C@](CCCCCO)(C(=O)NCCCCNC(=O)c2ccc(-c3c4nc(c(-c5cc(S(=O)(=O)[O-])ccc5F)c5ccc([nH]5)c(-c5cc(S(=O)(=O)[O-])ccc5F)c5nc(c(-c6cc(S(=O)(=O)[O-])ccc6F)c6ccc3[nH]6)C=C5)C=C4)cc2)C1
REMARK SMILES IDX 17 1 16 2 14 3 15 4 7 6 3 7 4 8 87 9 5 10 6 11 2 12 1 13
REMARK SMILES IDX 8 14 9 15 10 16 11 17 12 18 13 19 18 21 19 22 20 23 21 24
REMARK SMILES IDX 22 25 23 27 24 28 25 29 86 30 26 31 85 32 27 33 28 34 29 35
REMARK SMILES IDX 79 36 30 37 84 38 78 39 80 40 31 41 83 42 77 43 76 44 32 46
REMARK SMILES IDX 64 47 44 48 63 49 45 50 48 51 62 52 81 53 46 54 47 55 61 57
REMARK SMILES IDX 82 58 49 59 33 60 34 61 42 62 35 63 41 64 43 65 40 66 36 67
REMARK SMILES IDX 37 68 38 69 39 70 65 71 66 72 74 73 67 74 73 75 75 76 72 77
REMARK SMILES IDX 68 78 69 79 70 80 71 81 50 82 51 83 59 84 52 85 58 86 60 87
REMARK SMILES IDX 57 88 53 89 54 90 55 91 56 92
REMARK H PARENT 16 5 13 20 21 26 80 45 48 56
REMARK Flexibility Score: inf
ROOT
ATOM      1  C   UNL A   1      32.055  26.652  26.556  1.00  0.00     0.116 C 
ENDROOT
BRANCH   1   2
ATOM      2  N   UNL A   1      31.097  25.571  26.717  1.00  0.00    -0.356 N 
ATOM      3  C   UNL A   1      31.231  24.212  26.765  1.00  0.00     0.226 C 
ATOM      4  O   UNL A   1      30.266  23.597  27.231  1.00  0.00    -0.274 OA
ATOM      5  H   UNL A   1      30.166  25.879  26.810  1.00  0.00     0.163 HD
BRANCH   3   6
ATOM      6  C   UNL A   1      32.496  23.452  26.281  1.00  0.00     0.049 C 
ATOM      7  C   UNL A   1      33.099  21.390  24.753  1.00  0.00    -0.010 C 
ATOM      8  C   UNL A   1      33.580  20.604  25.974  1.00  0.00     0.003 C 
ATOM      9  C   UNL A   1      32.086  22.467  25.156  1.00  0.00     0.020 C 
ATOM     10  C   UNL A   1      34.044  21.523  27.095  1.00  0.00     0.001 C 
ATOM     11  C   UNL A   1      32.965  22.540  27.475  1.00  0.00     0.017 C 
BRANCH   7  12
ATOM     12  C   UNL A   1      32.486  20.428  23.707  1.00  0.00     0.000 C 
ATOM     13  C   UNL A   1      32.116  21.099  22.387  1.00  0.00     0.004 C 
ENDBRANCH   7  12
BRANCH   6  14
ATOM     14  C   UNL A   1      33.707  24.395  25.962  1.00  0.00     0.017 C 
BRANCH  14  15
ATOM     15  C   UNL A   1      34.306  24.521  24.554  1.00  0.00     0.001 C 
BRANCH  15  16
ATOM     16  C   UNL A   1      35.771  24.078  24.399  1.00  0.00     0.002 C 
BRANCH  16  17
ATOM     17  C   UNL A   1      36.006  22.788  23.610  1.00  0.00     0.028 C 
BRANCH  17  18
ATOM     18  C   UNL A   1      37.137  21.915  24.140  1.00  0.00     0.156 C 
BRANCH  18  19
ATOM     19  O   UNL A   1      37.894  22.595  25.130  1.00  0.00    -0.396 OA
ATOM     20  H   UNL A   1      37.816  22.126  25.975  1.00  0.00     0.210 HD
ENDBRANCH  18  19
ENDBRANCH  17  18
ENDBRANCH  16  17
ENDBRANCH  15  16
ENDBRANCH  14  15
ENDBRANCH   6  14
ENDBRANCH   3   6
ENDBRANCH   1   2
BRANCH   1  21
ATOM     21  C   UNL A   1      31.671  27.932  27.281  1.00  0.00     0.023 C 
BRANCH  21  22
ATOM     22  C   UNL A   1      31.760  29.188  26.419  1.00  0.00     0.023 C 
BRANCH  22  23
ATOM     23  C   UNL A   1      33.108  29.906  26.433  1.00  0.00     0.116 C 
BRANCH  23  24
ATOM     24  N   UNL A   1      33.034  31.274  26.932  1.00  0.00    -0.352 N 
ATOM     25  C   UNL A   1      33.936  31.965  27.709  1.00  0.00     0.251 C 
ATOM     26  H   UNL A   1      32.224  31.773  26.677  1.00  0.00     0.163 HD
ATOM     27  O   UNL A   1      33.662  33.080  28.129  1.00  0.00    -0.269 OA
BRANCH  25  28
ATOM     28  C   UNL A   1      35.215  31.313  28.065  1.00  0.00     0.039 A 
ATOM     29  C   UNL A   1      36.379  32.082  28.092  1.00  0.00     0.014 A 
ATOM     30  C   UNL A   1      35.238  29.971  28.451  1.00  0.00     0.014 A 
ATOM     31  C   UNL A   1      37.554  31.526  28.601  1.00  0.00     0.010 A 
ATOM     32  C   UNL A   1      36.387  29.447  29.032  1.00  0.00     0.010 A 
ATOM     33  C   UNL A   1      37.555  30.222  29.124  1.00  0.00    -0.014 A 
BRANCH  33  34
ATOM     34  C   UNL A   1      38.759  29.656  29.786  1.00  0.00     0.031 A 
ATOM     35  C   UNL A   1      39.176  30.153  31.142  1.00  0.00     0.074 A 
ATOM     36  C   UNL A   1      39.518  28.754  29.133  1.00  0.00     0.049 A 
ATOM     37  N   UNL A   1      40.233  29.846  31.849  1.00  0.00    -0.248 NA
ATOM     38  C   UNL A   1      38.303  31.156  31.767  1.00  0.00     0.031 C 
ATOM     39  C   UNL A   1      39.248  28.230  27.793  1.00  0.00     0.029 A 
ATOM     40  N   UNL A   1      40.680  28.123  29.506  1.00  0.00    -0.354 N 
ATOM     41  C   UNL A   1      40.161  30.628  32.996  1.00  0.00     0.074 A 
ATOM     42  C   UNL A   1      38.994  31.473  32.850  1.00  0.00     0.031 C 
ATOM     43  C   UNL A   1      40.195  27.336  27.470  1.00  0.00     0.029 A 
ATOM     44  C   UNL A   1      41.167  27.256  28.556  1.00  0.00     0.049 A 
ATOM     45  H   UNL A   1      41.122  28.277  30.371  1.00  0.00     0.167 HD
ATOM     46  C   UNL A   1      40.975  30.624  34.082  1.00  0.00     0.034 A 
ATOM     47  C   UNL A   1      42.276  26.490  28.556  1.00  0.00     0.034 A 
ATOM     48  C   UNL A   1      42.131  29.770  34.211  1.00  0.00     0.049 A 
ATOM     49  C   UNL A   1      43.185  26.520  29.756  1.00  0.00     0.074 A 
ATOM     50  C   UNL A   1      42.992  29.638  35.287  1.00  0.00     0.029 A 
ATOM     51  N   UNL A   1      42.599  28.909  33.225  1.00  0.00    -0.354 N 
ATOM     52  N   UNL A   1      43.075  27.224  30.859  1.00  0.00    -0.248 NA
ATOM     53  C   UNL A   1      44.362  25.645  29.714  1.00  0.00     0.031 C 
ATOM     54  C   UNL A   1      44.014  28.752  34.928  1.00  0.00     0.029 A 
ATOM     55  C   UNL A   1      43.753  28.270  33.655  1.00  0.00     0.049 A 
ATOM     56  H   UNL A   1      42.174  28.772  32.348  1.00  0.00     0.167 HD
ATOM     57  C   UNL A   1      44.155  26.854  31.655  1.00  0.00     0.074 A 
ATOM     58  C   UNL A   1      44.897  25.858  30.909  1.00  0.00     0.031 C 
ATOM     59  C   UNL A   1      44.497  27.292  32.894  1.00  0.00     0.034 A 
BRANCH  46  60
ATOM     60  C   UNL A   1      40.646  31.595  35.191  1.00  0.00     0.023 A 
ATOM     61  C   UNL A   1      39.630  31.328  36.126  1.00  0.00     0.031 A 
ATOM     62  C   UNL A   1      41.311  32.830  35.281  1.00  0.00     0.131 A 
ATOM     63  C   UNL A   1      39.239  32.317  37.040  1.00  0.00     0.055 A 
ATOM     64  C   UNL A   1      40.980  33.775  36.255  1.00  0.00     0.041 A 
ATOM     65  F   UNL A   1      42.277  33.153  34.407  1.00  0.00    -0.206 F 
ATOM     66  C   UNL A   1      39.924  33.531  37.129  1.00  0.00     0.022 A 
BRANCH  63  67
ATOM     67  S   UNL A   1      37.710  32.064  37.984  1.00  0.00     0.124 S 
ATOM     68  O   UNL A   1      36.804  33.011  37.338  1.00  0.00    -0.237 OA
ATOM     69  O   UNL A   1      37.429  30.653  37.756  1.00  0.00    -0.237 OA
ATOM     70  O   UNL A   1      38.090  32.412  39.352  1.00  0.00    -0.744 OA
ENDBRANCH  63  67
ENDBRANCH  46  60
BRANCH  47  71
ATOM     71  C   UNL A   1      42.591  25.626  27.383  1.00  0.00     0.023 A 
ATOM     72  C   UNL A   1      42.156  24.293  27.334  1.00  0.00     0.031 A 
ATOM     73  C   UNL A   1      43.346  26.116  26.303  1.00  0.00     0.131 A 
ATOM     74  C   UNL A   1      42.509  23.481  26.244  1.00  0.00     0.055 A 
ATOM     75  C   UNL A   1      43.657  25.318  25.200  1.00  0.00     0.041 A 
ATOM     76  F   UNL A   1      43.777  27.388  26.298  1.00  0.00    -0.206 F 
ATOM     77  C   UNL A   1      43.246  23.989  25.172  1.00  0.00     0.022 A 
BRANCH  74  78
ATOM     78  S   UNL A   1      42.034  21.731  26.274  1.00  0.00     0.124 S 
ATOM     79  O   UNL A   1      42.880  21.176  25.224  1.00  0.00    -0.237 OA
ATOM     80  O   UNL A   1      42.371  21.349  27.641  1.00  0.00    -0.237 OA
ATOM     81  O   UNL A   1      40.604  21.762  25.974  1.00  0.00    -0.744 OA
ENDBRANCH  74  78
ENDBRANCH  47  71
BRANCH  59  82
ATOM     82  C   UNL A   1      45.709  26.658  33.533  1.00  0.00     0.023 A 
ATOM     83  C   UNL A   1      45.631  25.434  34.221  1.00  0.00     0.031 A 
ATOM     84  C   UNL A   1      46.959  27.299  33.463  1.00  0.00     0.131 A 
ATOM     85  C   UNL A   1      46.769  24.916  34.856  1.00  0.00     0.055 A 
ATOM     86  C   UNL A   1      48.101  26.749  34.046  1.00  0.00     0.041 A 
ATOM     87  F   UNL A   1      47.090  28.472  32.822  1.00  0.00    -0.206 F 
ATOM     88  C   UNL A   1      48.007  25.558  34.759  1.00  0.00     0.022 A 
BRANCH  85  89
ATOM     89  S   UNL A   1      46.594  23.436  35.891  1.00  0.00     0.124 S 
ATOM     90  O   UNL A   1      45.188  23.499  36.275  1.00  0.00    -0.237 OA
ATOM     91  O   UNL A   1      46.955  22.365  34.968  1.00  0.00    -0.237 OA
ATOM     92  O   UNL A   1      47.545  23.662  36.977  1.00  0.00    -0.744 OA
ENDBRANCH  85  89
ENDBRANCH  59  82
ENDBRANCH  33  34
ENDBRANCH  25  28
ENDBRANCH  23  24
ENDBRANCH  22  23
ENDBRANCH  21  22
ENDBRANCH   1  21
TORSDOF 21
ENDMDL
MODEL 2
REMARK VINA RESULT:     -10.9      4.834     10.016
REMARK SMILES CC[C@@H]1CCC[C@](CCCCCO)(C(=O)NCCCCNC(=O)c2ccc(-c3c4nc(c(-c5cc(S(=O)(=O)[O-])ccc5F)c5ccc([nH]5)c(-c5cc(S(=O)(=O)[O-])ccc5F)c5nc(c(-c6cc(S(=O)(=O)[O-])ccc6F)c6ccc3[nH]6)C=C5)C=C4)cc2)C1
REMARK SMILES IDX 17 1 16 2 14 3 15 4 7 6 3 7 4 8 87 9 5 10 6 11 2 12 1 13
REMARK SMILES IDX 8 14 9 15 10 16 11 17 12 18 13 19 18 21 19 22 20 23 21 24
REMARK SMILES IDX 22 25 23 27 24 28 25 29 86 30 26 31 85 32 27 33 28 34 29 35
REMARK SMILES IDX 79 36 30 37 84 38 78 39 80 40 31 41 83 42 77 43 76 44 32 46
REMARK SMILES IDX 64 47 44 48 63 49 45 50 48 51 62 52 81 53 46 54 47 55 61 57
REMARK SMILES IDX 82 58 49 59 33 60 34 61 42 62 35 63 41 64 43 65 40 66 36 67
REMARK SMILES IDX 37 68 38 69 39 70 65 71 66 72 74 73 67 74 73 75 75 76 72 77
REMARK SMILES IDX 68 78 69 79 70 80 71 81 50 82 51 83 59 84 52 85 58 86 60 87
REMARK SMILES IDX 57 88 53 89 54 90 55 91 56 92
REMARK H PARENT 16 5 13 20 21 26 80 45 48 56
REMARK Flexibility Score: inf
ROOT
ATOM      1  C   UNL A   1      34.970  22.947  26.611  1.00  0.00     0.116 C 
ENDROOT
BRANCH   1   2
ATOM      2  N   UNL A   1      33.696  23.161  27.277  1.00  0.00    -0.356 N 
ATOM      3  C   UNL A   1      32.509  23.692  26.858  1.00  0.00     0.226 C 
ATOM      4  O   UNL A   1      31.530  23.436  27.569  1.00  0.00    -0.274 OA
ATOM      5  H   UNL A   1      33.686  22.865  28.216  1.00  0.00     0.163 HD
BRANCH   3   6
ATOM      6  C   UNL A   1      32.354  24.560  25.580  1.00  0.00     0.049 C 
ATOM      7  C   UNL A   1      32.798  27.042  24.809  1.00  0.00    -0.010 C 
ATOM      8  C   UNL A   1      31.293  27.288  24.679  1.00  0.00     0.003 C 
ATOM      9  C   UNL A   1      33.086  25.909  25.800  1.00  0.00     0.020 C 
ATOM     10  C   UNL A   1      30.527  26.001  24.410  1.00  0.00     0.001 C 
ATOM     11  C   UNL A   1      30.829  24.933  25.465  1.00  0.00     0.017 C 
BRANCH   7  12
ATOM     12  C   UNL A   1      33.516  28.342  25.243  1.00  0.00     0.000 C 
ATOM     13  C   UNL A   1      34.112  28.284  26.647  1.00  0.00     0.004 C 
ENDBRANCH   7  12
BRANCH   6  14
ATOM     14  C   UNL A   1      32.707  23.793  24.258  1.00  0.00     0.017 C 
BRANCH  14  15
ATOM     15  C   UNL A   1      31.888  22.595  23.757  1.00  0.00     0.001 C 
BRANCH  15  16
ATOM     16  C   UNL A   1      32.577  21.222  23.841  1.00  0.00     0.002 C 
BRANCH  16  17
ATOM     17  C   UNL A   1      32.076  20.283  24.941  1.00  0.00     0.028 C 
BRANCH  17  18
ATOM     18  C   UNL A   1      33.004  19.114  25.251  1.00  0.00     0.156 C 
BRANCH  18  19
ATOM     19  O   UNL A   1      32.821  18.647  26.579  1.00  0.00    -0.396 OA
ATOM     20  H   UNL A   1      32.364  17.792  26.561  1.00  0.00     0.210 HD
ENDBRANCH  18  19
ENDBRANCH  17  18
ENDBRANCH  16  17
ENDBRANCH  15  16
ENDBRANCH  14  15
ENDBRANCH   6  14
ENDBRANCH   3   6
ENDBRANCH   1   2
BRANCH   1  21
ATOM     21  C   UNL A   1      35.217  21.505  26.198  1.00  0.00     0.023 C 
BRANCH  21  22
ATOM     22  C   UNL A   1      36.227  21.344  25.065  1.00  0.00     0.023 C 
BRANCH  22  23
ATOM     23  C   UNL A   1      37.579  22.021  25.284  1.00  0.00     0.116 C 
BRANCH  23  24
ATOM     24  N   UNL A   1      38.642  21.093  25.650  1.00  0.00    -0.352 N 
ATOM     25  C   UNL A   1      39.812  21.339  26.333  1.00  0.00     0.251 C 
ATOM     26  H   UNL A   1      38.503  20.159  25.370  1.00  0.00     0.163 HD
ATOM     27  O   UNL A   1      40.648  20.456  26.461  1.00  0.00    -0.269 OA
BRANCH  25  28
ATOM     28  C   UNL A   1      40.057  22.698  26.860  1.00  0.00     0.039 A 
ATOM     29  C   UNL A   1      40.906  22.854  27.956  1.00  0.00     0.014 A 
ATOM     30  C   UNL A   1      39.514  23.812  26.216  1.00  0.00     0.014 A 
ATOM     31  C   UNL A   1      41.290  24.138  28.347  1.00  0.00     0.010 A 
ATOM     32  C   UNL A   1      39.961  25.083  26.555  1.00  0.00     0.010 A 
ATOM     33  C   UNL A   1      40.862  25.260  27.618  1.00  0.00    -0.014 A 
BRANCH  33  34
ATOM     34  C   UNL A   1      41.359  26.623  27.937  1.00  0.00     0.031 A 
ATOM     35  C   UNL A   1      42.774  27.007  27.603  1.00  0.00     0.074 A 
ATOM     36  C   UNL A   1      40.562  27.488  28.597  1.00  0.00     0.049 A 
ATOM     37  N   UNL A   1      43.418  28.114  27.870  1.00  0.00    -0.248 NA
ATOM     38  C   UNL A   1      43.578  25.994  26.908  1.00  0.00     0.031 C 
ATOM     39  C   UNL A   1      39.187  27.217  29.022  1.00  0.00     0.029 A 
ATOM     40  N   UNL A   1      40.797  28.768  29.035  1.00  0.00    -0.354 N 
ATOM     41  C   UNL A   1      44.708  27.926  27.388  1.00  0.00     0.074 A 
ATOM     42  C   UNL A   1      44.769  26.571  26.880  1.00  0.00     0.031 C 
ATOM     43  C   UNL A   1      38.691  28.306  29.629  1.00  0.00     0.029 A 
ATOM     44  C   UNL A   1      39.724  29.336  29.681  1.00  0.00     0.049 A 
ATOM     45  H   UNL A   1      41.653  29.234  28.901  1.00  0.00     0.167 HD
ATOM     46  C   UNL A   1      45.739  28.807  27.348  1.00  0.00     0.034 A 
ATOM     47  C   UNL A   1      39.589  30.547  30.257  1.00  0.00     0.034 A 
ATOM     48  C   UNL A   1      45.659  30.156  27.856  1.00  0.00     0.049 A 
ATOM     49  C   UNL A   1      40.753  31.502  30.230  1.00  0.00     0.074 A 
ATOM     50  C   UNL A   1      46.617  31.153  27.814  1.00  0.00     0.029 A 
ATOM     51  N   UNL A   1      44.557  30.696  28.510  1.00  0.00    -0.354 N 
ATOM     52  N   UNL A   1      41.952  31.331  29.722  1.00  0.00    -0.248 NA
ATOM     53  C   UNL A   1      40.542  32.817  30.848  1.00  0.00     0.031 C 
ATOM     54  C   UNL A   1      46.123  32.268  28.500  1.00  0.00     0.029 A 
ATOM     55  C   UNL A   1      44.826  31.998  28.905  1.00  0.00     0.049 A 
ATOM     56  H   UNL A   1      43.709  30.223  28.669  1.00  0.00     0.167 HD
ATOM     57  C   UNL A   1      42.628  32.529  29.934  1.00  0.00     0.074 A 
ATOM     58  C   UNL A   1      41.700  33.415  30.605  1.00  0.00     0.031 C 
ATOM     59  C   UNL A   1      43.899  32.868  29.594  1.00  0.00     0.034 A 
BRANCH  46  60
ATOM     60  C   UNL A   1      47.041  28.316  26.760  1.00  0.00     0.023 A 
ATOM     61  C   UNL A   1      47.270  28.324  25.372  1.00  0.00     0.031 A 
ATOM     62  C   UNL A   1      48.042  27.776  27.586  1.00  0.00     0.131 A 
ATOM     63  C   UNL A   1      48.418  27.713  24.846  1.00  0.00     0.055 A 
ATOM     64  C   UNL A   1      49.226  27.253  27.061  1.00  0.00     0.041 A 
ATOM     65  F   UNL A   1      47.875  27.723  28.917  1.00  0.00    -0.206 F 
ATOM     66  C   UNL A   1      49.411  27.199  25.683  1.00  0.00     0.022 A 
BRANCH  63  67
ATOM     67  S   UNL A   1      48.506  27.437  23.055  1.00  0.00     0.124 S 
ATOM     68  O   UNL A   1      47.305  28.128  22.591  1.00  0.00    -0.237 OA
ATOM     69  O   UNL A   1      49.777  28.059  22.703  1.00  0.00    -0.237 OA
ATOM     70  O   UNL A   1      48.466  25.982  22.929  1.00  0.00    -0.744 OA
ENDBRANCH  63  67
ENDBRANCH  46  60
BRANCH  47  71
ATOM     71  C   UNL A   1      38.304  30.930  30.908  1.00  0.00     0.023 A 
ATOM     72  C   UNL A   1      37.313  31.618  30.193  1.00  0.00     0.031 A 
ATOM     73  C   UNL A   1      38.057  30.628  32.258  1.00  0.00     0.131 A 
ATOM     74  C   UNL A   1      36.132  32.016  30.839  1.00  0.00     0.055 A 
ATOM     75  C   UNL A   1      36.862  30.986  32.886  1.00  0.00     0.041 A 
ATOM     76  F   UNL A   1      38.969  29.962  32.984  1.00  0.00    -0.206 F 
ATOM     77  C   UNL A   1      35.895  31.694  32.178  1.00  0.00     0.022 A 
BRANCH  74  78
ATOM     78  S   UNL A   1      34.928  33.010  29.917  1.00  0.00     0.124 S 
ATOM     79  O   UNL A   1      35.786  34.011  29.292  1.00  0.00    -0.237 OA
ATOM     80  O   UNL A   1      34.338  32.020  29.023  1.00  0.00    -0.237 OA
ATOM     81  O   UNL A   1      34.035  33.515  30.958  1.00  0.00    -0.744 OA
ENDBRANCH  74  78
ENDBRANCH  47  71
BRANCH  59  82
ATOM     82  C   UNL A   1      44.339  34.276  29.912  1.00  0.00     0.023 A 
ATOM     83  C   UNL A   1      44.103  35.344  29.028  1.00  0.00     0.031 A 
ATOM     84  C   UNL A   1      45.018  34.548  31.113  1.00  0.00     0.131 A 
ATOM     85  C   UNL A   1      44.590  36.624  29.334  1.00  0.00     0.055 A 
ATOM     86  C   UNL A   1      45.447  35.835  31.439  1.00  0.00     0.041 A 
ATOM     87  F   UNL A   1      45.274  33.565  31.991  1.00  0.00    -0.206 F 
ATOM     88  C   UNL A   1      45.246  36.879  30.542  1.00  0.00     0.022 A 
BRANCH  85  89
ATOM     89  S   UNL A   1      44.434  37.937  28.092  1.00  0.00     0.124 S 
ATOM     90  O   UNL A   1      45.161  37.371  26.960  1.00  0.00    -0.237 OA
ATOM     91  O   UNL A   1      42.989  38.046  27.931  1.00  0.00    -0.237 OA
ATOM     92  O   UNL A   1      45.074  39.088  28.726  1.00  0.00    -0.744 OA
ENDBRANCH  85  89
ENDBRANCH  59  82
ENDBRANCH  33  34
ENDBRANCH  25  28
ENDBRANCH  23  24
ENDBRANCH  22  23
ENDBRANCH  21  22
ENDBRANCH   1  21
TORSDOF 21
ENDMDL
MODEL 3
REMARK VINA RESULT:     -10.9      1.540      2.759
REMARK SMILES CC[C@@H]1CCC[C@](CCCCCO)(C(=O)NCCCCNC(=O)c2ccc(-c3c4nc(c(-c5cc(S(=O)(=O)[O-])ccc5F)c5ccc([nH]5)c(-c5cc(S(=O)(=O)[O-])ccc5F)c5nc(c(-c6cc(S(=O)(=O)[O-])ccc6F)c6ccc3[nH]6)C=C5)C=C4)cc2)C1
REMARK SMILES IDX 17 1 16 2 14 3 15 4 7 6 3 7 4 8 87 9 5 10 6 11 2 12 1 13
REMARK SMILES IDX 8 14 9 15 10 16 11 17 12 18 13 19 18 21 19 22 20 23 21 24
REMARK SMILES IDX 22 25 23 27 24 28 25 29 86 30 26 31 85 32 27 33 28 34 29 35
REMARK SMILES IDX 79 36 30 37 84 38 78 39 80 40 31 41 83 42 77 43 76 44 32 46
REMARK SMILES IDX 64 47 44 48 63 49 45 50 48 51 62 52 81 53 46 54 47 55 61 57
REMARK SMILES IDX 82 58 49 59 33 60 34 61 42 62 35 63 41 64 43 65 40 66 36 67
REMARK SMILES IDX 37 68 38 69 39 70 65 71 66 72 74 73 67 74 73 75 75 76 72 77
REMARK SMILES IDX 68 78 69 79 70 80 71 81 50 82 51 83 59 84 52 85 58 86 60 87
REMARK SMILES IDX 57 88 53 89 54 90 55 91 56 92
REMARK H PARENT 16 5 13 20 21 26 80 45 48 56
REMARK Flexibility Score: inf
ROOT
ATOM      1  C   UNL A   1      33.583  27.881  23.918  1.00  0.00     0.116 C 
ENDROOT
BRANCH   1   2
ATOM      2  N   UNL A   1      33.685  27.221  22.628  1.00  0.00    -0.356 N 
ATOM      3  C   UNL A   1      33.346  25.970  22.196  1.00  0.00     0.226 C 
ATOM      4  O   UNL A   1      33.265  25.832  20.971  1.00  0.00    -0.274 OA
ATOM      5  H   UNL A   1      34.076  27.789  21.924  1.00  0.00     0.163 HD
BRANCH   3   6
ATOM      6  C   UNL A   1      33.070  24.774  23.148  1.00  0.00     0.049 C 
ATOM      7  C   UNL A   1      34.261  23.508  25.129  1.00  0.00    -0.010 C 
ATOM      8  C   UNL A   1      34.426  22.262  24.256  1.00  0.00     0.003 C 
ATOM      9  C   UNL A   1      34.141  24.770  24.269  1.00  0.00     0.020 C 
ATOM     10  C   UNL A   1      33.366  22.187  23.166  1.00  0.00     0.001 C 
ATOM     11  C   UNL A   1      33.336  23.462  22.319  1.00  0.00     0.017 C 
BRANCH   7  12
ATOM     12  C   UNL A   1      35.449  23.630  26.114  1.00  0.00     0.000 C 
ATOM     13  C   UNL A   1      36.819  23.603  25.442  1.00  0.00     0.004 C 
ENDBRANCH   7  12
BRANCH   6  14
ATOM     14  C   UNL A   1      31.577  24.686  23.622  1.00  0.00     0.017 C 
BRANCH  14  15
ATOM     15  C   UNL A   1      31.113  25.211  24.987  1.00  0.00     0.001 C 
BRANCH  15  16
ATOM     16  C   UNL A   1      30.399  26.574  24.981  1.00  0.00     0.002 C 
BRANCH  16  17
ATOM     17  C   UNL A   1      29.830  27.031  23.635  1.00  0.00     0.028 C 
BRANCH  17  18
ATOM     18  C   UNL A   1      28.315  27.195  23.608  1.00  0.00     0.156 C 
BRANCH  18  19
ATOM     19  O   UNL A   1      27.657  25.970  23.891  1.00  0.00    -0.396 OA
ATOM     20  H   UNL A   1      28.136  25.240  23.467  1.00  0.00     0.210 HD
ENDBRANCH  18  19
ENDBRANCH  17  18
ENDBRANCH  16  17
ENDBRANCH  15  16
ENDBRANCH  14  15
ENDBRANCH   6  14
ENDBRANCH   3   6
ENDBRANCH   1   2
BRANCH   1  21
ATOM     21  C   UNL A   1      32.828  29.200  23.881  1.00  0.00     0.023 C 
BRANCH  21  22
ATOM     22  C   UNL A   1      32.155  29.572  25.199  1.00  0.00     0.023 C 
BRANCH  22  23
ATOM     23  C   UNL A   1      33.098  29.855  26.366  1.00  0.00     0.116 C 
BRANCH  23  24
ATOM     24  N   UNL A   1      33.016  31.224  26.862  1.00  0.00    -0.352 N 
ATOM     25  C   UNL A   1      33.912  31.920  27.642  1.00  0.00     0.251 C 
ATOM     26  H   UNL A   1      32.205  31.719  26.603  1.00  0.00     0.163 HD
ATOM     27  O   UNL A   1      33.631  33.035  28.058  1.00  0.00    -0.269 OA
BRANCH  25  28
ATOM     28  C   UNL A   1      35.192  31.275  28.004  1.00  0.00     0.039 A 
ATOM     29  C   UNL A   1      36.346  32.058  28.075  1.00  0.00     0.014 A 
ATOM     30  C   UNL A   1      35.226  29.923  28.352  1.00  0.00     0.014 A 
ATOM     31  C   UNL A   1      37.518  31.503  28.591  1.00  0.00     0.010 A 
ATOM     32  C   UNL A   1      36.371  29.398  28.941  1.00  0.00     0.010 A 
ATOM     33  C   UNL A   1      37.527  30.185  29.076  1.00  0.00    -0.014 A 
BRANCH  33  34
ATOM     34  C   UNL A   1      38.725  29.616  29.746  1.00  0.00     0.031 A 
ATOM     35  C   UNL A   1      39.143  30.122  31.098  1.00  0.00     0.074 A 
ATOM     36  C   UNL A   1      39.479  28.703  29.103  1.00  0.00     0.049 A 
ATOM     37  N   UNL A   1      40.197  29.814  31.809  1.00  0.00    -0.248 NA
ATOM     38  C   UNL A   1      38.278  31.137  31.713  1.00  0.00     0.031 C 
ATOM     39  C   UNL A   1      39.206  28.168  27.766  1.00  0.00     0.029 A 
ATOM     40  N   UNL A   1      40.635  28.067  29.483  1.00  0.00    -0.354 N 
ATOM     41  C   UNL A   1      40.129  30.607  32.949  1.00  0.00     0.074 A 
ATOM     42  C   UNL A   1      38.969  31.459  32.794  1.00  0.00     0.031 C 
ATOM     43  C   UNL A   1      40.147  27.264  27.453  1.00  0.00     0.029 A 
ATOM     44  C   UNL A   1      41.117  27.187  28.542  1.00  0.00     0.049 A 
ATOM     45  H   UNL A   1      41.077  28.225  30.348  1.00  0.00     0.167 HD
ATOM     46  C   UNL A   1      40.942  30.606  34.036  1.00  0.00     0.034 A 
ATOM     47  C   UNL A   1      42.220  26.413  28.550  1.00  0.00     0.034 A 
ATOM     48  C   UNL A   1      42.092  29.745  34.175  1.00  0.00     0.049 A 
ATOM     49  C   UNL A   1      43.127  26.447  29.752  1.00  0.00     0.074 A 
ATOM     50  C   UNL A   1      42.949  29.617  35.254  1.00  0.00     0.029 A 
ATOM     51  N   UNL A   1      42.555  28.872  33.198  1.00  0.00    -0.354 N 
ATOM     52  N   UNL A   1      43.021  27.162  30.848  1.00  0.00    -0.248 NA
ATOM     53  C   UNL A   1      44.298  25.563  29.720  1.00  0.00     0.031 C 
ATOM     54  C   UNL A   1      43.965  28.720  34.904  1.00  0.00     0.029 A 
ATOM     55  C   UNL A   1      43.703  28.228  33.636  1.00  0.00     0.049 A 
ATOM     56  H   UNL A   1      42.129  28.730  32.321  1.00  0.00     0.167 HD
ATOM     57  C   UNL A   1      44.097  26.791  31.649  1.00  0.00     0.074 A 
ATOM     58  C   UNL A   1      44.832  25.783  30.913  1.00  0.00     0.031 C 
ATOM     59  C   UNL A   1      44.441  27.238  32.885  1.00  0.00     0.034 A 
BRANCH  46  60
ATOM     60  C   UNL A   1      40.619  31.591  35.136  1.00  0.00     0.023 A 
ATOM     61  C   UNL A   1      39.628  31.321  36.097  1.00  0.00     0.031 A 
ATOM     62  C   UNL A   1      41.262  32.839  35.191  1.00  0.00     0.131 A 
ATOM     63  C   UNL A   1      39.238  32.318  37.003  1.00  0.00     0.055 A 
ATOM     64  C   UNL A   1      40.934  33.794  36.156  1.00  0.00     0.041 A 
ATOM     65  F   UNL A   1      42.203  33.164  34.291  1.00  0.00    -0.206 F 
ATOM     66  C   UNL A   1      39.902  33.545  37.057  1.00  0.00     0.022 A 
BRANCH  63  67
ATOM     67  S   UNL A   1      37.735  32.053  37.984  1.00  0.00     0.124 S 
ATOM     68  O   UNL A   1      37.462  30.640  37.731  1.00  0.00    -0.237 OA
ATOM     69  O   UNL A   1      38.177  32.387  39.333  1.00  0.00    -0.237 OA
ATOM     70  O   UNL A   1      36.772  32.981  37.394  1.00  0.00    -0.744 OA
ENDBRANCH  63  67
ENDBRANCH  46  60
BRANCH  47  71
ATOM     71  C   UNL A   1      42.530  25.536  27.386  1.00  0.00     0.023 A 
ATOM     72  C   UNL A   1      42.088  24.205  27.350  1.00  0.00     0.031 A 
ATOM     73  C   UNL A   1      43.288  26.011  26.302  1.00  0.00     0.131 A 
ATOM     74  C   UNL A   1      42.436  23.381  26.268  1.00  0.00     0.055 A 
ATOM     75  C   UNL A   1      43.595  25.201  25.206  1.00  0.00     0.041 A 
ATOM     76  F   UNL A   1      43.727  27.280  26.284  1.00  0.00    -0.206 F 
ATOM     77  C   UNL A   1      43.176  23.874  25.191  1.00  0.00     0.022 A 
BRANCH  74  78
ATOM     78  S   UNL A   1      41.951  21.634  26.314  1.00  0.00     0.124 S 
ATOM     79  O   UNL A   1      42.318  21.260  27.675  1.00  0.00    -0.237 OA
ATOM     80  O   UNL A   1      40.522  21.708  26.030  1.00  0.00    -0.237 OA
ATOM     81  O   UNL A   1      42.762  21.028  25.260  1.00  0.00    -0.744 OA
ENDBRANCH  74  78
ENDBRANCH  47  71
BRANCH  59  82
ATOM     82  C   UNL A   1      45.647  26.601  33.531  1.00  0.00     0.023 A 
ATOM     83  C   UNL A   1      45.543  25.432  34.305  1.00  0.00     0.031 A 
ATOM     84  C   UNL A   1      46.918  27.184  33.380  1.00  0.00     0.131 A 
ATOM     85  C   UNL A   1      46.680  24.913  34.942  1.00  0.00     0.055 A 
ATOM     86  C   UNL A   1      48.055  26.629  33.967  1.00  0.00     0.041 A 
ATOM     87  F   UNL A   1      47.074  28.303  32.655  1.00  0.00    -0.206 F 
ATOM     88  C   UNL A   1      47.939  25.495  34.765  1.00  0.00     0.022 A 
BRANCH  85  89
ATOM     89  S   UNL A   1      46.481  23.516  36.083  1.00  0.00     0.124 S 
ATOM     90  O   UNL A   1      46.922  24.092  37.348  1.00  0.00    -0.237 OA
ATOM     91  O   UNL A   1      45.056  23.226  35.976  1.00  0.00    -0.237 OA
ATOM     92  O   UNL A   1      47.364  22.491  35.528  1.00  0.00    -0.744 OA
ENDBRANCH  85  89
ENDBRANCH  59  82
ENDBRANCH  33  34
ENDBRANCH  25  28
ENDBRANCH  23  24
ENDBRANCH  22  23
ENDBRANCH  21  22
ENDBRANCH   1  21
TORSDOF 21
ENDMDL
