MODEL 1
REMARK VINA RESULT:     -12.3      0.000      0.000
REMARK SMILES O=C(NCCCCNC(=O)c1cccn1CC(=O)N1CCS(=O)CC1)c1ccc(-c2c3nc(c(-c4cc(S(=O)(=O)[O-])ccc4F)c4ccc([nH]4)c(-c4cc(S(=O)(=O)[O-])ccc4F)c4nc(c(-c5cc(S(=O)(=O)[O-])ccc5F)c5ccc2[nH]5)C=C4)C=C3)cc1
REMARK SMILES IDX 5 1 4 2 3 3 1 4 2 5 26 7 27 8 88 9 28 10 87 11 29 12 30 13
REMARK SMILES IDX 31 14 81 15 32 16 86 17 80 18 82 19 33 20 85 21 79 22 78 23
REMARK SMILES IDX 34 25 66 26 46 27 65 28 47 29 50 30 64 31 83 32 48 33 49 34
REMARK SMILES IDX 63 36 84 37 51 38 35 39 36 40 44 41 37 42 43 43 45 44 42 45
REMARK SMILES IDX 38 46 39 47 40 48 41 49 67 50 68 51 76 52 69 53 75 54 77 55
REMARK SMILES IDX 74 56 70 57 71 58 72 59 73 60 52 61 53 62 61 63 54 64 60 65
REMARK SMILES IDX 62 66 59 67 55 68 56 69 57 70 58 71 6 72 7 73 8 74 9 75
REMARK SMILES IDX 10 77 11 78 12 79 15 80 13 81 14 82 16 83 17 84 18 85 19 86
REMARK SMILES IDX 20 87 25 88 21 89 24 90 22 91 23 92
REMARK H PARENT 3 6 82 24 50 35 8 76
REMARK Flexibility Score: inf
ROOT
ATOM      1  C   UNL A   1      33.353  28.628  27.139  1.00  0.00     0.023 C 
ENDROOT
BRANCH   1   2
ATOM      2  C   UNL A   1      34.825  29.021  27.162  1.00  0.00     0.116 C 
BRANCH   2   3
ATOM      3  N   UNL A   1      35.165  30.173  27.976  1.00  0.00    -0.352 N 
ATOM      4  O   UNL A   1      36.333  31.738  29.043  1.00  0.00    -0.269 OA
ATOM      5  C   UNL A   1      36.331  30.608  28.556  1.00  0.00     0.251 C 
ATOM      6  H   UNL A   1      34.400  30.767  28.148  1.00  0.00     0.163 HD
BRANCH   5   7
ATOM      7  C   UNL A   1      37.540  29.755  28.697  1.00  0.00     0.039 A 
ATOM      8  C   UNL A   1      38.639  29.816  27.841  1.00  0.00     0.014 A 
ATOM      9  C   UNL A   1      37.561  28.846  29.771  1.00  0.00     0.014 A 
ATOM     10  C   UNL A   1      39.684  28.908  27.974  1.00  0.00     0.010 A 
ATOM     11  C   UNL A   1      38.630  27.962  29.942  1.00  0.00     0.010 A 
ATOM     12  C   UNL A   1      39.694  27.992  29.036  1.00  0.00    -0.014 A 
BRANCH  12  13
ATOM     13  C   UNL A   1      41.011  27.379  29.350  1.00  0.00     0.031 A 
ATOM     14  C   UNL A   1      41.251  26.189  28.361  1.00  0.00     0.074 A 
ATOM     15  C   UNL A   1      41.699  27.846  30.447  1.00  0.00     0.049 A 
ATOM     16  N   UNL A   1      41.803  25.029  28.550  1.00  0.00    -0.248 NA
ATOM     17  C   UNL A   1      40.659  26.255  26.986  1.00  0.00     0.031 C 
ATOM     18  C   UNL A   1      41.341  29.049  31.240  1.00  0.00     0.029 A 
ATOM     19  N   UNL A   1      42.829  27.427  31.129  1.00  0.00    -0.354 N 
ATOM     20  C   UNL A   1      41.882  24.381  27.286  1.00  0.00     0.074 A 
ATOM     21  C   UNL A   1      41.003  25.096  26.420  1.00  0.00     0.031 C 
ATOM     22  C   UNL A   1      42.157  29.201  32.316  1.00  0.00     0.029 A 
ATOM     23  C   UNL A   1      43.141  28.132  32.343  1.00  0.00     0.049 A 
ATOM     24  H   UNL A   1      43.389  26.686  30.801  1.00  0.00     0.167 HD
ATOM     25  C   UNL A   1      42.812  23.422  26.991  1.00  0.00     0.034 A 
ATOM     26  C   UNL A   1      44.093  27.840  33.300  1.00  0.00     0.034 A 
ATOM     27  C   UNL A   1      43.583  23.156  28.158  1.00  0.00     0.049 A 
ATOM     28  C   UNL A   1      44.850  26.744  32.679  1.00  0.00     0.074 A 
ATOM     29  C   UNL A   1      43.280  22.572  29.357  1.00  0.00     0.029 A 
ATOM     30  N   UNL A   1      44.763  23.855  28.276  1.00  0.00    -0.354 N 
ATOM     31  N   UNL A   1      45.711  26.893  31.722  1.00  0.00    -0.248 NA
ATOM     32  C   UNL A   1      44.580  25.368  33.117  1.00  0.00     0.031 C 
ATOM     33  C   UNL A   1      43.967  23.395  30.270  1.00  0.00     0.029 A 
ATOM     34  C   UNL A   1      44.864  24.230  29.586  1.00  0.00     0.049 A 
ATOM     35  H   UNL A   1      45.408  24.049  27.557  1.00  0.00     0.167 HD
ATOM     36  C   UNL A   1      45.829  25.617  31.239  1.00  0.00     0.074 A 
ATOM     37  C   UNL A   1      45.426  24.731  32.311  1.00  0.00     0.031 C 
ATOM     38  C   UNL A   1      45.661  25.391  29.911  1.00  0.00     0.034 A 
BRANCH  25  39
ATOM     39  C   UNL A   1      43.369  22.866  25.696  1.00  0.00     0.023 A 
ATOM     40  C   UNL A   1      43.456  21.450  25.629  1.00  0.00     0.031 A 
ATOM     41  C   UNL A   1      44.121  23.572  24.751  1.00  0.00     0.131 A 
ATOM     42  C   UNL A   1      44.412  20.810  24.833  1.00  0.00     0.055 A 
ATOM     43  C   UNL A   1      45.009  22.920  23.878  1.00  0.00     0.041 A 
ATOM     44  F   UNL A   1      44.098  24.909  24.683  1.00  0.00    -0.206 F 
ATOM     45  C   UNL A   1      45.200  21.541  23.954  1.00  0.00     0.022 A 
BRANCH  42  46
ATOM     46  S   UNL A   1      44.749  19.054  25.159  1.00  0.00     0.124 S 
ATOM     47  O   UNL A   1      43.667  18.708  26.074  1.00  0.00    -0.237 OA
ATOM     48  O   UNL A   1      44.664  18.474  23.822  1.00  0.00    -0.237 OA
ATOM     49  O   UNL A   1      46.087  19.070  25.745  1.00  0.00    -0.744 OA
ENDBRANCH  42  46
ENDBRANCH  25  39
BRANCH  26  50
ATOM     50  C   UNL A   1      44.582  28.198  34.722  1.00  0.00     0.023 A 
ATOM     51  C   UNL A   1      44.444  27.455  35.911  1.00  0.00     0.031 A 
ATOM     52  C   UNL A   1      45.331  29.416  34.899  1.00  0.00     0.131 A 
ATOM     53  C   UNL A   1      45.102  27.886  37.115  1.00  0.00     0.055 A 
ATOM     54  C   UNL A   1      46.052  29.773  36.038  1.00  0.00     0.041 A 
ATOM     55  F   UNL A   1      45.398  30.368  33.958  1.00  0.00    -0.206 F 
ATOM     56  C   UNL A   1      45.955  28.994  37.157  1.00  0.00     0.022 A 
BRANCH  53  57
ATOM     57  S   UNL A   1      44.885  27.030  38.711  1.00  0.00     0.124 S 
ATOM     58  O   UNL A   1      43.587  26.387  38.535  1.00  0.00    -0.237 OA
ATOM     59  O   UNL A   1      46.044  26.146  38.767  1.00  0.00    -0.237 OA
ATOM     60  O   UNL A   1      44.904  28.123  39.684  1.00  0.00    -0.744 OA
ENDBRANCH  53  57
ENDBRANCH  26  50
BRANCH  38  61
ATOM     61  C   UNL A   1      45.964  26.584  29.007  1.00  0.00     0.023 A 
ATOM     62  C   UNL A   1      44.920  27.422  28.570  1.00  0.00     0.031 A 
ATOM     63  C   UNL A   1      47.233  26.859  28.466  1.00  0.00     0.131 A 
ATOM     64  C   UNL A   1      45.151  28.447  27.630  1.00  0.00     0.055 A 
ATOM     65  C   UNL A   1      47.471  27.879  27.533  1.00  0.00     0.041 A 
ATOM     66  F   UNL A   1      48.295  26.132  28.811  1.00  0.00    -0.206 F 
ATOM     67  C   UNL A   1      46.423  28.681  27.107  1.00  0.00     0.022 A 
BRANCH  64  68
ATOM     68  S   UNL A   1      43.768  29.498  27.104  1.00  0.00     0.124 S 
ATOM     69  O   UNL A   1      42.960  28.587  26.301  1.00  0.00    -0.237 OA
ATOM     70  O   UNL A   1      43.188  29.915  28.376  1.00  0.00    -0.237 OA
ATOM     71  O   UNL A   1      44.419  30.571  26.350  1.00  0.00    -0.744 OA
ENDBRANCH  64  68
ENDBRANCH  38  61
ENDBRANCH  12  13
ENDBRANCH   5   7
ENDBRANCH   2   3
ENDBRANCH   1   2
BRANCH   1  72
ATOM     72  C   UNL A   1      32.375  29.790  27.232  1.00  0.00     0.023 C 
BRANCH  72  73
ATOM     73  C   UNL A   1      31.478  30.012  26.015  1.00  0.00     0.116 C 
BRANCH  73  74
ATOM     74  N   UNL A   1      32.164  29.728  24.766  1.00  0.00    -0.351 N 
ATOM     75  C   UNL A   1      31.694  29.206  23.586  1.00  0.00     0.267 C 
ATOM     76  H   UNL A   1      33.125  29.944  24.765  1.00  0.00     0.163 HD
ATOM     77  O   UNL A   1      32.516  28.952  22.713  1.00  0.00    -0.268 OA
BRANCH  75  78
ATOM     78  C   UNL A   1      30.274  28.960  23.421  1.00  0.00     0.107 A 
ATOM     79  C   UNL A   1      29.265  29.866  23.122  1.00  0.00     0.033 A 
ATOM     80  N   UNL A   1      29.675  27.706  23.446  1.00  0.00    -0.334 N 
ATOM     81  C   UNL A   1      28.056  29.155  22.948  1.00  0.00     0.020 A 
ATOM     82  C   UNL A   1      28.344  27.820  23.116  1.00  0.00     0.087 A 
BRANCH  80  83
ATOM     83  C   UNL A   1      30.343  26.438  23.712  1.00  0.00     0.222 C 
BRANCH  83  84
ATOM     84  C   UNL A   1      30.906  26.175  25.105  1.00  0.00     0.242 C 
ATOM     85  O   UNL A   1      30.126  26.218  26.064  1.00  0.00    -0.273 OA
ATOM     86  N   UNL A   1      32.179  25.651  25.261  1.00  0.00    -0.339 N 
ATOM     87  C   UNL A   1      32.439  24.656  26.312  1.00  0.00     0.133 C 
ATOM     88  C   UNL A   1      33.373  26.043  24.521  1.00  0.00     0.133 C 
ATOM     89  C   UNL A   1      32.932  23.340  25.707  1.00  0.00     0.126 C 
ATOM     90  C   UNL A   1      33.895  24.883  23.708  1.00  0.00     0.126 C 
ATOM     91  S   UNL A   1      34.491  23.544  24.779  1.00  0.00     0.025 S 
ATOM     92  O   UNL A   1      35.519  24.139  25.694  1.00  0.00    -0.259 OA
ENDBRANCH  83  84
ENDBRANCH  80  83
ENDBRANCH  75  78
ENDBRANCH  73  74
ENDBRANCH  72  73
ENDBRANCH   1  72
TORSDOF 16
ENDMDL
MODEL 2
REMARK VINA RESULT:     -12.1      4.510     10.162
REMARK SMILES O=C(NCCCCNC(=O)c1cccn1CC(=O)N1CCS(=O)CC1)c1ccc(-c2c3nc(c(-c4cc(S(=O)(=O)[O-])ccc4F)c4ccc([nH]4)c(-c4cc(S(=O)(=O)[O-])ccc4F)c4nc(c(-c5cc(S(=O)(=O)[O-])ccc5F)c5ccc2[nH]5)C=C4)C=C3)cc1
REMARK SMILES IDX 5 1 4 2 3 3 1 4 2 5 26 7 27 8 88 9 28 10 87 11 29 12 30 13
REMARK SMILES IDX 31 14 81 15 32 16 86 17 80 18 82 19 33 20 85 21 79 22 78 23
REMARK SMILES IDX 34 25 66 26 46 27 65 28 47 29 50 30 64 31 83 32 48 33 49 34
REMARK SMILES IDX 63 36 84 37 51 38 35 39 36 40 44 41 37 42 43 43 45 44 42 45
REMARK SMILES IDX 38 46 39 47 40 48 41 49 67 50 68 51 76 52 69 53 75 54 77 55
REMARK SMILES IDX 74 56 70 57 71 58 72 59 73 60 52 61 53 62 61 63 54 64 60 65
REMARK SMILES IDX 62 66 59 67 55 68 56 69 57 70 58 71 6 72 7 73 8 74 9 75
REMARK SMILES IDX 10 77 11 78 12 79 15 80 13 81 14 82 16 83 17 84 18 85 19 86
REMARK SMILES IDX 20 87 25 88 21 89 24 90 22 91 23 92
REMARK H PARENT 3 6 82 24 50 35 8 76
REMARK Flexibility Score: inf
ROOT
ATOM      1  C   UNL A   1      36.910  23.352  24.689  1.00  0.00     0.023 C 
ENDROOT
BRANCH   1   2
ATOM      2  C   UNL A   1      37.609  23.820  25.959  1.00  0.00     0.116 C 
BRANCH   2   3
ATOM      3  N   UNL A   1      39.002  23.437  26.099  1.00  0.00    -0.352 N 
ATOM      4  O   UNL A   1      41.096  23.307  26.843  1.00  0.00    -0.269 OA
ATOM      5  C   UNL A   1      40.066  23.979  26.777  1.00  0.00     0.251 C 
ATOM      6  H   UNL A   1      39.232  22.619  25.604  1.00  0.00     0.163 HD
BRANCH   5   7
ATOM      7  C   UNL A   1      40.058  25.352  27.345  1.00  0.00     0.039 A 
ATOM      8  C   UNL A   1      39.730  25.643  28.669  1.00  0.00     0.014 A 
ATOM      9  C   UNL A   1      40.417  26.405  26.484  1.00  0.00     0.014 A 
ATOM     10  C   UNL A   1      39.639  26.964  29.096  1.00  0.00     0.010 A 
ATOM     11  C   UNL A   1      40.376  27.732  26.917  1.00  0.00     0.010 A 
ATOM     12  C   UNL A   1      39.981  28.012  28.229  1.00  0.00    -0.014 A 
BRANCH  12  13
ATOM     13  C   UNL A   1      40.271  29.319  28.875  1.00  0.00     0.031 A 
ATOM     14  C   UNL A   1      38.911  29.994  29.258  1.00  0.00     0.074 A 
ATOM     15  C   UNL A   1      41.579  29.742  28.924  1.00  0.00     0.049 A 
ATOM     16  N   UNL A   1      38.544  31.238  29.223  1.00  0.00    -0.248 NA
ATOM     17  C   UNL A   1      37.739  29.126  29.602  1.00  0.00     0.031 C 
ATOM     18  C   UNL A   1      42.764  28.922  28.565  1.00  0.00     0.029 A 
ATOM     19  N   UNL A   1      42.198  30.930  29.277  1.00  0.00    -0.354 N 
ATOM     20  C   UNL A   1      37.248  31.319  29.802  1.00  0.00     0.074 A 
ATOM     21  C   UNL A   1      36.746  29.985  29.835  1.00  0.00     0.031 C 
ATOM     22  C   UNL A   1      43.913  29.646  28.628  1.00  0.00     0.029 A 
ATOM     23  C   UNL A   1      43.615  31.006  29.043  1.00  0.00     0.049 A 
ATOM     24  H   UNL A   1      41.696  31.682  29.668  1.00  0.00     0.167 HD
ATOM     25  C   UNL A   1      36.758  32.454  30.392  1.00  0.00     0.034 A 
ATOM     26  C   UNL A   1      44.457  32.097  29.143  1.00  0.00     0.034 A 
ATOM     27  C   UNL A   1      37.714  33.498  30.242  1.00  0.00     0.049 A 
ATOM     28  C   UNL A   1      43.590  33.121  29.743  1.00  0.00     0.074 A 
ATOM     29  C   UNL A   1      38.167  34.192  29.155  1.00  0.00     0.029 A 
ATOM     30  N   UNL A   1      38.587  33.674  31.292  1.00  0.00    -0.354 N 
ATOM     31  N   UNL A   1      43.238  33.150  30.990  1.00  0.00    -0.248 NA
ATOM     32  C   UNL A   1      43.020  34.157  28.871  1.00  0.00     0.031 C 
ATOM     33  C   UNL A   1      39.548  34.283  29.414  1.00  0.00     0.029 A 
ATOM     34  C   UNL A   1      39.814  33.915  30.742  1.00  0.00     0.049 A 
ATOM     35  H   UNL A   1      38.370  33.633  32.252  1.00  0.00     0.167 HD
ATOM     36  C   UNL A   1      42.165  34.001  30.967  1.00  0.00     0.074 A 
ATOM     37  C   UNL A   1      42.314  34.821  29.783  1.00  0.00     0.031 C 
ATOM     38  C   UNL A   1      40.991  33.605  31.521  1.00  0.00     0.034 A 
BRANCH  25  39
ATOM     39  C   UNL A   1      35.644  32.721  31.384  1.00  0.00     0.023 A 
ATOM     40  C   UNL A   1      34.729  33.742  31.011  1.00  0.00     0.031 A 
ATOM     41  C   UNL A   1      35.634  32.351  32.733  1.00  0.00     0.131 A 
ATOM     42  C   UNL A   1      34.038  34.494  31.967  1.00  0.00     0.055 A 
ATOM     43  C   UNL A   1      34.860  33.043  33.681  1.00  0.00     0.041 A 
ATOM     44  F   UNL A   1      36.420  31.377  33.206  1.00  0.00    -0.206 F 
ATOM     45  C   UNL A   1      34.102  34.153  33.311  1.00  0.00     0.022 A 
BRANCH  42  46
ATOM     46  S   UNL A   1      33.267  36.048  31.427  1.00  0.00     0.124 S 
ATOM     47  O   UNL A   1      33.463  35.993  29.983  1.00  0.00    -0.237 OA
ATOM     48  O   UNL A   1      31.892  35.882  31.891  1.00  0.00    -0.237 OA
ATOM     49  O   UNL A   1      34.039  37.071  32.128  1.00  0.00    -0.744 OA
ENDBRANCH  42  46
ENDBRANCH  25  39
BRANCH  26  50
ATOM     50  C   UNL A   1      45.881  32.607  28.821  1.00  0.00     0.023 A 
ATOM     51  C   UNL A   1      46.353  33.202  27.636  1.00  0.00     0.031 A 
ATOM     52  C   UNL A   1      46.880  32.537  29.858  1.00  0.00     0.131 A 
ATOM     53  C   UNL A   1      47.682  33.751  27.580  1.00  0.00     0.055 A 
ATOM     54  C   UNL A   1      48.125  33.164  29.834  1.00  0.00     0.041 A 
ATOM     55  F   UNL A   1      46.710  31.825  30.980  1.00  0.00    -0.206 F 
ATOM     56  C   UNL A   1      48.530  33.795  28.691  1.00  0.00     0.022 A 
BRANCH  53  57
ATOM     57  S   UNL A   1      48.392  34.444  26.049  1.00  0.00     0.124 S 
ATOM     58  O   UNL A   1      48.915  35.724  26.511  1.00  0.00    -0.237 OA
ATOM     59  O   UNL A   1      49.379  33.440  25.666  1.00  0.00    -0.237 OA
ATOM     60  O   UNL A   1      47.237  34.536  25.155  1.00  0.00    -0.744 OA
ENDBRANCH  53  57
ENDBRANCH  26  50
BRANCH  38  61
ATOM     61  C   UNL A   1      41.116  32.559  32.626  1.00  0.00     0.023 A 
ATOM     62  C   UNL A   1      40.847  31.204  32.351  1.00  0.00     0.031 A 
ATOM     63  C   UNL A   1      41.381  32.865  33.973  1.00  0.00     0.131 A 
ATOM     64  C   UNL A   1      40.824  30.239  33.379  1.00  0.00     0.055 A 
ATOM     65  C   UNL A   1      41.363  31.910  35.001  1.00  0.00     0.041 A 
ATOM     66  F   UNL A   1      41.652  34.113  34.350  1.00  0.00    -0.206 F 
ATOM     67  C   UNL A   1      41.080  30.585  34.706  1.00  0.00     0.022 A 
BRANCH  64  68
ATOM     68  S   UNL A   1      40.473  28.508  32.965  1.00  0.00     0.124 S 
ATOM     69  O   UNL A   1      39.065  28.547  32.589  1.00  0.00    -0.237 OA
ATOM     70  O   UNL A   1      41.416  28.245  31.883  1.00  0.00    -0.237 OA
ATOM     71  O   UNL A   1      40.759  27.792  34.209  1.00  0.00    -0.744 OA
ENDBRANCH  64  68
ENDBRANCH  38  61
ENDBRANCH  12  13
ENDBRANCH   5   7
ENDBRANCH   2   3
ENDBRANCH   1   2
BRANCH   1  72
ATOM     72  C   UNL A   1      37.072  21.872  24.374  1.00  0.00     0.023 C 
BRANCH  72  73
ATOM     73  C   UNL A   1      36.540  20.899  25.425  1.00  0.00     0.116 C 
BRANCH  73  74
ATOM     74  N   UNL A   1      35.384  20.156  24.954  1.00  0.00    -0.351 N 
ATOM     75  C   UNL A   1      34.042  20.370  25.152  1.00  0.00     0.267 C 
ATOM     76  H   UNL A   1      35.597  19.369  24.401  1.00  0.00     0.163 HD
ATOM     77  O   UNL A   1      33.267  19.515  24.739  1.00  0.00    -0.268 OA
BRANCH  75  78
ATOM     78  C   UNL A   1      33.596  21.563  25.846  1.00  0.00     0.107 A 
ATOM     79  C   UNL A   1      33.632  21.841  27.206  1.00  0.00     0.033 A 
ATOM     80  N   UNL A   1      33.123  22.714  25.228  1.00  0.00    -0.334 N 
ATOM     81  C   UNL A   1      33.196  23.169  27.408  1.00  0.00     0.020 A 
ATOM     82  C   UNL A   1      32.925  23.699  26.168  1.00  0.00     0.087 A 
BRANCH  80  83
ATOM     83  C   UNL A   1      32.921  22.902  23.797  1.00  0.00     0.222 C 
BRANCH  83  84
ATOM     84  C   UNL A   1      31.778  23.792  23.320  1.00  0.00     0.242 C 
ATOM     85  O   UNL A   1      30.655  23.284  23.211  1.00  0.00    -0.273 OA
ATOM     86  N   UNL A   1      31.932  25.167  23.267  1.00  0.00    -0.339 N 
ATOM     87  C   UNL A   1      30.818  26.046  23.653  1.00  0.00     0.133 C 
ATOM     88  C   UNL A   1      33.100  25.888  22.774  1.00  0.00     0.133 C 
ATOM     89  C   UNL A   1      31.211  26.938  24.833  1.00  0.00     0.126 C 
ATOM     90  C   UNL A   1      33.730  26.694  23.885  1.00  0.00     0.126 C 
ATOM     91  S   UNL A   1      32.626  28.023  24.442  1.00  0.00     0.025 S 
ATOM     92  O   UNL A   1      32.283  28.843  23.235  1.00  0.00    -0.259 OA
ENDBRANCH  83  84
ENDBRANCH  80  83
ENDBRANCH  75  78
ENDBRANCH  73  74
ENDBRANCH  72  73
ENDBRANCH   1  72
TORSDOF 16
ENDMDL
MODEL 3
REMARK VINA RESULT:     -12.1      1.612      2.439
REMARK SMILES O=C(NCCCCNC(=O)c1cccn1CC(=O)N1CCS(=O)CC1)c1ccc(-c2c3nc(c(-c4cc(S(=O)(=O)[O-])ccc4F)c4ccc([nH]4)c(-c4cc(S(=O)(=O)[O-])ccc4F)c4nc(c(-c5cc(S(=O)(=O)[O-])ccc5F)c5ccc2[nH]5)C=C4)C=C3)cc1
REMARK SMILES IDX 5 1 4 2 3 3 1 4 2 5 26 7 27 8 88 9 28 10 87 11 29 12 30 13
REMARK SMILES IDX 31 14 81 15 32 16 86 17 80 18 82 19 33 20 85 21 79 22 78 23
REMARK SMILES IDX 34 25 66 26 46 27 65 28 47 29 50 30 64 31 83 32 48 33 49 34
REMARK SMILES IDX 63 36 84 37 51 38 35 39 36 40 44 41 37 42 43 43 45 44 42 45
REMARK SMILES IDX 38 46 39 47 40 48 41 49 67 50 68 51 76 52 69 53 75 54 77 55
REMARK SMILES IDX 74 56 70 57 71 58 72 59 73 60 52 61 53 62 61 63 54 64 60 65
REMARK SMILES IDX 62 66 59 67 55 68 56 69 57 70 58 71 6 72 7 73 8 74 9 75
REMARK SMILES IDX 10 77 11 78 12 79 15 80 13 81 14 82 16 83 17 84 18 85 19 86
REMARK SMILES IDX 20 87 25 88 21 89 24 90 22 91 23 92
REMARK H PARENT 3 6 82 24 50 35 8 76
REMARK Flexibility Score: inf
ROOT
ATOM      1  C   UNL A   1      33.419  28.312  27.131  1.00  0.00     0.023 C 
ENDROOT
BRANCH   1   2
ATOM      2  C   UNL A   1      34.741  28.953  26.729  1.00  0.00     0.116 C 
BRANCH   2   3
ATOM      3  N   UNL A   1      35.098  30.173  27.430  1.00  0.00    -0.352 N 
ATOM      4  O   UNL A   1      36.288  31.816  28.345  1.00  0.00    -0.269 OA
ATOM      5  C   UNL A   1      36.271  30.645  27.966  1.00  0.00     0.251 C 
ATOM      6  H   UNL A   1      34.341  30.790  27.546  1.00  0.00     0.163 HD
BRANCH   5   7
ATOM      7  C   UNL A   1      37.468  29.792  28.188  1.00  0.00     0.039 A 
ATOM      8  C   UNL A   1      38.590  29.799  27.359  1.00  0.00     0.014 A 
ATOM      9  C   UNL A   1      37.453  28.944  29.310  1.00  0.00     0.014 A 
ATOM     10  C   UNL A   1      39.624  28.893  27.571  1.00  0.00     0.010 A 
ATOM     11  C   UNL A   1      38.509  28.064  29.558  1.00  0.00     0.010 A 
ATOM     12  C   UNL A   1      39.598  28.037  28.681  1.00  0.00    -0.014 A 
BRANCH  12  13
ATOM     13  C   UNL A   1      40.901  27.434  29.065  1.00  0.00     0.031 A 
ATOM     14  C   UNL A   1      41.194  26.235  28.101  1.00  0.00     0.074 A 
ATOM     15  C   UNL A   1      41.534  27.915  30.188  1.00  0.00     0.049 A 
ATOM     16  N   UNL A   1      41.741  25.080  28.328  1.00  0.00    -0.248 NA
ATOM     17  C   UNL A   1      40.668  26.283  26.699  1.00  0.00     0.031 C 
ATOM     18  C   UNL A   1      41.133  29.125  30.951  1.00  0.00     0.029 A 
ATOM     19  N   UNL A   1      42.631  27.508  30.928  1.00  0.00    -0.354 N 
ATOM     20  C   UNL A   1      41.883  24.419  27.077  1.00  0.00     0.074 A 
ATOM     21  C   UNL A   1      41.044  25.121  26.162  1.00  0.00     0.031 C 
ATOM     22  C   UNL A   1      41.895  29.291  32.063  1.00  0.00     0.029 A 
ATOM     23  C   UNL A   1      42.881  28.228  32.148  1.00  0.00     0.049 A 
ATOM     24  H   UNL A   1      43.210  26.767  30.635  1.00  0.00     0.167 HD
ATOM     25  C   UNL A   1      42.831  23.461  26.836  1.00  0.00     0.034 A 
ATOM     26  C   UNL A   1      43.787  27.950  33.153  1.00  0.00     0.034 A 
ATOM     27  C   UNL A   1      43.545  23.211  28.042  1.00  0.00     0.049 A 
ATOM     28  C   UNL A   1      44.578  26.851  32.581  1.00  0.00     0.074 A 
ATOM     29  C   UNL A   1      43.188  22.638  29.231  1.00  0.00     0.029 A 
ATOM     30  N   UNL A   1      44.715  23.917  28.209  1.00  0.00    -0.354 N 
ATOM     31  N   UNL A   1      45.484  26.995  31.664  1.00  0.00    -0.248 NA
ATOM     32  C   UNL A   1      44.294  25.478  33.019  1.00  0.00     0.031 C 
ATOM     33  C   UNL A   1      43.826  23.474  30.167  1.00  0.00     0.029 A 
ATOM     34  C   UNL A   1      44.752  24.305  29.518  1.00  0.00     0.049 A 
ATOM     35  H   UNL A   1      45.393  24.106  27.520  1.00  0.00     0.167 HD
ATOM     36  C   UNL A   1      45.630  25.714  31.201  1.00  0.00     0.074 A 
ATOM     37  C   UNL A   1      45.180  24.837  32.262  1.00  0.00     0.031 C 
ATOM     38  C   UNL A   1      45.527  25.474  29.869  1.00  0.00     0.034 A 
BRANCH  25  39
ATOM     39  C   UNL A   1      43.452  22.895  25.576  1.00  0.00     0.023 A 
ATOM     40  C   UNL A   1      43.516  21.477  25.512  1.00  0.00     0.031 A 
ATOM     41  C   UNL A   1      44.270  23.587  24.676  1.00  0.00     0.131 A 
ATOM     42  C   UNL A   1      44.505  20.820  24.772  1.00  0.00     0.055 A 
ATOM     43  C   UNL A   1      45.196  22.918  23.856  1.00  0.00     0.041 A 
ATOM     44  F   UNL A   1      44.276  24.923  24.609  1.00  0.00    -0.206 F 
ATOM     45  C   UNL A   1      45.356  21.535  23.942  1.00  0.00     0.022 A 
BRANCH  42  46
ATOM     46  S   UNL A   1      44.789  19.058  25.116  1.00  0.00     0.124 S 
ATOM     47  O   UNL A   1      44.812  18.491  23.772  1.00  0.00    -0.237 OA
ATOM     48  O   UNL A   1      46.069  19.088  25.818  1.00  0.00    -0.237 OA
ATOM     49  O   UNL A   1      43.640  18.684  25.936  1.00  0.00    -0.744 OA
ENDBRANCH  42  46
ENDBRANCH  25  39
BRANCH  26  50
ATOM     50  C   UNL A   1      44.206  28.324  34.593  1.00  0.00     0.023 A 
ATOM     51  C   UNL A   1      44.227  27.509  35.741  1.00  0.00     0.031 A 
ATOM     52  C   UNL A   1      44.700  29.657  34.835  1.00  0.00     0.131 A 
ATOM     53  C   UNL A   1      44.795  28.000  36.969  1.00  0.00     0.055 A 
ATOM     54  C   UNL A   1      45.343  30.091  35.993  1.00  0.00     0.041 A 
ATOM     55  F   UNL A   1      44.569  30.649  33.945  1.00  0.00    -0.206 F 
ATOM     56  C   UNL A   1      45.411  29.252  37.070  1.00  0.00     0.022 A 
BRANCH  53  57
ATOM     57  S   UNL A   1      44.763  27.037  38.517  1.00  0.00     0.124 S 
ATOM     58  O   UNL A   1      43.447  26.411  38.457  1.00  0.00    -0.237 OA
ATOM     59  O   UNL A   1      45.911  26.149  38.372  1.00  0.00    -0.237 OA
ATOM     60  O   UNL A   1      44.911  28.062  39.553  1.00  0.00    -0.744 OA
ENDBRANCH  53  57
ENDBRANCH  26  50
BRANCH  38  61
ATOM     61  C   UNL A   1      45.868  26.659  28.969  1.00  0.00     0.023 A 
ATOM     62  C   UNL A   1      44.843  27.490  28.476  1.00  0.00     0.031 A 
ATOM     63  C   UNL A   1      47.160  26.932  28.483  1.00  0.00     0.131 A 
ATOM     64  C   UNL A   1      45.114  28.507  27.538  1.00  0.00     0.055 A 
ATOM     65  C   UNL A   1      47.437  27.944  27.552  1.00  0.00     0.041 A 
ATOM     66  F   UNL A   1      48.206  26.211  28.881  1.00  0.00    -0.206 F 
ATOM     67  C   UNL A   1      46.408  28.739  27.071  1.00  0.00     0.022 A 
BRANCH  64  68
ATOM     68  S   UNL A   1      43.754  29.549  26.940  1.00  0.00     0.124 S 
ATOM     69  O   UNL A   1      43.047  29.889  28.169  1.00  0.00    -0.237 OA
ATOM     70  O   UNL A   1      44.461  30.645  26.285  1.00  0.00    -0.237 OA
ATOM     71  O   UNL A   1      43.021  28.667  26.030  1.00  0.00    -0.744 OA
ENDBRANCH  64  68
ENDBRANCH  38  61
ENDBRANCH  12  13
ENDBRANCH   5   7
ENDBRANCH   2   3
ENDBRANCH   1   2
BRANCH   1  72
ATOM     72  C   UNL A   1      33.011  27.103  26.301  1.00  0.00     0.023 C 
BRANCH  72  73
ATOM     73  C   UNL A   1      31.535  27.024  25.912  1.00  0.00     0.116 C 
BRANCH  73  74
ATOM     74  N   UNL A   1      30.819  26.010  26.667  1.00  0.00    -0.351 N 
ATOM     75  C   UNL A   1      30.458  24.730  26.325  1.00  0.00     0.267 C 
ATOM     76  H   UNL A   1      30.548  26.285  27.573  1.00  0.00     0.163 HD
ATOM     77  O   UNL A   1      29.745  24.116  27.111  1.00  0.00    -0.268 OA
BRANCH  75  78
ATOM     78  C   UNL A   1      30.904  24.166  25.066  1.00  0.00     0.107 A 
ATOM     79  C   UNL A   1      30.832  24.719  23.793  1.00  0.00     0.033 A 
ATOM     80  N   UNL A   1      31.590  22.966  24.929  1.00  0.00    -0.334 N 
ATOM     81  C   UNL A   1      31.493  23.858  22.889  1.00  0.00     0.020 A 
ATOM     82  C   UNL A   1      31.984  22.802  23.621  1.00  0.00     0.087 A 
BRANCH  80  83
ATOM     83  C   UNL A   1      31.916  22.033  26.001  1.00  0.00     0.222 C 
BRANCH  83  84
ATOM     84  C   UNL A   1      33.142  21.138  25.856  1.00  0.00     0.242 C 
ATOM     85  O   UNL A   1      32.968  19.970  25.487  1.00  0.00    -0.273 OA
ATOM     86  N   UNL A   1      34.416  21.681  25.881  1.00  0.00    -0.339 N 
ATOM     87  C   UNL A   1      35.454  21.158  24.981  1.00  0.00     0.133 C 
ATOM     88  C   UNL A   1      34.899  22.711  26.793  1.00  0.00     0.133 C 
ATOM     89  C   UNL A   1      35.966  22.254  24.043  1.00  0.00     0.126 C 
ATOM     90  C   UNL A   1      35.283  23.955  26.029  1.00  0.00     0.126 C 
ATOM     91  S   UNL A   1      36.712  23.651  24.950  1.00  0.00     0.025 S 
ATOM     92  O   UNL A   1      37.813  23.125  25.820  1.00  0.00    -0.259 OA
ENDBRANCH  83  84
ENDBRANCH  80  83
ENDBRANCH  75  78
ENDBRANCH  73  74
ENDBRANCH  72  73
ENDBRANCH   1  72
TORSDOF 16
ENDMDL
