MODEL 1
REMARK VINA RESULT:     -13.6      0.000      0.000
REMARK SMILES Cc1ccc(C(=O)NCCCCNC(=O)c2ccc(-c3c4nc(c(-c5cc(S(=O)(=O)[O-])ccc5F)c5ccc([nH]5)c(-c5cc(S(=O)(=O)[O-])ccc5F)c5nc(c(-c6cc(S(=O)(=O)[O-])ccc6F)c6ccc3[nH]6)C=C5)C=C4)cc2)cc1NC(=O)Cc1ccc2ccccc2c1
REMARK SMILES IDX 10 1 9 2 8 3 6 4 7 5 5 7 1 8 2 9 3 10 80 11 4 12 79 13 81 14
REMARK SMILES IDX 82 15 83 17 84 18 85 19 86 20 94 21 87 22 93 23 88 24 92 25
REMARK SMILES IDX 89 26 91 27 90 28 11 29 12 30 13 31 14 32 15 34 16 35 17 36
REMARK SMILES IDX 78 37 18 38 77 39 19 40 20 41 21 42 71 43 22 44 76 45 70 46
REMARK SMILES IDX 72 47 23 48 75 49 69 50 68 51 24 53 56 54 36 55 55 56 37 57
REMARK SMILES IDX 40 58 54 59 73 60 38 61 39 62 53 64 74 65 41 66 25 67 26 68
REMARK SMILES IDX 34 69 27 70 33 71 35 72 32 73 28 74 29 75 30 76 31 77 57 78
REMARK SMILES IDX 58 79 66 80 59 81 65 82 67 83 64 84 60 85 61 86 62 87 63 88
REMARK SMILES IDX 42 89 43 90 51 91 44 92 50 93 52 94 49 95 45 96 46 97 47 98
REMARK SMILES IDX 48 99
REMARK H PARENT 8 6 81 16 13 33 72 52 40 63
REMARK Flexibility Score: inf
ROOT
ATOM      1  C   UNL A   1      32.617  28.359  25.078  1.00  0.00     0.023 C 
ENDROOT
BRANCH   1   2
ATOM      2  C   UNL A   1      31.815  29.632  24.777  1.00  0.00     0.116 C 
BRANCH   2   3
ATOM      3  N   UNL A   1      31.123  29.680  23.508  1.00  0.00    -0.352 N 
ATOM      4  C   UNL A   1      30.509  28.712  22.743  1.00  0.00     0.251 C 
ATOM      5  O   UNL A   1      29.902  29.105  21.744  1.00  0.00    -0.269 OA
ATOM      6  H   UNL A   1      31.083  30.581  23.113  1.00  0.00     0.163 HD
BRANCH   4   7
ATOM      7  C   UNL A   1      30.611  27.233  22.978  1.00  0.00     0.041 A 
ATOM      8  C   UNL A   1      31.316  22.973  23.348  1.00  0.00     0.046 C 
ATOM      9  C   UNL A   1      31.032  24.453  23.319  1.00  0.00    -0.027 A 
ATOM     10  C   UNL A   1      31.561  25.145  22.210  1.00  0.00     0.006 A 
ATOM     11  C   UNL A   1      30.268  25.157  24.277  1.00  0.00     0.044 A 
ATOM     12  C   UNL A   1      31.387  26.520  22.065  1.00  0.00     0.014 A 
ATOM     13  C   UNL A   1      29.981  26.510  24.004  1.00  0.00     0.040 A 
BRANCH  11  14
ATOM     14  N   UNL A   1      29.897  24.492  25.486  1.00  0.00    -0.326 N 
ATOM     15  C   UNL A   1      30.586  24.064  26.618  1.00  0.00     0.228 C 
ATOM     16  H   UNL A   1      28.935  24.292  25.529  1.00  0.00     0.169 HD
ATOM     17  O   UNL A   1      30.007  23.262  27.351  1.00  0.00    -0.274 OA
BRANCH  15  18
ATOM     18  C   UNL A   1      31.999  24.522  26.803  1.00  0.00     0.135 C 
BRANCH  18  19
ATOM     19  C   UNL A   1      33.248  23.938  26.194  1.00  0.00    -0.038 A 
ATOM     20  C   UNL A   1      34.157  24.901  25.729  1.00  0.00     0.005 A 
ATOM     21  C   UNL A   1      33.624  22.599  26.095  1.00  0.00     0.013 A 
ATOM     22  C   UNL A   1      35.339  24.565  25.097  1.00  0.00     0.009 A 
ATOM     23  C   UNL A   1      34.880  22.239  25.530  1.00  0.00    -0.018 A 
ATOM     24  C   UNL A   1      35.717  23.237  24.987  1.00  0.00    -0.018 A 
ATOM     25  C   UNL A   1      35.374  20.924  25.540  1.00  0.00     0.009 A 
ATOM     26  C   UNL A   1      36.952  22.912  24.409  1.00  0.00     0.009 A 
ATOM     27  C   UNL A   1      36.643  20.617  25.028  1.00  0.00     0.001 A 
ATOM     28  C   UNL A   1      37.425  21.608  24.445  1.00  0.00     0.001 A 
ENDBRANCH  18  19
ENDBRANCH  15  18
ENDBRANCH  11  14
ENDBRANCH   4   7
ENDBRANCH   2   3
ENDBRANCH   1   2
BRANCH   1  29
ATOM     29  C   UNL A   1      33.873  28.529  25.939  1.00  0.00     0.023 C 
BRANCH  29  30
ATOM     30  C   UNL A   1      33.675  29.323  27.232  1.00  0.00     0.116 C 
BRANCH  30  31
ATOM     31  N   UNL A   1      34.071  30.729  27.227  1.00  0.00    -0.352 N 
ATOM     32  C   UNL A   1      35.254  31.304  27.686  1.00  0.00     0.251 C 
ATOM     33  H   UNL A   1      33.413  31.355  26.849  1.00  0.00     0.163 HD
ATOM     34  O   UNL A   1      35.395  32.524  27.651  1.00  0.00    -0.269 OA
BRANCH  32  35
ATOM     35  C   UNL A   1      36.398  30.447  28.119  1.00  0.00     0.039 A 
ATOM     36  C   UNL A   1      36.561  30.115  29.479  1.00  0.00     0.014 A 
ATOM     37  C   UNL A   1      37.389  30.093  27.216  1.00  0.00     0.014 A 
ATOM     38  C   UNL A   1      37.781  29.611  29.949  1.00  0.00     0.010 A 
ATOM     39  C   UNL A   1      38.621  29.703  27.682  1.00  0.00     0.010 A 
ATOM     40  C   UNL A   1      38.827  29.459  29.047  1.00  0.00    -0.014 A 
BRANCH  40  41
ATOM     41  C   UNL A   1      40.158  28.928  29.324  1.00  0.00     0.031 A 
ATOM     42  C   UNL A   1      40.387  27.474  29.101  1.00  0.00     0.074 A 
ATOM     43  C   UNL A   1      41.197  29.792  29.308  1.00  0.00     0.049 A 
ATOM     44  N   UNL A   1      41.524  26.878  29.203  1.00  0.00    -0.248 NA
ATOM     45  C   UNL A   1      39.298  26.553  28.762  1.00  0.00     0.031 C 
ATOM     46  C   UNL A   1      42.560  29.504  28.872  1.00  0.00     0.029 A 
ATOM     47  N   UNL A   1      41.292  31.007  29.992  1.00  0.00    -0.354 N 
ATOM     48  C   UNL A   1      41.393  25.633  28.628  1.00  0.00     0.074 A 
ATOM     49  C   UNL A   1      39.975  25.431  28.500  1.00  0.00     0.031 C 
ATOM     50  C   UNL A   1      43.400  30.342  29.491  1.00  0.00     0.029 A 
ATOM     51  C   UNL A   1      42.621  31.069  30.472  1.00  0.00     0.049 A 
ATOM     52  H   UNL A   1      40.583  31.678  30.114  1.00  0.00     0.167 HD
ATOM     53  C   UNL A   1      42.511  24.991  28.189  1.00  0.00     0.034 A 
ATOM     54  C   UNL A   1      42.896  31.076  31.806  1.00  0.00     0.034 A 
ATOM     55  C   UNL A   1      43.714  25.602  28.756  1.00  0.00     0.049 A 
ATOM     56  C   UNL A   1      43.775  29.967  32.292  1.00  0.00     0.074 A 
ATOM     57  C   UNL A   1      44.715  26.401  28.237  1.00  0.00     0.029 A 
ATOM     58  N   UNL A   1      43.869  25.620  30.141  1.00  0.00    -0.354 N 
ATOM     59  N   UNL A   1      43.988  28.871  31.619  1.00  0.00    -0.248 NA
ATOM     60  C   UNL A   1      44.477  29.996  33.568  1.00  0.00     0.031 C 
ATOM     61  C   UNL A   1      45.398  27.000  29.333  1.00  0.00     0.029 A 
ATOM     62  C   UNL A   1      44.845  26.522  30.511  1.00  0.00     0.049 A 
ATOM     63  H   UNL A   1      43.352  25.067  30.769  1.00  0.00     0.167 HD
ATOM     64  C   UNL A   1      44.797  28.044  32.349  1.00  0.00     0.074 A 
ATOM     65  C   UNL A   1      45.111  28.813  33.541  1.00  0.00     0.031 C 
ATOM     66  C   UNL A   1      45.114  26.786  31.919  1.00  0.00     0.034 A 
BRANCH  53  67
ATOM     67  C   UNL A   1      42.566  23.931  27.101  1.00  0.00     0.023 A 
ATOM     68  C   UNL A   1      42.008  22.659  27.370  1.00  0.00     0.031 A 
ATOM     69  C   UNL A   1      43.252  24.028  25.869  1.00  0.00     0.131 A 
ATOM     70  C   UNL A   1      42.152  21.582  26.471  1.00  0.00     0.055 A 
ATOM     71  C   UNL A   1      43.343  22.972  24.950  1.00  0.00     0.041 A 
ATOM     72  F   UNL A   1      43.930  25.119  25.501  1.00  0.00    -0.206 F 
ATOM     73  C   UNL A   1      42.800  21.738  25.251  1.00  0.00     0.022 A 
BRANCH  70  74
ATOM     74  S   UNL A   1      41.550  19.938  26.948  1.00  0.00     0.124 S 
ATOM     75  O   UNL A   1      40.815  19.523  25.758  1.00  0.00    -0.237 OA
ATOM     76  O   UNL A   1      42.789  19.223  27.231  1.00  0.00    -0.237 OA
ATOM     77  O   UNL A   1      40.716  20.209  28.120  1.00  0.00    -0.744 OA
ENDBRANCH  70  74
ENDBRANCH  53  67
BRANCH  54  78
ATOM     78  C   UNL A   1      41.934  31.866  32.604  1.00  0.00     0.023 A 
ATOM     79  C   UNL A   1      40.981  31.095  33.282  1.00  0.00     0.031 A 
ATOM     80  C   UNL A   1      42.284  33.122  33.128  1.00  0.00     0.131 A 
ATOM     81  C   UNL A   1      40.580  31.470  34.565  1.00  0.00     0.055 A 
ATOM     82  C   UNL A   1      41.822  33.527  34.385  1.00  0.00     0.041 A 
ATOM     83  F   UNL A   1      43.207  33.883  32.519  1.00  0.00    -0.206 F 
ATOM     84  C   UNL A   1      41.002  32.676  35.131  1.00  0.00     0.022 A 
BRANCH  81  85
ATOM     85  S   UNL A   1      39.692  30.236  35.552  1.00  0.00     0.124 S 
ATOM     86  O   UNL A   1      39.131  31.046  36.640  1.00  0.00    -0.237 OA
ATOM     87  O   UNL A   1      38.704  29.753  34.580  1.00  0.00    -0.237 OA
ATOM     88  O   UNL A   1      40.723  29.305  35.953  1.00  0.00    -0.744 OA
ENDBRANCH  81  85
ENDBRANCH  54  78
BRANCH  66  89
ATOM     89  C   UNL A   1      45.771  25.736  32.784  1.00  0.00     0.023 A 
ATOM     90  C   UNL A   1      45.051  24.700  33.398  1.00  0.00     0.031 A 
ATOM     91  C   UNL A   1      47.171  25.702  32.970  1.00  0.00     0.131 A 
ATOM     92  C   UNL A   1      45.676  23.787  34.263  1.00  0.00     0.055 A 
ATOM     93  C   UNL A   1      47.807  24.733  33.755  1.00  0.00     0.041 A 
ATOM     94  F   UNL A   1      47.979  26.603  32.392  1.00  0.00    -0.206 F 
ATOM     95  C   UNL A   1      47.056  23.783  34.433  1.00  0.00     0.022 A 
BRANCH  92  96
ATOM     96  S   UNL A   1      44.619  22.678  35.229  1.00  0.00     0.124 S 
ATOM     97  O   UNL A   1      43.286  23.058  34.766  1.00  0.00    -0.237 OA
ATOM     98  O   UNL A   1      45.081  21.358  34.810  1.00  0.00    -0.237 OA
ATOM     99  O   UNL A   1      44.919  23.034  36.613  1.00  0.00    -0.744 OA
ENDBRANCH  92  96
ENDBRANCH  66  89
ENDBRANCH  40  41
ENDBRANCH  32  35
ENDBRANCH  30  31
ENDBRANCH  29  30
ENDBRANCH   1  29
TORSDOF 17
ENDMDL
MODEL 2
REMARK VINA RESULT:     -13.4      4.160      9.411
REMARK SMILES Cc1ccc(C(=O)NCCCCNC(=O)c2ccc(-c3c4nc(c(-c5cc(S(=O)(=O)[O-])ccc5F)c5ccc([nH]5)c(-c5cc(S(=O)(=O)[O-])ccc5F)c5nc(c(-c6cc(S(=O)(=O)[O-])ccc6F)c6ccc3[nH]6)C=C5)C=C4)cc2)cc1NC(=O)Cc1ccc2ccccc2c1
REMARK SMILES IDX 10 1 9 2 8 3 6 4 7 5 5 7 1 8 2 9 3 10 80 11 4 12 79 13 81 14
REMARK SMILES IDX 82 15 83 17 84 18 85 19 86 20 94 21 87 22 93 23 88 24 92 25
REMARK SMILES IDX 89 26 91 27 90 28 11 29 12 30 13 31 14 32 15 34 16 35 17 36
REMARK SMILES IDX 78 37 18 38 77 39 19 40 20 41 21 42 71 43 22 44 76 45 70 46
REMARK SMILES IDX 72 47 23 48 75 49 69 50 68 51 24 53 56 54 36 55 55 56 37 57
REMARK SMILES IDX 40 58 54 59 73 60 38 61 39 62 53 64 74 65 41 66 25 67 26 68
REMARK SMILES IDX 34 69 27 70 33 71 35 72 32 73 28 74 29 75 30 76 31 77 57 78
REMARK SMILES IDX 58 79 66 80 59 81 65 82 67 83 64 84 60 85 61 86 62 87 63 88
REMARK SMILES IDX 42 89 43 90 51 91 44 92 50 93 52 94 49 95 45 96 46 97 47 98
REMARK SMILES IDX 48 99
REMARK H PARENT 8 6 81 16 13 33 72 52 40 63
REMARK Flexibility Score: inf
ROOT
ATOM      1  C   UNL A   1      36.857  20.647  25.025  1.00  0.00     0.023 C 
ENDROOT
BRANCH   1   2
ATOM      2  C   UNL A   1      35.532  21.177  25.591  1.00  0.00     0.116 C 
BRANCH   2   3
ATOM      3  N   UNL A   1      34.453  20.224  25.720  1.00  0.00    -0.352 N 
ATOM      4  C   UNL A   1      33.145  20.232  25.288  1.00  0.00     0.251 C 
ATOM      5  O   UNL A   1      32.500  19.196  25.468  1.00  0.00    -0.269 OA
ATOM      6  H   UNL A   1      34.701  19.409  26.214  1.00  0.00     0.163 HD
BRANCH   4   7
ATOM      7  C   UNL A   1      32.431  21.423  24.717  1.00  0.00     0.041 A 
ATOM      8  C   UNL A   1      30.267  24.994  23.556  1.00  0.00     0.046 C 
ATOM      9  C   UNL A   1      31.080  23.766  23.873  1.00  0.00    -0.027 A 
ATOM     10  C   UNL A   1      30.842  23.198  25.142  1.00  0.00     0.006 A 
ATOM     11  C   UNL A   1      32.006  23.150  22.999  1.00  0.00     0.044 A 
ATOM     12  C   UNL A   1      31.538  22.069  25.571  1.00  0.00     0.014 A 
ATOM     13  C   UNL A   1      32.561  21.921  23.410  1.00  0.00     0.040 A 
BRANCH  11  14
ATOM     14  N   UNL A   1      32.378  23.831  21.800  1.00  0.00    -0.326 N 
ATOM     15  C   UNL A   1      33.145  24.958  21.513  1.00  0.00     0.228 C 
ATOM     16  H   UNL A   1      32.010  23.407  20.992  1.00  0.00     0.169 HD
ATOM     17  O   UNL A   1      33.023  25.440  20.386  1.00  0.00    -0.274 OA
BRANCH  15  18
ATOM     18  C   UNL A   1      33.969  25.553  22.611  1.00  0.00     0.135 C 
BRANCH  18  19
ATOM     19  C   UNL A   1      33.502  26.426  23.749  1.00  0.00    -0.038 A 
ATOM     20  C   UNL A   1      33.869  25.949  25.017  1.00  0.00     0.005 A 
ATOM     21  C   UNL A   1      32.823  27.642  23.691  1.00  0.00     0.013 A 
ATOM     22  C   UNL A   1      33.495  26.583  26.187  1.00  0.00     0.009 A 
ATOM     23  C   UNL A   1      32.512  28.354  24.883  1.00  0.00    -0.018 A 
ATOM     24  C   UNL A   1      32.814  27.787  26.139  1.00  0.00    -0.018 A 
ATOM     25  C   UNL A   1      31.966  29.649  24.878  1.00  0.00     0.009 A 
ATOM     26  C   UNL A   1      32.504  28.457  27.331  1.00  0.00     0.009 A 
ATOM     27  C   UNL A   1      31.728  30.344  26.073  1.00  0.00     0.001 A 
ATOM     28  C   UNL A   1      31.979  29.741  27.300  1.00  0.00     0.001 A 
ENDBRANCH  18  19
ENDBRANCH  15  18
ENDBRANCH  11  14
ENDBRANCH   4   7
ENDBRANCH   2   3
ENDBRANCH   1   2
BRANCH   1  29
ATOM     29  C   UNL A   1      38.039  21.622  25.022  1.00  0.00     0.023 C 
BRANCH  29  30
ATOM     30  C   UNL A   1      39.044  21.428  26.160  1.00  0.00     0.116 C 
BRANCH  30  31
ATOM     31  N   UNL A   1      40.099  20.436  25.966  1.00  0.00    -0.352 N 
ATOM     32  C   UNL A   1      41.472  20.571  26.163  1.00  0.00     0.251 C 
ATOM     33  H   UNL A   1      39.800  19.552  25.656  1.00  0.00     0.163 HD
ATOM     34  O   UNL A   1      42.223  19.636  25.897  1.00  0.00    -0.269 OA
BRANCH  32  35
ATOM     35  C   UNL A   1      42.031  21.802  26.798  1.00  0.00     0.039 A 
ATOM     36  C   UNL A   1      41.920  21.995  28.190  1.00  0.00     0.014 A 
ATOM     37  C   UNL A   1      42.531  22.830  26.014  1.00  0.00     0.014 A 
ATOM     38  C   UNL A   1      42.125  23.262  28.753  1.00  0.00     0.010 A 
ATOM     39  C   UNL A   1      42.627  24.096  26.539  1.00  0.00     0.010 A 
ATOM     40  C   UNL A   1      42.427  24.322  27.907  1.00  0.00    -0.014 A 
BRANCH  40  41
ATOM     41  C   UNL A   1      42.704  25.702  28.290  1.00  0.00     0.031 A 
ATOM     42  C   UNL A   1      41.612  26.702  28.130  1.00  0.00     0.074 A 
ATOM     43  C   UNL A   1      43.706  25.923  29.170  1.00  0.00     0.049 A 
ATOM     44  N   UNL A   1      41.667  27.930  28.515  1.00  0.00    -0.248 NA
ATOM     45  C   UNL A   1      40.343  26.376  27.472  1.00  0.00     0.031 C 
ATOM     46  C   UNL A   1      43.753  26.968  30.188  1.00  0.00     0.029 A 
ATOM     47  N   UNL A   1      45.016  25.443  29.090  1.00  0.00    -0.354 N 
ATOM     48  C   UNL A   1      40.386  28.433  28.481  1.00  0.00     0.074 A 
ATOM     49  C   UNL A   1      39.635  27.486  27.703  1.00  0.00     0.031 C 
ATOM     50  C   UNL A   1      45.033  27.246  30.466  1.00  0.00     0.029 A 
ATOM     51  C   UNL A   1      45.838  26.517  29.508  1.00  0.00     0.049 A 
ATOM     52  H   UNL A   1      45.305  24.548  28.805  1.00  0.00     0.167 HD
ATOM     53  C   UNL A   1      40.085  29.516  29.250  1.00  0.00     0.034 A 
ATOM     54  C   UNL A   1      46.725  27.105  28.657  1.00  0.00     0.034 A 
ATOM     55  C   UNL A   1      41.306  30.184  29.702  1.00  0.00     0.049 A 
ATOM     56  C   UNL A   1      46.539  28.573  28.442  1.00  0.00     0.074 A 
ATOM     57  C   UNL A   1      41.953  30.270  30.921  1.00  0.00     0.029 A 
ATOM     58  N   UNL A   1      42.186  30.693  28.749  1.00  0.00    -0.354 N 
ATOM     59  N   UNL A   1      45.436  29.208  28.727  1.00  0.00    -0.248 NA
ATOM     60  C   UNL A   1      47.567  29.443  27.887  1.00  0.00     0.031 C 
ATOM     61  C   UNL A   1      43.280  30.720  30.672  1.00  0.00     0.029 A 
ATOM     62  C   UNL A   1      43.417  30.958  29.313  1.00  0.00     0.049 A 
ATOM     63  H   UNL A   1      41.961  30.842  27.803  1.00  0.00     0.167 HD
ATOM     64  C   UNL A   1      45.569  30.523  28.376  1.00  0.00     0.074 A 
ATOM     65  C   UNL A   1      46.936  30.629  27.896  1.00  0.00     0.031 C 
ATOM     66  C   UNL A   1      44.530  31.405  28.484  1.00  0.00     0.034 A 
BRANCH  53  67
ATOM     67  C   UNL A   1      38.706  29.891  29.769  1.00  0.00     0.023 A 
ATOM     68  C   UNL A   1      38.250  31.216  29.578  1.00  0.00     0.031 A 
ATOM     69  C   UNL A   1      37.862  29.084  30.566  1.00  0.00     0.131 A 
ATOM     70  C   UNL A   1      37.052  31.679  30.159  1.00  0.00     0.055 A 
ATOM     71  C   UNL A   1      36.641  29.529  31.095  1.00  0.00     0.041 A 
ATOM     72  F   UNL A   1      38.186  27.842  30.939  1.00  0.00    -0.206 F 
ATOM     73  C   UNL A   1      36.233  30.835  30.901  1.00  0.00     0.022 A 
BRANCH  70  74
ATOM     74  S   UNL A   1      36.606  33.432  30.006  1.00  0.00     0.124 S 
ATOM     75  O   UNL A   1      36.396  33.817  31.397  1.00  0.00    -0.237 OA
ATOM     76  O   UNL A   1      37.778  33.994  29.344  1.00  0.00    -0.237 OA
ATOM     77  O   UNL A   1      35.394  33.402  29.187  1.00  0.00    -0.744 OA
ENDBRANCH  70  74
ENDBRANCH  53  67
BRANCH  54  78
ATOM     78  C   UNL A   1      47.400  26.150  27.754  1.00  0.00     0.023 A 
ATOM     79  C   UNL A   1      47.204  26.413  26.391  1.00  0.00     0.031 A 
ATOM     80  C   UNL A   1      48.567  25.475  28.151  1.00  0.00     0.131 A 
ATOM     81  C   UNL A   1      48.256  26.219  25.495  1.00  0.00     0.055 A 
ATOM     82  C   UNL A   1      49.592  25.218  27.233  1.00  0.00     0.041 A 
ATOM     83  F   UNL A   1      48.802  25.222  29.447  1.00  0.00    -0.206 F 
ATOM     84  C   UNL A   1      49.458  25.634  25.905  1.00  0.00     0.022 A 
BRANCH  81  85
ATOM     85  S   UNL A   1      48.096  26.964  23.851  1.00  0.00     0.124 S 
ATOM     86  O   UNL A   1      48.214  25.801  22.964  1.00  0.00    -0.237 OA
ATOM     87  O   UNL A   1      46.746  27.537  23.929  1.00  0.00    -0.237 OA
ATOM     88  O   UNL A   1      49.198  27.897  23.783  1.00  0.00    -0.744 OA
ENDBRANCH  81  85
ENDBRANCH  54  78
BRANCH  66  89
ATOM     89  C   UNL A   1      44.524  32.787  27.874  1.00  0.00     0.023 A 
ATOM     90  C   UNL A   1      44.935  33.929  28.578  1.00  0.00     0.031 A 
ATOM     91  C   UNL A   1      44.162  32.997  26.525  1.00  0.00     0.131 A 
ATOM     92  C   UNL A   1      44.839  35.210  28.013  1.00  0.00     0.055 A 
ATOM     93  C   UNL A   1      44.160  34.265  25.930  1.00  0.00     0.041 A 
ATOM     94  F   UNL A   1      43.803  31.981  25.727  1.00  0.00    -0.206 F 
ATOM     95  C   UNL A   1      44.472  35.388  26.683  1.00  0.00     0.022 A 
BRANCH  92  96
ATOM     96  S   UNL A   1      45.114  36.636  29.097  1.00  0.00     0.124 S 
ATOM     97  O   UNL A   1      43.763  36.904  29.585  1.00  0.00    -0.237 OA
ATOM     98  O   UNL A   1      46.049  36.105  30.084  1.00  0.00    -0.237 OA
ATOM     99  O   UNL A   1      45.662  37.651  28.201  1.00  0.00    -0.744 OA
ENDBRANCH  92  96
ENDBRANCH  66  89
ENDBRANCH  40  41
ENDBRANCH  32  35
ENDBRANCH  30  31
ENDBRANCH  29  30
ENDBRANCH   1  29
TORSDOF 17
ENDMDL
MODEL 3
REMARK VINA RESULT:     -13.0      3.408      4.636
REMARK SMILES Cc1ccc(C(=O)NCCCCNC(=O)c2ccc(-c3c4nc(c(-c5cc(S(=O)(=O)[O-])ccc5F)c5ccc([nH]5)c(-c5cc(S(=O)(=O)[O-])ccc5F)c5nc(c(-c6cc(S(=O)(=O)[O-])ccc6F)c6ccc3[nH]6)C=C5)C=C4)cc2)cc1NC(=O)Cc1ccc2ccccc2c1
REMARK SMILES IDX 10 1 9 2 8 3 6 4 7 5 5 7 1 8 2 9 3 10 80 11 4 12 79 13 81 14
REMARK SMILES IDX 82 15 83 17 84 18 85 19 86 20 94 21 87 22 93 23 88 24 92 25
REMARK SMILES IDX 89 26 91 27 90 28 11 29 12 30 13 31 14 32 15 34 16 35 17 36
REMARK SMILES IDX 78 37 18 38 77 39 19 40 20 41 21 42 71 43 22 44 76 45 70 46
REMARK SMILES IDX 72 47 23 48 75 49 69 50 68 51 24 53 56 54 36 55 55 56 37 57
REMARK SMILES IDX 40 58 54 59 73 60 38 61 39 62 53 64 74 65 41 66 25 67 26 68
REMARK SMILES IDX 34 69 27 70 33 71 35 72 32 73 28 74 29 75 30 76 31 77 57 78
REMARK SMILES IDX 58 79 66 80 59 81 65 82 67 83 64 84 60 85 61 86 62 87 63 88
REMARK SMILES IDX 42 89 43 90 51 91 44 92 50 93 52 94 49 95 45 96 46 97 47 98
REMARK SMILES IDX 48 99
REMARK H PARENT 8 6 81 16 13 33 72 52 40 63
REMARK Flexibility Score: inf
ROOT
ATOM      1  C   UNL A   1      33.763  31.703  27.625  1.00  0.00     0.023 C 
ENDROOT
BRANCH   1   2
ATOM      2  C   UNL A   1      33.160  30.443  26.989  1.00  0.00     0.116 C 
BRANCH   2   3
ATOM      3  N   UNL A   1      33.894  29.855  25.890  1.00  0.00    -0.352 N 
ATOM      4  C   UNL A   1      33.531  28.980  24.890  1.00  0.00     0.251 C 
ATOM      5  O   UNL A   1      34.380  28.753  24.023  1.00  0.00    -0.269 OA
ATOM      6  H   UNL A   1      34.836  30.134  25.848  1.00  0.00     0.163 HD
BRANCH   4   7
ATOM      7  C   UNL A   1      32.238  28.217  24.835  1.00  0.00     0.041 A 
ATOM      8  C   UNL A   1      28.507  26.117  24.172  1.00  0.00     0.046 C 
ATOM      9  C   UNL A   1      29.825  26.778  24.481  1.00  0.00    -0.027 A 
ATOM     10  C   UNL A   1      30.243  27.750  23.549  1.00  0.00     0.006 A 
ATOM     11  C   UNL A   1      30.621  26.521  25.621  1.00  0.00     0.044 A 
ATOM     12  C   UNL A   1      31.451  28.428  23.704  1.00  0.00     0.014 A 
ATOM     13  C   UNL A   1      31.747  27.345  25.819  1.00  0.00     0.040 A 
BRANCH  11  14
ATOM     14  N   UNL A   1      30.288  25.411  26.456  1.00  0.00    -0.326 N 
ATOM     15  C   UNL A   1      30.661  24.069  26.495  1.00  0.00     0.228 C 
ATOM     16  H   UNL A   1      29.651  25.648  27.168  1.00  0.00     0.169 HD
ATOM     17  O   UNL A   1      29.960  23.317  27.173  1.00  0.00    -0.274 OA
BRANCH  15  18
ATOM     18  C   UNL A   1      31.806  23.627  25.639  1.00  0.00     0.135 C 
BRANCH  18  19
ATOM     19  C   UNL A   1      31.975  22.308  24.929  1.00  0.00    -0.038 A 
ATOM     20  C   UNL A   1      31.961  22.410  23.530  1.00  0.00     0.005 A 
ATOM     21  C   UNL A   1      32.197  21.046  25.479  1.00  0.00     0.013 A 
ATOM     22  C   UNL A   1      32.055  21.307  22.702  1.00  0.00     0.009 A 
ATOM     23  C   UNL A   1      32.388  19.914  24.639  1.00  0.00    -0.018 A 
ATOM     24  C   UNL A   1      32.268  20.049  23.239  1.00  0.00    -0.018 A 
ATOM     25  C   UNL A   1      32.762  18.652  25.131  1.00  0.00     0.009 A 
ATOM     26  C   UNL A   1      32.434  18.949  22.387  1.00  0.00     0.009 A 
ATOM     27  C   UNL A   1      33.001  17.574  24.267  1.00  0.00     0.001 A 
ATOM     28  C   UNL A   1      32.819  17.717  22.895  1.00  0.00     0.001 A 
ENDBRANCH  18  19
ENDBRANCH  15  18
ENDBRANCH  11  14
ENDBRANCH   4   7
ENDBRANCH   2   3
ENDBRANCH   1   2
BRANCH   1  29
ATOM     29  C   UNL A   1      32.808  32.879  27.852  1.00  0.00     0.023 C 
BRANCH  29  30
ATOM     30  C   UNL A   1      33.475  34.254  27.930  1.00  0.00     0.116 C 
BRANCH  30  31
ATOM     31  N   UNL A   1      33.202  35.071  29.110  1.00  0.00    -0.352 N 
ATOM     32  C   UNL A   1      33.673  34.908  30.412  1.00  0.00     0.251 C 
ATOM     33  H   UNL A   1      32.606  35.840  28.967  1.00  0.00     0.163 HD
ATOM     34  O   UNL A   1      33.292  35.669  31.299  1.00  0.00    -0.269 OA
BRANCH  32  35
ATOM     35  C   UNL A   1      34.718  33.888  30.720  1.00  0.00     0.039 A 
ATOM     36  C   UNL A   1      34.614  33.093  31.880  1.00  0.00     0.014 A 
ATOM     37  C   UNL A   1      35.872  33.813  29.955  1.00  0.00     0.014 A 
ATOM     38  C   UNL A   1      35.723  32.385  32.362  1.00  0.00     0.010 A 
ATOM     39  C   UNL A   1      36.993  33.213  30.476  1.00  0.00     0.010 A 
ATOM     40  C   UNL A   1      36.928  32.497  31.679  1.00  0.00    -0.014 A 
BRANCH  40  41
ATOM     41  C   UNL A   1      38.184  31.825  31.996  1.00  0.00     0.031 A 
ATOM     42  C   UNL A   1      38.371  30.432  31.506  1.00  0.00     0.074 A 
ATOM     43  C   UNL A   1      39.257  32.595  32.282  1.00  0.00     0.049 A 
ATOM     44  N   UNL A   1      39.455  29.745  31.616  1.00  0.00    -0.248 NA
ATOM     45  C   UNL A   1      37.292  29.679  30.857  1.00  0.00     0.031 C 
ATOM     46  C   UNL A   1      40.650  32.301  31.960  1.00  0.00     0.029 A 
ATOM     47  N   UNL A   1      39.319  33.640  33.209  1.00  0.00    -0.354 N 
ATOM     48  C   UNL A   1      39.341  28.652  30.785  1.00  0.00     0.074 A 
ATOM     49  C   UNL A   1      37.944  28.585  30.451  1.00  0.00     0.031 C 
ATOM     50  C   UNL A   1      41.441  32.935  32.834  1.00  0.00     0.029 A 
ATOM     51  C   UNL A   1      40.575  33.507  33.845  1.00  0.00     0.049 A 
ATOM     52  H   UNL A   1      38.633  34.324  33.382  1.00  0.00     0.167 HD
ATOM     53  C   UNL A   1      40.474  28.030  30.358  1.00  0.00     0.034 A 
ATOM     54  C   UNL A   1      40.673  33.228  35.175  1.00  0.00     0.034 A 
ATOM     55  C   UNL A   1      41.621  28.426  31.177  1.00  0.00     0.049 A 
ATOM     56  C   UNL A   1      41.427  31.983  35.521  1.00  0.00     0.074 A 
ATOM     57  C   UNL A   1      42.719  29.236  30.957  1.00  0.00     0.029 A 
ATOM     58  N   UNL A   1      41.594  28.157  32.545  1.00  0.00    -0.354 N 
ATOM     59  N   UNL A   1      41.675  31.031  34.666  1.00  0.00    -0.248 NA
ATOM     60  C   UNL A   1      41.957  31.706  36.850  1.00  0.00     0.031 C 
ATOM     61  C   UNL A   1      43.279  29.553  32.226  1.00  0.00     0.029 A 
ATOM     62  C   UNL A   1      42.556  28.893  33.206  1.00  0.00     0.049 A 
ATOM     63  H   UNL A   1      40.973  27.529  32.979  1.00  0.00     0.167 HD
ATOM     64  C   UNL A   1      42.340  30.018  35.300  1.00  0.00     0.074 A 
ATOM     65  C   UNL A   1      42.532  30.508  36.654  1.00  0.00     0.031 C 
ATOM     66  C   UNL A   1      42.650  28.850  34.660  1.00  0.00     0.034 A 
BRANCH  53  67
ATOM     67  C   UNL A   1      40.620  27.207  29.089  1.00  0.00     0.023 A 
ATOM     68  C   UNL A   1      41.536  27.644  28.103  1.00  0.00     0.031 A 
ATOM     69  C   UNL A   1      39.824  26.102  28.709  1.00  0.00     0.131 A 
ATOM     70  C   UNL A   1      41.619  27.021  26.841  1.00  0.00     0.055 A 
ATOM     71  C   UNL A   1      39.950  25.447  27.475  1.00  0.00     0.041 A 
ATOM     72  F   UNL A   1      38.836  25.624  29.471  1.00  0.00    -0.206 F 
ATOM     73  C   UNL A   1      40.844  25.909  26.529  1.00  0.00     0.022 A 
BRANCH  70  74
ATOM     74  S   UNL A   1      42.700  27.730  25.567  1.00  0.00     0.124 S 
ATOM     75  O   UNL A   1      41.921  28.875  25.107  1.00  0.00    -0.237 OA
ATOM     76  O   UNL A   1      43.913  28.027  26.319  1.00  0.00    -0.237 OA
ATOM     77  O   UNL A   1      42.831  26.646  24.593  1.00  0.00    -0.744 OA
ENDBRANCH  70  74
ENDBRANCH  53  67
BRANCH  54  78
ATOM     78  C   UNL A   1      39.655  33.912  35.999  1.00  0.00     0.023 A 
ATOM     79  C   UNL A   1      38.699  33.054  36.558  1.00  0.00     0.031 A 
ATOM     80  C   UNL A   1      39.943  35.122  36.654  1.00  0.00     0.131 A 
ATOM     81  C   UNL A   1      38.233  33.294  37.851  1.00  0.00     0.055 A 
ATOM     82  C   UNL A   1      39.416  35.392  37.921  1.00  0.00     0.041 A 
ATOM     83  F   UNL A   1      40.866  35.962  36.161  1.00  0.00    -0.206 F 
ATOM     84  C   UNL A   1      38.592  34.452  38.547  1.00  0.00     0.022 A 
BRANCH  81  85
ATOM     85  S   UNL A   1      37.342  31.949  38.678  1.00  0.00     0.124 S 
ATOM     86  O   UNL A   1      37.455  30.853  37.709  1.00  0.00    -0.237 OA
ATOM     87  O   UNL A   1      38.151  31.776  39.891  1.00  0.00    -0.237 OA
ATOM     88  O   UNL A   1      36.007  32.473  38.853  1.00  0.00    -0.744 OA
ENDBRANCH  81  85
ENDBRANCH  54  78
BRANCH  66  89
ATOM     89  C   UNL A   1      43.137  27.603  35.360  1.00  0.00     0.023 A 
ATOM     90  C   UNL A   1      44.398  27.038  35.114  1.00  0.00     0.031 A 
ATOM     91  C   UNL A   1      42.368  26.969  36.360  1.00  0.00     0.131 A 
ATOM     92  C   UNL A   1      44.790  25.833  35.717  1.00  0.00     0.055 A 
ATOM     93  C   UNL A   1      42.800  25.821  37.034  1.00  0.00     0.041 A 
ATOM     94  F   UNL A   1      41.168  27.441  36.730  1.00  0.00    -0.206 F 
ATOM     95  C   UNL A   1      44.007  25.226  36.693  1.00  0.00     0.022 A 
BRANCH  92  96
ATOM     96  S   UNL A   1      46.302  25.038  35.114  1.00  0.00     0.124 S 
ATOM     97  O   UNL A   1      46.154  25.174  33.667  1.00  0.00    -0.237 OA
ATOM     98  O   UNL A   1      47.350  25.852  35.722  1.00  0.00    -0.237 OA
ATOM     99  O   UNL A   1      46.200  23.672  35.622  1.00  0.00    -0.744 OA
ENDBRANCH  92  96
ENDBRANCH  66  89
ENDBRANCH  40  41
ENDBRANCH  32  35
ENDBRANCH  30  31
ENDBRANCH  29  30
ENDBRANCH   1  29
TORSDOF 17
ENDMDL
