MODEL 1
REMARK VINA RESULT:     -12.8      0.000      0.000
REMARK SMILES O=C(NCCCCNC(=O)[C@@H]1[C@@H](C(=O)Nc2cccc([N+](=O)[O-])c2)[C@@H]2C=C[C@H]1O2)c1ccc(-c2c3nc(c(-c4cc(S(=O)(=O)[O-])ccc4F)c4ccc([nH]4)c(-c4cc(S(=O)(=O)[O-])ccc4F)c4nc(c(-c5cc(S(=O)(=O)[O-])ccc5F)c5ccc2[nH]5)C=C4)C=C3)cc1
REMARK SMILES IDX 5 1 4 2 3 3 1 4 2 5 30 7 31 8 92 9 32 10 91 11 33 12 34 13
REMARK SMILES IDX 35 14 85 15 36 16 90 17 84 18 86 19 37 20 89 21 83 22 82 23
REMARK SMILES IDX 38 25 70 26 50 27 69 28 51 29 54 30 68 31 87 32 52 33 53 34
REMARK SMILES IDX 67 36 88 37 55 38 39 39 40 40 48 41 41 42 47 43 49 44 46 45
REMARK SMILES IDX 42 46 43 47 44 48 45 49 71 50 72 51 80 52 73 53 79 54 81 55
REMARK SMILES IDX 78 56 74 57 75 58 76 59 77 60 56 61 57 62 65 63 58 64 64 65
REMARK SMILES IDX 66 66 63 67 59 68 60 69 61 70 62 71 6 72 7 73 8 74 9 75
REMARK SMILES IDX 10 77 11 78 12 79 28 80 25 81 27 82 29 83 26 84 13 85 14 86
REMARK SMILES IDX 15 87 16 89 17 90 24 91 18 92 20 93 19 94 21 95 22 96 23 97
REMARK H PARENT 3 6 86 24 54 35 8 76 15 88
REMARK Flexibility Score: inf
ROOT
ATOM      1  C   UNL A   1      36.250  21.497  24.541  1.00  0.00     0.023 C 
ENDROOT
BRANCH   1   2
ATOM      2  C   UNL A   1      37.210  21.655  25.709  1.00  0.00     0.116 C 
BRANCH   2   3
ATOM      3  N   UNL A   1      38.215  20.601  25.781  1.00  0.00    -0.352 N 
ATOM      4  O   UNL A   1      40.285  19.750  26.121  1.00  0.00    -0.269 OA
ATOM      5  C   UNL A   1      39.522  20.705  26.193  1.00  0.00     0.251 C 
ATOM      6  H   UNL A   1      37.922  19.705  25.499  1.00  0.00     0.163 HD
BRANCH   5   7
ATOM      7  C   UNL A   1      39.983  22.012  26.695  1.00  0.00     0.039 A 
ATOM      8  C   UNL A   1      39.521  23.182  26.087  1.00  0.00     0.014 A 
ATOM      9  C   UNL A   1      40.959  22.052  27.690  1.00  0.00     0.014 A 
ATOM     10  C   UNL A   1      40.149  24.383  26.368  1.00  0.00     0.010 A 
ATOM     11  C   UNL A   1      41.521  23.278  28.039  1.00  0.00     0.010 A 
ATOM     12  C   UNL A   1      41.142  24.447  27.357  1.00  0.00    -0.014 A 
BRANCH  12  13
ATOM     13  C   UNL A   1      41.726  25.760  27.713  1.00  0.00     0.031 A 
ATOM     14  C   UNL A   1      40.936  26.777  28.484  1.00  0.00     0.074 A 
ATOM     15  C   UNL A   1      42.987  26.018  27.318  1.00  0.00     0.049 A 
ATOM     16  N   UNL A   1      41.267  27.999  28.813  1.00  0.00    -0.248 NA
ATOM     17  C   UNL A   1      39.596  26.374  28.929  1.00  0.00     0.031 C 
ATOM     18  C   UNL A   1      43.833  25.091  26.557  1.00  0.00     0.029 A 
ATOM     19  N   UNL A   1      43.776  27.121  27.493  1.00  0.00    -0.354 N 
ATOM     20  C   UNL A   1      40.167  28.526  29.480  1.00  0.00     0.074 A 
ATOM     21  C   UNL A   1      39.151  27.492  29.486  1.00  0.00     0.031 C 
ATOM     22  C   UNL A   1      45.028  25.658  26.350  1.00  0.00     0.029 A 
ATOM     23  C   UNL A   1      45.005  27.011  26.888  1.00  0.00     0.049 A 
ATOM     24  H   UNL A   1      43.491  27.915  28.001  1.00  0.00     0.167 HD
ATOM     25  C   UNL A   1      40.028  29.757  30.034  1.00  0.00     0.034 A 
ATOM     26  C   UNL A   1      45.989  27.914  26.737  1.00  0.00     0.034 A 
ATOM     27  C   UNL A   1      41.067  30.761  30.013  1.00  0.00     0.049 A 
ATOM     28  C   UNL A   1      45.802  29.280  27.328  1.00  0.00     0.074 A 
ATOM     29  C   UNL A   1      41.062  32.023  30.582  1.00  0.00     0.029 A 
ATOM     30  N   UNL A   1      42.295  30.622  29.374  1.00  0.00    -0.354 N 
ATOM     31  N   UNL A   1      44.764  29.761  27.972  1.00  0.00    -0.248 NA
ATOM     32  C   UNL A   1      46.915  30.222  27.176  1.00  0.00     0.031 C 
ATOM     33  C   UNL A   1      42.255  32.668  30.232  1.00  0.00     0.029 A 
ATOM     34  C   UNL A   1      43.038  31.786  29.503  1.00  0.00     0.049 A 
ATOM     35  H   UNL A   1      42.593  29.814  28.898  1.00  0.00     0.167 HD
ATOM     36  C   UNL A   1      45.101  31.065  28.309  1.00  0.00     0.074 A 
ATOM     37  C   UNL A   1      46.445  31.287  27.811  1.00  0.00     0.031 C 
ATOM     38  C   UNL A   1      44.366  31.995  28.973  1.00  0.00     0.034 A 
BRANCH  25  39
ATOM     39  C   UNL A   1      38.689  30.096  30.649  1.00  0.00     0.023 A 
ATOM     40  C   UNL A   1      37.677  30.747  29.921  1.00  0.00     0.031 A 
ATOM     41  C   UNL A   1      38.436  29.801  32.001  1.00  0.00     0.131 A 
ATOM     42  C   UNL A   1      36.498  31.153  30.566  1.00  0.00     0.055 A 
ATOM     43  C   UNL A   1      37.228  30.135  32.617  1.00  0.00     0.041 A 
ATOM     44  F   UNL A   1      39.368  29.197  32.756  1.00  0.00    -0.206 F 
ATOM     45  C   UNL A   1      36.257  30.832  31.904  1.00  0.00     0.022 A 
BRANCH  42  46
ATOM     46  S   UNL A   1      35.357  32.249  29.676  1.00  0.00     0.124 S 
ATOM     47  O   UNL A   1      34.848  31.363  28.631  1.00  0.00    -0.237 OA
ATOM     48  O   UNL A   1      34.407  32.624  30.715  1.00  0.00    -0.237 OA
ATOM     49  O   UNL A   1      36.221  33.327  29.199  1.00  0.00    -0.744 OA
ENDBRANCH  42  46
ENDBRANCH  25  39
BRANCH  26  50
ATOM     50  C   UNL A   1      47.191  27.553  25.942  1.00  0.00     0.023 A 
ATOM     51  C   UNL A   1      47.250  27.784  24.561  1.00  0.00     0.031 A 
ATOM     52  C   UNL A   1      48.328  27.015  26.577  1.00  0.00     0.131 A 
ATOM     53  C   UNL A   1      48.421  27.469  23.855  1.00  0.00     0.055 A 
ATOM     54  C   UNL A   1      49.502  26.744  25.878  1.00  0.00     0.041 A 
ATOM     55  F   UNL A   1      48.323  26.795  27.901  1.00  0.00    -0.206 F 
ATOM     56  C   UNL A   1      49.552  26.965  24.505  1.00  0.00     0.022 A 
BRANCH  53  57
ATOM     57  S   UNL A   1      48.440  27.703  22.058  1.00  0.00     0.124 S 
ATOM     58  O   UNL A   1      49.564  28.617  21.887  1.00  0.00    -0.237 OA
ATOM     59  O   UNL A   1      48.642  26.341  21.576  1.00  0.00    -0.237 OA
ATOM     60  O   UNL A   1      47.123  28.272  21.775  1.00  0.00    -0.744 OA
ENDBRANCH  53  57
ENDBRANCH  26  50
BRANCH  38  61
ATOM     61  C   UNL A   1      45.027  33.324  29.213  1.00  0.00     0.023 A 
ATOM     62  C   UNL A   1      45.799  33.564  30.363  1.00  0.00     0.031 A 
ATOM     63  C   UNL A   1      44.869  34.369  28.286  1.00  0.00     0.131 A 
ATOM     64  C   UNL A   1      46.348  34.836  30.580  1.00  0.00     0.055 A 
ATOM     65  C   UNL A   1      45.460  35.617  28.483  1.00  0.00     0.041 A 
ATOM     66  F   UNL A   1      44.137  34.190  27.175  1.00  0.00    -0.206 F 
ATOM     67  C   UNL A   1      46.197  35.859  29.638  1.00  0.00     0.022 A 
BRANCH  64  68
ATOM     68  S   UNL A   1      47.210  35.160  32.142  1.00  0.00     0.124 S 
ATOM     69  O   UNL A   1      46.195  34.800  33.127  1.00  0.00    -0.237 OA
ATOM     70  O   UNL A   1      48.361  34.267  32.057  1.00  0.00    -0.237 OA
ATOM     71  O   UNL A   1      47.527  36.585  32.070  1.00  0.00    -0.744 OA
ENDBRANCH  64  68
ENDBRANCH  38  61
ENDBRANCH  12  13
ENDBRANCH   5   7
ENDBRANCH   2   3
ENDBRANCH   1   2
BRANCH   1  72
ATOM     72  C   UNL A   1      36.173  22.698  23.611  1.00  0.00     0.023 C 
BRANCH  72  73
ATOM     73  C   UNL A   1      34.796  23.348  23.505  1.00  0.00     0.116 C 
BRANCH  73  74
ATOM     74  N   UNL A   1      34.753  24.648  24.139  1.00  0.00    -0.356 N 
ATOM     75  C   UNL A   1      34.169  25.122  25.260  1.00  0.00     0.227 C 
ATOM     76  H   UNL A   1      35.260  25.334  23.647  1.00  0.00     0.163 HD
ATOM     77  O   UNL A   1      34.343  26.329  25.481  1.00  0.00    -0.275 OA
BRANCH  75  78
ATOM     78  C   UNL A   1      33.303  24.344  26.234  1.00  0.00     0.127 C 
ATOM     79  C   UNL A   1      32.864  22.895  25.960  1.00  0.00     0.127 C 
ATOM     80  C   UNL A   1      31.966  25.030  26.568  1.00  0.00     0.155 C 
ATOM     81  C   UNL A   1      31.344  22.972  26.193  1.00  0.00     0.155 C 
ATOM     82  C   UNL A   1      31.015  25.086  25.420  1.00  0.00     0.004 C 
ATOM     83  O   UNL A   1      31.313  23.936  27.281  1.00  0.00    -0.365 OA
ATOM     84  C   UNL A   1      30.652  23.820  25.166  1.00  0.00     0.004 C 
BRANCH  79  85
ATOM     85  C   UNL A   1      33.414  21.700  26.738  1.00  0.00     0.231 C 
ATOM     86  O   UNL A   1      33.965  21.943  27.826  1.00  0.00    -0.274 OA
ATOM     87  N   UNL A   1      33.278  20.381  26.450  1.00  0.00    -0.325 N 
ATOM     88  H   UNL A   1      33.365  19.812  27.248  1.00  0.00     0.169 HD
BRANCH  87  89
ATOM     89  C   UNL A   1      33.041  19.640  25.287  1.00  0.00     0.048 A 
ATOM     90  C   UNL A   1      32.354  20.279  24.249  1.00  0.00     0.026 A 
ATOM     91  C   UNL A   1      33.396  18.302  25.138  1.00  0.00     0.111 A 
ATOM     92  C   UNL A   1      32.144  19.634  23.027  1.00  0.00     0.009 A 
ATOM     93  C   UNL A   1      33.222  17.666  23.902  1.00  0.00     0.271 A 
ATOM     94  C   UNL A   1      32.603  18.331  22.838  1.00  0.00     0.086 A 
BRANCH  93  95
ATOM     95  N   UNL A   1      33.710  16.294  23.713  1.00  0.00     0.062 N 
ATOM     96  O   UNL A   1      34.383  16.057  22.699  1.00  0.00    -0.258 OA
ATOM     97  O   UNL A   1      33.420  15.451  24.573  1.00  0.00    -0.258 OA
ENDBRANCH  93  95
ENDBRANCH  87  89
ENDBRANCH  79  85
ENDBRANCH  75  78
ENDBRANCH  73  74
ENDBRANCH  72  73
ENDBRANCH   1  72
TORSDOF 17
ENDMDL
MODEL 2
REMARK VINA RESULT:     -12.7      1.996      2.432
REMARK SMILES O=C(NCCCCNC(=O)[C@@H]1[C@@H](C(=O)Nc2cccc([N+](=O)[O-])c2)[C@@H]2C=C[C@H]1O2)c1ccc(-c2c3nc(c(-c4cc(S(=O)(=O)[O-])ccc4F)c4ccc([nH]4)c(-c4cc(S(=O)(=O)[O-])ccc4F)c4nc(c(-c5cc(S(=O)(=O)[O-])ccc5F)c5ccc2[nH]5)C=C4)C=C3)cc1
REMARK SMILES IDX 5 1 4 2 3 3 1 4 2 5 30 7 31 8 92 9 32 10 91 11 33 12 34 13
REMARK SMILES IDX 35 14 85 15 36 16 90 17 84 18 86 19 37 20 89 21 83 22 82 23
REMARK SMILES IDX 38 25 70 26 50 27 69 28 51 29 54 30 68 31 87 32 52 33 53 34
REMARK SMILES IDX 67 36 88 37 55 38 39 39 40 40 48 41 41 42 47 43 49 44 46 45
REMARK SMILES IDX 42 46 43 47 44 48 45 49 71 50 72 51 80 52 73 53 79 54 81 55
REMARK SMILES IDX 78 56 74 57 75 58 76 59 77 60 56 61 57 62 65 63 58 64 64 65
REMARK SMILES IDX 66 66 63 67 59 68 60 69 61 70 62 71 6 72 7 73 8 74 9 75
REMARK SMILES IDX 10 77 11 78 12 79 28 80 25 81 27 82 29 83 26 84 13 85 14 86
REMARK SMILES IDX 15 87 16 89 17 90 24 91 18 92 20 93 19 94 21 95 22 96 23 97
REMARK H PARENT 3 6 86 24 54 35 8 76 15 88
REMARK Flexibility Score: inf
ROOT
ATOM      1  C   UNL A   1      38.190  19.241  24.992  1.00  0.00     0.023 C 
ENDROOT
BRANCH   1   2
ATOM      2  C   UNL A   1      39.276  19.705  25.948  1.00  0.00     0.116 C 
BRANCH   2   3
ATOM      3  N   UNL A   1      40.503  18.923  25.858  1.00  0.00    -0.352 N 
ATOM      4  O   UNL A   1      42.744  18.602  25.835  1.00  0.00    -0.269 OA
ATOM      5  C   UNL A   1      41.796  19.355  26.026  1.00  0.00     0.251 C 
ATOM      6  H   UNL A   1      40.391  17.967  25.652  1.00  0.00     0.163 HD
BRANCH   5   7
ATOM      7  C   UNL A   1      42.007  20.761  26.410  1.00  0.00     0.039 A 
ATOM      8  C   UNL A   1      42.058  21.743  25.418  1.00  0.00     0.014 A 
ATOM      9  C   UNL A   1      42.266  21.070  27.745  1.00  0.00     0.014 A 
ATOM     10  C   UNL A   1      42.521  23.008  25.740  1.00  0.00     0.010 A 
ATOM     11  C   UNL A   1      42.639  22.370  28.081  1.00  0.00     0.010 A 
ATOM     12  C   UNL A   1      42.800  23.338  27.076  1.00  0.00    -0.014 A 
BRANCH  12  13
ATOM     13  C   UNL A   1      43.194  24.726  27.411  1.00  0.00     0.031 A 
ATOM     14  C   UNL A   1      42.234  25.664  28.081  1.00  0.00     0.074 A 
ATOM     15  C   UNL A   1      44.439  25.123  27.089  1.00  0.00     0.049 A 
ATOM     16  N   UNL A   1      42.390  26.929  28.376  1.00  0.00    -0.248 NA
ATOM     17  C   UNL A   1      40.923  25.115  28.455  1.00  0.00     0.031 C 
ATOM     18  C   UNL A   1      45.443  24.282  26.428  1.00  0.00     0.029 A 
ATOM     19  N   UNL A   1      45.074  26.321  27.266  1.00  0.00    -0.354 N 
ATOM     20  C   UNL A   1      41.189  27.339  28.946  1.00  0.00     0.074 A 
ATOM     21  C   UNL A   1      40.308  26.189  28.930  1.00  0.00     0.031 C 
ATOM     22  C   UNL A   1      46.572  24.984  26.275  1.00  0.00     0.029 A 
ATOM     23  C   UNL A   1      46.347  26.342  26.749  1.00  0.00     0.049 A 
ATOM     24  H   UNL A   1      44.660  27.092  27.718  1.00  0.00     0.167 HD
ATOM     25  C   UNL A   1      40.863  28.563  29.434  1.00  0.00     0.034 A 
ATOM     26  C   UNL A   1      47.223  27.355  26.624  1.00  0.00     0.034 A 
ATOM     27  C   UNL A   1      41.772  29.687  29.437  1.00  0.00     0.049 A 
ATOM     28  C   UNL A   1      46.831  28.707  27.140  1.00  0.00     0.074 A 
ATOM     29  C   UNL A   1      41.574  30.958  29.947  1.00  0.00     0.029 A 
ATOM     30  N   UNL A   1      43.050  29.678  28.887  1.00  0.00    -0.354 N 
ATOM     31  N   UNL A   1      45.699  29.079  27.692  1.00  0.00    -0.248 NA
ATOM     32  C   UNL A   1      47.829  29.774  27.020  1.00  0.00     0.031 C 
ATOM     33  C   UNL A   1      42.702  31.732  29.649  1.00  0.00     0.029 A 
ATOM     34  C   UNL A   1      43.636  30.928  29.014  1.00  0.00     0.049 A 
ATOM     35  H   UNL A   1      43.477  28.896  28.469  1.00  0.00     0.167 HD
ATOM     36  C   UNL A   1      45.850  30.426  27.992  1.00  0.00     0.074 A 
ATOM     37  C   UNL A   1      47.190  30.794  27.574  1.00  0.00     0.031 C 
ATOM     38  C   UNL A   1      44.963  31.281  28.564  1.00  0.00     0.034 A 
BRANCH  25  39
ATOM     39  C   UNL A   1      39.453  28.755  29.943  1.00  0.00     0.023 A 
ATOM     40  C   UNL A   1      38.422  29.240  29.118  1.00  0.00     0.031 A 
ATOM     41  C   UNL A   1      39.144  28.490  31.290  1.00  0.00     0.131 A 
ATOM     42  C   UNL A   1      37.159  29.521  29.665  1.00  0.00     0.055 A 
ATOM     43  C   UNL A   1      37.863  28.695  31.808  1.00  0.00     0.041 A 
ATOM     44  F   UNL A   1      40.088  28.044  32.133  1.00  0.00    -0.206 F 
ATOM     45  C   UNL A   1      36.866  29.231  30.999  1.00  0.00     0.022 A 
BRANCH  42  46
ATOM     46  S   UNL A   1      35.957  30.423  28.647  1.00  0.00     0.124 S 
ATOM     47  O   UNL A   1      35.019  29.362  28.284  1.00  0.00    -0.237 OA
ATOM     48  O   UNL A   1      35.454  31.430  29.573  1.00  0.00    -0.237 OA
ATOM     49  O   UNL A   1      36.761  30.936  27.540  1.00  0.00    -0.744 OA
ENDBRANCH  42  46
ENDBRANCH  25  39
BRANCH  26  50
ATOM     50  C   UNL A   1      48.514  27.117  25.927  1.00  0.00     0.023 A 
ATOM     51  C   UNL A   1      48.646  27.319  24.547  1.00  0.00     0.031 A 
ATOM     52  C   UNL A   1      49.654  26.730  26.657  1.00  0.00     0.131 A 
ATOM     53  C   UNL A   1      49.895  27.125  23.935  1.00  0.00     0.055 A 
ATOM     54  C   UNL A   1      50.900  26.580  26.051  1.00  0.00     0.041 A 
ATOM     55  F   UNL A   1      49.578  26.543  27.984  1.00  0.00    -0.206 F 
ATOM     56  C   UNL A   1      51.024  26.772  24.679  1.00  0.00     0.022 A 
BRANCH  53  57
ATOM     57  S   UNL A   1      50.018  27.317  22.137  1.00  0.00     0.124 S 
ATOM     58  O   UNL A   1      49.933  28.765  21.984  1.00  0.00    -0.237 OA
ATOM     59  O   UNL A   1      51.319  26.717  21.857  1.00  0.00    -0.237 OA
ATOM     60  O   UNL A   1      48.868  26.567  21.635  1.00  0.00    -0.744 OA
ENDBRANCH  53  57
ENDBRANCH  26  50
BRANCH  38  61
ATOM     61  C   UNL A   1      45.440  32.690  28.788  1.00  0.00     0.023 A 
ATOM     62  C   UNL A   1      45.217  33.701  27.837  1.00  0.00     0.031 A 
ATOM     63  C   UNL A   1      46.140  33.020  29.961  1.00  0.00     0.131 A 
ATOM     64  C   UNL A   1      45.731  34.987  28.056  1.00  0.00     0.055 A 
ATOM     65  C   UNL A   1      46.604  34.315  30.197  1.00  0.00     0.041 A 
ATOM     66  F   UNL A   1      46.381  32.088  30.897  1.00  0.00    -0.206 F 
ATOM     67  C   UNL A   1      46.409  35.304  29.237  1.00  0.00     0.022 A 
BRANCH  64  68
ATOM     68  S   UNL A   1      45.561  36.229  26.746  1.00  0.00     0.124 S 
ATOM     69  O   UNL A   1      46.392  37.317  27.252  1.00  0.00    -0.237 OA
ATOM     70  O   UNL A   1      46.075  35.524  25.576  1.00  0.00    -0.237 OA
ATOM     71  O   UNL A   1      44.125  36.506  26.720  1.00  0.00    -0.744 OA
ENDBRANCH  64  68
ENDBRANCH  38  61
ENDBRANCH  12  13
ENDBRANCH   5   7
ENDBRANCH   2   3
ENDBRANCH   1   2
BRANCH   1  72
ATOM     72  C   UNL A   1      36.961  20.136  24.938  1.00  0.00     0.023 C 
BRANCH  72  73
ATOM     73  C   UNL A   1      37.136  21.430  24.149  1.00  0.00     0.116 C 
BRANCH  73  74
ATOM     74  N   UNL A   1      37.469  22.551  25.001  1.00  0.00    -0.356 N 
ATOM     75  C   UNL A   1      36.742  23.395  25.763  1.00  0.00     0.227 C 
ATOM     76  H   UNL A   1      38.436  22.738  25.033  1.00  0.00     0.163 HD
ATOM     77  O   UNL A   1      37.390  24.269  26.357  1.00  0.00    -0.275 OA
BRANCH  75  78
ATOM     78  C   UNL A   1      35.232  23.402  25.926  1.00  0.00     0.127 C 
ATOM     79  C   UNL A   1      34.367  22.177  25.583  1.00  0.00     0.127 C 
ATOM     80  C   UNL A   1      34.525  24.527  25.147  1.00  0.00     0.155 C 
ATOM     81  C   UNL A   1      33.290  22.792  24.672  1.00  0.00     0.155 C 
ATOM     82  C   UNL A   1      34.589  24.365  23.666  1.00  0.00     0.004 C 
ATOM     83  O   UNL A   1      33.142  24.090  25.311  1.00  0.00    -0.365 OA
ATOM     84  C   UNL A   1      33.855  23.282  23.371  1.00  0.00     0.004 C 
BRANCH  79  85
ATOM     85  C   UNL A   1      33.675  21.325  26.647  1.00  0.00     0.231 C 
ATOM     86  O   UNL A   1      33.618  21.799  27.795  1.00  0.00    -0.274 OA
ATOM     87  N   UNL A   1      33.006  20.158  26.476  1.00  0.00    -0.325 N 
ATOM     88  H   UNL A   1      32.343  19.999  27.186  1.00  0.00     0.169 HD
BRANCH  87  89
ATOM     89  C   UNL A   1      33.033  19.128  25.530  1.00  0.00     0.048 A 
ATOM     90  C   UNL A   1      32.657  19.451  24.222  1.00  0.00     0.026 A 
ATOM     91  C   UNL A   1      33.354  17.808  25.834  1.00  0.00     0.111 A 
ATOM     92  C   UNL A   1      32.729  18.498  23.202  1.00  0.00     0.009 A 
ATOM     93  C   UNL A   1      33.465  16.861  24.808  1.00  0.00     0.271 A 
ATOM     94  C   UNL A   1      33.162  17.204  23.486  1.00  0.00     0.086 A 
BRANCH  93  95
ATOM     95  N   UNL A   1      33.923  15.501  25.117  1.00  0.00     0.062 N 
ATOM     96  O   UNL A   1      35.144  15.317  25.234  1.00  0.00    -0.258 OA
ATOM     97  O   UNL A   1      33.067  14.614  25.241  1.00  0.00    -0.258 OA
ENDBRANCH  93  95
ENDBRANCH  87  89
ENDBRANCH  79  85
ENDBRANCH  75  78
ENDBRANCH  73  74
ENDBRANCH  72  73
ENDBRANCH   1  72
TORSDOF 17
ENDMDL
MODEL 3
REMARK VINA RESULT:     -12.7      5.453     10.450
REMARK SMILES O=C(NCCCCNC(=O)[C@@H]1[C@@H](C(=O)Nc2cccc([N+](=O)[O-])c2)[C@@H]2C=C[C@H]1O2)c1ccc(-c2c3nc(c(-c4cc(S(=O)(=O)[O-])ccc4F)c4ccc([nH]4)c(-c4cc(S(=O)(=O)[O-])ccc4F)c4nc(c(-c5cc(S(=O)(=O)[O-])ccc5F)c5ccc2[nH]5)C=C4)C=C3)cc1
REMARK SMILES IDX 5 1 4 2 3 3 1 4 2 5 30 7 31 8 92 9 32 10 91 11 33 12 34 13
REMARK SMILES IDX 35 14 85 15 36 16 90 17 84 18 86 19 37 20 89 21 83 22 82 23
REMARK SMILES IDX 38 25 70 26 50 27 69 28 51 29 54 30 68 31 87 32 52 33 53 34
REMARK SMILES IDX 67 36 88 37 55 38 39 39 40 40 48 41 41 42 47 43 49 44 46 45
REMARK SMILES IDX 42 46 43 47 44 48 45 49 71 50 72 51 80 52 73 53 79 54 81 55
REMARK SMILES IDX 78 56 74 57 75 58 76 59 77 60 56 61 57 62 65 63 58 64 64 65
REMARK SMILES IDX 66 66 63 67 59 68 60 69 61 70 62 71 6 72 7 73 8 74 9 75
REMARK SMILES IDX 10 77 11 78 12 79 28 80 25 81 27 82 29 83 26 84 13 85 14 86
REMARK SMILES IDX 15 87 16 89 17 90 24 91 18 92 20 93 19 94 21 95 22 96 23 97
REMARK H PARENT 3 6 86 24 54 35 8 76 15 88
REMARK Flexibility Score: inf
ROOT
ATOM      1  C   UNL A   1      32.205  31.215  26.616  1.00  0.00     0.023 C 
ENDROOT
BRANCH   1   2
ATOM      2  C   UNL A   1      33.242  32.029  27.371  1.00  0.00     0.116 C 
BRANCH   2   3
ATOM      3  N   UNL A   1      32.807  33.388  27.671  1.00  0.00    -0.352 N 
ATOM      4  O   UNL A   1      32.780  35.333  28.829  1.00  0.00    -0.269 OA
ATOM      5  C   UNL A   1      33.300  34.243  28.627  1.00  0.00     0.251 C 
ATOM      6  H   UNL A   1      32.069  33.737  27.120  1.00  0.00     0.163 HD
BRANCH   5   7
ATOM      7  C   UNL A   1      34.455  33.792  29.423  1.00  0.00     0.039 A 
ATOM      8  C   UNL A   1      35.740  34.207  29.064  1.00  0.00     0.014 A 
ATOM      9  C   UNL A   1      34.254  32.868  30.449  1.00  0.00     0.014 A 
ATOM     10  C   UNL A   1      36.836  33.579  29.630  1.00  0.00     0.010 A 
ATOM     11  C   UNL A   1      35.362  32.308  31.083  1.00  0.00     0.010 A 
ATOM     12  C   UNL A   1      36.659  32.636  30.656  1.00  0.00    -0.014 A 
BRANCH  12  13
ATOM     13  C   UNL A   1      37.849  32.054  31.317  1.00  0.00     0.031 A 
ATOM     14  C   UNL A   1      38.647  30.967  30.660  1.00  0.00     0.074 A 
ATOM     15  C   UNL A   1      38.190  32.525  32.531  1.00  0.00     0.049 A 
ATOM     16  N   UNL A   1      39.668  30.297  31.129  1.00  0.00    -0.248 NA
ATOM     17  C   UNL A   1      38.237  30.570  29.306  1.00  0.00     0.031 C 
ATOM     18  C   UNL A   1      37.468  33.578  33.254  1.00  0.00     0.029 A 
ATOM     19  N   UNL A   1      39.215  32.188  33.371  1.00  0.00    -0.354 N 
ATOM     20  C   UNL A   1      40.008  29.378  30.141  1.00  0.00     0.074 A 
ATOM     21  C   UNL A   1      39.065  29.565  29.057  1.00  0.00     0.031 C 
ATOM     22  C   UNL A   1      38.086  33.813  34.418  1.00  0.00     0.029 A 
ATOM     23  C   UNL A   1      39.192  32.876  34.560  1.00  0.00     0.049 A 
ATOM     24  H   UNL A   1      39.900  31.517  33.146  1.00  0.00     0.167 HD
ATOM     25  C   UNL A   1      41.015  28.469  30.148  1.00  0.00     0.034 A 
ATOM     26  C   UNL A   1      39.946  32.739  35.665  1.00  0.00     0.034 A 
ATOM     27  C   UNL A   1      41.941  28.315  31.247  1.00  0.00     0.049 A 
ATOM     28  C   UNL A   1      41.032  31.705  35.664  1.00  0.00     0.074 A 
ATOM     29  C   UNL A   1      43.030  27.466  31.349  1.00  0.00     0.029 A 
ATOM     30  N   UNL A   1      41.878  29.018  32.446  1.00  0.00    -0.354 N 
ATOM     31  N   UNL A   1      41.356  30.854  34.718  1.00  0.00    -0.248 NA
ATOM     32  C   UNL A   1      41.856  31.614  36.873  1.00  0.00     0.031 C 
ATOM     33  C   UNL A   1      43.581  27.608  32.628  1.00  0.00     0.029 A 
ATOM     34  C   UNL A   1      42.882  28.597  33.304  1.00  0.00     0.049 A 
ATOM     35  H   UNL A   1      41.214  29.715  32.655  1.00  0.00     0.167 HD
ATOM     36  C   UNL A   1      42.428  30.126  35.216  1.00  0.00     0.074 A 
ATOM     37  C   UNL A   1      42.706  30.652  36.540  1.00  0.00     0.031 C 
ATOM     38  C   UNL A   1      43.122  29.116  34.631  1.00  0.00     0.034 A 
BRANCH  25  39
ATOM     39  C   UNL A   1      41.123  27.541  28.960  1.00  0.00     0.023 A 
ATOM     40  C   UNL A   1      42.114  27.701  27.976  1.00  0.00     0.031 A 
ATOM     41  C   UNL A   1      40.191  26.501  28.787  1.00  0.00     0.131 A 
ATOM     42  C   UNL A   1      42.101  26.893  26.827  1.00  0.00     0.055 A 
ATOM     43  C   UNL A   1      40.232  25.649  27.681  1.00  0.00     0.041 A 
ATOM     44  F   UNL A   1      39.208  26.308  29.681  1.00  0.00    -0.206 F 
ATOM     45  C   UNL A   1      41.180  25.854  26.683  1.00  0.00     0.022 A 
BRANCH  42  46
ATOM     46  S   UNL A   1      43.201  27.328  25.450  1.00  0.00     0.124 S 
ATOM     47  O   UNL A   1      44.269  28.049  26.139  1.00  0.00    -0.237 OA
ATOM     48  O   UNL A   1      43.557  26.022  24.909  1.00  0.00    -0.237 OA
ATOM     49  O   UNL A   1      42.359  28.154  24.587  1.00  0.00    -0.744 OA
ENDBRANCH  42  46
ENDBRANCH  25  39
BRANCH  26  50
ATOM     50  C   UNL A   1      39.637  33.563  36.862  1.00  0.00     0.023 A 
ATOM     51  C   UNL A   1      38.920  33.037  37.945  1.00  0.00     0.031 A 
ATOM     52  C   UNL A   1      40.111  34.886  36.954  1.00  0.00     0.131 A 
ATOM     53  C   UNL A   1      38.689  33.837  39.076  1.00  0.00     0.055 A 
ATOM     54  C   UNL A   1      39.914  35.660  38.096  1.00  0.00     0.041 A 
ATOM     55  F   UNL A   1      40.818  35.424  35.948  1.00  0.00    -0.206 F 
ATOM     56  C   UNL A   1      39.193  35.137  39.165  1.00  0.00     0.022 A 
BRANCH  53  57
ATOM     57  S   UNL A   1      37.691  33.158  40.428  1.00  0.00     0.124 S 
ATOM     58  O   UNL A   1      36.463  32.785  39.736  1.00  0.00    -0.237 OA
ATOM     59  O   UNL A   1      38.524  32.055  40.896  1.00  0.00    -0.237 OA
ATOM     60  O   UNL A   1      37.569  34.280  41.358  1.00  0.00    -0.744 OA
ENDBRANCH  53  57
ENDBRANCH  26  50
BRANCH  38  61
ATOM     61  C   UNL A   1      44.265  28.542  35.424  1.00  0.00     0.023 A 
ATOM     62  C   UNL A   1      44.066  27.510  36.357  1.00  0.00     0.031 A 
ATOM     63  C   UNL A   1      45.566  29.046  35.254  1.00  0.00     0.131 A 
ATOM     64  C   UNL A   1      45.147  27.044  37.120  1.00  0.00     0.055 A 
ATOM     65  C   UNL A   1      46.646  28.543  35.979  1.00  0.00     0.041 A 
ATOM     66  F   UNL A   1      45.805  30.035  34.378  1.00  0.00    -0.206 F 
ATOM     67  C   UNL A   1      46.439  27.544  36.925  1.00  0.00     0.022 A 
BRANCH  64  68
ATOM     68  S   UNL A   1      44.834  25.821  38.421  1.00  0.00     0.124 S 
ATOM     69  O   UNL A   1      44.019  26.583  39.362  1.00  0.00    -0.237 OA
ATOM     70  O   UNL A   1      44.145  24.759  37.695  1.00  0.00    -0.237 OA
ATOM     71  O   UNL A   1      46.173  25.477  38.898  1.00  0.00    -0.744 OA
ENDBRANCH  64  68
ENDBRANCH  38  61
ENDBRANCH  12  13
ENDBRANCH   5   7
ENDBRANCH   2   3
ENDBRANCH   1   2
BRANCH   1  72
ATOM     72  C   UNL A   1      32.119  29.752  27.026  1.00  0.00     0.023 C 
BRANCH  72  73
ATOM     73  C   UNL A   1      33.319  28.898  26.634  1.00  0.00     0.116 C 
BRANCH  73  74
ATOM     74  N   UNL A   1      33.790  29.193  25.297  1.00  0.00    -0.356 N 
ATOM     75  C   UNL A   1      33.571  28.640  24.086  1.00  0.00     0.227 C 
ATOM     76  H   UNL A   1      34.402  29.964  25.265  1.00  0.00     0.163 HD
ATOM     77  O   UNL A   1      34.177  29.168  23.142  1.00  0.00    -0.275 OA
BRANCH  75  78
ATOM     78  C   UNL A   1      32.702  27.433  23.780  1.00  0.00     0.127 C 
ATOM     79  C   UNL A   1      32.455  26.947  22.342  1.00  0.00     0.127 C 
ATOM     80  C   UNL A   1      31.271  27.534  24.338  1.00  0.00     0.155 C 
ATOM     81  C   UNL A   1      30.921  26.832  22.302  1.00  0.00     0.155 C 
ATOM     82  C   UNL A   1      30.440  28.581  23.675  1.00  0.00     0.004 C 
ATOM     83  O   UNL A   1      30.675  26.385  23.664  1.00  0.00    -0.365 OA
ATOM     84  C   UNL A   1      30.246  28.168  22.414  1.00  0.00     0.004 C 
BRANCH  79  85
ATOM     85  C   UNL A   1      33.054  25.654  21.788  1.00  0.00     0.231 C 
ATOM     86  O   UNL A   1      33.029  25.508  20.554  1.00  0.00    -0.274 OA
ATOM     87  N   UNL A   1      33.719  24.685  22.465  1.00  0.00    -0.325 N 
ATOM     88  H   UNL A   1      34.324  24.170  21.884  1.00  0.00     0.169 HD
BRANCH  87  89
ATOM     89  C   UNL A   1      33.751  24.245  23.793  1.00  0.00     0.048 A 
ATOM     90  C   UNL A   1      34.970  24.346  24.471  1.00  0.00     0.026 A 
ATOM     91  C   UNL A   1      32.663  23.669  24.442  1.00  0.00     0.111 A 
ATOM     92  C   UNL A   1      35.067  23.999  25.821  1.00  0.00     0.009 A 
ATOM     93  C   UNL A   1      32.746  23.357  25.805  1.00  0.00     0.271 A 
ATOM     94  C   UNL A   1      33.946  23.529  26.503  1.00  0.00     0.086 A 
BRANCH  93  95
ATOM     95  N   UNL A   1      31.559  22.864  26.514  1.00  0.00     0.062 N 
ATOM     96  O   UNL A   1      30.656  22.350  25.837  1.00  0.00    -0.258 OA
ATOM     97  O   UNL A   1      31.524  22.990  27.746  1.00  0.00    -0.258 OA
ENDBRANCH  93  95
ENDBRANCH  87  89
ENDBRANCH  79  85
ENDBRANCH  75  78
ENDBRANCH  73  74
ENDBRANCH  72  73
ENDBRANCH   1  72
TORSDOF 17
ENDMDL
