MODEL 1
REMARK VINA RESULT:     -11.9      0.000      0.000
REMARK SMILES CC(=O)c1cc(C(=O)NC[C@H]2CC[C@H](C(=O)NCCCCNC(=O)c3ccc(-c4c5nc(c(-c6cc(S(=O)(=O)[O-])ccc6F)c6ccc([nH]6)c(-c6cc(S(=O)(=O)[O-])ccc6F)c6nc(c(-c7cc(S(=O)(=O)[O-])ccc7F)c7ccc4[nH]7)C=C6)C=C5)cc3)O2)n(C)c1
REMARK SMILES IDX 19 1 18 2 17 3 15 4 16 5 14 7 11 8 12 9 88 10 13 11 10 12
REMARK SMILES IDX 9 13 7 14 8 15 6 17 4 18 5 19 91 20 89 21 90 22 2 23 1 24
REMARK SMILES IDX 3 25 20 26 21 27 22 28 23 29 24 31 25 32 26 33 87 34 27 35
REMARK SMILES IDX 86 36 28 37 29 38 30 39 80 40 31 41 85 42 79 43 81 44 32 45
REMARK SMILES IDX 84 46 78 47 77 48 33 50 65 51 45 52 64 53 46 54 49 55 63 56
REMARK SMILES IDX 82 57 47 58 48 59 62 61 83 62 50 63 34 64 35 65 43 66 36 67
REMARK SMILES IDX 42 68 44 69 41 70 37 71 38 72 39 73 40 74 66 75 67 76 75 77
REMARK SMILES IDX 68 78 74 79 76 80 73 81 69 82 70 83 71 84 72 85 51 86 52 87
REMARK SMILES IDX 60 88 53 89 59 90 61 91 58 92 54 93 55 94 56 95 57 96
REMARK H PARENT 17 6 9 16 22 30 81 49 49 60
REMARK Flexibility Score: inf
ROOT
ATOM      1  C   UNL A   1      31.935  30.591  26.865  1.00  0.00     0.023 C 
ENDROOT
BRANCH   1   2
ATOM      2  C   UNL A   1      32.352  30.038  25.504  1.00  0.00     0.116 C 
BRANCH   2   3
ATOM      3  N   UNL A   1      31.229  29.969  24.595  1.00  0.00    -0.354 N 
ATOM      4  C   UNL A   1      30.609  28.876  24.068  1.00  0.00     0.249 C 
ATOM      5  O   UNL A   1      29.681  29.061  23.274  1.00  0.00    -0.272 OA
ATOM      6  H   UNL A   1      30.859  30.837  24.317  1.00  0.00     0.163 HD
BRANCH   4   7
ATOM      7  C   UNL A   1      31.102  27.447  24.369  1.00  0.00     0.207 C 
ATOM      8  C   UNL A   1      30.316  25.249  24.329  1.00  0.00     0.138 C 
ATOM      9  C   UNL A   1      29.941  25.817  25.687  1.00  0.00     0.037 C 
ATOM     10  O   UNL A   1      30.630  26.397  23.520  1.00  0.00    -0.363 OA
ATOM     11  C   UNL A   1      30.816  27.041  25.811  1.00  0.00     0.045 C 
BRANCH   8  12
ATOM     12  C   UNL A   1      31.566  24.374  24.435  1.00  0.00     0.148 C 
BRANCH  12  13
ATOM     13  N   UNL A   1      32.320  24.222  23.219  1.00  0.00    -0.348 N 
ATOM     14  C   UNL A   1      33.134  23.205  22.798  1.00  0.00     0.268 C 
ATOM     15  O   UNL A   1      33.572  23.329  21.651  1.00  0.00    -0.268 OA
ATOM     16  H   UNL A   1      32.239  24.972  22.588  1.00  0.00     0.163 HD
BRANCH  14  17
ATOM     17  C   UNL A   1      33.546  22.088  23.643  1.00  0.00     0.107 A 
ATOM     18  C   UNL A   1      33.485  19.940  24.491  1.00  0.00     0.036 A 
ATOM     19  C   UNL A   1      32.897  20.850  23.579  1.00  0.00     0.045 A 
ATOM     20  C   UNL A   1      34.504  20.641  25.094  1.00  0.00     0.097 A 
ATOM     21  N   UNL A   1      34.476  21.947  24.662  1.00  0.00    -0.346 N 
ATOM     22  C   UNL A   1      35.249  22.949  25.361  1.00  0.00     0.150 C 
BRANCH  18  23
ATOM     23  C   UNL A   1      33.131  18.555  24.793  1.00  0.00     0.161 C 
ATOM     24  C   UNL A   1      34.174  17.490  24.575  1.00  0.00     0.093 C 
ATOM     25  O   UNL A   1      32.017  18.257  25.227  1.00  0.00    -0.294 OA
ENDBRANCH  18  23
ENDBRANCH  14  17
ENDBRANCH  12  13
ENDBRANCH   8  12
ENDBRANCH   4   7
ENDBRANCH   2   3
ENDBRANCH   1   2
BRANCH   1  26
ATOM     26  C   UNL A   1      31.633  32.086  26.869  1.00  0.00     0.023 C 
BRANCH  26  27
ATOM     27  C   UNL A   1      32.855  32.970  27.074  1.00  0.00     0.116 C 
BRANCH  27  28
ATOM     28  N   UNL A   1      32.583  34.201  27.805  1.00  0.00    -0.352 N 
ATOM     29  C   UNL A   1      33.253  34.676  28.910  1.00  0.00     0.251 C 
ATOM     30  H   UNL A   1      31.838  34.753  27.472  1.00  0.00     0.163 HD
ATOM     31  O   UNL A   1      32.871  35.681  29.492  1.00  0.00    -0.269 OA
BRANCH  29  32
ATOM     32  C   UNL A   1      34.409  33.897  29.396  1.00  0.00     0.039 A 
ATOM     33  C   UNL A   1      35.697  34.332  29.081  1.00  0.00     0.014 A 
ATOM     34  C   UNL A   1      34.206  32.826  30.270  1.00  0.00     0.014 A 
ATOM     35  C   UNL A   1      36.789  33.730  29.705  1.00  0.00     0.010 A 
ATOM     36  C   UNL A   1      35.288  32.292  30.955  1.00  0.00     0.010 A 
ATOM     37  C   UNL A   1      36.590  32.735  30.676  1.00  0.00    -0.014 A 
BRANCH  37  38
ATOM     38  C   UNL A   1      37.734  32.131  31.404  1.00  0.00     0.031 A 
ATOM     39  C   UNL A   1      38.514  31.015  30.768  1.00  0.00     0.074 A 
ATOM     40  C   UNL A   1      38.009  32.525  32.662  1.00  0.00     0.049 A 
ATOM     41  N   UNL A   1      39.496  30.305  31.259  1.00  0.00    -0.248 NA
ATOM     42  C   UNL A   1      38.097  30.615  29.417  1.00  0.00     0.031 C 
ATOM     43  C   UNL A   1      37.268  33.542  33.413  1.00  0.00     0.029 A 
ATOM     44  N   UNL A   1      38.976  32.106  33.538  1.00  0.00    -0.354 N 
ATOM     45  C   UNL A   1      39.799  29.359  30.285  1.00  0.00     0.074 A 
ATOM     46  C   UNL A   1      38.839  29.539  29.216  1.00  0.00     0.031 C 
ATOM     47  C   UNL A   1      37.819  33.678  34.629  1.00  0.00     0.029 A 
ATOM     48  C   UNL A   1      38.930  32.740  34.758  1.00  0.00     0.049 A 
ATOM     49  H   UNL A   1      39.643  31.416  33.315  1.00  0.00     0.167 HD
ATOM     50  C   UNL A   1      40.803  28.448  30.269  1.00  0.00     0.034 A 
ATOM     51  C   UNL A   1      39.691  32.578  35.857  1.00  0.00     0.034 A 
ATOM     52  C   UNL A   1      41.758  28.301  31.341  1.00  0.00     0.049 A 
ATOM     53  C   UNL A   1      40.820  31.583  35.816  1.00  0.00     0.074 A 
ATOM     54  C   UNL A   1      42.865  27.474  31.405  1.00  0.00     0.029 A 
ATOM     55  N   UNL A   1      41.708  28.991  32.547  1.00  0.00    -0.354 N 
ATOM     56  N   UNL A   1      41.155  30.753  34.854  1.00  0.00    -0.248 NA
ATOM     57  C   UNL A   1      41.686  31.517  36.999  1.00  0.00     0.031 C 
ATOM     58  C   UNL A   1      43.445  27.618  32.672  1.00  0.00     0.029 A 
ATOM     59  C   UNL A   1      42.745  28.587  33.373  1.00  0.00     0.049 A 
ATOM     60  H   UNL A   1      41.034  29.669  32.781  1.00  0.00     0.167 HD
ATOM     61  C   UNL A   1      42.284  30.079  35.309  1.00  0.00     0.074 A 
ATOM     62  C   UNL A   1      42.581  30.613  36.625  1.00  0.00     0.031 C 
ATOM     63  C   UNL A   1      43.014  29.112  34.693  1.00  0.00     0.034 A 
BRANCH  50  64
ATOM     64  C   UNL A   1      40.886  27.539  29.063  1.00  0.00     0.023 A 
ATOM     65  C   UNL A   1      41.844  27.740  28.052  1.00  0.00     0.031 A 
ATOM     66  C   UNL A   1      39.947  26.510  28.877  1.00  0.00     0.131 A 
ATOM     67  C   UNL A   1      41.767  27.012  26.856  1.00  0.00     0.055 A 
ATOM     68  C   UNL A   1      39.940  25.718  27.725  1.00  0.00     0.041 A 
ATOM     69  F   UNL A   1      38.996  26.276  29.795  1.00  0.00    -0.206 F 
ATOM     70  C   UNL A   1      40.837  25.984  26.695  1.00  0.00     0.022 A 
BRANCH  67  71
ATOM     71  S   UNL A   1      42.762  27.569  25.444  1.00  0.00     0.124 S 
ATOM     72  O   UNL A   1      43.977  28.037  26.106  1.00  0.00    -0.237 OA
ATOM     73  O   UNL A   1      42.894  26.351  24.653  1.00  0.00    -0.237 OA
ATOM     74  O   UNL A   1      41.946  28.621  24.842  1.00  0.00    -0.744 OA
ENDBRANCH  67  71
ENDBRANCH  50  64
BRANCH  51  75
ATOM     75  C   UNL A   1      39.408  33.378  37.081  1.00  0.00     0.023 A 
ATOM     76  C   UNL A   1      38.737  32.817  38.178  1.00  0.00     0.031 A 
ATOM     77  C   UNL A   1      39.821  34.719  37.171  1.00  0.00     0.131 A 
ATOM     78  C   UNL A   1      38.473  33.604  39.311  1.00  0.00     0.055 A 
ATOM     79  C   UNL A   1      39.591  35.485  38.314  1.00  0.00     0.041 A 
ATOM     80  F   UNL A   1      40.481  35.294  36.153  1.00  0.00    -0.206 F 
ATOM     81  C   UNL A   1      38.906  34.930  39.391  1.00  0.00     0.022 A 
BRANCH  78  82
ATOM     82  S   UNL A   1      37.526  32.876  40.676  1.00  0.00     0.124 S 
ATOM     83  O   UNL A   1      38.039  33.616  41.823  1.00  0.00    -0.237 OA
ATOM     84  O   UNL A   1      36.152  33.172  40.283  1.00  0.00    -0.237 OA
ATOM     85  O   UNL A   1      37.893  31.463  40.629  1.00  0.00    -0.744 OA
ENDBRANCH  78  82
ENDBRANCH  51  75
BRANCH  63  86
ATOM     86  C   UNL A   1      44.222  28.594  35.433  1.00  0.00     0.023 A 
ATOM     87  C   UNL A   1      44.124  27.554  36.374  1.00  0.00     0.031 A 
ATOM     88  C   UNL A   1      45.489  29.158  35.199  1.00  0.00     0.131 A 
ATOM     89  C   UNL A   1      45.262  27.146  37.084  1.00  0.00     0.055 A 
ATOM     90  C   UNL A   1      46.629  28.707  35.866  1.00  0.00     0.041 A 
ATOM     91  F   UNL A   1      45.640  30.156  34.313  1.00  0.00    -0.206 F 
ATOM     92  C   UNL A   1      46.517  27.703  36.824  1.00  0.00     0.022 A 
BRANCH  89  93
ATOM     93  S   UNL A   1      45.067  25.937  38.423  1.00  0.00     0.124 S 
ATOM     94  O   UNL A   1      44.269  24.899  37.778  1.00  0.00    -0.237 OA
ATOM     95  O   UNL A   1      46.448  25.582  38.728  1.00  0.00    -0.237 OA
ATOM     96  O   UNL A   1      44.375  26.691  39.467  1.00  0.00    -0.744 OA
ENDBRANCH  89  93
ENDBRANCH  63  86
ENDBRANCH  37  38
ENDBRANCH  29  32
ENDBRANCH  27  28
ENDBRANCH  26  27
ENDBRANCH   1  26
TORSDOF 18
ENDMDL
MODEL 2
REMARK VINA RESULT:     -11.9      5.257      9.129
REMARK SMILES CC(=O)c1cc(C(=O)NC[C@H]2CC[C@H](C(=O)NCCCCNC(=O)c3ccc(-c4c5nc(c(-c6cc(S(=O)(=O)[O-])ccc6F)c6ccc([nH]6)c(-c6cc(S(=O)(=O)[O-])ccc6F)c6nc(c(-c7cc(S(=O)(=O)[O-])ccc7F)c7ccc4[nH]7)C=C6)C=C5)cc3)O2)n(C)c1
REMARK SMILES IDX 19 1 18 2 17 3 15 4 16 5 14 7 11 8 12 9 88 10 13 11 10 12
REMARK SMILES IDX 9 13 7 14 8 15 6 17 4 18 5 19 91 20 89 21 90 22 2 23 1 24
REMARK SMILES IDX 3 25 20 26 21 27 22 28 23 29 24 31 25 32 26 33 87 34 27 35
REMARK SMILES IDX 86 36 28 37 29 38 30 39 80 40 31 41 85 42 79 43 81 44 32 45
REMARK SMILES IDX 84 46 78 47 77 48 33 50 65 51 45 52 64 53 46 54 49 55 63 56
REMARK SMILES IDX 82 57 47 58 48 59 62 61 83 62 50 63 34 64 35 65 43 66 36 67
REMARK SMILES IDX 42 68 44 69 41 70 37 71 38 72 39 73 40 74 66 75 67 76 75 77
REMARK SMILES IDX 68 78 74 79 76 80 73 81 69 82 70 83 71 84 72 85 51 86 52 87
REMARK SMILES IDX 60 88 53 89 59 90 61 91 58 92 54 93 55 94 56 95 57 96
REMARK H PARENT 17 6 9 16 22 30 81 49 49 60
REMARK Flexibility Score: inf
ROOT
ATOM      1  C   UNL A   1      35.171  20.247  24.996  1.00  0.00     0.023 C 
ENDROOT
BRANCH   1   2
ATOM      2  C   UNL A   1      33.726  20.118  25.474  1.00  0.00     0.116 C 
BRANCH   2   3
ATOM      3  N   UNL A   1      33.525  20.797  26.736  1.00  0.00    -0.354 N 
ATOM      4  C   UNL A   1      32.850  21.951  26.998  1.00  0.00     0.249 C 
ATOM      5  O   UNL A   1      32.840  22.368  28.160  1.00  0.00    -0.272 OA
ATOM      6  H   UNL A   1      33.935  20.363  27.518  1.00  0.00     0.163 HD
BRANCH   4   7
ATOM      7  C   UNL A   1      32.196  22.774  25.871  1.00  0.00     0.207 C 
ATOM      8  C   UNL A   1      31.770  25.002  25.312  1.00  0.00     0.138 C 
ATOM      9  C   UNL A   1      30.608  24.544  26.176  1.00  0.00     0.037 C 
ATOM     10  O   UNL A   1      32.803  24.025  25.533  1.00  0.00    -0.363 OA
ATOM     11  C   UNL A   1      30.719  23.039  26.147  1.00  0.00     0.045 C 
BRANCH   8  12
ATOM     12  C   UNL A   1      31.387  24.978  23.832  1.00  0.00     0.148 C 
BRANCH  12  13
ATOM     13  N   UNL A   1      32.336  25.585  22.937  1.00  0.00    -0.348 N 
ATOM     14  C   UNL A   1      32.524  26.896  22.596  1.00  0.00     0.268 C 
ATOM     15  O   UNL A   1      33.494  27.111  21.862  1.00  0.00    -0.268 OA
ATOM     16  H   UNL A   1      32.950  24.953  22.497  1.00  0.00     0.163 HD
BRANCH  14  17
ATOM     17  C   UNL A   1      31.618  27.976  22.979  1.00  0.00     0.107 A 
ATOM     18  C   UNL A   1      29.769  29.350  22.804  1.00  0.00     0.036 A 
ATOM     19  C   UNL A   1      30.477  28.269  22.224  1.00  0.00     0.045 A 
ATOM     20  C   UNL A   1      30.491  29.694  23.925  1.00  0.00     0.097 A 
ATOM     21  N   UNL A   1      31.642  28.942  23.972  1.00  0.00    -0.346 N 
ATOM     22  C   UNL A   1      32.702  29.314  24.882  1.00  0.00     0.150 C 
BRANCH  18  23
ATOM     23  C   UNL A   1      28.549  30.018  22.359  1.00  0.00     0.161 C 
ATOM     24  C   UNL A   1      27.765  30.814  23.370  1.00  0.00     0.093 C 
ATOM     25  O   UNL A   1      28.170  29.950  21.189  1.00  0.00    -0.294 OA
ENDBRANCH  18  23
ENDBRANCH  14  17
ENDBRANCH  12  13
ENDBRANCH   8  12
ENDBRANCH   4   7
ENDBRANCH   2   3
ENDBRANCH   1   2
BRANCH   1  26
ATOM     26  C   UNL A   1      35.587  21.668  24.633  1.00  0.00     0.023 C 
BRANCH  26  27
ATOM     27  C   UNL A   1      36.946  22.081  25.181  1.00  0.00     0.116 C 
BRANCH  27  28
ATOM     28  N   UNL A   1      37.862  20.970  25.401  1.00  0.00    -0.352 N 
ATOM     29  C   UNL A   1      39.092  21.016  26.020  1.00  0.00     0.251 C 
ATOM     30  H   UNL A   1      37.569  20.088  25.072  1.00  0.00     0.163 HD
ATOM     31  O   UNL A   1      39.810  20.028  26.064  1.00  0.00    -0.269 OA
BRANCH  29  32
ATOM     32  C   UNL A   1      39.530  22.313  26.573  1.00  0.00     0.039 A 
ATOM     33  C   UNL A   1      40.558  22.332  27.516  1.00  0.00     0.014 A 
ATOM     34  C   UNL A   1      39.012  23.500  26.050  1.00  0.00     0.014 A 
ATOM     35  C   UNL A   1      41.119  23.554  27.884  1.00  0.00     0.010 A 
ATOM     36  C   UNL A   1      39.632  24.704  26.351  1.00  0.00     0.010 A 
ATOM     37  C   UNL A   1      40.688  24.744  27.274  1.00  0.00    -0.014 A 
BRANCH  37  38
ATOM     38  C   UNL A   1      41.320  26.047  27.599  1.00  0.00     0.031 A 
ATOM     39  C   UNL A   1      42.729  26.321  27.155  1.00  0.00     0.074 A 
ATOM     40  C   UNL A   1      40.660  26.938  28.364  1.00  0.00     0.049 A 
ATOM     41  N   UNL A   1      43.487  27.359  27.395  1.00  0.00    -0.248 NA
ATOM     42  C   UNL A   1      43.386  25.261  26.378  1.00  0.00     0.031 C 
ATOM     43  C   UNL A   1      39.319  26.747  28.922  1.00  0.00     0.029 A 
ATOM     44  N   UNL A   1      41.034  28.176  28.818  1.00  0.00    -0.354 N 
ATOM     45  C   UNL A   1      44.719  27.067  26.818  1.00  0.00     0.074 A 
ATOM     46  C   UNL A   1      44.623  25.721  26.292  1.00  0.00     0.031 C 
ATOM     47  C   UNL A   1      38.979  27.836  29.629  1.00  0.00     0.029 A 
ATOM     48  C   UNL A   1      40.084  28.788  29.601  1.00  0.00     0.049 A 
ATOM     49  H   UNL A   1      41.902  28.589  28.602  1.00  0.00     0.167 HD
ATOM     50  C   UNL A   1      45.815  27.858  26.708  1.00  0.00     0.034 A 
ATOM     51  C   UNL A   1      40.105  29.978  30.232  1.00  0.00     0.034 A 
ATOM     52  C   UNL A   1      45.877  29.203  27.227  1.00  0.00     0.049 A 
ATOM     53  C   UNL A   1      41.316  30.859  30.078  1.00  0.00     0.074 A 
ATOM     54  C   UNL A   1      46.898  30.129  27.106  1.00  0.00     0.029 A 
ATOM     55  N   UNL A   1      44.879  29.810  27.980  1.00  0.00    -0.354 N 
ATOM     56  N   UNL A   1      42.444  30.608  29.453  1.00  0.00    -0.248 NA
ATOM     57  C   UNL A   1      41.250  32.188  30.696  1.00  0.00     0.031 C 
ATOM     58  C   UNL A   1      46.543  31.269  27.839  1.00  0.00     0.029 A 
ATOM     59  C   UNL A   1      45.270  31.085  28.356  1.00  0.00     0.049 A 
ATOM     60  H   UNL A   1      44.016  29.394  28.211  1.00  0.00     0.167 HD
ATOM     61  C   UNL A   1      43.216  31.758  29.587  1.00  0.00     0.074 A 
ATOM     62  C   UNL A   1      42.416  32.707  30.338  1.00  0.00     0.031 C 
ATOM     63  C   UNL A   1      44.469  32.011  29.126  1.00  0.00     0.034 A 
BRANCH  50  64
ATOM     64  C   UNL A   1      47.025  27.262  26.023  1.00  0.00     0.023 A 
ATOM     65  C   UNL A   1      47.943  26.456  26.719  1.00  0.00     0.031 A 
ATOM     66  C   UNL A   1      47.311  27.570  24.682  1.00  0.00     0.131 A 
ATOM     67  C   UNL A   1      49.155  26.088  26.115  1.00  0.00     0.055 A 
ATOM     68  C   UNL A   1      48.474  27.115  24.053  1.00  0.00     0.041 A 
ATOM     69  F   UNL A   1      46.486  28.350  23.966  1.00  0.00    -0.206 F 
ATOM     70  C   UNL A   1      49.416  26.390  24.777  1.00  0.00     0.022 A 
BRANCH  67  71
ATOM     71  S   UNL A   1      50.463  25.393  27.163  1.00  0.00     0.124 S 
ATOM     72  O   UNL A   1      50.805  26.537  28.005  1.00  0.00    -0.237 OA
ATOM     73  O   UNL A   1      49.779  24.291  27.830  1.00  0.00    -0.237 OA
ATOM     74  O   UNL A   1      51.497  25.001  26.207  1.00  0.00    -0.744 OA
ENDBRANCH  67  71
ENDBRANCH  50  64
BRANCH  51  75
ATOM     75  C   UNL A   1      38.941  30.401  31.060  1.00  0.00     0.023 A 
ATOM     76  C   UNL A   1      37.854  31.083  30.494  1.00  0.00     0.031 A 
ATOM     77  C   UNL A   1      38.899  30.113  32.436  1.00  0.00     0.131 A 
ATOM     78  C   UNL A   1      36.779  31.481  31.306  1.00  0.00     0.055 A 
ATOM     79  C   UNL A   1      37.812  30.476  33.232  1.00  0.00     0.041 A 
ATOM     80  F   UNL A   1      39.909  29.448  33.020  1.00  0.00    -0.206 F 
ATOM     81  C   UNL A   1      36.746  31.171  32.668  1.00  0.00     0.022 A 
BRANCH  78  82
ATOM     82  S   UNL A   1      35.431  32.439  30.561  1.00  0.00     0.124 S 
ATOM     83  O   UNL A   1      34.378  32.296  31.559  1.00  0.00    -0.237 OA
ATOM     84  O   UNL A   1      36.030  33.764  30.443  1.00  0.00    -0.237 OA
ATOM     85  O   UNL A   1      35.188  31.753  29.293  1.00  0.00    -0.744 OA
ENDBRANCH  78  82
ENDBRANCH  51  75
BRANCH  63  86
ATOM     86  C   UNL A   1      45.034  33.382  29.400  1.00  0.00     0.023 A 
ATOM     87  C   UNL A   1      44.928  34.427  28.465  1.00  0.00     0.031 A 
ATOM     88  C   UNL A   1      45.698  33.644  30.612  1.00  0.00     0.131 A 
ATOM     89  C   UNL A   1      45.523  35.668  28.735  1.00  0.00     0.055 A 
ATOM     90  C   UNL A   1      46.235  34.899  30.900  1.00  0.00     0.041 A 
ATOM     91  F   UNL A   1      45.830  32.682  31.540  1.00  0.00    -0.206 F 
ATOM     92  C   UNL A   1      46.160  35.916  29.953  1.00  0.00     0.022 A 
BRANCH  89  93
ATOM     93  S   UNL A   1      45.532  36.931  27.432  1.00  0.00     0.124 S 
ATOM     94  O   UNL A   1      46.455  37.921  27.979  1.00  0.00    -0.237 OA
ATOM     95  O   UNL A   1      46.011  36.183  26.275  1.00  0.00    -0.237 OA
ATOM     96  O   UNL A   1      44.136  37.359  27.360  1.00  0.00    -0.744 OA
ENDBRANCH  89  93
ENDBRANCH  63  86
ENDBRANCH  37  38
ENDBRANCH  29  32
ENDBRANCH  27  28
ENDBRANCH  26  27
ENDBRANCH   1  26
TORSDOF 18
ENDMDL
MODEL 3
REMARK VINA RESULT:     -11.8      1.158      1.633
REMARK SMILES CC(=O)c1cc(C(=O)NC[C@H]2CC[C@H](C(=O)NCCCCNC(=O)c3ccc(-c4c5nc(c(-c6cc(S(=O)(=O)[O-])ccc6F)c6ccc([nH]6)c(-c6cc(S(=O)(=O)[O-])ccc6F)c6nc(c(-c7cc(S(=O)(=O)[O-])ccc7F)c7ccc4[nH]7)C=C6)C=C5)cc3)O2)n(C)c1
REMARK SMILES IDX 19 1 18 2 17 3 15 4 16 5 14 7 11 8 12 9 88 10 13 11 10 12
REMARK SMILES IDX 9 13 7 14 8 15 6 17 4 18 5 19 91 20 89 21 90 22 2 23 1 24
REMARK SMILES IDX 3 25 20 26 21 27 22 28 23 29 24 31 25 32 26 33 87 34 27 35
REMARK SMILES IDX 86 36 28 37 29 38 30 39 80 40 31 41 85 42 79 43 81 44 32 45
REMARK SMILES IDX 84 46 78 47 77 48 33 50 65 51 45 52 64 53 46 54 49 55 63 56
REMARK SMILES IDX 82 57 47 58 48 59 62 61 83 62 50 63 34 64 35 65 43 66 36 67
REMARK SMILES IDX 42 68 44 69 41 70 37 71 38 72 39 73 40 74 66 75 67 76 75 77
REMARK SMILES IDX 68 78 74 79 76 80 73 81 69 82 70 83 71 84 72 85 51 86 52 87
REMARK SMILES IDX 60 88 53 89 59 90 61 91 58 92 54 93 55 94 56 95 57 96
REMARK H PARENT 17 6 9 16 22 30 81 49 49 60
REMARK Flexibility Score: inf
ROOT
ATOM      1  C   UNL A   1      31.981  30.802  26.037  1.00  0.00     0.023 C 
ENDROOT
BRANCH   1   2
ATOM      2  C   UNL A   1      32.288  29.396  25.524  1.00  0.00     0.116 C 
BRANCH   2   3
ATOM      3  N   UNL A   1      33.193  29.432  24.396  1.00  0.00    -0.354 N 
ATOM      4  C   UNL A   1      33.411  28.494  23.432  1.00  0.00     0.249 C 
ATOM      5  O   UNL A   1      34.269  28.729  22.576  1.00  0.00    -0.272 OA
ATOM      6  H   UNL A   1      33.730  30.253  24.313  1.00  0.00     0.163 HD
BRANCH   4   7
ATOM      7  C   UNL A   1      32.684  27.136  23.452  1.00  0.00     0.207 C 
ATOM      8  C   UNL A   1      33.175  24.853  23.372  1.00  0.00     0.138 C 
ATOM      9  C   UNL A   1      33.068  25.323  21.931  1.00  0.00     0.037 C 
ATOM     10  O   UNL A   1      33.322  26.058  24.145  1.00  0.00    -0.363 OA
ATOM     11  C   UNL A   1      32.354  26.648  22.045  1.00  0.00     0.045 C 
BRANCH   8  12
ATOM     12  C   UNL A   1      31.888  24.151  23.809  1.00  0.00     0.148 C 
BRANCH  12  13
ATOM     13  N   UNL A   1      31.711  24.011  25.230  1.00  0.00    -0.348 N 
ATOM     14  C   UNL A   1      32.227  23.095  26.105  1.00  0.00     0.268 C 
ATOM     15  O   UNL A   1      31.958  23.298  27.293  1.00  0.00    -0.268 OA
ATOM     16  H   UNL A   1      31.122  24.685  25.640  1.00  0.00     0.163 HD
BRANCH  14  17
ATOM     17  C   UNL A   1      32.969  21.905  25.696  1.00  0.00     0.107 A 
ATOM     18  C   UNL A   1      33.249  19.719  25.005  1.00  0.00     0.036 A 
ATOM     19  C   UNL A   1      32.311  20.715  25.370  1.00  0.00     0.045 A 
ATOM     20  C   UNL A   1      34.479  20.329  25.102  1.00  0.00     0.097 A 
ATOM     21  N   UNL A   1      34.318  21.598  25.608  1.00  0.00    -0.346 N 
ATOM     22  C   UNL A   1      35.471  22.333  26.078  1.00  0.00     0.150 C 
BRANCH  18  23
ATOM     23  C   UNL A   1      33.036  18.326  24.619  1.00  0.00     0.161 C 
ATOM     24  C   UNL A   1      34.174  17.588  23.964  1.00  0.00     0.093 C 
ATOM     25  O   UNL A   1      31.964  17.758  24.830  1.00  0.00    -0.294 OA
ENDBRANCH  18  23
ENDBRANCH  14  17
ENDBRANCH  12  13
ENDBRANCH   8  12
ENDBRANCH   4   7
ENDBRANCH   2   3
ENDBRANCH   1   2
BRANCH   1  26
ATOM     26  C   UNL A   1      32.601  31.125  27.392  1.00  0.00     0.023 C 
BRANCH  26  27
ATOM     27  C   UNL A   1      33.575  32.294  27.371  1.00  0.00     0.116 C 
BRANCH  27  28
ATOM     28  N   UNL A   1      32.959  33.587  27.642  1.00  0.00    -0.352 N 
ATOM     29  C   UNL A   1      33.280  34.464  28.655  1.00  0.00     0.251 C 
ATOM     30  H   UNL A   1      32.235  33.863  27.035  1.00  0.00     0.163 HD
ATOM     31  O   UNL A   1      32.627  35.481  28.834  1.00  0.00    -0.269 OA
BRANCH  29  32
ATOM     32  C   UNL A   1      34.400  34.101  29.545  1.00  0.00     0.039 A 
ATOM     33  C   UNL A   1      34.143  33.307  30.663  1.00  0.00     0.014 A 
ATOM     34  C   UNL A   1      35.708  34.436  29.186  1.00  0.00     0.014 A 
ATOM     35  C   UNL A   1      35.216  32.786  31.387  1.00  0.00     0.010 A 
ATOM     36  C   UNL A   1      36.770  33.843  29.854  1.00  0.00     0.010 A 
ATOM     37  C   UNL A   1      36.535  33.017  30.963  1.00  0.00    -0.014 A 
BRANCH  37  38
ATOM     38  C   UNL A   1      37.688  32.414  31.677  1.00  0.00     0.031 A 
ATOM     39  C   UNL A   1      38.442  31.278  31.045  1.00  0.00     0.074 A 
ATOM     40  C   UNL A   1      37.996  32.828  32.921  1.00  0.00     0.049 A 
ATOM     41  N   UNL A   1      39.427  30.566  31.527  1.00  0.00    -0.248 NA
ATOM     42  C   UNL A   1      37.991  30.857  29.711  1.00  0.00     0.031 C 
ATOM     43  C   UNL A   1      37.283  33.867  33.669  1.00  0.00     0.029 A 
ATOM     44  N   UNL A   1      38.978  32.415  33.783  1.00  0.00    -0.354 N 
ATOM     45  C   UNL A   1      39.698  29.599  30.565  1.00  0.00     0.074 A 
ATOM     46  C   UNL A   1      38.717  29.770  29.514  1.00  0.00     0.031 C 
ATOM     47  C   UNL A   1      37.863  34.019  34.870  1.00  0.00     0.029 A 
ATOM     48  C   UNL A   1      38.966  33.072  34.992  1.00  0.00     0.049 A 
ATOM     49  H   UNL A   1      39.632  31.714  33.558  1.00  0.00     0.167 HD
ATOM     50  C   UNL A   1      40.693  28.677  30.544  1.00  0.00     0.034 A 
ATOM     51  C   UNL A   1      39.750  32.922  36.076  1.00  0.00     0.034 A 
ATOM     52  C   UNL A   1      41.670  28.540  31.597  1.00  0.00     0.049 A 
ATOM     53  C   UNL A   1      40.867  31.915  36.029  1.00  0.00     0.074 A 
ATOM     54  C   UNL A   1      42.769  27.702  31.652  1.00  0.00     0.029 A 
ATOM     55  N   UNL A   1      41.654  29.252  32.790  1.00  0.00    -0.354 N 
ATOM     56  N   UNL A   1      41.172  31.064  35.075  1.00  0.00    -0.248 NA
ATOM     57  C   UNL A   1      41.758  31.861  37.194  1.00  0.00     0.031 C 
ATOM     58  C   UNL A   1      43.379  27.863  32.903  1.00  0.00     0.029 A 
ATOM     59  C   UNL A   1      42.705  28.853  33.601  1.00  0.00     0.049 A 
ATOM     60  H   UNL A   1      40.992  29.943  33.026  1.00  0.00     0.167 HD
ATOM     61  C   UNL A   1      42.304  30.386  35.518  1.00  0.00     0.074 A 
ATOM     62  C   UNL A   1      42.635  30.941  36.816  1.00  0.00     0.031 C 
ATOM     63  C   UNL A   1      43.009  29.400  34.904  1.00  0.00     0.034 A 
BRANCH  50  64
ATOM     64  C   UNL A   1      40.739  27.745  29.353  1.00  0.00     0.023 A 
ATOM     65  C   UNL A   1      41.677  27.915  28.319  1.00  0.00     0.031 A 
ATOM     66  C   UNL A   1      39.784  26.724  29.207  1.00  0.00     0.131 A 
ATOM     67  C   UNL A   1      41.566  27.166  27.138  1.00  0.00     0.055 A 
ATOM     68  C   UNL A   1      39.742  25.911  28.070  1.00  0.00     0.041 A 
ATOM     69  F   UNL A   1      38.850  26.519  30.149  1.00  0.00    -0.206 F 
ATOM     70  C   UNL A   1      40.620  26.147  27.017  1.00  0.00     0.022 A 
BRANCH  67  71
ATOM     71  S   UNL A   1      42.537  27.684  25.696  1.00  0.00     0.124 S 
ATOM     72  O   UNL A   1      42.350  26.552  24.792  1.00  0.00    -0.237 OA
ATOM     73  O   UNL A   1      41.883  28.928  25.307  1.00  0.00    -0.237 OA
ATOM     74  O   UNL A   1      43.891  27.829  26.228  1.00  0.00    -0.744 OA
ENDBRANCH  67  71
ENDBRANCH  50  64
BRANCH  51  75
ATOM     75  C   UNL A   1      39.503  33.748  37.291  1.00  0.00     0.023 A 
ATOM     76  C   UNL A   1      38.758  33.251  38.370  1.00  0.00     0.031 A 
ATOM     77  C   UNL A   1      40.025  35.050  37.390  1.00  0.00     0.131 A 
ATOM     78  C   UNL A   1      38.532  34.061  39.495  1.00  0.00     0.055 A 
ATOM     79  C   UNL A   1      39.830  35.838  38.525  1.00  0.00     0.041 A 
ATOM     80  F   UNL A   1      40.758  35.564  36.389  1.00  0.00    -0.206 F 
ATOM     81  C   UNL A   1      39.073  35.346  39.584  1.00  0.00     0.022 A 
BRANCH  78  82
ATOM     82  S   UNL A   1      37.490  33.421  40.835  1.00  0.00     0.124 S 
ATOM     83  O   UNL A   1      38.405  32.510  41.513  1.00  0.00    -0.237 OA
ATOM     84  O   UNL A   1      37.143  34.639  41.559  1.00  0.00    -0.237 OA
ATOM     85  O   UNL A   1      36.382  32.783  40.128  1.00  0.00    -0.744 OA
ENDBRANCH  78  82
ENDBRANCH  51  75
BRANCH  63  86
ATOM     86  C   UNL A   1      44.228  28.882  35.626  1.00  0.00     0.023 A 
ATOM     87  C   UNL A   1      44.151  27.817  36.540  1.00  0.00     0.031 A 
ATOM     88  C   UNL A   1      45.485  29.473  35.404  1.00  0.00     0.131 A 
ATOM     89  C   UNL A   1      45.298  27.409  37.236  1.00  0.00     0.055 A 
ATOM     90  C   UNL A   1      46.634  29.023  36.055  1.00  0.00     0.041 A 
ATOM     91  F   UNL A   1      45.616  30.496  34.544  1.00  0.00    -0.206 F 
ATOM     92  C   UNL A   1      46.542  27.993  36.987  1.00  0.00     0.022 A 
BRANCH  89  93
ATOM     93  S   UNL A   1      45.127  26.162  38.543  1.00  0.00     0.124 S 
ATOM     94  O   UNL A   1      44.144  26.782  39.426  1.00  0.00    -0.237 OA
ATOM     95  O   UNL A   1      44.670  24.992  37.802  1.00  0.00    -0.237 OA
ATOM     96  O   UNL A   1      46.477  26.058  39.096  1.00  0.00    -0.744 OA
ENDBRANCH  89  93
ENDBRANCH  63  86
ENDBRANCH  37  38
ENDBRANCH  29  32
ENDBRANCH  27  28
ENDBRANCH  26  27
ENDBRANCH   1  26
TORSDOF 18
ENDMDL
