MODEL 1
REMARK VINA RESULT:     -11.6      0.000      0.000
REMARK SMILES O=C(CC[C@H]1CCC[N@@H+](Cc2cccc(C3CC3)c2)C1)NCCCCNC(=O)c1ccc(-c2c3nc(c(-c4cc(S(=O)(=O)[O-])ccc4F)c4ccc([nH]4)c(-c4cc(S(=O)(=O)[O-])ccc4F)c4nc(c(-c5cc(S(=O)(=O)[O-])ccc5F)c5ccc2[nH]5)C=C4)C=C3)cc1
REMARK SMILES IDX 22 1 21 2 1 3 2 4 3 6 4 7 5 8 6 9 20 10 7 11 9 12 8 13 10 15
REMARK SMILES IDX 11 16 12 17 19 18 13 19 15 20 14 21 16 22 17 23 18 24 23 25
REMARK SMILES IDX 24 26 25 27 26 28 27 29 28 31 29 32 30 33 91 34 31 35 90 36
REMARK SMILES IDX 32 37 33 38 34 39 84 40 35 41 89 42 83 43 85 44 36 45 88 46
REMARK SMILES IDX 82 47 81 48 37 50 69 51 49 52 68 53 50 54 53 55 67 56 86 57
REMARK SMILES IDX 51 58 52 59 66 61 87 62 54 63 38 64 39 65 47 66 40 67 46 68
REMARK SMILES IDX 48 69 45 70 41 71 42 72 43 73 44 74 70 75 71 76 79 77 72 78
REMARK SMILES IDX 78 79 80 80 77 81 73 82 74 83 75 84 76 85 55 86 56 87 64 88
REMARK SMILES IDX 57 89 63 90 65 91 62 92 58 93 59 94 60 95 61 96
REMARK H PARENT 21 5 9 14 26 30 85 49 53 60
REMARK Flexibility Score: inf
ROOT
ATOM      1  C   UNL A   1      32.279  29.832  25.358  1.00  0.00     0.116 C 
ENDROOT
BRANCH   1   2
ATOM      2  N   UNL A   1      31.506  28.676  24.958  1.00  0.00    -0.356 N 
ATOM      3  O   UNL A   1      30.324  29.665  23.253  1.00  0.00    -0.275 OA
ATOM      4  C   UNL A   1      30.588  28.682  23.935  1.00  0.00     0.220 C 
ATOM      5  H   UNL A   1      31.647  27.834  25.447  1.00  0.00     0.163 HD
BRANCH   4   6
ATOM      6  C   UNL A   1      29.912  27.338  23.731  1.00  0.00     0.100 C 
BRANCH   6   7
ATOM      7  C   UNL A   1      30.350  26.242  24.707  1.00  0.00     0.019 C 
BRANCH   7   8
ATOM      8  C   UNL A   1      31.140  25.077  24.063  1.00  0.00     0.045 C 
ATOM      9  C   UNL A   1      31.965  25.552  22.858  1.00  0.00     0.015 C 
ATOM     10  C   UNL A   1      32.100  24.462  25.094  1.00  0.00     0.265 C 
ATOM     11  C   UNL A   1      32.804  24.394  22.314  1.00  0.00     0.062 C 
ATOM     12  N   UNL A   1      32.894  23.351  24.565  1.00  0.00    -0.331 N 
ATOM     13  C   UNL A   1      33.688  23.772  23.401  1.00  0.00     0.262 C 
ATOM     14  H   UNL A   1      32.238  22.637  24.246  1.00  0.00     0.348 HD
BRANCH  12  15
ATOM     15  C   UNL A   1      33.730  22.699  25.609  1.00  0.00     0.299 C 
BRANCH  15  16
ATOM     16  C   UNL A   1      34.508  21.462  25.189  1.00  0.00     0.006 A 
ATOM     17  C   UNL A   1      35.901  21.420  25.282  1.00  0.00     0.009 A 
ATOM     18  C   UNL A   1      33.834  20.305  24.756  1.00  0.00     0.013 A 
ATOM     19  C   UNL A   1      36.583  20.234  25.008  1.00  0.00     0.001 A 
ATOM     20  C   UNL A   1      34.472  19.063  24.609  1.00  0.00    -0.044 A 
ATOM     21  C   UNL A   1      35.871  19.068  24.707  1.00  0.00     0.004 A 
BRANCH  20  22
ATOM     22  C   UNL A   1      33.714  17.756  24.446  1.00  0.00     0.019 C 
ATOM     23  C   UNL A   1      33.217  17.309  23.086  1.00  0.00     0.009 C 
ATOM     24  C   UNL A   1      34.325  16.559  23.765  1.00  0.00     0.009 C 
ENDBRANCH  20  22
ENDBRANCH  15  16
ENDBRANCH  12  15
ENDBRANCH   7   8
ENDBRANCH   6   7
ENDBRANCH   4   6
ENDBRANCH   1   2
BRANCH   1  25
ATOM     25  C   UNL A   1      31.846  30.334  26.734  1.00  0.00     0.023 C 
BRANCH  25  26
ATOM     26  C   UNL A   1      31.718  31.858  26.864  1.00  0.00     0.023 C 
BRANCH  26  27
ATOM     27  C   UNL A   1      32.975  32.579  27.342  1.00  0.00     0.116 C 
BRANCH  27  28
ATOM     28  N   UNL A   1      32.700  33.950  27.741  1.00  0.00    -0.352 N 
ATOM     29  C   UNL A   1      33.226  34.687  28.774  1.00  0.00     0.251 C 
ATOM     30  H   UNL A   1      32.034  34.420  27.189  1.00  0.00     0.163 HD
ATOM     31  O   UNL A   1      32.707  35.765  29.067  1.00  0.00    -0.269 OA
BRANCH  29  32
ATOM     32  C   UNL A   1      34.385  34.188  29.549  1.00  0.00     0.039 A 
ATOM     33  C   UNL A   1      34.157  33.306  30.611  1.00  0.00     0.014 A 
ATOM     34  C   UNL A   1      35.690  34.593  29.253  1.00  0.00     0.014 A 
ATOM     35  C   UNL A   1      35.236  32.782  31.328  1.00  0.00     0.010 A 
ATOM     36  C   UNL A   1      36.768  34.011  29.920  1.00  0.00     0.010 A 
ATOM     37  C   UNL A   1      36.555  33.097  30.963  1.00  0.00    -0.014 A 
BRANCH  37  38
ATOM     38  C   UNL A   1      37.716  32.472  31.656  1.00  0.00     0.031 A 
ATOM     39  C   UNL A   1      38.455  31.325  31.021  1.00  0.00     0.074 A 
ATOM     40  C   UNL A   1      38.072  32.903  32.883  1.00  0.00     0.049 A 
ATOM     41  N   UNL A   1      39.437  30.603  31.502  1.00  0.00    -0.248 NA
ATOM     42  C   UNL A   1      38.014  30.920  29.680  1.00  0.00     0.031 C 
ATOM     43  C   UNL A   1      37.416  33.986  33.621  1.00  0.00     0.029 A 
ATOM     44  N   UNL A   1      39.064  32.480  33.734  1.00  0.00    -0.354 N 
ATOM     45  C   UNL A   1      39.728  29.656  30.525  1.00  0.00     0.074 A 
ATOM     46  C   UNL A   1      38.771  29.856  29.456  1.00  0.00     0.031 C 
ATOM     47  C   UNL A   1      38.037  34.156  34.798  1.00  0.00     0.029 A 
ATOM     48  C   UNL A   1      39.097  33.162  34.929  1.00  0.00     0.049 A 
ATOM     49  H   UNL A   1      39.692  31.756  33.510  1.00  0.00     0.167 HD
ATOM     50  C   UNL A   1      40.713  28.724  30.510  1.00  0.00     0.034 A 
ATOM     51  C   UNL A   1      39.879  32.997  36.016  1.00  0.00     0.034 A 
ATOM     52  C   UNL A   1      41.659  28.538  31.585  1.00  0.00     0.049 A 
ATOM     53  C   UNL A   1      40.937  31.921  35.998  1.00  0.00     0.074 A 
ATOM     54  C   UNL A   1      42.720  27.651  31.655  1.00  0.00     0.029 A 
ATOM     55  N   UNL A   1      41.654  29.240  32.785  1.00  0.00    -0.354 N 
ATOM     56  N   UNL A   1      41.225  31.061  35.048  1.00  0.00    -0.248 NA
ATOM     57  C   UNL A   1      41.781  31.801  37.194  1.00  0.00     0.031 C 
ATOM     58  C   UNL A   1      43.304  27.760  32.921  1.00  0.00     0.029 A 
ATOM     59  C   UNL A   1      42.669  28.780  33.612  1.00  0.00     0.049 A 
ATOM     60  H   UNL A   1      41.022  29.959  33.013  1.00  0.00     0.167 HD
ATOM     61  C   UNL A   1      42.306  30.321  35.521  1.00  0.00     0.074 A 
ATOM     62  C   UNL A   1      42.626  30.848  36.832  1.00  0.00     0.031 C 
ATOM     63  C   UNL A   1      42.975  29.302  34.924  1.00  0.00     0.034 A 
BRANCH  50  64
ATOM     64  C   UNL A   1      40.796  27.818  29.302  1.00  0.00     0.023 A 
ATOM     65  C   UNL A   1      41.770  28.005  28.306  1.00  0.00     0.031 A 
ATOM     66  C   UNL A   1      39.876  26.769  29.131  1.00  0.00     0.131 A 
ATOM     67  C   UNL A   1      41.751  27.212  27.148  1.00  0.00     0.055 A 
ATOM     68  C   UNL A   1      39.919  25.925  28.019  1.00  0.00     0.041 A 
ATOM     69  F   UNL A   1      38.908  26.552  30.036  1.00  0.00    -0.206 F 
ATOM     70  C   UNL A   1      40.850  26.155  27.010  1.00  0.00     0.022 A 
BRANCH  67  71
ATOM     71  S   UNL A   1      42.815  27.687  25.758  1.00  0.00     0.124 S 
ATOM     72  O   UNL A   1      42.540  29.119  25.653  1.00  0.00    -0.237 OA
ATOM     73  O   UNL A   1      44.142  27.324  26.239  1.00  0.00    -0.237 OA
ATOM     74  O   UNL A   1      42.308  26.881  24.649  1.00  0.00    -0.744 OA
ENDBRANCH  67  71
ENDBRANCH  50  64
BRANCH  51  75
ATOM     75  C   UNL A   1      39.682  33.851  37.224  1.00  0.00     0.023 A 
ATOM     76  C   UNL A   1      38.987  33.374  38.346  1.00  0.00     0.031 A 
ATOM     77  C   UNL A   1      40.149  35.178  37.256  1.00  0.00     0.131 A 
ATOM     78  C   UNL A   1      38.736  34.228  39.431  1.00  0.00     0.055 A 
ATOM     79  C   UNL A   1      39.950  36.005  38.362  1.00  0.00     0.041 A 
ATOM     80  F   UNL A   1      40.819  35.687  36.209  1.00  0.00    -0.206 F 
ATOM     81  C   UNL A   1      39.227  35.535  39.454  1.00  0.00     0.022 A 
BRANCH  78  82
ATOM     82  S   UNL A   1      37.674  33.637  40.777  1.00  0.00     0.124 S 
ATOM     83  O   UNL A   1      37.327  34.884  41.449  1.00  0.00    -0.237 OA
ATOM     84  O   UNL A   1      36.595  32.981  40.045  1.00  0.00    -0.237 OA
ATOM     85  O   UNL A   1      38.548  32.741  41.532  1.00  0.00    -0.744 OA
ENDBRANCH  78  82
ENDBRANCH  51  75
BRANCH  63  86
ATOM     86  C   UNL A   1      44.157  28.723  35.667  1.00  0.00     0.023 A 
ATOM     87  C   UNL A   1      44.013  27.676  36.593  1.00  0.00     0.031 A 
ATOM     88  C   UNL A   1      45.448  29.236  35.449  1.00  0.00     0.131 A 
ATOM     89  C   UNL A   1      45.129  27.216  37.309  1.00  0.00     0.055 A 
ATOM     90  C   UNL A   1      46.565  28.729  36.113  1.00  0.00     0.041 A 
ATOM     91  F   UNL A   1      45.647  30.240  34.580  1.00  0.00    -0.206 F 
ATOM     92  C   UNL A   1      46.407  27.723  37.061  1.00  0.00     0.022 A 
BRANCH  89  93
ATOM     93  S   UNL A   1      44.875  26.016  38.646  1.00  0.00     0.124 S 
ATOM     94  O   UNL A   1      46.188  25.987  39.281  1.00  0.00    -0.237 OA
ATOM     95  O   UNL A   1      43.805  26.636  39.422  1.00  0.00    -0.237 OA
ATOM     96  O   UNL A   1      44.498  24.791  37.942  1.00  0.00    -0.744 OA
ENDBRANCH  89  93
ENDBRANCH  63  86
ENDBRANCH  37  38
ENDBRANCH  29  32
ENDBRANCH  27  28
ENDBRANCH  26  27
ENDBRANCH  25  26
ENDBRANCH   1  25
TORSDOF 19
ENDMDL
MODEL 2
REMARK VINA RESULT:     -11.3      1.812      2.109
REMARK SMILES O=C(CC[C@H]1CCC[N@@H+](Cc2cccc(C3CC3)c2)C1)NCCCCNC(=O)c1ccc(-c2c3nc(c(-c4cc(S(=O)(=O)[O-])ccc4F)c4ccc([nH]4)c(-c4cc(S(=O)(=O)[O-])ccc4F)c4nc(c(-c5cc(S(=O)(=O)[O-])ccc5F)c5ccc2[nH]5)C=C4)C=C3)cc1
REMARK SMILES IDX 22 1 21 2 1 3 2 4 3 6 4 7 5 8 6 9 20 10 7 11 9 12 8 13 10 15
REMARK SMILES IDX 11 16 12 17 19 18 13 19 15 20 14 21 16 22 17 23 18 24 23 25
REMARK SMILES IDX 24 26 25 27 26 28 27 29 28 31 29 32 30 33 91 34 31 35 90 36
REMARK SMILES IDX 32 37 33 38 34 39 84 40 35 41 89 42 83 43 85 44 36 45 88 46
REMARK SMILES IDX 82 47 81 48 37 50 69 51 49 52 68 53 50 54 53 55 67 56 86 57
REMARK SMILES IDX 51 58 52 59 66 61 87 62 54 63 38 64 39 65 47 66 40 67 46 68
REMARK SMILES IDX 48 69 45 70 41 71 42 72 43 73 44 74 70 75 71 76 79 77 72 78
REMARK SMILES IDX 78 79 80 80 77 81 73 82 74 83 75 84 76 85 55 86 56 87 64 88
REMARK SMILES IDX 57 89 63 90 65 91 62 92 58 93 59 94 60 95 61 96
REMARK H PARENT 21 5 9 14 26 30 85 49 53 60
REMARK Flexibility Score: inf
ROOT
ATOM      1  C   UNL A   1      32.107  29.749  25.127  1.00  0.00     0.116 C 
ENDROOT
BRANCH   1   2
ATOM      2  N   UNL A   1      31.342  28.586  24.730  1.00  0.00    -0.356 N 
ATOM      3  O   UNL A   1      30.012  29.608  23.159  1.00  0.00    -0.275 OA
ATOM      4  C   UNL A   1      30.354  28.605  23.776  1.00  0.00     0.220 C 
ATOM      5  H   UNL A   1      31.543  27.729  25.170  1.00  0.00     0.163 HD
BRANCH   4   6
ATOM      6  C   UNL A   1      29.706  27.249  23.558  1.00  0.00     0.100 C 
BRANCH   6   7
ATOM      7  C   UNL A   1      30.159  26.156  24.531  1.00  0.00     0.019 C 
BRANCH   7   8
ATOM      8  C   UNL A   1      31.045  25.054  23.901  1.00  0.00     0.045 C 
ATOM      9  C   UNL A   1      31.843  25.587  22.702  1.00  0.00     0.015 C 
ATOM     10  C   UNL A   1      32.040  24.523  24.946  1.00  0.00     0.265 C 
ATOM     11  C   UNL A   1      32.776  24.497  22.173  1.00  0.00     0.062 C 
ATOM     12  N   UNL A   1      32.926  23.475  24.431  1.00  0.00    -0.331 N 
ATOM     13  C   UNL A   1      33.696  23.952  23.272  1.00  0.00     0.262 C 
ATOM     14  H   UNL A   1      32.331  22.710  24.109  1.00  0.00     0.348 HD
BRANCH  12  15
ATOM     15  C   UNL A   1      33.799  22.897  25.487  1.00  0.00     0.299 C 
BRANCH  15  16
ATOM     16  C   UNL A   1      34.574  21.641  25.122  1.00  0.00     0.006 A 
ATOM     17  C   UNL A   1      35.964  21.589  25.242  1.00  0.00     0.009 A 
ATOM     18  C   UNL A   1      33.897  20.476  24.714  1.00  0.00     0.013 A 
ATOM     19  C   UNL A   1      36.640  20.390  25.020  1.00  0.00     0.001 A 
ATOM     20  C   UNL A   1      34.526  19.224  24.619  1.00  0.00    -0.044 A 
ATOM     21  C   UNL A   1      35.924  19.220  24.743  1.00  0.00     0.004 A 
BRANCH  20  22
ATOM     22  C   UNL A   1      33.759  17.919  24.485  1.00  0.00     0.019 C 
ATOM     23  C   UNL A   1      34.015  16.982  23.321  1.00  0.00     0.009 C 
ATOM     24  C   UNL A   1      34.414  16.581  24.711  1.00  0.00     0.009 C 
ENDBRANCH  20  22
ENDBRANCH  15  16
ENDBRANCH  12  15
ENDBRANCH   7   8
ENDBRANCH   6   7
ENDBRANCH   4   6
ENDBRANCH   1   2
BRANCH   1  25
ATOM     25  C   UNL A   1      31.718  30.209  26.532  1.00  0.00     0.023 C 
BRANCH  25  26
ATOM     26  C   UNL A   1      31.608  31.729  26.714  1.00  0.00     0.023 C 
BRANCH  26  27
ATOM     27  C   UNL A   1      32.874  32.418  27.216  1.00  0.00     0.116 C 
BRANCH  27  28
ATOM     28  N   UNL A   1      32.629  33.801  27.594  1.00  0.00    -0.352 N 
ATOM     29  C   UNL A   1      33.183  34.546  28.606  1.00  0.00     0.251 C 
ATOM     30  H   UNL A   1      31.965  34.274  27.042  1.00  0.00     0.163 HD
ATOM     31  O   UNL A   1      32.689  35.638  28.887  1.00  0.00    -0.269 OA
BRANCH  29  32
ATOM     32  C   UNL A   1      34.343  34.039  29.374  1.00  0.00     0.039 A 
ATOM     33  C   UNL A   1      34.112  33.189  30.461  1.00  0.00     0.014 A 
ATOM     34  C   UNL A   1      35.652  34.406  29.048  1.00  0.00     0.014 A 
ATOM     35  C   UNL A   1      35.191  32.657  31.173  1.00  0.00     0.010 A 
ATOM     36  C   UNL A   1      36.728  33.816  29.712  1.00  0.00     0.010 A 
ATOM     37  C   UNL A   1      36.511  32.932  30.780  1.00  0.00    -0.014 A 
BRANCH  37  38
ATOM     38  C   UNL A   1      37.669  32.298  31.470  1.00  0.00     0.031 A 
ATOM     39  C   UNL A   1      38.426  31.175  30.811  1.00  0.00     0.074 A 
ATOM     40  C   UNL A   1      38.006  32.697  32.712  1.00  0.00     0.049 A 
ATOM     41  N   UNL A   1      39.408  30.449  31.283  1.00  0.00    -0.248 NA
ATOM     42  C   UNL A   1      38.004  30.805  29.453  1.00  0.00     0.031 C 
ATOM     43  C   UNL A   1      37.332  33.752  33.472  1.00  0.00     0.029 A 
ATOM     44  N   UNL A   1      38.992  32.258  33.563  1.00  0.00    -0.354 N 
ATOM     45  C   UNL A   1      39.718  29.532  30.284  1.00  0.00     0.074 A 
ATOM     46  C   UNL A   1      38.773  29.754  29.210  1.00  0.00     0.031 C 
ATOM     47  C   UNL A   1      37.937  33.894  34.661  1.00  0.00     0.029 A 
ATOM     48  C   UNL A   1      39.004  32.906  34.778  1.00  0.00     0.049 A 
ATOM     49  H   UNL A   1      39.628  31.546  33.326  1.00  0.00     0.167 HD
ATOM     50  C   UNL A   1      40.712  28.609  30.255  1.00  0.00     0.034 A 
ATOM     51  C   UNL A   1      39.774  32.717  35.869  1.00  0.00     0.034 A 
ATOM     52  C   UNL A   1      41.647  28.400  31.336  1.00  0.00     0.049 A 
ATOM     53  C   UNL A   1      40.841  31.651  35.834  1.00  0.00     0.074 A 
ATOM     54  C   UNL A   1      42.714  27.521  31.394  1.00  0.00     0.029 A 
ATOM     55  N   UNL A   1      41.621  29.068  32.555  1.00  0.00    -0.354 N 
ATOM     56  N   UNL A   1      41.148  30.820  34.863  1.00  0.00    -0.248 NA
ATOM     57  C   UNL A   1      41.672  31.504  37.036  1.00  0.00     0.031 C 
ATOM     58  C   UNL A   1      43.282  27.599  32.669  1.00  0.00     0.029 A 
ATOM     59  C   UNL A   1      42.630  28.593  33.381  1.00  0.00     0.049 A 
ATOM     60  H   UNL A   1      40.980  29.775  32.796  1.00  0.00     0.167 HD
ATOM     61  C   UNL A   1      42.230  30.076  35.329  1.00  0.00     0.074 A 
ATOM     62  C   UNL A   1      42.529  30.568  36.658  1.00  0.00     0.031 C 
ATOM     63  C   UNL A   1      42.915  29.080  34.712  1.00  0.00     0.034 A 
BRANCH  50  64
ATOM     64  C   UNL A   1      40.817  27.739  29.023  1.00  0.00     0.023 A 
ATOM     65  C   UNL A   1      41.757  28.004  28.011  1.00  0.00     0.031 A 
ATOM     66  C   UNL A   1      39.953  26.645  28.844  1.00  0.00     0.131 A 
ATOM     67  C   UNL A   1      41.756  27.239  26.835  1.00  0.00     0.055 A 
ATOM     68  C   UNL A   1      40.018  25.832  27.711  1.00  0.00     0.041 A 
ATOM     69  F   UNL A   1      39.019  26.353  29.764  1.00  0.00    -0.206 F 
ATOM     70  C   UNL A   1      40.911  26.137  26.689  1.00  0.00     0.022 A 
BRANCH  67  71
ATOM     71  S   UNL A   1      42.761  27.805  25.435  1.00  0.00     0.124 S 
ATOM     72  O   UNL A   1      42.757  26.625  24.573  1.00  0.00    -0.237 OA
ATOM     73  O   UNL A   1      42.005  28.954  24.949  1.00  0.00    -0.237 OA
ATOM     74  O   UNL A   1      44.052  28.119  26.044  1.00  0.00    -0.744 OA
ENDBRANCH  67  71
ENDBRANCH  50  64
BRANCH  51  75
ATOM     75  C   UNL A   1      39.555  33.534  37.098  1.00  0.00     0.023 A 
ATOM     76  C   UNL A   1      40.313  34.688  37.350  1.00  0.00     0.031 A 
ATOM     77  C   UNL A   1      38.610  33.144  38.066  1.00  0.00     0.131 A 
ATOM     78  C   UNL A   1      40.149  35.384  38.558  1.00  0.00     0.055 A 
ATOM     79  C   UNL A   1      38.408  33.875  39.238  1.00  0.00     0.041 A 
ATOM     80  F   UNL A   1      37.858  32.048  37.877  1.00  0.00    -0.206 F 
ATOM     81  C   UNL A   1      39.190  34.995  39.496  1.00  0.00     0.022 A 
BRANCH  78  82
ATOM     82  S   UNL A   1      41.276  36.755  38.931  1.00  0.00     0.124 S 
ATOM     83  O   UNL A   1      41.983  36.247  40.101  1.00  0.00    -0.237 OA
ATOM     84  O   UNL A   1      42.055  36.850  37.700  1.00  0.00    -0.237 OA
ATOM     85  O   UNL A   1      40.375  37.878  39.184  1.00  0.00    -0.744 OA
ENDBRANCH  78  82
ENDBRANCH  51  75
BRANCH  63  86
ATOM     86  C   UNL A   1      44.092  28.491  35.452  1.00  0.00     0.023 A 
ATOM     87  C   UNL A   1      45.395  28.997  35.303  1.00  0.00     0.031 A 
ATOM     88  C   UNL A   1      43.906  27.397  36.317  1.00  0.00     0.131 A 
ATOM     89  C   UNL A   1      46.468  28.374  35.959  1.00  0.00     0.055 A 
ATOM     90  C   UNL A   1      44.966  26.824  37.021  1.00  0.00     0.041 A 
ATOM     91  F   UNL A   1      42.686  26.867  36.497  1.00  0.00    -0.206 F 
ATOM     92  C   UNL A   1      46.259  27.304  36.833  1.00  0.00     0.022 A 
BRANCH  89  93
ATOM     93  S   UNL A   1      48.157  28.916  35.578  1.00  0.00     0.124 S 
ATOM     94  O   UNL A   1      47.936  29.845  34.476  1.00  0.00    -0.237 OA
ATOM     95  O   UNL A   1      48.585  29.514  36.839  1.00  0.00    -0.237 OA
ATOM     96  O   UNL A   1      48.843  27.676  35.217  1.00  0.00    -0.744 OA
ENDBRANCH  89  93
ENDBRANCH  63  86
ENDBRANCH  37  38
ENDBRANCH  29  32
ENDBRANCH  27  28
ENDBRANCH  26  27
ENDBRANCH  25  26
ENDBRANCH   1  25
TORSDOF 19
ENDMDL
MODEL 3
REMARK VINA RESULT:     -11.2      1.572      7.946
REMARK SMILES O=C(CC[C@H]1CCC[N@@H+](Cc2cccc(C3CC3)c2)C1)NCCCCNC(=O)c1ccc(-c2c3nc(c(-c4cc(S(=O)(=O)[O-])ccc4F)c4ccc([nH]4)c(-c4cc(S(=O)(=O)[O-])ccc4F)c4nc(c(-c5cc(S(=O)(=O)[O-])ccc5F)c5ccc2[nH]5)C=C4)C=C3)cc1
REMARK SMILES IDX 22 1 21 2 1 3 2 4 3 6 4 7 5 8 6 9 20 10 7 11 9 12 8 13 10 15
REMARK SMILES IDX 11 16 12 17 19 18 13 19 15 20 14 21 16 22 17 23 18 24 23 25
REMARK SMILES IDX 24 26 25 27 26 28 27 29 28 31 29 32 30 33 91 34 31 35 90 36
REMARK SMILES IDX 32 37 33 38 34 39 84 40 35 41 89 42 83 43 85 44 36 45 88 46
REMARK SMILES IDX 82 47 81 48 37 50 69 51 49 52 68 53 50 54 53 55 67 56 86 57
REMARK SMILES IDX 51 58 52 59 66 61 87 62 54 63 38 64 39 65 47 66 40 67 46 68
REMARK SMILES IDX 48 69 45 70 41 71 42 72 43 73 44 74 70 75 71 76 79 77 72 78
REMARK SMILES IDX 78 79 80 80 77 81 73 82 74 83 75 84 76 85 55 86 56 87 64 88
REMARK SMILES IDX 57 89 63 90 65 91 62 92 58 93 59 94 60 95 61 96
REMARK H PARENT 21 5 9 14 26 30 85 49 53 60
REMARK Flexibility Score: inf
ROOT
ATOM      1  C   UNL A   1      34.963  31.403  28.193  1.00  0.00     0.116 C 
ENDROOT
BRANCH   1   2
ATOM      2  N   UNL A   1      34.593  30.644  27.018  1.00  0.00    -0.356 N 
ATOM      3  O   UNL A   1      32.349  30.443  27.468  1.00  0.00    -0.275 OA
ATOM      4  C   UNL A   1      33.314  30.223  26.746  1.00  0.00     0.220 C 
ATOM      5  H   UNL A   1      35.302  30.416  26.374  1.00  0.00     0.163 HD
BRANCH   4   6
ATOM      6  C   UNL A   1      33.205  29.439  25.451  1.00  0.00     0.100 C 
BRANCH   6   7
ATOM      7  C   UNL A   1      31.774  29.100  25.022  1.00  0.00     0.019 C 
BRANCH   7   8
ATOM      8  C   UNL A   1      31.509  27.594  24.779  1.00  0.00     0.045 C 
ATOM      9  C   UNL A   1      30.261  27.373  23.912  1.00  0.00     0.015 C 
ATOM     10  C   UNL A   1      32.713  26.961  24.062  1.00  0.00     0.265 C 
ATOM     11  C   UNL A   1      30.092  25.882  23.615  1.00  0.00     0.062 C 
ATOM     12  N   UNL A   1      32.543  25.531  23.786  1.00  0.00    -0.331 N 
ATOM     13  C   UNL A   1      31.347  25.286  22.967  1.00  0.00     0.262 C 
ATOM     14  H   UNL A   1      32.401  25.067  24.684  1.00  0.00     0.348 HD
BRANCH  12  15
ATOM     15  C   UNL A   1      33.763  24.916  23.198  1.00  0.00     0.299 C 
BRANCH  15  16
ATOM     16  C   UNL A   1      34.486  23.882  24.047  1.00  0.00     0.006 A 
ATOM     17  C   UNL A   1      35.351  24.268  25.074  1.00  0.00     0.009 A 
ATOM     18  C   UNL A   1      34.248  22.508  23.858  1.00  0.00     0.013 A 
ATOM     19  C   UNL A   1      35.905  23.305  25.917  1.00  0.00     0.001 A 
ATOM     20  C   UNL A   1      34.675  21.529  24.769  1.00  0.00    -0.044 A 
ATOM     21  C   UNL A   1      35.545  21.960  25.782  1.00  0.00     0.004 A 
BRANCH  20  22
ATOM     22  C   UNL A   1      34.169  20.097  24.744  1.00  0.00     0.019 C 
ATOM     23  C   UNL A   1      32.947  19.688  25.543  1.00  0.00     0.009 C 
ATOM     24  C   UNL A   1      32.891  19.714  24.043  1.00  0.00     0.009 C 
ENDBRANCH  20  22
ENDBRANCH  15  16
ENDBRANCH  12  15
ENDBRANCH   7   8
ENDBRANCH   6   7
ENDBRANCH   4   6
ENDBRANCH   1   2
BRANCH   1  25
ATOM     25  C   UNL A   1      34.984  32.902  27.896  1.00  0.00     0.023 C 
BRANCH  25  26
ATOM     26  C   UNL A   1      33.672  33.644  28.186  1.00  0.00     0.023 C 
BRANCH  26  27
ATOM     27  C   UNL A   1      33.818  35.131  28.493  1.00  0.00     0.116 C 
BRANCH  27  28
ATOM     28  N   UNL A   1      33.181  35.495  29.748  1.00  0.00    -0.352 N 
ATOM     29  C   UNL A   1      33.423  35.038  31.021  1.00  0.00     0.251 C 
ATOM     30  H   UNL A   1      32.468  36.170  29.675  1.00  0.00     0.163 HD
ATOM     31  O   UNL A   1      32.632  35.323  31.921  1.00  0.00    -0.269 OA
BRANCH  29  32
ATOM     32  C   UNL A   1      34.601  34.189  31.311  1.00  0.00     0.039 A 
ATOM     33  C   UNL A   1      35.878  34.698  31.053  1.00  0.00     0.014 A 
ATOM     34  C   UNL A   1      34.461  32.893  31.816  1.00  0.00     0.014 A 
ATOM     35  C   UNL A   1      37.009  33.938  31.363  1.00  0.00     0.010 A 
ATOM     36  C   UNL A   1      35.590  32.166  32.194  1.00  0.00     0.010 A 
ATOM     37  C   UNL A   1      36.877  32.680  31.976  1.00  0.00    -0.014 A 
BRANCH  37  38
ATOM     38  C   UNL A   1      38.073  31.899  32.398  1.00  0.00     0.031 A 
ATOM     39  C   UNL A   1      38.780  32.226  33.687  1.00  0.00     0.074 A 
ATOM     40  C   UNL A   1      38.557  30.931  31.594  1.00  0.00     0.049 A 
ATOM     41  N   UNL A   1      39.877  31.713  34.184  1.00  0.00    -0.248 NA
ATOM     42  C   UNL A   1      38.187  33.287  34.512  1.00  0.00     0.031 C 
ATOM     43  C   UNL A   1      37.982  30.540  30.305  1.00  0.00     0.029 A 
ATOM     44  N   UNL A   1      39.646  30.104  31.733  1.00  0.00    -0.354 N 
ATOM     45  C   UNL A   1      40.110  32.391  35.375  1.00  0.00     0.074 A 
ATOM     46  C   UNL A   1      39.075  33.398  35.489  1.00  0.00     0.031 C 
ATOM     47  C   UNL A   1      38.708  29.537  29.786  1.00  0.00     0.029 A 
ATOM     48  C   UNL A   1      39.831  29.248  30.671  1.00  0.00     0.049 A 
ATOM     49  H   UNL A   1      40.238  30.124  32.519  1.00  0.00     0.167 HD
ATOM     50  C   UNL A   1      41.080  32.180  36.300  1.00  0.00     0.034 A 
ATOM     51  C   UNL A   1      40.803  28.346  30.427  1.00  0.00     0.034 A 
ATOM     52  C   UNL A   1      42.107  31.172  36.172  1.00  0.00     0.049 A 
ATOM     53  C   UNL A   1      41.902  28.162  31.445  1.00  0.00     0.074 A 
ATOM     54  C   UNL A   1      43.112  30.848  37.066  1.00  0.00     0.029 A 
ATOM     55  N   UNL A   1      42.269  30.333  35.076  1.00  0.00    -0.354 N 
ATOM     56  N   UNL A   1      42.082  28.785  32.587  1.00  0.00    -0.248 NA
ATOM     57  C   UNL A   1      42.920  27.147  31.146  1.00  0.00     0.031 C 
ATOM     58  C   UNL A   1      43.926  29.873  36.481  1.00  0.00     0.029 A 
ATOM     59  C   UNL A   1      43.378  29.518  35.259  1.00  0.00     0.049 A 
ATOM     60  H   UNL A   1      41.682  30.318  34.286  1.00  0.00     0.167 HD
ATOM     61  C   UNL A   1      43.217  28.211  33.157  1.00  0.00     0.074 A 
ATOM     62  C   UNL A   1      43.666  27.184  32.239  1.00  0.00     0.031 C 
ATOM     63  C   UNL A   1      43.828  28.504  34.333  1.00  0.00     0.034 A 
BRANCH  50  64
ATOM     64  C   UNL A   1      41.090  33.078  37.516  1.00  0.00     0.023 A 
ATOM     65  C   UNL A   1      40.315  32.788  38.653  1.00  0.00     0.031 A 
ATOM     66  C   UNL A   1      41.865  34.252  37.533  1.00  0.00     0.131 A 
ATOM     67  C   UNL A   1      40.267  33.698  39.720  1.00  0.00     0.055 A 
ATOM     68  C   UNL A   1      41.882  35.107  38.637  1.00  0.00     0.041 A 
ATOM     69  F   UNL A   1      42.609  34.595  36.470  1.00  0.00    -0.206 F 
ATOM     70  C   UNL A   1      41.067  34.842  39.733  1.00  0.00     0.022 A 
BRANCH  67  71
ATOM     71  S   UNL A   1      39.023  33.445  41.016  1.00  0.00     0.124 S 
ATOM     72  O   UNL A   1      39.856  33.051  42.151  1.00  0.00    -0.237 OA
ATOM     73  O   UNL A   1      38.395  34.758  41.110  1.00  0.00    -0.237 OA
ATOM     74  O   UNL A   1      38.177  32.383  40.476  1.00  0.00    -0.744 OA
ENDBRANCH  67  71
ENDBRANCH  50  64
BRANCH  51  75
ATOM     75  C   UNL A   1      40.803  27.562  29.157  1.00  0.00     0.023 A 
ATOM     76  C   UNL A   1      41.716  27.843  28.129  1.00  0.00     0.031 A 
ATOM     77  C   UNL A   1      39.855  26.546  28.935  1.00  0.00     0.131 A 
ATOM     78  C   UNL A   1      41.633  27.151  26.910  1.00  0.00     0.055 A 
ATOM     79  C   UNL A   1      39.815  25.819  27.744  1.00  0.00     0.041 A 
ATOM     80  F   UNL A   1      38.957  26.236  29.885  1.00  0.00    -0.206 F 
ATOM     81  C   UNL A   1      40.700  26.130  26.717  1.00  0.00     0.022 A 
BRANCH  78  82
ATOM     82  S   UNL A   1      42.702  27.671  25.540  1.00  0.00     0.124 S 
ATOM     83  O   UNL A   1      43.961  27.930  26.230  1.00  0.00    -0.237 OA
ATOM     84  O   UNL A   1      42.674  26.499  24.672  1.00  0.00    -0.237 OA
ATOM     85  O   UNL A   1      42.025  28.853  25.010  1.00  0.00    -0.744 OA
ENDBRANCH  78  82
ENDBRANCH  51  75
BRANCH  63  86
ATOM     86  C   UNL A   1      45.024  27.664  34.717  1.00  0.00     0.023 A 
ATOM     87  C   UNL A   1      44.885  26.418  35.351  1.00  0.00     0.031 A 
ATOM     88  C   UNL A   1      46.326  28.125  34.449  1.00  0.00     0.131 A 
ATOM     89  C   UNL A   1      46.025  25.704  35.750  1.00  0.00     0.055 A 
ATOM     90  C   UNL A   1      47.456  27.380  34.786  1.00  0.00     0.041 A 
ATOM     91  F   UNL A   1      46.521  29.310  33.849  1.00  0.00    -0.206 F 
ATOM     92  C   UNL A   1      47.310  26.168  35.454  1.00  0.00     0.022 A 
BRANCH  89  93
ATOM     93  S   UNL A   1      45.812  24.208  36.754  1.00  0.00     0.124 S 
ATOM     94  O   UNL A   1      44.948  24.685  37.829  1.00  0.00    -0.237 OA
ATOM     95  O   UNL A   1      45.198  23.282  35.807  1.00  0.00    -0.237 OA
ATOM     96  O   UNL A   1      47.175  23.867  37.157  1.00  0.00    -0.744 OA
ENDBRANCH  89  93
ENDBRANCH  63  86
ENDBRANCH  37  38
ENDBRANCH  29  32
ENDBRANCH  27  28
ENDBRANCH  26  27
ENDBRANCH  25  26
ENDBRANCH   1  25
TORSDOF 19
ENDMDL
