MODEL 1
REMARK VINA RESULT:     -13.3      0.000      0.000
REMARK SMILES CN1C(=O)C[C@@H](C(=O)NCCCCNC(=O)c2ccc(-c3c4nc(c(-c5cc(S(=O)(=O)[O-])ccc5F)c5ccc([nH]5)c(-c5cc(S(=O)(=O)[O-])ccc5F)c5nc(c(-c6cc(S(=O)(=O)[O-])ccc6F)c6ccc3[nH]6)C=C5)C=C4)cc2)C12CCN(c1ccc(Cl)cn1)CC2
REMARK SMILES IDX 12 1 11 2 10 3 9 4 7 5 8 6 6 8 1 9 2 10 3 11 80 12 4 13 5 14
REMARK SMILES IDX 81 15 92 16 82 17 91 18 83 19 84 20 85 21 90 22 86 23 89 24
REMARK SMILES IDX 87 25 88 26 13 27 14 28 15 29 16 31 17 32 18 33 79 34 19 35
REMARK SMILES IDX 78 36 20 37 21 38 22 39 72 40 23 41 77 42 71 43 73 44 24 45
REMARK SMILES IDX 76 46 70 47 69 48 25 50 57 51 37 52 56 53 38 54 41 55 55 56
REMARK SMILES IDX 74 57 39 58 40 59 54 61 75 62 42 63 26 64 27 65 35 66 28 67
REMARK SMILES IDX 34 68 36 69 33 70 29 71 30 72 31 73 32 74 58 75 59 76 67 77
REMARK SMILES IDX 60 78 66 79 68 80 65 81 61 82 62 83 63 84 64 85 43 86 44 87
REMARK SMILES IDX 52 88 45 89 51 90 53 91 50 92 46 93 47 94 48 95 49 96
REMARK H PARENT 9 7 14 30 73 49 41 60
REMARK Flexibility Score: inf
ROOT
ATOM      1  C   UNL A   1      36.315  21.364  24.490  1.00  0.00     0.023 C 
ENDROOT
BRANCH   1   2
ATOM      2  C   UNL A   1      35.012  20.721  24.960  1.00  0.00     0.023 C 
BRANCH   2   3
ATOM      3  C   UNL A   1      33.746  21.433  24.482  1.00  0.00     0.116 C 
BRANCH   3   4
ATOM      4  N   UNL A   1      34.006  22.554  23.595  1.00  0.00    -0.356 N 
ATOM      5  C   UNL A   1      33.943  23.900  23.745  1.00  0.00     0.226 C 
ATOM      6  O   UNL A   1      34.278  24.575  22.763  1.00  0.00    -0.275 OA
ATOM      7  H   UNL A   1      34.287  22.277  22.693  1.00  0.00     0.163 HD
BRANCH   5   8
ATOM      8  C   UNL A   1      33.469  24.634  25.001  1.00  0.00     0.113 C 
ATOM      9  C   UNL A   1      30.285  23.412  26.566  1.00  0.00     0.147 C 
ATOM     10  N   UNL A   1      31.624  23.787  26.153  1.00  0.00    -0.339 N 
ATOM     11  C   UNL A   1      32.725  23.389  26.903  1.00  0.00     0.223 C 
ATOM     12  C   UNL A   1      31.947  24.853  25.188  1.00  0.00     0.058 C 
ATOM     13  O   UNL A   1      32.708  22.666  27.885  1.00  0.00    -0.275 OA
ATOM     14  C   UNL A   1      33.964  23.985  26.294  1.00  0.00     0.116 C 
ATOM     15  C   UNL A   1      31.143  24.761  23.871  1.00  0.00     0.051 C 
ATOM     16  C   UNL A   1      31.673  26.232  25.876  1.00  0.00     0.051 C 
ATOM     17  C   UNL A   1      31.319  25.984  22.987  1.00  0.00     0.120 C 
ATOM     18  C   UNL A   1      31.728  27.436  24.922  1.00  0.00     0.120 C 
ATOM     19  N   UNL A   1      30.895  27.125  23.776  1.00  0.00    -0.356 N 
BRANCH  19  20
ATOM     20  C   UNL A   1      30.156  28.105  23.148  1.00  0.00     0.128 A 
ATOM     21  C   UNL A   1      28.761  28.088  23.266  1.00  0.00     0.048 A 
ATOM     22  N   UNL A   1      30.784  29.073  22.451  1.00  0.00    -0.238 NA
ATOM     23  C   UNL A   1      27.988  29.059  22.635  1.00  0.00     0.026 A 
ATOM     24  C   UNL A   1      30.011  29.993  21.819  1.00  0.00     0.134 A 
ATOM     25  C   UNL A   1      28.628  30.027  21.883  1.00  0.00     0.059 A 
ATOM     26  Cl  UNL A   1      27.727  31.237  21.066  1.00  0.00    -0.083 Cl
ENDBRANCH  19  20
ENDBRANCH   5   8
ENDBRANCH   3   4
ENDBRANCH   2   3
ENDBRANCH   1   2
BRANCH   1  27
ATOM     27  C   UNL A   1      37.303  21.659  25.611  1.00  0.00     0.116 C 
BRANCH  27  28
ATOM     28  N   UNL A   1      38.355  20.654  25.709  1.00  0.00    -0.352 N 
ATOM     29  C   UNL A   1      39.643  20.798  26.164  1.00  0.00     0.251 C 
ATOM     30  H   UNL A   1      38.108  19.750  25.407  1.00  0.00     0.163 HD
ATOM     31  O   UNL A   1      40.457  19.892  26.028  1.00  0.00    -0.269 OA
BRANCH  29  32
ATOM     32  C   UNL A   1      40.027  22.076  26.788  1.00  0.00     0.039 A 
ATOM     33  C   UNL A   1      40.908  22.070  27.870  1.00  0.00     0.014 A 
ATOM     34  C   UNL A   1      39.584  23.278  26.228  1.00  0.00     0.014 A 
ATOM     35  C   UNL A   1      41.426  23.279  28.333  1.00  0.00     0.010 A 
ATOM     36  C   UNL A   1      40.159  24.471  26.641  1.00  0.00     0.010 A 
ATOM     37  C   UNL A   1      41.097  24.482  27.686  1.00  0.00    -0.014 A 
BRANCH  37  38
ATOM     38  C   UNL A   1      41.738  25.769  28.052  1.00  0.00     0.031 A 
ATOM     39  C   UNL A   1      40.924  26.833  28.732  1.00  0.00     0.074 A 
ATOM     40  C   UNL A   1      43.002  26.016  27.657  1.00  0.00     0.049 A 
ATOM     41  N   UNL A   1      41.233  28.078  28.977  1.00  0.00    -0.248 NA
ATOM     42  C   UNL A   1      39.568  26.453  29.154  1.00  0.00     0.031 C 
ATOM     43  C   UNL A   1      43.867  25.072  26.942  1.00  0.00     0.029 A 
ATOM     44  N   UNL A   1      43.773  27.146  27.772  1.00  0.00    -0.354 N 
ATOM     45  C   UNL A   1      40.100  28.642  29.552  1.00  0.00     0.074 A 
ATOM     46  C   UNL A   1      39.084  27.611  29.578  1.00  0.00     0.031 C 
ATOM     47  C   UNL A   1      45.045  25.663  26.684  1.00  0.00     0.029 A 
ATOM     48  C   UNL A   1      45.005  27.038  27.168  1.00  0.00     0.049 A 
ATOM     49  H   UNL A   1      43.472  27.957  28.241  1.00  0.00     0.167 HD
ATOM     50  C   UNL A   1      39.932  29.899  30.028  1.00  0.00     0.034 A 
ATOM     51  C   UNL A   1      45.979  27.955  26.996  1.00  0.00     0.034 A 
ATOM     52  C   UNL A   1      40.970  30.899  30.024  1.00  0.00     0.049 A 
ATOM     53  C   UNL A   1      45.767  29.346  27.534  1.00  0.00     0.074 A 
ATOM     54  C   UNL A   1      40.946  32.167  30.577  1.00  0.00     0.029 A 
ATOM     55  N   UNL A   1      42.215  30.747  29.428  1.00  0.00    -0.354 N 
ATOM     56  N   UNL A   1      44.715  29.842  28.144  1.00  0.00    -0.248 NA
ATOM     57  C   UNL A   1      46.870  30.300  27.362  1.00  0.00     0.031 C 
ATOM     58  C   UNL A   1      42.152  32.803  30.262  1.00  0.00     0.029 A 
ATOM     59  C   UNL A   1      42.953  31.912  29.566  1.00  0.00     0.049 A 
ATOM     60  H   UNL A   1      42.528  29.931  28.974  1.00  0.00     0.167 HD
ATOM     61  C   UNL A   1      45.039  31.162  28.444  1.00  0.00     0.074 A 
ATOM     62  C   UNL A   1      46.389  31.377  27.965  1.00  0.00     0.031 C 
ATOM     63  C   UNL A   1      44.291  32.110  29.063  1.00  0.00     0.034 A 
BRANCH  50  64
ATOM     64  C   UNL A   1      38.572  30.266  30.566  1.00  0.00     0.023 A 
ATOM     65  C   UNL A   1      37.593  30.866  29.755  1.00  0.00     0.031 A 
ATOM     66  C   UNL A   1      38.256  30.028  31.915  1.00  0.00     0.131 A 
ATOM     67  C   UNL A   1      36.372  31.269  30.315  1.00  0.00     0.055 A 
ATOM     68  C   UNL A   1      37.012  30.364  32.449  1.00  0.00     0.041 A 
ATOM     69  F   UNL A   1      39.159  29.476  32.741  1.00  0.00    -0.206 F 
ATOM     70  C   UNL A   1      36.065  31.001  31.651  1.00  0.00     0.022 A 
BRANCH  67  71
ATOM     71  S   UNL A   1      35.240  32.260  29.303  1.00  0.00     0.124 S 
ATOM     72  O   UNL A   1      34.724  31.259  28.373  1.00  0.00    -0.237 OA
ATOM     73  O   UNL A   1      34.293  32.764  30.290  1.00  0.00    -0.237 OA
ATOM     74  O   UNL A   1      36.110  33.269  28.702  1.00  0.00    -0.744 OA
ENDBRANCH  67  71
ENDBRANCH  50  64
BRANCH  51  75
ATOM     75  C   UNL A   1      47.224  27.607  26.253  1.00  0.00     0.023 A 
ATOM     76  C   UNL A   1      47.335  27.848  24.875  1.00  0.00     0.031 A 
ATOM     77  C   UNL A   1      48.306  26.988  26.905  1.00  0.00     0.131 A 
ATOM     78  C   UNL A   1      48.483  27.430  24.183  1.00  0.00     0.055 A 
ATOM     79  C   UNL A   1      49.465  26.619  26.221  1.00  0.00     0.041 A 
ATOM     80  F   UNL A   1      48.254  26.743  28.224  1.00  0.00    -0.206 F 
ATOM     81  C   UNL A   1      49.552  26.826  24.848  1.00  0.00     0.022 A 
BRANCH  78  82
ATOM     82  S   UNL A   1      48.522  27.610  22.378  1.00  0.00     0.124 S 
ATOM     83  O   UNL A   1      49.736  28.393  22.183  1.00  0.00    -0.237 OA
ATOM     84  O   UNL A   1      48.578  26.220  21.939  1.00  0.00    -0.237 OA
ATOM     85  O   UNL A   1      47.273  28.307  22.079  1.00  0.00    -0.744 OA
ENDBRANCH  78  82
ENDBRANCH  51  75
BRANCH  63  86
ATOM     86  C   UNL A   1      44.936  33.454  29.275  1.00  0.00     0.023 A 
ATOM     87  C   UNL A   1      44.823  34.480  28.321  1.00  0.00     0.031 A 
ATOM     88  C   UNL A   1      45.671  33.711  30.445  1.00  0.00     0.131 A 
ATOM     89  C   UNL A   1      45.472  35.704  28.536  1.00  0.00     0.055 A 
ATOM     90  C   UNL A   1      46.270  34.949  30.678  1.00  0.00     0.041 A 
ATOM     91  F   UNL A   1      45.810  32.762  31.386  1.00  0.00    -0.206 F 
ATOM     92  C   UNL A   1      46.180  35.950  29.715  1.00  0.00     0.022 A 
BRANCH  89  93
ATOM     93  S   UNL A   1      45.429  36.955  27.223  1.00  0.00     0.124 S 
ATOM     94  O   UNL A   1      44.002  37.039  26.933  1.00  0.00    -0.237 OA
ATOM     95  O   UNL A   1      46.016  38.119  27.880  1.00  0.00    -0.237 OA
ATOM     96  O   UNL A   1      46.245  36.367  26.163  1.00  0.00    -0.744 OA
ENDBRANCH  89  93
ENDBRANCH  63  86
ENDBRANCH  37  38
ENDBRANCH  29  32
ENDBRANCH  27  28
ENDBRANCH   1  27
TORSDOF 15
ENDMDL
MODEL 2
REMARK VINA RESULT:     -13.2      0.636      7.356
REMARK SMILES CN1C(=O)C[C@@H](C(=O)NCCCCNC(=O)c2ccc(-c3c4nc(c(-c5cc(S(=O)(=O)[O-])ccc5F)c5ccc([nH]5)c(-c5cc(S(=O)(=O)[O-])ccc5F)c5nc(c(-c6cc(S(=O)(=O)[O-])ccc6F)c6ccc3[nH]6)C=C5)C=C4)cc2)C12CCN(c1ccc(Cl)cn1)CC2
REMARK SMILES IDX 12 1 11 2 10 3 9 4 7 5 8 6 6 8 1 9 2 10 3 11 80 12 4 13 5 14
REMARK SMILES IDX 81 15 92 16 82 17 91 18 83 19 84 20 85 21 90 22 86 23 89 24
REMARK SMILES IDX 87 25 88 26 13 27 14 28 15 29 16 31 17 32 18 33 79 34 19 35
REMARK SMILES IDX 78 36 20 37 21 38 22 39 72 40 23 41 77 42 71 43 73 44 24 45
REMARK SMILES IDX 76 46 70 47 69 48 25 50 57 51 37 52 56 53 38 54 41 55 55 56
REMARK SMILES IDX 74 57 39 58 40 59 54 61 75 62 42 63 26 64 27 65 35 66 28 67
REMARK SMILES IDX 34 68 36 69 33 70 29 71 30 72 31 73 32 74 58 75 59 76 67 77
REMARK SMILES IDX 60 78 66 79 68 80 65 81 61 82 62 83 63 84 64 85 43 86 44 87
REMARK SMILES IDX 52 88 45 89 51 90 53 91 50 92 46 93 47 94 48 95 49 96
REMARK H PARENT 9 7 14 30 73 49 41 60
REMARK Flexibility Score: inf
ROOT
ATOM      1  C   UNL A   1      36.155  21.000  24.543  1.00  0.00     0.023 C 
ENDROOT
BRANCH   1   2
ATOM      2  C   UNL A   1      34.807  20.683  25.186  1.00  0.00     0.023 C 
BRANCH   2   3
ATOM      3  C   UNL A   1      33.614  21.387  24.538  1.00  0.00     0.116 C 
BRANCH   3   4
ATOM      4  N   UNL A   1      33.988  22.509  23.693  1.00  0.00    -0.356 N 
ATOM      5  C   UNL A   1      33.999  23.852  23.873  1.00  0.00     0.226 C 
ATOM      6  O   UNL A   1      34.425  24.526  22.927  1.00  0.00    -0.275 OA
ATOM      7  H   UNL A   1      34.298  22.235  22.800  1.00  0.00     0.163 HD
BRANCH   5   8
ATOM      8  C   UNL A   1      33.505  24.587  25.122  1.00  0.00     0.113 C 
ATOM      9  C   UNL A   1      30.313  23.347  26.655  1.00  0.00     0.147 C 
ATOM     10  N   UNL A   1      31.653  23.730  26.256  1.00  0.00    -0.339 N 
ATOM     11  C   UNL A   1      32.749  23.343  27.020  1.00  0.00     0.223 C 
ATOM     12  C   UNL A   1      31.980  24.796  25.291  1.00  0.00     0.058 C 
ATOM     13  O   UNL A   1      32.727  22.623  28.004  1.00  0.00    -0.275 OA
ATOM     14  C   UNL A   1      33.990  23.946  26.423  1.00  0.00     0.116 C 
ATOM     15  C   UNL A   1      31.192  24.693  23.965  1.00  0.00     0.051 C 
ATOM     16  C   UNL A   1      31.688  26.175  25.971  1.00  0.00     0.051 C 
ATOM     17  C   UNL A   1      31.368  25.914  23.079  1.00  0.00     0.120 C 
ATOM     18  C   UNL A   1      31.745  27.376  25.013  1.00  0.00     0.120 C 
ATOM     19  N   UNL A   1      30.926  27.055  23.859  1.00  0.00    -0.356 N 
BRANCH  19  20
ATOM     20  C   UNL A   1      30.187  28.028  23.220  1.00  0.00     0.128 A 
ATOM     21  C   UNL A   1      28.794  28.024  23.355  1.00  0.00     0.048 A 
ATOM     22  N   UNL A   1      30.814  28.975  22.494  1.00  0.00    -0.238 NA
ATOM     23  C   UNL A   1      28.020  28.988  22.713  1.00  0.00     0.026 A 
ATOM     24  C   UNL A   1      30.040  29.888  21.852  1.00  0.00     0.134 A 
ATOM     25  C   UNL A   1      28.658  29.934  21.932  1.00  0.00     0.059 A 
ATOM     26  Cl  UNL A   1      27.757  31.133  21.102  1.00  0.00    -0.083 Cl
ENDBRANCH  19  20
ENDBRANCH   5   8
ENDBRANCH   3   4
ENDBRANCH   2   3
ENDBRANCH   1   2
BRANCH   1  27
ATOM     27  C   UNL A   1      37.190  21.556  25.512  1.00  0.00     0.116 C 
BRANCH  27  28
ATOM     28  N   UNL A   1      38.279  20.619  25.766  1.00  0.00    -0.352 N 
ATOM     29  C   UNL A   1      39.540  20.875  26.248  1.00  0.00     0.251 C 
ATOM     30  H   UNL A   1      38.084  19.675  25.563  1.00  0.00     0.163 HD
ATOM     31  O   UNL A   1      40.397  19.999  26.249  1.00  0.00    -0.269 OA
BRANCH  29  32
ATOM     32  C   UNL A   1      39.843  22.234  26.730  1.00  0.00     0.039 A 
ATOM     33  C   UNL A   1      40.855  22.412  27.674  1.00  0.00     0.014 A 
ATOM     34  C   UNL A   1      39.184  23.329  26.166  1.00  0.00     0.014 A 
ATOM     35  C   UNL A   1      41.277  23.705  27.984  1.00  0.00     0.010 A 
ATOM     36  C   UNL A   1      39.657  24.609  26.420  1.00  0.00     0.010 A 
ATOM     37  C   UNL A   1      40.718  24.808  27.318  1.00  0.00    -0.014 A 
BRANCH  37  38
ATOM     38  C   UNL A   1      41.238  26.185  27.508  1.00  0.00     0.031 A 
ATOM     39  C   UNL A   1      42.607  26.535  27.000  1.00  0.00     0.074 A 
ATOM     40  C   UNL A   1      40.530  27.064  28.244  1.00  0.00     0.049 A 
ATOM     41  N   UNL A   1      43.316  27.611  27.212  1.00  0.00    -0.248 NA
ATOM     42  C   UNL A   1      43.282  25.520  26.179  1.00  0.00     0.031 C 
ATOM     43  C   UNL A   1      39.212  26.811  28.832  1.00  0.00     0.029 A 
ATOM     44  N   UNL A   1      40.832  28.340  28.651  1.00  0.00    -0.354 N 
ATOM     45  C   UNL A   1      44.534  27.392  26.578  1.00  0.00     0.074 A 
ATOM     46  C   UNL A   1      44.480  26.061  26.012  1.00  0.00     0.031 C 
ATOM     47  C   UNL A   1      38.821  27.896  29.522  1.00  0.00     0.029 A 
ATOM     48  C   UNL A   1      39.877  28.900  29.469  1.00  0.00     0.049 A 
ATOM     49  H   UNL A   1      41.655  28.810  28.384  1.00  0.00     0.167 HD
ATOM     50  C   UNL A   1      45.591  28.232  26.467  1.00  0.00     0.034 A 
ATOM     51  C   UNL A   1      39.868  30.077  30.127  1.00  0.00     0.034 A 
ATOM     52  C   UNL A   1      45.608  29.567  27.009  1.00  0.00     0.049 A 
ATOM     53  C   UNL A   1      41.057  30.992  29.988  1.00  0.00     0.074 A 
ATOM     54  C   UNL A   1      46.579  30.543  26.865  1.00  0.00     0.029 A 
ATOM     55  N   UNL A   1      44.612  30.112  27.810  1.00  0.00    -0.354 N 
ATOM     56  N   UNL A   1      42.171  30.800  29.321  1.00  0.00    -0.248 NA
ATOM     57  C   UNL A   1      40.987  32.283  30.687  1.00  0.00     0.031 C 
ATOM     58  C   UNL A   1      46.200  31.653  27.627  1.00  0.00     0.029 A 
ATOM     59  C   UNL A   1      44.963  31.395  28.198  1.00  0.00     0.049 A 
ATOM     60  H   UNL A   1      43.779  29.654  28.064  1.00  0.00     0.167 HD
ATOM     61  C   UNL A   1      42.928  31.953  29.507  1.00  0.00     0.074 A 
ATOM     62  C   UNL A   1      42.134  32.842  30.332  1.00  0.00     0.031 C 
ATOM     63  C   UNL A   1      44.164  32.255  29.036  1.00  0.00     0.034 A 
BRANCH  50  64
ATOM     64  C   UNL A   1      46.818  27.720  25.757  1.00  0.00     0.023 A 
ATOM     65  C   UNL A   1      47.069  28.018  24.406  1.00  0.00     0.031 A 
ATOM     66  C   UNL A   1      47.743  26.908  26.436  1.00  0.00     0.131 A 
ATOM     67  C   UNL A   1      48.177  27.452  23.759  1.00  0.00     0.055 A 
ATOM     68  C   UNL A   1      48.884  26.409  25.807  1.00  0.00     0.041 A 
ATOM     69  F   UNL A   1      47.544  26.575  27.721  1.00  0.00    -0.206 F 
ATOM     70  C   UNL A   1      49.100  26.669  24.457  1.00  0.00     0.022 A 
BRANCH  67  71
ATOM     71  S   UNL A   1      48.329  27.654  21.964  1.00  0.00     0.124 S 
ATOM     72  O   UNL A   1      48.556  26.278  21.531  1.00  0.00    -0.237 OA
ATOM     73  O   UNL A   1      47.042  28.235  21.602  1.00  0.00    -0.237 OA
ATOM     74  O   UNL A   1      49.479  28.545  21.815  1.00  0.00    -0.744 OA
ENDBRANCH  67  71
ENDBRANCH  50  64
BRANCH  51  75
ATOM     75  C   UNL A   1      38.722  30.445  31.006  1.00  0.00     0.023 A 
ATOM     76  C   UNL A   1      37.623  31.157  30.501  1.00  0.00     0.031 A 
ATOM     77  C   UNL A   1      38.730  30.128  32.376  1.00  0.00     0.131 A 
ATOM     78  C   UNL A   1      36.598  31.569  31.368  1.00  0.00     0.055 A 
ATOM     79  C   UNL A   1      37.686  30.497  33.225  1.00  0.00     0.041 A 
ATOM     80  F   UNL A   1      39.754  29.441  32.908  1.00  0.00    -0.206 F 
ATOM     81  C   UNL A   1      36.617  31.236  32.724  1.00  0.00     0.022 A 
BRANCH  78  82
ATOM     82  S   UNL A   1      35.278  32.625  30.711  1.00  0.00     0.124 S 
ATOM     83  O   UNL A   1      34.316  32.615  31.807  1.00  0.00    -0.237 OA
ATOM     84  O   UNL A   1      35.983  33.883  30.488  1.00  0.00    -0.237 OA
ATOM     85  O   UNL A   1      34.854  31.926  29.500  1.00  0.00    -0.744 OA
ENDBRANCH  78  82
ENDBRANCH  51  75
BRANCH  63  86
ATOM     86  C   UNL A   1      44.714  33.612  29.388  1.00  0.00     0.023 A 
ATOM     87  C   UNL A   1      44.377  34.755  28.642  1.00  0.00     0.031 A 
ATOM     88  C   UNL A   1      45.582  33.763  30.482  1.00  0.00     0.131 A 
ATOM     89  C   UNL A   1      44.942  35.995  28.976  1.00  0.00     0.055 A 
ATOM     90  C   UNL A   1      46.099  35.008  30.842  1.00  0.00     0.041 A 
ATOM     91  F   UNL A   1      45.935  32.701  31.225  1.00  0.00    -0.206 F 
ATOM     92  C   UNL A   1      45.787  36.131  30.080  1.00  0.00     0.022 A 
BRANCH  89  93
ATOM     93  S   UNL A   1      44.605  37.421  27.908  1.00  0.00     0.124 S 
ATOM     94  O   UNL A   1      43.810  36.820  26.842  1.00  0.00    -0.237 OA
ATOM     95  O   UNL A   1      43.889  38.323  28.805  1.00  0.00    -0.237 OA
ATOM     96  O   UNL A   1      45.936  37.874  27.510  1.00  0.00    -0.744 OA
ENDBRANCH  89  93
ENDBRANCH  63  86
ENDBRANCH  37  38
ENDBRANCH  29  32
ENDBRANCH  27  28
ENDBRANCH   1  27
TORSDOF 15
ENDMDL
MODEL 3
REMARK VINA RESULT:     -13.2      5.882     10.866
REMARK SMILES CN1C(=O)C[C@@H](C(=O)NCCCCNC(=O)c2ccc(-c3c4nc(c(-c5cc(S(=O)(=O)[O-])ccc5F)c5ccc([nH]5)c(-c5cc(S(=O)(=O)[O-])ccc5F)c5nc(c(-c6cc(S(=O)(=O)[O-])ccc6F)c6ccc3[nH]6)C=C5)C=C4)cc2)C12CCN(c1ccc(Cl)cn1)CC2
REMARK SMILES IDX 12 1 11 2 10 3 9 4 7 5 8 6 6 8 1 9 2 10 3 11 80 12 4 13 5 14
REMARK SMILES IDX 81 15 92 16 82 17 91 18 83 19 84 20 85 21 90 22 86 23 89 24
REMARK SMILES IDX 87 25 88 26 13 27 14 28 15 29 16 31 17 32 18 33 79 34 19 35
REMARK SMILES IDX 78 36 20 37 21 38 22 39 72 40 23 41 77 42 71 43 73 44 24 45
REMARK SMILES IDX 76 46 70 47 69 48 25 50 57 51 37 52 56 53 38 54 41 55 55 56
REMARK SMILES IDX 74 57 39 58 40 59 54 61 75 62 42 63 26 64 27 65 35 66 28 67
REMARK SMILES IDX 34 68 36 69 33 70 29 71 30 72 31 73 32 74 58 75 59 76 67 77
REMARK SMILES IDX 60 78 66 79 68 80 65 81 61 82 62 83 63 84 64 85 43 86 44 87
REMARK SMILES IDX 52 88 45 89 51 90 53 91 50 92 46 93 47 94 48 95 49 96
REMARK H PARENT 9 7 14 30 73 49 41 60
REMARK Flexibility Score: inf
ROOT
ATOM      1  C   UNL A   1      32.630  30.562  27.191  1.00  0.00     0.023 C 
ENDROOT
BRANCH   1   2
ATOM      2  C   UNL A   1      31.531  30.849  26.172  1.00  0.00     0.023 C 
BRANCH   2   3
ATOM      3  C   UNL A   1      31.405  29.803  25.064  1.00  0.00     0.116 C 
BRANCH   3   4
ATOM      4  N   UNL A   1      32.649  29.550  24.356  1.00  0.00    -0.356 N 
ATOM      5  C   UNL A   1      33.026  28.646  23.419  1.00  0.00     0.226 C 
ATOM      6  O   UNL A   1      34.185  28.745  22.999  1.00  0.00    -0.275 OA
ATOM      7  H   UNL A   1      33.373  30.166  24.613  1.00  0.00     0.163 HD
BRANCH   5   8
ATOM      8  C   UNL A   1      32.152  27.514  22.874  1.00  0.00     0.113 C 
ATOM      9  C   UNL A   1      29.733  25.946  25.274  1.00  0.00     0.147 C 
ATOM     10  N   UNL A   1      30.472  26.648  24.244  1.00  0.00    -0.339 N 
ATOM     11  C   UNL A   1      29.808  27.478  23.348  1.00  0.00     0.223 C 
ATOM     12  C   UNL A   1      31.841  26.317  23.806  1.00  0.00     0.058 C 
ATOM     13  O   UNL A   1      28.621  27.758  23.364  1.00  0.00    -0.275 OA
ATOM     14  C   UNL A   1      30.802  28.002  22.348  1.00  0.00     0.116 C 
ATOM     15  C   UNL A   1      32.843  26.166  24.973  1.00  0.00     0.051 C 
ATOM     16  C   UNL A   1      31.783  24.985  22.988  1.00  0.00     0.051 C 
ATOM     17  C   UNL A   1      34.184  25.608  24.529  1.00  0.00     0.120 C 
ATOM     18  C   UNL A   1      33.158  24.377  22.670  1.00  0.00     0.120 C 
ATOM     19  N   UNL A   1      33.910  24.325  23.910  1.00  0.00    -0.356 N 
BRANCH  19  20
ATOM     20  C   UNL A   1      34.774  23.283  24.173  1.00  0.00     0.128 A 
ATOM     21  C   UNL A   1      36.040  23.279  23.574  1.00  0.00     0.048 A 
ATOM     22  N   UNL A   1      34.399  22.299  25.013  1.00  0.00    -0.238 NA
ATOM     23  C   UNL A   1      36.930  22.235  23.812  1.00  0.00     0.026 A 
ATOM     24  C   UNL A   1      35.270  21.275  25.209  1.00  0.00     0.134 A 
ATOM     25  C   UNL A   1      36.530  21.202  24.639  1.00  0.00     0.059 A 
ATOM     26  Cl  UNL A   1      37.575  19.880  24.953  1.00  0.00    -0.083 Cl
ENDBRANCH  19  20
ENDBRANCH   5   8
ENDBRANCH   3   4
ENDBRANCH   2   3
ENDBRANCH   1   2
BRANCH   1  27
ATOM     27  C   UNL A   1      33.695  31.648  27.280  1.00  0.00     0.116 C 
BRANCH  27  28
ATOM     28  N   UNL A   1      33.125  32.976  27.478  1.00  0.00    -0.352 N 
ATOM     29  C   UNL A   1      33.424  33.905  28.444  1.00  0.00     0.251 C 
ATOM     30  H   UNL A   1      32.432  33.242  26.831  1.00  0.00     0.163 HD
ATOM     31  O   UNL A   1      32.738  34.912  28.575  1.00  0.00    -0.269 OA
BRANCH  29  32
ATOM     32  C   UNL A   1      34.567  33.645  29.338  1.00  0.00     0.039 A 
ATOM     33  C   UNL A   1      34.399  32.793  30.429  1.00  0.00     0.014 A 
ATOM     34  C   UNL A   1      35.822  34.174  29.024  1.00  0.00     0.014 A 
ATOM     35  C   UNL A   1      35.518  32.390  31.157  1.00  0.00     0.010 A 
ATOM     36  C   UNL A   1      36.941  33.712  29.703  1.00  0.00     0.010 A 
ATOM     37  C   UNL A   1      36.801  32.803  30.764  1.00  0.00    -0.014 A 
BRANCH  37  38
ATOM     38  C   UNL A   1      38.027  32.282  31.418  1.00  0.00     0.031 A 
ATOM     39  C   UNL A   1      38.814  31.191  30.751  1.00  0.00     0.074 A 
ATOM     40  C   UNL A   1      38.348  32.704  32.657  1.00  0.00     0.049 A 
ATOM     41  N   UNL A   1      39.802  30.479  31.223  1.00  0.00    -0.248 NA
ATOM     42  C   UNL A   1      38.406  30.827  29.386  1.00  0.00     0.031 C 
ATOM     43  C   UNL A   1      37.621  33.722  33.422  1.00  0.00     0.029 A 
ATOM     44  N   UNL A   1      39.349  32.307  33.509  1.00  0.00    -0.354 N 
ATOM     45  C   UNL A   1      40.114  29.560  30.227  1.00  0.00     0.074 A 
ATOM     46  C   UNL A   1      39.179  29.780  29.144  1.00  0.00     0.031 C 
ATOM     47  C   UNL A   1      38.201  33.868  34.624  1.00  0.00     0.029 A 
ATOM     48  C   UNL A   1      39.306  32.923  34.738  1.00  0.00     0.049 A 
ATOM     49  H   UNL A   1      40.033  31.644  33.262  1.00  0.00     0.167 HD
ATOM     50  C   UNL A   1      41.100  28.632  30.215  1.00  0.00     0.034 A 
ATOM     51  C   UNL A   1      40.053  32.726  35.843  1.00  0.00     0.034 A 
ATOM     52  C   UNL A   1      42.042  28.454  31.291  1.00  0.00     0.049 A 
ATOM     53  C   UNL A   1      41.142  31.686  35.804  1.00  0.00     0.074 A 
ATOM     54  C   UNL A   1      43.146  27.621  31.341  1.00  0.00     0.029 A 
ATOM     55  N   UNL A   1      41.986  29.114  32.512  1.00  0.00    -0.354 N 
ATOM     56  N   UNL A   1      41.474  30.876  34.825  1.00  0.00    -0.248 NA
ATOM     57  C   UNL A   1      41.960  31.534  37.015  1.00  0.00     0.031 C 
ATOM     58  C   UNL A   1      43.719  27.732  32.613  1.00  0.00     0.029 A 
ATOM     59  C   UNL A   1      43.011  28.679  33.335  1.00  0.00     0.049 A 
ATOM     60  H   UNL A   1      41.315  29.792  32.756  1.00  0.00     0.167 HD
ATOM     61  C   UNL A   1      42.549  30.130  35.298  1.00  0.00     0.074 A 
ATOM     62  C   UNL A   1      42.822  30.600  36.640  1.00  0.00     0.031 C 
ATOM     63  C   UNL A   1      43.252  29.149  34.678  1.00  0.00     0.034 A 
BRANCH  50  64
ATOM     64  C   UNL A   1      41.190  27.724  29.014  1.00  0.00     0.023 A 
ATOM     65  C   UNL A   1      42.177  27.898  28.027  1.00  0.00     0.031 A 
ATOM     66  C   UNL A   1      40.264  26.679  28.845  1.00  0.00     0.131 A 
ATOM     67  C   UNL A   1      42.173  27.086  26.884  1.00  0.00     0.055 A 
ATOM     68  C   UNL A   1      40.312  25.827  27.741  1.00  0.00     0.041 A 
ATOM     69  F   UNL A   1      39.289  26.479  29.744  1.00  0.00    -0.206 F 
ATOM     70  C   UNL A   1      41.262  26.036  26.745  1.00  0.00     0.022 A 
BRANCH  67  71
ATOM     71  S   UNL A   1      43.298  27.500  25.524  1.00  0.00     0.124 S 
ATOM     72  O   UNL A   1      42.383  28.103  24.558  1.00  0.00    -0.237 OA
ATOM     73  O   UNL A   1      44.244  28.408  26.163  1.00  0.00    -0.237 OA
ATOM     74  O   UNL A   1      43.848  26.205  25.127  1.00  0.00    -0.744 OA
ENDBRANCH  67  71
ENDBRANCH  50  64
BRANCH  51  75
ATOM     75  C   UNL A   1      39.779  33.495  37.091  1.00  0.00     0.023 A 
ATOM     76  C   UNL A   1      39.066  32.919  38.153  1.00  0.00     0.031 A 
ATOM     77  C   UNL A   1      40.189  34.834  37.220  1.00  0.00     0.131 A 
ATOM     78  C   UNL A   1      38.744  33.692  39.280  1.00  0.00     0.055 A 
ATOM     79  C   UNL A   1      39.908  35.584  38.363  1.00  0.00     0.041 A 
ATOM     80  F   UNL A   1      40.881  35.430  36.236  1.00  0.00    -0.206 F 
ATOM     81  C   UNL A   1      39.168  35.017  39.396  1.00  0.00     0.022 A 
BRANCH  78  82
ATOM     82  S   UNL A   1      37.684  32.963  40.559  1.00  0.00     0.124 S 
ATOM     83  O   UNL A   1      37.769  33.959  41.620  1.00  0.00    -0.237 OA
ATOM     84  O   UNL A   1      36.401  32.870  39.868  1.00  0.00    -0.237 OA
ATOM     85  O   UNL A   1      38.329  31.685  40.847  1.00  0.00    -0.744 OA
ENDBRANCH  78  82
ENDBRANCH  51  75
BRANCH  63  86
ATOM     86  C   UNL A   1      44.396  28.543  35.446  1.00  0.00     0.023 A 
ATOM     87  C   UNL A   1      44.191  27.506  36.373  1.00  0.00     0.031 A 
ATOM     88  C   UNL A   1      45.708  29.007  35.247  1.00  0.00     0.131 A 
ATOM     89  C   UNL A   1      45.277  26.996  37.099  1.00  0.00     0.055 A 
ATOM     90  C   UNL A   1      46.792  28.460  35.934  1.00  0.00     0.041 A 
ATOM     91  F   UNL A   1      45.956  29.998  34.374  1.00  0.00    -0.206 F 
ATOM     92  C   UNL A   1      46.578  27.455  36.873  1.00  0.00     0.022 A 
BRANCH  89  93
ATOM     93  S   UNL A   1      44.960  25.763  38.390  1.00  0.00     0.124 S 
ATOM     94  O   UNL A   1      44.180  26.530  39.355  1.00  0.00    -0.237 OA
ATOM     95  O   UNL A   1      44.233  24.726  37.663  1.00  0.00    -0.237 OA
ATOM     96  O   UNL A   1      46.298  25.382  38.836  1.00  0.00    -0.744 OA
ENDBRANCH  89  93
ENDBRANCH  63  86
ENDBRANCH  37  38
ENDBRANCH  29  32
ENDBRANCH  27  28
ENDBRANCH   1  27
TORSDOF 15
ENDMDL
