MODEL 1
REMARK VINA RESULT:     -13.6      0.000      0.000
REMARK SMILES Cc1nc(-c2ccccc2Cl)nc2sc(C(=O)NCCCCNC(=O)c3ccc(-c4c5nc(c(-c6cc(S(=O)(=O)[O-])ccc6F)c6ccc([nH]6)c(-c6cc(S(=O)(=O)[O-])ccc6F)c6nc(c(-c7cc(S(=O)(=O)[O-])ccc7F)c7ccc4[nH]7)C=C6)C=C5)cc3)c(N)c12
REMARK SMILES IDX 21 1 20 2 19 3 18 4 16 5 17 6 15 8 1 9 2 10 3 11 91 12 4 13
REMARK SMILES IDX 13 14 89 15 12 16 14 17 5 18 6 19 10 20 7 21 9 22 11 23 8 24
REMARK SMILES IDX 90 25 22 28 23 29 24 30 25 32 26 33 27 34 88 35 28 36 87 37
REMARK SMILES IDX 29 38 30 39 31 40 81 41 32 42 86 43 80 44 82 45 33 46 85 47
REMARK SMILES IDX 79 48 78 49 34 51 66 52 46 53 65 54 47 55 50 56 64 57 83 58
REMARK SMILES IDX 48 59 49 60 63 62 84 63 51 64 35 65 36 66 44 67 37 68 43 69
REMARK SMILES IDX 45 70 42 71 38 72 39 73 40 74 41 75 67 76 68 77 76 78 69 79
REMARK SMILES IDX 75 80 77 81 74 82 70 83 71 84 72 85 73 86 52 87 53 88 61 89
REMARK SMILES IDX 54 90 60 91 62 92 59 93 55 94 56 95 57 96 58 97
REMARK H PARENT 18 7 90 26 90 27 23 31 82 50 50 61
REMARK Flexibility Score: inf
ROOT
ATOM      1  C   UNL A   1      32.631  29.985  27.248  1.00  0.00     0.023 C 
ENDROOT
BRANCH   1   2
ATOM      2  C   UNL A   1      32.917  28.478  27.215  1.00  0.00     0.023 C 
BRANCH   2   3
ATOM      3  C   UNL A   1      33.460  27.935  25.883  1.00  0.00     0.116 C 
BRANCH   3   4
ATOM      4  N   UNL A   1      32.568  28.203  24.761  1.00  0.00    -0.351 N 
ATOM      5  C   UNL A   1      31.722  27.397  24.017  1.00  0.00     0.263 C 
ATOM      6  O   UNL A   1      30.999  28.000  23.216  1.00  0.00    -0.268 OA
ATOM      7  H   UNL A   1      32.565  29.144  24.475  1.00  0.00     0.163 HD
BRANCH   5   8
ATOM      8  C   UNL A   1      31.644  25.945  24.170  1.00  0.00     0.118 A 
ATOM      9  C   UNL A   1      29.880  22.621  26.959  1.00  0.00     0.067 C 
ATOM     10  C   UNL A   1      30.859  22.642  25.826  1.00  0.00     0.052 A 
ATOM     11  N   UNL A   1      31.433  21.439  25.505  1.00  0.00    -0.233 NA
ATOM     12  C   UNL A   1      31.230  23.790  25.089  1.00  0.00     0.056 A 
ATOM     13  C   UNL A   1      32.269  21.373  24.453  1.00  0.00     0.162 A 
ATOM     14  C   UNL A   1      32.037  23.535  23.997  1.00  0.00     0.130 A 
ATOM     15  C   UNL A   1      30.993  25.217  25.171  1.00  0.00     0.067 A 
ATOM     16  N   UNL A   1      32.578  22.373  23.635  1.00  0.00    -0.217 NA
ATOM     17  S   UNL A   1      32.278  24.871  23.014  1.00  0.00    -0.108 S 
BRANCH  13  18
ATOM     18  C   UNL A   1      32.932  20.120  24.109  1.00  0.00     0.038 A 
ATOM     19  C   UNL A   1      32.228  19.163  23.347  1.00  0.00     0.013 A 
ATOM     20  C   UNL A   1      34.163  19.746  24.667  1.00  0.00     0.052 A 
ATOM     21  C   UNL A   1      32.720  17.869  23.172  1.00  0.00     0.001 A 
ATOM     22  C   UNL A   1      34.655  18.447  24.490  1.00  0.00     0.021 A 
ATOM     23  Cl  UNL A   1      35.087  20.818  25.662  1.00  0.00    -0.084 Cl
ATOM     24  C   UNL A   1      33.930  17.508  23.754  1.00  0.00     0.002 A 
ENDBRANCH  13  18
BRANCH  15  25
ATOM     25  N   UNL A   1      30.272  25.814  26.146  1.00  0.00    -0.397 N 
ATOM     26  H   UNL A   1      30.647  25.900  27.053  1.00  0.00     0.156 HD
ATOM     27  H   UNL A   1      29.373  26.164  25.951  1.00  0.00     0.156 HD
ENDBRANCH  15  25
ENDBRANCH   5   8
ENDBRANCH   3   4
ENDBRANCH   2   3
ENDBRANCH   1   2
BRANCH   1  28
ATOM     28  C   UNL A   1      33.872  30.869  27.254  1.00  0.00     0.116 C 
BRANCH  28  29
ATOM     29  N   UNL A   1      33.880  31.846  28.344  1.00  0.00    -0.352 N 
ATOM     30  C   UNL A   1      34.751  31.907  29.420  1.00  0.00     0.251 C 
ATOM     31  H   UNL A   1      33.183  32.540  28.308  1.00  0.00     0.163 HD
ATOM     32  O   UNL A   1      34.433  32.475  30.450  1.00  0.00    -0.269 OA
BRANCH  30  33
ATOM     33  C   UNL A   1      36.072  31.263  29.279  1.00  0.00     0.039 A 
ATOM     34  C   UNL A   1      37.249  32.012  29.225  1.00  0.00     0.014 A 
ATOM     35  C   UNL A   1      36.107  29.872  29.267  1.00  0.00     0.014 A 
ATOM     36  C   UNL A   1      38.472  31.342  29.258  1.00  0.00     0.010 A 
ATOM     37  C   UNL A   1      37.305  29.224  29.447  1.00  0.00     0.010 A 
ATOM     38  C   UNL A   1      38.494  29.945  29.398  1.00  0.00    -0.014 A 
BRANCH  38  39
ATOM     39  C   UNL A   1      39.753  29.230  29.596  1.00  0.00     0.031 A 
ATOM     40  C   UNL A   1      40.108  28.921  31.010  1.00  0.00     0.074 A 
ATOM     41  C   UNL A   1      40.456  28.680  28.582  1.00  0.00     0.049 A 
ATOM     42  N   UNL A   1      41.098  29.394  31.692  1.00  0.00    -0.248 NA
ATOM     43  C   UNL A   1      39.204  28.072  31.801  1.00  0.00     0.031 C 
ATOM     44  C   UNL A   1      40.122  28.630  27.155  1.00  0.00     0.029 A 
ATOM     45  N   UNL A   1      41.586  27.928  28.646  1.00  0.00    -0.354 N 
ATOM     46  C   UNL A   1      41.076  28.748  32.924  1.00  0.00     0.074 A 
ATOM     47  C   UNL A   1      39.801  28.081  32.996  1.00  0.00     0.031 C 
ATOM     48  C   UNL A   1      40.875  27.688  26.547  1.00  0.00     0.029 A 
ATOM     49  C   UNL A   1      41.861  27.200  27.493  1.00  0.00     0.049 A 
ATOM     50  H   UNL A   1      42.163  27.899  29.444  1.00  0.00     0.167 HD
ATOM     51  C   UNL A   1      42.196  28.651  33.697  1.00  0.00     0.034 A 
ATOM     52  C   UNL A   1      42.815  26.246  27.338  1.00  0.00     0.034 A 
ATOM     53  C   UNL A   1      43.224  29.561  33.248  1.00  0.00     0.049 A 
ATOM     54  C   UNL A   1      43.857  26.545  28.355  1.00  0.00     0.074 A 
ATOM     55  C   UNL A   1      43.287  30.930  33.068  1.00  0.00     0.029 A 
ATOM     56  N   UNL A   1      44.265  29.049  32.504  1.00  0.00    -0.354 N 
ATOM     57  N   UNL A   1      44.555  27.651  28.358  1.00  0.00    -0.248 NA
ATOM     58  C   UNL A   1      43.774  25.863  29.638  1.00  0.00     0.031 C 
ATOM     59  C   UNL A   1      43.974  31.098  31.828  1.00  0.00     0.029 A 
ATOM     60  C   UNL A   1      44.367  29.835  31.380  1.00  0.00     0.049 A 
ATOM     61  H   UNL A   1      44.828  28.274  32.733  1.00  0.00     0.167 HD
ATOM     62  C   UNL A   1      44.621  28.030  29.690  1.00  0.00     0.074 A 
ATOM     63  C   UNL A   1      44.203  26.844  30.440  1.00  0.00     0.031 C 
ATOM     64  C   UNL A   1      44.731  29.339  30.065  1.00  0.00     0.034 A 
BRANCH  51  65
ATOM     65  C   UNL A   1      42.498  27.529  34.663  1.00  0.00     0.023 A 
ATOM     66  C   UNL A   1      43.232  26.425  34.185  1.00  0.00     0.031 A 
ATOM     67  C   UNL A   1      41.878  27.362  35.921  1.00  0.00     0.131 A 
ATOM     68  C   UNL A   1      43.270  25.217  34.904  1.00  0.00     0.055 A 
ATOM     69  C   UNL A   1      41.972  26.181  36.662  1.00  0.00     0.041 A 
ATOM     70  F   UNL A   1      41.071  28.288  36.452  1.00  0.00    -0.206 F 
ATOM     71  C   UNL A   1      42.647  25.089  36.144  1.00  0.00     0.022 A 
BRANCH  68  72
ATOM     72  S   UNL A   1      44.014  23.763  34.119  1.00  0.00     0.124 S 
ATOM     73  O   UNL A   1      45.080  23.430  35.058  1.00  0.00    -0.237 OA
ATOM     74  O   UNL A   1      42.888  22.838  34.068  1.00  0.00    -0.237 OA
ATOM     75  O   UNL A   1      44.463  24.270  32.823  1.00  0.00    -0.744 OA
ENDBRANCH  68  72
ENDBRANCH  51  65
BRANCH  52  76
ATOM     76  C   UNL A   1      42.686  24.950  26.608  1.00  0.00     0.023 A 
ATOM     77  C   UNL A   1      43.638  24.524  25.655  1.00  0.00     0.031 A 
ATOM     78  C   UNL A   1      41.735  23.985  27.015  1.00  0.00     0.131 A 
ATOM     79  C   UNL A   1      43.616  23.195  25.163  1.00  0.00     0.055 A 
ATOM     80  C   UNL A   1      41.714  22.677  26.520  1.00  0.00     0.041 A 
ATOM     81  F   UNL A   1      40.840  24.247  27.980  1.00  0.00    -0.206 F 
ATOM     82  C   UNL A   1      42.664  22.273  25.600  1.00  0.00     0.022 A 
BRANCH  79  83
ATOM     83  S   UNL A   1      44.917  22.602  24.031  1.00  0.00     0.124 S 
ATOM     84  O   UNL A   1      45.800  23.759  23.949  1.00  0.00    -0.237 OA
ATOM     85  O   UNL A   1      45.441  21.435  24.732  1.00  0.00    -0.237 OA
ATOM     86  O   UNL A   1      44.181  22.297  22.804  1.00  0.00    -0.744 OA
ENDBRANCH  79  83
ENDBRANCH  52  76
BRANCH  64  87
ATOM     87  C   UNL A   1      45.028  30.392  29.015  1.00  0.00     0.023 A 
ATOM     88  C   UNL A   1      46.325  30.790  28.611  1.00  0.00     0.031 A 
ATOM     89  C   UNL A   1      43.938  30.872  28.267  1.00  0.00     0.131 A 
ATOM     90  C   UNL A   1      46.487  31.633  27.492  1.00  0.00     0.055 A 
ATOM     91  C   UNL A   1      44.104  31.689  27.149  1.00  0.00     0.041 A 
ATOM     92  F   UNL A   1      42.684  30.504  28.580  1.00  0.00    -0.206 F 
ATOM     93  C   UNL A   1      45.380  32.073  26.757  1.00  0.00     0.022 A 
BRANCH  90  94
ATOM     94  S   UNL A   1      48.149  32.151  26.948  1.00  0.00     0.124 S 
ATOM     95  O   UNL A   1      48.757  30.905  26.497  1.00  0.00    -0.237 OA
ATOM     96  O   UNL A   1      47.859  33.136  25.910  1.00  0.00    -0.237 OA
ATOM     97  O   UNL A   1      48.748  32.712  28.161  1.00  0.00    -0.744 OA
ENDBRANCH  90  94
ENDBRANCH  64  87
ENDBRANCH  38  39
ENDBRANCH  30  33
ENDBRANCH  28  29
ENDBRANCH   1  28
TORSDOF 16
ENDMDL
MODEL 2
REMARK VINA RESULT:     -13.5      2.565      6.938
REMARK SMILES Cc1nc(-c2ccccc2Cl)nc2sc(C(=O)NCCCCNC(=O)c3ccc(-c4c5nc(c(-c6cc(S(=O)(=O)[O-])ccc6F)c6ccc([nH]6)c(-c6cc(S(=O)(=O)[O-])ccc6F)c6nc(c(-c7cc(S(=O)(=O)[O-])ccc7F)c7ccc4[nH]7)C=C6)C=C5)cc3)c(N)c12
REMARK SMILES IDX 21 1 20 2 19 3 18 4 16 5 17 6 15 8 1 9 2 10 3 11 91 12 4 13
REMARK SMILES IDX 13 14 89 15 12 16 14 17 5 18 6 19 10 20 7 21 9 22 11 23 8 24
REMARK SMILES IDX 90 25 22 28 23 29 24 30 25 32 26 33 27 34 88 35 28 36 87 37
REMARK SMILES IDX 29 38 30 39 31 40 81 41 32 42 86 43 80 44 82 45 33 46 85 47
REMARK SMILES IDX 79 48 78 49 34 51 66 52 46 53 65 54 47 55 50 56 64 57 83 58
REMARK SMILES IDX 48 59 49 60 63 62 84 63 51 64 35 65 36 66 44 67 37 68 43 69
REMARK SMILES IDX 45 70 42 71 38 72 39 73 40 74 41 75 67 76 68 77 76 78 69 79
REMARK SMILES IDX 75 80 77 81 74 82 70 83 71 84 72 85 73 86 52 87 53 88 61 89
REMARK SMILES IDX 54 90 60 91 62 92 59 93 55 94 56 95 57 96 58 97
REMARK H PARENT 18 7 90 26 90 27 23 31 82 50 50 61
REMARK Flexibility Score: inf
ROOT
ATOM      1  C   UNL A   1      33.984  29.509  26.942  1.00  0.00     0.023 C 
ENDROOT
BRANCH   1   2
ATOM      2  C   UNL A   1      33.341  28.226  26.404  1.00  0.00     0.023 C 
BRANCH   2   3
ATOM      3  C   UNL A   1      33.465  28.006  24.887  1.00  0.00     0.116 C 
BRANCH   3   4
ATOM      4  N   UNL A   1      32.203  28.209  24.184  1.00  0.00    -0.351 N 
ATOM      5  C   UNL A   1      31.164  27.358  23.847  1.00  0.00     0.263 C 
ATOM      6  O   UNL A   1      30.171  27.913  23.365  1.00  0.00    -0.268 OA
ATOM      7  H   UNL A   1      32.060  29.138  23.891  1.00  0.00     0.163 HD
BRANCH   5   8
ATOM      8  C   UNL A   1      31.199  25.912  24.065  1.00  0.00     0.118 A 
ATOM      9  C   UNL A   1      29.825  22.603  27.081  1.00  0.00     0.067 C 
ATOM     10  C   UNL A   1      30.741  22.641  25.897  1.00  0.00     0.052 A 
ATOM     11  N   UNL A   1      31.383  21.468  25.596  1.00  0.00    -0.233 NA
ATOM     12  C   UNL A   1      30.990  23.778  25.093  1.00  0.00     0.056 A 
ATOM     13  C   UNL A   1      32.166  21.413  24.504  1.00  0.00     0.162 A 
ATOM     14  C   UNL A   1      31.756  23.530  23.971  1.00  0.00     0.130 A 
ATOM     15  C   UNL A   1      30.654  25.186  25.128  1.00  0.00     0.067 A 
ATOM     16  N   UNL A   1      32.360  22.394  23.629  1.00  0.00    -0.217 NA
ATOM     17  S   UNL A   1      31.850  24.834  22.922  1.00  0.00    -0.108 S 
BRANCH  13  18
ATOM     18  C   UNL A   1      32.899  20.195  24.177  1.00  0.00     0.038 A 
ATOM     19  C   UNL A   1      32.256  19.196  23.414  1.00  0.00     0.013 A 
ATOM     20  C   UNL A   1      34.142  19.891  24.751  1.00  0.00     0.052 A 
ATOM     21  C   UNL A   1      32.819  17.929  23.255  1.00  0.00     0.001 A 
ATOM     22  C   UNL A   1      34.705  18.619  24.590  1.00  0.00     0.021 A 
ATOM     23  Cl  UNL A   1      34.996  21.019  25.749  1.00  0.00    -0.084 Cl
ATOM     24  C   UNL A   1      34.040  17.638  23.853  1.00  0.00     0.002 A 
ENDBRANCH  13  18
BRANCH  15  25
ATOM     25  N   UNL A   1      29.943  25.776  26.116  1.00  0.00    -0.397 N 
ATOM     26  H   UNL A   1      30.105  25.527  27.055  1.00  0.00     0.156 HD
ATOM     27  H   UNL A   1      29.264  26.454  25.897  1.00  0.00     0.156 HD
ENDBRANCH  15  25
ENDBRANCH   5   8
ENDBRANCH   3   4
ENDBRANCH   2   3
ENDBRANCH   1   2
BRANCH   1  28
ATOM     28  C   UNL A   1      35.379  29.324  27.531  1.00  0.00     0.116 C 
BRANCH  28  29
ATOM     29  N   UNL A   1      35.501  29.836  28.896  1.00  0.00    -0.352 N 
ATOM     30  C   UNL A   1      36.465  29.513  29.838  1.00  0.00     0.251 C 
ATOM     31  H   UNL A   1      34.817  30.485  29.178  1.00  0.00     0.163 HD
ATOM     32  O   UNL A   1      36.250  29.661  31.029  1.00  0.00    -0.269 OA
BRANCH  30  33
ATOM     33  C   UNL A   1      37.755  28.983  29.355  1.00  0.00     0.039 A 
ATOM     34  C   UNL A   1      38.403  29.533  28.247  1.00  0.00     0.014 A 
ATOM     35  C   UNL A   1      38.338  27.952  30.086  1.00  0.00     0.014 A 
ATOM     36  C   UNL A   1      39.692  29.099  27.941  1.00  0.00     0.010 A 
ATOM     37  C   UNL A   1      39.657  27.634  29.873  1.00  0.00     0.010 A 
ATOM     38  C   UNL A   1      40.328  28.167  28.776  1.00  0.00    -0.014 A 
BRANCH  38  39
ATOM     39  C   UNL A   1      41.731  27.813  28.576  1.00  0.00     0.031 A 
ATOM     40  C   UNL A   1      41.981  26.557  27.814  1.00  0.00     0.074 A 
ATOM     41  C   UNL A   1      42.751  28.654  28.855  1.00  0.00     0.049 A 
ATOM     42  N   UNL A   1      42.512  25.465  28.254  1.00  0.00    -0.248 NA
ATOM     43  C   UNL A   1      41.491  26.455  26.430  1.00  0.00     0.031 C 
ATOM     44  C   UNL A   1      42.693  30.037  29.339  1.00  0.00     0.029 A 
ATOM     45  N   UNL A   1      44.080  28.474  28.636  1.00  0.00    -0.354 N 
ATOM     46  C   UNL A   1      42.623  24.609  27.162  1.00  0.00     0.074 A 
ATOM     47  C   UNL A   1      41.829  25.202  26.116  1.00  0.00     0.031 C 
ATOM     48  C   UNL A   1      43.886  30.638  29.134  1.00  0.00     0.029 A 
ATOM     49  C   UNL A   1      44.835  29.642  28.675  1.00  0.00     0.049 A 
ATOM     50  H   UNL A   1      44.477  27.589  28.465  1.00  0.00     0.167 HD
ATOM     51  C   UNL A   1      43.526  23.587  27.148  1.00  0.00     0.034 A 
ATOM     52  C   UNL A   1      46.141  29.781  28.329  1.00  0.00     0.034 A 
ATOM     53  C   UNL A   1      44.044  23.326  28.470  1.00  0.00     0.049 A 
ATOM     54  C   UNL A   1      46.751  28.436  28.495  1.00  0.00     0.074 A 
ATOM     55  C   UNL A   1      43.468  22.998  29.684  1.00  0.00     0.029 A 
ATOM     56  N   UNL A   1      45.299  23.803  28.782  1.00  0.00    -0.354 N 
ATOM     57  N   UNL A   1      46.824  27.823  29.648  1.00  0.00    -0.248 NA
ATOM     58  C   UNL A   1      46.819  27.569  27.328  1.00  0.00     0.031 C 
ATOM     59  C   UNL A   1      44.162  23.798  30.640  1.00  0.00     0.029 A 
ATOM     60  C   UNL A   1      45.174  24.489  29.968  1.00  0.00     0.049 A 
ATOM     61  H   UNL A   1      46.124  23.677  28.261  1.00  0.00     0.167 HD
ATOM     62  C   UNL A   1      46.505  26.502  29.372  1.00  0.00     0.074 A 
ATOM     63  C   UNL A   1      46.603  26.387  27.916  1.00  0.00     0.031 C 
ATOM     64  C   UNL A   1      45.917  25.691  30.302  1.00  0.00     0.034 A 
BRANCH  51  65
ATOM     65  C   UNL A   1      44.185  23.018  25.913  1.00  0.00     0.023 A 
ATOM     66  C   UNL A   1      44.179  21.620  25.744  1.00  0.00     0.031 A 
ATOM     67  C   UNL A   1      45.043  23.741  25.055  1.00  0.00     0.131 A 
ATOM     68  C   UNL A   1      45.039  21.000  24.819  1.00  0.00     0.055 A 
ATOM     69  C   UNL A   1      45.848  23.126  24.091  1.00  0.00     0.041 A 
ATOM     70  F   UNL A   1      45.224  25.062  25.166  1.00  0.00    -0.206 F 
ATOM     71  C   UNL A   1      45.870  21.746  23.986  1.00  0.00     0.022 A 
BRANCH  68  72
ATOM     72  S   UNL A   1      45.166  19.192  24.830  1.00  0.00     0.124 S 
ATOM     73  O   UNL A   1      46.471  18.989  25.448  1.00  0.00    -0.237 OA
ATOM     74  O   UNL A   1      44.007  18.813  25.631  1.00  0.00    -0.237 OA
ATOM     75  O   UNL A   1      45.086  18.837  23.414  1.00  0.00    -0.744 OA
ENDBRANCH  68  72
ENDBRANCH  51  65
BRANCH  52  76
ATOM     76  C   UNL A   1      46.757  30.907  27.565  1.00  0.00     0.023 A 
ATOM     77  C   UNL A   1      45.983  31.920  26.960  1.00  0.00     0.031 A 
ATOM     78  C   UNL A   1      48.153  31.137  27.623  1.00  0.00     0.131 A 
ATOM     79  C   UNL A   1      46.601  33.092  26.456  1.00  0.00     0.055 A 
ATOM     80  C   UNL A   1      48.758  32.291  27.116  1.00  0.00     0.041 A 
ATOM     81  F   UNL A   1      48.978  30.287  28.254  1.00  0.00    -0.206 F 
ATOM     82  C   UNL A   1      47.981  33.280  26.541  1.00  0.00     0.022 A 
BRANCH  79  83
ATOM     83  S   UNL A   1      45.596  34.459  25.788  1.00  0.00     0.124 S 
ATOM     84  O   UNL A   1      44.617  34.663  26.849  1.00  0.00    -0.237 OA
ATOM     85  O   UNL A   1      46.582  35.518  25.604  1.00  0.00    -0.237 OA
ATOM     86  O   UNL A   1      45.057  33.905  24.547  1.00  0.00    -0.744 OA
ENDBRANCH  79  83
ENDBRANCH  52  76
BRANCH  64  87
ATOM     87  C   UNL A   1      45.823  26.155  31.742  1.00  0.00     0.023 A 
ATOM     88  C   UNL A   1      44.668  26.713  32.339  1.00  0.00     0.031 A 
ATOM     89  C   UNL A   1      46.904  25.839  32.585  1.00  0.00     0.131 A 
ATOM     90  C   UNL A   1      44.630  26.929  33.733  1.00  0.00     0.055 A 
ATOM     91  C   UNL A   1      46.854  26.035  33.965  1.00  0.00     0.041 A 
ATOM     92  F   UNL A   1      48.016  25.277  32.083  1.00  0.00    -0.206 F 
ATOM     93  C   UNL A   1      45.715  26.581  34.544  1.00  0.00     0.022 A 
BRANCH  90  94
ATOM     94  S   UNL A   1      43.148  27.638  34.526  1.00  0.00     0.124 S 
ATOM     95  O   UNL A   1      42.555  28.444  33.465  1.00  0.00    -0.237 OA
ATOM     96  O   UNL A   1      42.396  26.453  34.928  1.00  0.00    -0.237 OA
ATOM     97  O   UNL A   1      43.694  28.414  35.642  1.00  0.00    -0.744 OA
ENDBRANCH  90  94
ENDBRANCH  64  87
ENDBRANCH  38  39
ENDBRANCH  30  33
ENDBRANCH  28  29
ENDBRANCH   1  28
TORSDOF 16
ENDMDL
MODEL 3
REMARK VINA RESULT:     -13.4      2.994      7.188
REMARK SMILES Cc1nc(-c2ccccc2Cl)nc2sc(C(=O)NCCCCNC(=O)c3ccc(-c4c5nc(c(-c6cc(S(=O)(=O)[O-])ccc6F)c6ccc([nH]6)c(-c6cc(S(=O)(=O)[O-])ccc6F)c6nc(c(-c7cc(S(=O)(=O)[O-])ccc7F)c7ccc4[nH]7)C=C6)C=C5)cc3)c(N)c12
REMARK SMILES IDX 21 1 20 2 19 3 18 4 16 5 17 6 15 8 1 9 2 10 3 11 91 12 4 13
REMARK SMILES IDX 13 14 89 15 12 16 14 17 5 18 6 19 10 20 7 21 9 22 11 23 8 24
REMARK SMILES IDX 90 25 22 28 23 29 24 30 25 32 26 33 27 34 88 35 28 36 87 37
REMARK SMILES IDX 29 38 30 39 31 40 81 41 32 42 86 43 80 44 82 45 33 46 85 47
REMARK SMILES IDX 79 48 78 49 34 51 66 52 46 53 65 54 47 55 50 56 64 57 83 58
REMARK SMILES IDX 48 59 49 60 63 62 84 63 51 64 35 65 36 66 44 67 37 68 43 69
REMARK SMILES IDX 45 70 42 71 38 72 39 73 40 74 41 75 67 76 68 77 76 78 69 79
REMARK SMILES IDX 75 80 77 81 74 82 70 83 71 84 72 85 73 86 52 87 53 88 61 89
REMARK SMILES IDX 54 90 60 91 62 92 59 93 55 94 56 95 57 96 58 97
REMARK H PARENT 18 7 90 26 90 27 23 31 82 50 50 61
REMARK Flexibility Score: inf
ROOT
ATOM      1  C   UNL A   1      34.072  29.937  26.931  1.00  0.00     0.023 C 
ENDROOT
BRANCH   1   2
ATOM      2  C   UNL A   1      33.119  28.917  26.295  1.00  0.00     0.023 C 
BRANCH   2   3
ATOM      3  C   UNL A   1      33.229  28.767  24.769  1.00  0.00     0.116 C 
BRANCH   3   4
ATOM      4  N   UNL A   1      32.083  28.078  24.188  1.00  0.00    -0.351 N 
ATOM      5  C   UNL A   1      31.725  26.742  24.111  1.00  0.00     0.263 C 
ATOM      6  O   UNL A   1      30.594  26.530  23.660  1.00  0.00    -0.268 OA
ATOM      7  H   UNL A   1      31.431  28.683  23.766  1.00  0.00     0.163 HD
BRANCH   5   8
ATOM      8  C   UNL A   1      32.587  25.647  24.555  1.00  0.00     0.118 A 
ATOM      9  C   UNL A   1      33.050  22.471  27.966  1.00  0.00     0.067 C 
ATOM     10  C   UNL A   1      33.919  22.958  26.848  1.00  0.00     0.052 A 
ATOM     11  N   UNL A   1      35.171  22.403  26.774  1.00  0.00    -0.233 NA
ATOM     12  C   UNL A   1      33.551  23.932  25.892  1.00  0.00     0.056 A 
ATOM     13  C   UNL A   1      35.978  22.743  25.753  1.00  0.00     0.162 A 
ATOM     14  C   UNL A   1      34.464  24.108  24.871  1.00  0.00     0.130 A 
ATOM     15  C   UNL A   1      32.439  24.837  25.685  1.00  0.00     0.067 A 
ATOM     16  N   UNL A   1      35.670  23.556  24.749  1.00  0.00    -0.217 NA
ATOM     17  S   UNL A   1      33.909  25.098  23.637  1.00  0.00    -0.108 S 
BRANCH  13  18
ATOM     18  C   UNL A   1      37.332  22.207  25.667  1.00  0.00     0.038 A 
ATOM     19  C   UNL A   1      37.519  20.908  25.145  1.00  0.00     0.013 A 
ATOM     20  C   UNL A   1      38.430  22.846  26.259  1.00  0.00     0.052 A 
ATOM     21  C   UNL A   1      38.750  20.259  25.237  1.00  0.00     0.001 A 
ATOM     22  C   UNL A   1      39.666  22.192  26.350  1.00  0.00     0.021 A 
ATOM     23  Cl  UNL A   1      38.305  24.415  26.979  1.00  0.00    -0.084 Cl
ATOM     24  C   UNL A   1      39.822  20.899  25.850  1.00  0.00     0.002 A 
ENDBRANCH  13  18
BRANCH  15  25
ATOM     25  N   UNL A   1      31.383  24.951  26.523  1.00  0.00    -0.397 N 
ATOM     26  H   UNL A   1      31.465  24.659  27.460  1.00  0.00     0.156 HD
ATOM     27  H   UNL A   1      30.534  25.326  26.198  1.00  0.00     0.156 HD
ENDBRANCH  15  25
ENDBRANCH   5   8
ENDBRANCH   3   4
ENDBRANCH   2   3
ENDBRANCH   1   2
BRANCH   1  28
ATOM     28  C   UNL A   1      35.216  29.326  27.732  1.00  0.00     0.116 C 
BRANCH  28  29
ATOM     29  N   UNL A   1      35.399  29.949  29.044  1.00  0.00    -0.352 N 
ATOM     30  C   UNL A   1      36.410  29.709  29.962  1.00  0.00     0.251 C 
ATOM     31  H   UNL A   1      34.724  30.617  29.304  1.00  0.00     0.163 HD
ATOM     32  O   UNL A   1      36.250  29.954  31.145  1.00  0.00    -0.269 OA
BRANCH  30  33
ATOM     33  C   UNL A   1      37.680  29.147  29.463  1.00  0.00     0.039 A 
ATOM     34  C   UNL A   1      38.312  29.663  28.330  1.00  0.00     0.014 A 
ATOM     35  C   UNL A   1      38.261  28.122  30.202  1.00  0.00     0.014 A 
ATOM     36  C   UNL A   1      39.588  29.200  28.005  1.00  0.00     0.010 A 
ATOM     37  C   UNL A   1      39.569  27.776  29.968  1.00  0.00     0.010 A 
ATOM     38  C   UNL A   1      40.225  28.274  28.846  1.00  0.00    -0.014 A 
BRANCH  38  39
ATOM     39  C   UNL A   1      41.617  27.891  28.624  1.00  0.00     0.031 A 
ATOM     40  C   UNL A   1      41.829  26.636  27.851  1.00  0.00     0.074 A 
ATOM     41  C   UNL A   1      42.659  28.710  28.893  1.00  0.00     0.049 A 
ATOM     42  N   UNL A   1      42.343  25.529  28.276  1.00  0.00    -0.248 NA
ATOM     43  C   UNL A   1      41.317  26.553  26.474  1.00  0.00     0.031 C 
ATOM     44  C   UNL A   1      42.638  30.090  29.386  1.00  0.00     0.029 A 
ATOM     45  N   UNL A   1      43.980  28.502  28.654  1.00  0.00    -0.354 N 
ATOM     46  C   UNL A   1      42.420  24.678  27.178  1.00  0.00     0.074 A 
ATOM     47  C   UNL A   1      41.624  25.294  26.147  1.00  0.00     0.031 C 
ATOM     48  C   UNL A   1      43.839  30.667  29.168  1.00  0.00     0.029 A 
ATOM     49  C   UNL A   1      44.761  29.653  28.689  1.00  0.00     0.049 A 
ATOM     50  H   UNL A   1      44.356  27.610  28.472  1.00  0.00     0.167 HD
ATOM     51  C   UNL A   1      43.300  23.637  27.145  1.00  0.00     0.034 A 
ATOM     52  C   UNL A   1      46.064  29.767  28.325  1.00  0.00     0.034 A 
ATOM     53  C   UNL A   1      43.832  23.358  28.458  1.00  0.00     0.049 A 
ATOM     54  C   UNL A   1      46.648  28.408  28.474  1.00  0.00     0.074 A 
ATOM     55  C   UNL A   1      43.267  23.034  29.678  1.00  0.00     0.029 A 
ATOM     56  N   UNL A   1      45.101  23.806  28.755  1.00  0.00    -0.354 N 
ATOM     57  N   UNL A   1      46.724  27.786  29.622  1.00  0.00    -0.248 NA
ATOM     58  C   UNL A   1      46.681  27.547  27.301  1.00  0.00     0.031 C 
ATOM     59  C   UNL A   1      43.991  23.813  30.628  1.00  0.00     0.029 A 
ATOM     60  C   UNL A   1      45.007  24.487  29.946  1.00  0.00     0.049 A 
ATOM     61  H   UNL A   1      45.916  23.665  28.221  1.00  0.00     0.167 HD
ATOM     62  C   UNL A   1      46.373  26.474  29.343  1.00  0.00     0.074 A 
ATOM     63  C   UNL A   1      46.447  26.366  27.885  1.00  0.00     0.031 C 
ATOM     64  C   UNL A   1      45.781  25.670  30.276  1.00  0.00     0.034 A 
BRANCH  51  65
ATOM     65  C   UNL A   1      43.930  23.063  25.897  1.00  0.00     0.023 A 
ATOM     66  C   UNL A   1      43.756  21.688  25.641  1.00  0.00     0.031 A 
ATOM     67  C   UNL A   1      44.903  23.719  25.112  1.00  0.00     0.131 A 
ATOM     68  C   UNL A   1      44.565  21.019  24.705  1.00  0.00     0.055 A 
ATOM     69  C   UNL A   1      45.660  23.064  24.137  1.00  0.00     0.041 A 
ATOM     70  F   UNL A   1      45.243  24.998  25.312  1.00  0.00    -0.206 F 
ATOM     71  C   UNL A   1      45.514  21.701  23.946  1.00  0.00     0.022 A 
BRANCH  68  72
ATOM     72  S   UNL A   1      44.465  19.213  24.607  1.00  0.00     0.124 S 
ATOM     73  O   UNL A   1      45.412  18.805  25.639  1.00  0.00    -0.237 OA
ATOM     74  O   UNL A   1      43.055  18.972  24.895  1.00  0.00    -0.237 OA
ATOM     75  O   UNL A   1      44.878  18.923  23.235  1.00  0.00    -0.744 OA
ENDBRANCH  68  72
ENDBRANCH  51  65
BRANCH  52  76
ATOM     76  C   UNL A   1      46.694  30.884  27.559  1.00  0.00     0.023 A 
ATOM     77  C   UNL A   1      45.930  31.898  26.941  1.00  0.00     0.031 A 
ATOM     78  C   UNL A   1      48.090  31.106  27.627  1.00  0.00     0.131 A 
ATOM     79  C   UNL A   1      46.559  33.062  26.434  1.00  0.00     0.055 A 
ATOM     80  C   UNL A   1      48.706  32.253  27.118  1.00  0.00     0.041 A 
ATOM     81  F   UNL A   1      48.904  30.256  28.270  1.00  0.00    -0.206 F 
ATOM     82  C   UNL A   1      47.940  33.243  26.530  1.00  0.00     0.022 A 
BRANCH  79  83
ATOM     83  S   UNL A   1      45.568  34.431  25.750  1.00  0.00     0.124 S 
ATOM     84  O   UNL A   1      46.583  35.449  25.505  1.00  0.00    -0.237 OA
ATOM     85  O   UNL A   1      44.960  33.825  24.571  1.00  0.00    -0.237 OA
ATOM     86  O   UNL A   1      44.631  34.741  26.829  1.00  0.00    -0.744 OA
ENDBRANCH  79  83
ENDBRANCH  52  76
BRANCH  64  87
ATOM     87  C   UNL A   1      45.717  26.127  31.720  1.00  0.00     0.023 A 
ATOM     88  C   UNL A   1      44.575  26.682  32.345  1.00  0.00     0.031 A 
ATOM     89  C   UNL A   1      46.816  25.807  32.539  1.00  0.00     0.131 A 
ATOM     90  C   UNL A   1      44.567  26.891  33.740  1.00  0.00     0.055 A 
ATOM     91  C   UNL A   1      46.795  25.996  33.921  1.00  0.00     0.041 A 
ATOM     92  F   UNL A   1      47.917  25.248  32.011  1.00  0.00    -0.206 F 
ATOM     93  C   UNL A   1      45.669  26.539  34.527  1.00  0.00     0.022 A 
BRANCH  90  94
ATOM     94  S   UNL A   1      43.102  27.597  34.568  1.00  0.00     0.124 S 
ATOM     95  O   UNL A   1      42.848  28.819  33.814  1.00  0.00    -0.237 OA
ATOM     96  O   UNL A   1      42.107  26.537  34.425  1.00  0.00    -0.237 OA
ATOM     97  O   UNL A   1      43.557  27.816  35.942  1.00  0.00    -0.744 OA
ENDBRANCH  90  94
ENDBRANCH  64  87
ENDBRANCH  38  39
ENDBRANCH  30  33
ENDBRANCH  28  29
ENDBRANCH   1  28
TORSDOF 16
ENDMDL
