MODEL 1
REMARK VINA RESULT:     -12.0      0.000      0.000
REMARK SMILES CC(C)NC(=O)c1cccc(NC(=O)[C@@H]2[C@H](C(=O)NCCCCNC(=O)c3ccc(-c4c5nc(c(-c6cc(S(=O)(=O)[O-])ccc6F)c6ccc([nH]6)c(-c6cc(S(=O)(=O)[O-])ccc6F)c6nc(c(-c7cc(S(=O)(=O)[O-])ccc7F)c7ccc4[nH]7)C=C6)C=C5)cc3)C2(C)C)c1
REMARK SMILES IDX 21 1 20 2 19 3 17 4 18 5 16 7 15 8 90 9 91 10 92 11 13 12
REMARK SMILES IDX 12 13 14 15 11 16 7 17 8 18 93 19 9 20 10 21 5 22 4 23 6 25
REMARK SMILES IDX 2 26 1 27 3 28 22 29 23 30 24 31 25 32 26 34 27 35 28 36
REMARK SMILES IDX 89 37 29 38 88 39 30 40 31 41 32 42 82 43 33 44 87 45 81 46
REMARK SMILES IDX 83 47 34 48 86 49 80 50 79 51 35 53 67 54 47 55 66 56 48 57
REMARK SMILES IDX 51 58 65 59 84 60 49 61 50 62 64 64 85 65 52 66 36 67 37 68
REMARK SMILES IDX 45 69 38 70 44 71 46 72 43 73 39 74 40 75 41 76 42 77 68 78
REMARK SMILES IDX 69 79 77 80 70 81 76 82 78 83 75 84 71 85 72 86 73 87 74 88
REMARK SMILES IDX 53 89 54 90 62 91 55 92 61 93 63 94 60 95 56 96 57 97 58 98
REMARK SMILES IDX 59 99
REMARK H PARENT 19 6 12 14 4 24 24 33 83 52 51 63
REMARK Flexibility Score: inf
ROOT
ATOM      1  C   UNL A   1      31.037  31.367  25.633  1.00  0.00     0.023 C 
ENDROOT
BRANCH   1   2
ATOM      2  C   UNL A   1      31.542  29.931  25.468  1.00  0.00     0.116 C 
BRANCH   2   3
ATOM      3  N   UNL A   1      31.254  29.391  24.147  1.00  0.00    -0.356 N 
ATOM      4  C   UNL A   1      31.699  28.217  23.583  1.00  0.00     0.224 C 
ATOM      5  O   UNL A   1      31.461  27.945  22.417  1.00  0.00    -0.275 OA
ATOM      6  H   UNL A   1      30.661  29.939  23.582  1.00  0.00     0.163 HD
BRANCH   4   7
ATOM      7  C   UNL A   1      32.535  27.363  24.449  1.00  0.00     0.098 C 
ATOM      8  C   UNL A   1      31.888  26.173  25.126  1.00  0.00     0.098 C 
ATOM      9  C   UNL A   1      33.135  26.004  24.247  1.00  0.00    -0.011 C 
ATOM     10  C   UNL A   1      34.395  25.634  24.987  1.00  0.00     0.013 C 
ATOM     11  C   UNL A   1      33.066  25.396  22.865  1.00  0.00     0.013 C 
BRANCH   8  12
ATOM     12  C   UNL A   1      30.759  25.288  24.772  1.00  0.00     0.228 C 
ATOM     13  N   UNL A   1      30.849  23.932  25.048  1.00  0.00    -0.326 N 
ATOM     14  H   UNL A   1      30.114  23.407  24.655  1.00  0.00     0.169 HD
ATOM     15  O   UNL A   1      29.768  25.721  24.193  1.00  0.00    -0.274 OA
BRANCH  13  16
ATOM     16  C   UNL A   1      31.772  23.140  25.776  1.00  0.00     0.041 A 
ATOM     17  C   UNL A   1      33.448  21.361  25.709  1.00  0.00     0.041 A 
ATOM     18  C   UNL A   1      33.625  21.450  27.091  1.00  0.00     0.014 A 
ATOM     19  C   UNL A   1      32.499  22.172  25.060  1.00  0.00     0.040 A 
ATOM     20  C   UNL A   1      32.897  22.379  27.812  1.00  0.00     0.003 A 
ATOM     21  C   UNL A   1      31.995  23.219  27.153  1.00  0.00     0.026 A 
BRANCH  17  22
ATOM     22  C   UNL A   1      34.265  20.345  25.012  1.00  0.00     0.251 C 
ATOM     23  N   UNL A   1      35.570  20.587  24.677  1.00  0.00    -0.350 N 
ATOM     24  H   UNL A   1      36.009  19.854  24.190  1.00  0.00     0.164 HD
ATOM     25  O   UNL A   1      33.782  19.238  24.786  1.00  0.00    -0.269 OA
BRANCH  23  26
ATOM     26  C   UNL A   1      36.418  21.748  24.919  1.00  0.00     0.076 C 
ATOM     27  C   UNL A   1      37.862  21.307  25.137  1.00  0.00     0.030 C 
ATOM     28  C   UNL A   1      36.306  22.697  23.731  1.00  0.00     0.030 C 
ENDBRANCH  23  26
ENDBRANCH  17  22
ENDBRANCH  13  16
ENDBRANCH   8  12
ENDBRANCH   4   7
ENDBRANCH   2   3
ENDBRANCH   1   2
BRANCH   1  29
ATOM     29  C   UNL A   1      31.361  32.005  26.986  1.00  0.00     0.023 C 
BRANCH  29  30
ATOM     30  C   UNL A   1      32.668  32.789  27.038  1.00  0.00     0.116 C 
BRANCH  30  31
ATOM     31  N   UNL A   1      32.523  34.091  27.670  1.00  0.00    -0.352 N 
ATOM     32  C   UNL A   1      33.222  34.617  28.732  1.00  0.00     0.251 C 
ATOM     33  H   UNL A   1      31.831  34.676  27.285  1.00  0.00     0.163 HD
ATOM     34  O   UNL A   1      32.859  35.679  29.231  1.00  0.00    -0.269 OA
BRANCH  32  35
ATOM     35  C   UNL A   1      34.379  33.880  29.293  1.00  0.00     0.039 A 
ATOM     36  C   UNL A   1      35.670  34.271  28.930  1.00  0.00     0.014 A 
ATOM     37  C   UNL A   1      34.195  32.822  30.189  1.00  0.00     0.014 A 
ATOM     38  C   UNL A   1      36.775  33.653  29.523  1.00  0.00     0.010 A 
ATOM     39  C   UNL A   1      35.295  32.261  30.836  1.00  0.00     0.010 A 
ATOM     40  C   UNL A   1      36.598  32.672  30.515  1.00  0.00    -0.014 A 
BRANCH  40  41
ATOM     41  C   UNL A   1      37.762  32.072  31.223  1.00  0.00     0.031 A 
ATOM     42  C   UNL A   1      38.529  30.939  30.593  1.00  0.00     0.074 A 
ATOM     43  C   UNL A   1      38.102  32.513  32.452  1.00  0.00     0.049 A 
ATOM     44  N   UNL A   1      39.513  30.232  31.085  1.00  0.00    -0.248 NA
ATOM     45  C   UNL A   1      38.120  30.535  29.238  1.00  0.00     0.031 C 
ATOM     46  C   UNL A   1      37.422  33.587  33.182  1.00  0.00     0.029 A 
ATOM     47  N   UNL A   1      39.098  32.115  33.310  1.00  0.00    -0.354 N 
ATOM     48  C   UNL A   1      39.847  29.306  30.102  1.00  0.00     0.074 A 
ATOM     49  C   UNL A   1      38.910  29.496  29.015  1.00  0.00     0.031 C 
ATOM     50  C   UNL A   1      38.034  33.774  34.363  1.00  0.00     0.029 A 
ATOM     51  C   UNL A   1      39.113  32.801  34.505  1.00  0.00     0.049 A 
ATOM     52  H   UNL A   1      39.742  31.403  33.092  1.00  0.00     0.167 HD
ATOM     53  C   UNL A   1      40.858  28.404  30.091  1.00  0.00     0.034 A 
ATOM     54  C   UNL A   1      39.890  32.650  35.597  1.00  0.00     0.034 A 
ATOM     55  C   UNL A   1      41.788  28.222  31.179  1.00  0.00     0.049 A 
ATOM     56  C   UNL A   1      40.966  31.587  35.584  1.00  0.00     0.074 A 
ATOM     57  C   UNL A   1      42.856  27.345  31.261  1.00  0.00     0.029 A 
ATOM     58  N   UNL A   1      41.764  28.929  32.375  1.00  0.00    -0.354 N 
ATOM     59  N   UNL A   1      41.285  30.745  34.627  1.00  0.00    -0.248 NA
ATOM     60  C   UNL A   1      41.796  31.465  36.790  1.00  0.00     0.031 C 
ATOM     61  C   UNL A   1      43.433  27.472  32.527  1.00  0.00     0.029 A 
ATOM     62  C   UNL A   1      42.783  28.489  33.206  1.00  0.00     0.049 A 
ATOM     63  H   UNL A   1      41.118  29.637  32.599  1.00  0.00     0.167 HD
ATOM     64  C   UNL A   1      42.379  30.027  35.107  1.00  0.00     0.074 A 
ATOM     65  C   UNL A   1      42.676  30.550  36.422  1.00  0.00     0.031 C 
ATOM     66  C   UNL A   1      43.076  29.025  34.513  1.00  0.00     0.034 A 
BRANCH  53  67
ATOM     67  C   UNL A   1      41.010  27.538  28.865  1.00  0.00     0.023 A 
ATOM     68  C   UNL A   1      42.008  27.795  27.908  1.00  0.00     0.031 A 
ATOM     69  C   UNL A   1      40.165  26.434  28.655  1.00  0.00     0.131 A 
ATOM     70  C   UNL A   1      42.101  26.994  26.762  1.00  0.00     0.055 A 
ATOM     71  C   UNL A   1      40.313  25.594  27.550  1.00  0.00     0.041 A 
ATOM     72  F   UNL A   1      39.181  26.152  29.524  1.00  0.00    -0.206 F 
ATOM     73  C   UNL A   1      41.280  25.877  26.589  1.00  0.00     0.022 A 
BRANCH  70  74
ATOM     74  S   UNL A   1      43.237  27.500  25.442  1.00  0.00     0.124 S 
ATOM     75  O   UNL A   1      43.745  26.210  24.981  1.00  0.00    -0.237 OA
ATOM     76  O   UNL A   1      42.356  28.207  24.520  1.00  0.00    -0.237 OA
ATOM     77  O   UNL A   1      44.216  28.336  26.134  1.00  0.00    -0.744 OA
ENDBRANCH  70  74
ENDBRANCH  53  67
BRANCH  54  78
ATOM     78  C   UNL A   1      39.678  33.489  36.816  1.00  0.00     0.023 A 
ATOM     79  C   UNL A   1      39.054  32.962  37.958  1.00  0.00     0.031 A 
ATOM     80  C   UNL A   1      40.001  34.858  36.820  1.00  0.00     0.131 A 
ATOM     81  C   UNL A   1      38.693  33.812  39.016  1.00  0.00     0.055 A 
ATOM     82  C   UNL A   1      39.711  35.684  37.909  1.00  0.00     0.041 A 
ATOM     83  F   UNL A   1      40.598  35.421  35.757  1.00  0.00    -0.206 F 
ATOM     84  C   UNL A   1      39.032  35.165  39.006  1.00  0.00     0.022 A 
BRANCH  81  85
ATOM     85  S   UNL A   1      37.632  33.152  40.332  1.00  0.00     0.124 S 
ATOM     86  O   UNL A   1      36.420  32.816  39.592  1.00  0.00    -0.237 OA
ATOM     87  O   UNL A   1      38.421  32.024  40.819  1.00  0.00    -0.237 OA
ATOM     88  O   UNL A   1      37.507  34.273  41.261  1.00  0.00    -0.744 OA
ENDBRANCH  81  85
ENDBRANCH  54  78
BRANCH  66  89
ATOM     89  C   UNL A   1      44.272  28.479  35.257  1.00  0.00     0.023 A 
ATOM     90  C   UNL A   1      44.150  27.460  36.217  1.00  0.00     0.031 A 
ATOM     91  C   UNL A   1      45.554  28.997  35.004  1.00  0.00     0.131 A 
ATOM     92  C   UNL A   1      45.279  27.035  36.934  1.00  0.00     0.055 A 
ATOM     93  C   UNL A   1      46.686  28.522  35.670  1.00  0.00     0.041 A 
ATOM     94  F   UNL A   1      45.732  29.974  34.100  1.00  0.00    -0.206 F 
ATOM     95  C   UNL A   1      46.549  27.546  36.652  1.00  0.00     0.022 A 
BRANCH  92  96
ATOM     96  S   UNL A   1      45.051  25.878  38.312  1.00  0.00     0.124 S 
ATOM     97  O   UNL A   1      46.414  25.414  38.548  1.00  0.00    -0.237 OA
ATOM     98  O   UNL A   1      44.480  26.733  39.346  1.00  0.00    -0.237 OA
ATOM     99  O   UNL A   1      44.139  24.873  37.766  1.00  0.00    -0.744 OA
ENDBRANCH  92  96
ENDBRANCH  66  89
ENDBRANCH  40  41
ENDBRANCH  32  35
ENDBRANCH  30  31
ENDBRANCH  29  30
ENDBRANCH   1  29
TORSDOF 18
ENDMDL
MODEL 2
REMARK VINA RESULT:     -11.9      1.488      7.545
REMARK SMILES CC(C)NC(=O)c1cccc(NC(=O)[C@@H]2[C@H](C(=O)NCCCCNC(=O)c3ccc(-c4c5nc(c(-c6cc(S(=O)(=O)[O-])ccc6F)c6ccc([nH]6)c(-c6cc(S(=O)(=O)[O-])ccc6F)c6nc(c(-c7cc(S(=O)(=O)[O-])ccc7F)c7ccc4[nH]7)C=C6)C=C5)cc3)C2(C)C)c1
REMARK SMILES IDX 21 1 20 2 19 3 17 4 18 5 16 7 15 8 90 9 91 10 92 11 13 12
REMARK SMILES IDX 12 13 14 15 11 16 7 17 8 18 93 19 9 20 10 21 5 22 4 23 6 25
REMARK SMILES IDX 2 26 1 27 3 28 22 29 23 30 24 31 25 32 26 34 27 35 28 36
REMARK SMILES IDX 89 37 29 38 88 39 30 40 31 41 32 42 82 43 33 44 87 45 81 46
REMARK SMILES IDX 83 47 34 48 86 49 80 50 79 51 35 53 67 54 47 55 66 56 48 57
REMARK SMILES IDX 51 58 65 59 84 60 49 61 50 62 64 64 85 65 52 66 36 67 37 68
REMARK SMILES IDX 45 69 38 70 44 71 46 72 43 73 39 74 40 75 41 76 42 77 68 78
REMARK SMILES IDX 69 79 77 80 70 81 76 82 78 83 75 84 71 85 72 86 73 87 74 88
REMARK SMILES IDX 53 89 54 90 62 91 55 92 61 93 63 94 60 95 56 96 57 97 58 98
REMARK SMILES IDX 59 99
REMARK H PARENT 19 6 12 14 4 24 24 33 83 52 51 63
REMARK Flexibility Score: inf
ROOT
ATOM      1  C   UNL A   1      31.019  31.102  25.503  1.00  0.00     0.023 C 
ENDROOT
BRANCH   1   2
ATOM      2  C   UNL A   1      31.504  29.705  25.105  1.00  0.00     0.116 C 
BRANCH   2   3
ATOM      3  N   UNL A   1      30.933  29.260  23.841  1.00  0.00    -0.356 N 
ATOM      4  C   UNL A   1      31.235  28.134  23.111  1.00  0.00     0.224 C 
ATOM      5  O   UNL A   1      30.749  27.946  22.006  1.00  0.00    -0.275 OA
ATOM      6  H   UNL A   1      30.237  29.844  23.458  1.00  0.00     0.163 HD
BRANCH   4   7
ATOM      7  C   UNL A   1      32.230  27.225  23.711  1.00  0.00     0.098 C 
ATOM      8  C   UNL A   1      31.732  26.049  24.526  1.00  0.00     0.098 C 
ATOM      9  C   UNL A   1      32.687  25.846  23.343  1.00  0.00    -0.011 C 
ATOM     10  C   UNL A   1      34.081  25.404  23.713  1.00  0.00     0.013 C 
ATOM     11  C   UNL A   1      32.221  25.271  22.024  1.00  0.00     0.013 C 
BRANCH   8  12
ATOM     12  C   UNL A   1      30.508  25.223  24.480  1.00  0.00     0.228 C 
ATOM     13  N   UNL A   1      30.545  23.929  24.975  1.00  0.00    -0.326 N 
ATOM     14  H   UNL A   1      29.729  23.414  24.777  1.00  0.00     0.169 HD
ATOM     15  O   UNL A   1      29.475  25.642  23.967  1.00  0.00    -0.274 OA
BRANCH  13  16
ATOM     16  C   UNL A   1      31.508  23.186  25.705  1.00  0.00     0.041 A 
ATOM     17  C   UNL A   1      33.037  21.280  25.733  1.00  0.00     0.041 A 
ATOM     18  C   UNL A   1      33.412  21.575  27.045  1.00  0.00     0.014 A 
ATOM     19  C   UNL A   1      32.062  22.056  25.080  1.00  0.00     0.040 A 
ATOM     20  C   UNL A   1      32.855  22.670  27.681  1.00  0.00     0.003 A 
ATOM     21  C   UNL A   1      31.927  23.468  27.007  1.00  0.00     0.026 A 
BRANCH  17  22
ATOM     22  C   UNL A   1      33.680  20.096  25.123  1.00  0.00     0.251 C 
ATOM     23  N   UNL A   1      35.022  20.072  24.857  1.00  0.00    -0.350 N 
ATOM     24  H   UNL A   1      35.338  19.247  24.424  1.00  0.00     0.164 HD
ATOM     25  O   UNL A   1      33.007  19.091  24.910  1.00  0.00    -0.269 OA
BRANCH  23  26
ATOM     26  C   UNL A   1      36.064  21.063  25.105  1.00  0.00     0.076 C 
ATOM     27  C   UNL A   1      37.441  20.414  25.003  1.00  0.00     0.030 C 
ATOM     28  C   UNL A   1      35.914  22.199  24.100  1.00  0.00     0.030 C 
ENDBRANCH  23  26
ENDBRANCH  17  22
ENDBRANCH  13  16
ENDBRANCH   8  12
ENDBRANCH   4   7
ENDBRANCH   2   3
ENDBRANCH   1   2
BRANCH   1  29
ATOM     29  C   UNL A   1      31.477  31.563  26.889  1.00  0.00     0.023 C 
BRANCH  29  30
ATOM     30  C   UNL A   1      32.749  32.403  26.906  1.00  0.00     0.116 C 
BRANCH  30  31
ATOM     31  N   UNL A   1      32.523  33.766  27.359  1.00  0.00    -0.352 N 
ATOM     32  C   UNL A   1      33.142  34.451  28.379  1.00  0.00     0.251 C 
ATOM     33  H   UNL A   1      31.832  34.268  26.869  1.00  0.00     0.163 HD
ATOM     34  O   UNL A   1      32.713  35.550  28.721  1.00  0.00    -0.269 OA
BRANCH  32  35
ATOM     35  C   UNL A   1      34.292  33.841  29.086  1.00  0.00     0.039 A 
ATOM     36  C   UNL A   1      34.047  32.894  30.084  1.00  0.00     0.014 A 
ATOM     37  C   UNL A   1      35.607  34.183  28.755  1.00  0.00     0.014 A 
ATOM     38  C   UNL A   1      35.119  32.236  30.694  1.00  0.00     0.010 A 
ATOM     39  C   UNL A   1      36.670  33.471  29.308  1.00  0.00     0.010 A 
ATOM     40  C   UNL A   1      36.440  32.486  30.281  1.00  0.00    -0.014 A 
BRANCH  40  41
ATOM     41  C   UNL A   1      37.585  31.726  30.854  1.00  0.00     0.031 A 
ATOM     42  C   UNL A   1      38.079  32.035  32.243  1.00  0.00     0.074 A 
ATOM     43  C   UNL A   1      38.210  30.790  30.110  1.00  0.00     0.049 A 
ATOM     44  N   UNL A   1      39.110  31.545  32.882  1.00  0.00    -0.248 NA
ATOM     45  C   UNL A   1      37.327  33.045  33.004  1.00  0.00     0.031 C 
ATOM     46  C   UNL A   1      37.844  30.415  28.742  1.00  0.00     0.029 A 
ATOM     47  N   UNL A   1      39.287  29.984  30.392  1.00  0.00    -0.354 N 
ATOM     48  C   UNL A   1      39.127  32.178  34.121  1.00  0.00     0.074 A 
ATOM     49  C   UNL A   1      38.046  33.141  34.112  1.00  0.00     0.031 C 
ATOM     50  C   UNL A   1      38.666  29.442  28.315  1.00  0.00     0.029 A 
ATOM     51  C   UNL A   1      39.653  29.158  29.352  1.00  0.00     0.049 A 
ATOM     52  H   UNL A   1      39.755  29.997  31.258  1.00  0.00     0.167 HD
ATOM     53  C   UNL A   1      39.945  31.957  35.178  1.00  0.00     0.034 A 
ATOM     54  C   UNL A   1      40.679  28.289  29.237  1.00  0.00     0.034 A 
ATOM     55  C   UNL A   1      41.020  30.995  35.178  1.00  0.00     0.049 A 
ATOM     56  C   UNL A   1      41.619  28.114  30.408  1.00  0.00     0.074 A 
ATOM     57  C   UNL A   1      41.898  30.685  36.202  1.00  0.00     0.029 A 
ATOM     58  N   UNL A   1      41.366  30.186  34.103  1.00  0.00    -0.354 N 
ATOM     59  N   UNL A   1      41.594  28.701  31.584  1.00  0.00    -0.248 NA
ATOM     60  C   UNL A   1      42.715  27.150  30.243  1.00  0.00     0.031 C 
ATOM     61  C   UNL A   1      42.814  29.742  35.727  1.00  0.00     0.029 A 
ATOM     62  C   UNL A   1      42.457  29.397  34.434  1.00  0.00     0.049 A 
ATOM     63  H   UNL A   1      40.903  30.175  33.234  1.00  0.00     0.167 HD
ATOM     64  C   UNL A   1      42.646  28.140  32.306  1.00  0.00     0.074 A 
ATOM     65  C   UNL A   1      43.267  27.158  31.445  1.00  0.00     0.031 C 
ATOM     66  C   UNL A   1      43.061  28.413  33.570  1.00  0.00     0.034 A 
BRANCH  53  67
ATOM     67  C   UNL A   1      39.715  32.775  36.424  1.00  0.00     0.023 A 
ATOM     68  C   UNL A   1      38.844  32.333  37.438  1.00  0.00     0.031 A 
ATOM     69  C   UNL A   1      40.381  33.998  36.616  1.00  0.00     0.131 A 
ATOM     70  C   UNL A   1      38.624  33.132  38.568  1.00  0.00     0.055 A 
ATOM     71  C   UNL A   1      40.215  34.752  37.779  1.00  0.00     0.041 A 
ATOM     72  F   UNL A   1      41.206  34.481  35.673  1.00  0.00    -0.206 F 
ATOM     73  C   UNL A   1      39.324  34.325  38.760  1.00  0.00     0.022 A 
BRANCH  70  74
ATOM     74  S   UNL A   1      37.320  32.645  39.731  1.00  0.00     0.124 S 
ATOM     75  O   UNL A   1      36.146  32.623  38.863  1.00  0.00    -0.237 OA
ATOM     76  O   UNL A   1      37.788  31.348  40.205  1.00  0.00    -0.237 OA
ATOM     77  O   UNL A   1      37.331  33.715  40.726  1.00  0.00    -0.744 OA
ENDBRANCH  70  74
ENDBRANCH  53  67
BRANCH  54  78
ATOM     78  C   UNL A   1      40.911  27.534  27.968  1.00  0.00     0.023 A 
ATOM     79  C   UNL A   1      40.609  26.165  27.877  1.00  0.00     0.031 A 
ATOM     80  C   UNL A   1      41.533  28.142  26.864  1.00  0.00     0.131 A 
ATOM     81  C   UNL A   1      41.009  25.432  26.747  1.00  0.00     0.055 A 
ATOM     82  C   UNL A   1      41.858  27.425  25.709  1.00  0.00     0.041 A 
ATOM     83  F   UNL A   1      41.848  29.447  26.893  1.00  0.00    -0.206 F 
ATOM     84  C   UNL A   1      41.617  26.057  25.657  1.00  0.00     0.022 A 
BRANCH  81  85
ATOM     85  S   UNL A   1      40.867  23.625  26.794  1.00  0.00     0.124 S 
ATOM     86  O   UNL A   1      41.332  23.328  28.146  1.00  0.00    -0.237 OA
ATOM     87  O   UNL A   1      39.443  23.426  26.547  1.00  0.00    -0.237 OA
ATOM     88  O   UNL A   1      41.755  23.186  25.719  1.00  0.00    -0.744 OA
ENDBRANCH  81  85
ENDBRANCH  54  78
BRANCH  66  89
ATOM     89  C   UNL A   1      44.201  27.585  34.117  1.00  0.00     0.023 A 
ATOM     90  C   UNL A   1      44.010  26.276  34.591  1.00  0.00     0.031 A 
ATOM     91  C   UNL A   1      45.499  28.123  34.168  1.00  0.00     0.131 A 
ATOM     92  C   UNL A   1      45.085  25.573  35.155  1.00  0.00     0.055 A 
ATOM     93  C   UNL A   1      46.580  27.392  34.666  1.00  0.00     0.041 A 
ATOM     94  F   UNL A   1      45.742  29.370  33.732  1.00  0.00    -0.206 F 
ATOM     95  C   UNL A   1      46.372  26.115  35.177  1.00  0.00     0.022 A 
BRANCH  92  96
ATOM     96  S   UNL A   1      44.759  23.977  35.953  1.00  0.00     0.124 S 
ATOM     97  O   UNL A   1      45.073  24.265  37.348  1.00  0.00    -0.237 OA
ATOM     98  O   UNL A   1      43.349  23.758  35.648  1.00  0.00    -0.237 OA
ATOM     99  O   UNL A   1      45.685  23.064  35.283  1.00  0.00    -0.744 OA
ENDBRANCH  92  96
ENDBRANCH  66  89
ENDBRANCH  40  41
ENDBRANCH  32  35
ENDBRANCH  30  31
ENDBRANCH  29  30
ENDBRANCH   1  29
TORSDOF 18
ENDMDL
MODEL 3
REMARK VINA RESULT:     -11.8      5.884     11.458
REMARK SMILES CC(C)NC(=O)c1cccc(NC(=O)[C@@H]2[C@H](C(=O)NCCCCNC(=O)c3ccc(-c4c5nc(c(-c6cc(S(=O)(=O)[O-])ccc6F)c6ccc([nH]6)c(-c6cc(S(=O)(=O)[O-])ccc6F)c6nc(c(-c7cc(S(=O)(=O)[O-])ccc7F)c7ccc4[nH]7)C=C6)C=C5)cc3)C2(C)C)c1
REMARK SMILES IDX 21 1 20 2 19 3 17 4 18 5 16 7 15 8 90 9 91 10 92 11 13 12
REMARK SMILES IDX 12 13 14 15 11 16 7 17 8 18 93 19 9 20 10 21 5 22 4 23 6 25
REMARK SMILES IDX 2 26 1 27 3 28 22 29 23 30 24 31 25 32 26 34 27 35 28 36
REMARK SMILES IDX 89 37 29 38 88 39 30 40 31 41 32 42 82 43 33 44 87 45 81 46
REMARK SMILES IDX 83 47 34 48 86 49 80 50 79 51 35 53 67 54 47 55 66 56 48 57
REMARK SMILES IDX 51 58 65 59 84 60 49 61 50 62 64 64 85 65 52 66 36 67 37 68
REMARK SMILES IDX 45 69 38 70 44 71 46 72 43 73 39 74 40 75 41 76 42 77 68 78
REMARK SMILES IDX 69 79 77 80 70 81 76 82 78 83 75 84 71 85 72 86 73 87 74 88
REMARK SMILES IDX 53 89 54 90 62 91 55 92 61 93 63 94 60 95 56 96 57 97 58 98
REMARK SMILES IDX 59 99
REMARK H PARENT 19 6 12 14 4 24 24 33 83 52 51 63
REMARK Flexibility Score: inf
ROOT
ATOM      1  C   UNL A   1      36.559  19.777  25.001  1.00  0.00     0.023 C 
ENDROOT
BRANCH   1   2
ATOM      2  C   UNL A   1      35.492  20.835  25.295  1.00  0.00     0.116 C 
BRANCH   2   3
ATOM      3  N   UNL A   1      34.145  20.279  25.290  1.00  0.00    -0.356 N 
ATOM      4  C   UNL A   1      32.962  20.898  24.958  1.00  0.00     0.224 C 
ATOM      5  O   UNL A   1      31.889  20.335  25.107  1.00  0.00    -0.275 OA
ATOM      6  H   UNL A   1      34.072  19.335  25.561  1.00  0.00     0.163 HD
BRANCH   4   7
ATOM      7  C   UNL A   1      33.074  22.294  24.491  1.00  0.00     0.098 C 
ATOM      8  C   UNL A   1      31.876  23.206  24.658  1.00  0.00     0.098 C 
ATOM      9  C   UNL A   1      33.250  23.590  25.224  1.00  0.00    -0.011 C 
ATOM     10  C   UNL A   1      33.928  24.745  24.531  1.00  0.00     0.013 C 
ATOM     11  C   UNL A   1      33.552  23.534  26.704  1.00  0.00     0.013 C 
BRANCH   8  12
ATOM     12  C   UNL A   1      30.768  23.266  25.634  1.00  0.00     0.228 C 
ATOM     13  N   UNL A   1      30.323  24.501  26.078  1.00  0.00    -0.326 N 
ATOM     14  H   UNL A   1      29.683  24.437  26.823  1.00  0.00     0.169 HD
ATOM     15  O   UNL A   1      30.271  22.244  26.096  1.00  0.00    -0.274 OA
BRANCH  13  16
ATOM     16  C   UNL A   1      30.594  25.838  25.689  1.00  0.00     0.041 A 
ATOM     17  C   UNL A   1      30.436  27.537  23.939  1.00  0.00     0.041 A 
ATOM     18  C   UNL A   1      31.103  28.459  24.748  1.00  0.00     0.014 A 
ATOM     19  C   UNL A   1      30.218  26.222  24.391  1.00  0.00     0.040 A 
ATOM     20  C   UNL A   1      31.503  28.086  26.018  1.00  0.00     0.003 A 
ATOM     21  C   UNL A   1      31.235  26.794  26.480  1.00  0.00     0.026 A 
BRANCH  17  22
ATOM     22  C   UNL A   1      30.040  28.015  22.597  1.00  0.00     0.251 C 
ATOM     23  N   UNL A   1      28.966  28.845  22.425  1.00  0.00    -0.350 N 
ATOM     24  H   UNL A   1      28.775  29.077  21.487  1.00  0.00     0.164 HD
ATOM     25  O   UNL A   1      30.728  27.711  21.626  1.00  0.00    -0.269 OA
BRANCH  23  26
ATOM     26  C   UNL A   1      28.056  29.444  23.394  1.00  0.00     0.076 C 
ATOM     27  C   UNL A   1      27.703  30.868  22.974  1.00  0.00     0.030 C 
ATOM     28  C   UNL A   1      26.808  28.576  23.501  1.00  0.00     0.030 C 
ENDBRANCH  23  26
ENDBRANCH  17  22
ENDBRANCH  13  16
ENDBRANCH   8  12
ENDBRANCH   4   7
ENDBRANCH   2   3
ENDBRANCH   1   2
BRANCH   1  29
ATOM     29  C   UNL A   1      37.941  20.343  24.668  1.00  0.00     0.023 C 
BRANCH  29  30
ATOM     30  C   UNL A   1      38.870  20.535  25.862  1.00  0.00     0.116 C 
BRANCH  30  31
ATOM     31  N   UNL A   1      39.855  19.473  25.990  1.00  0.00    -0.352 N 
ATOM     32  C   UNL A   1      41.213  19.574  26.183  1.00  0.00     0.251 C 
ATOM     33  H   UNL A   1      39.501  18.555  25.933  1.00  0.00     0.163 HD
ATOM     34  O   UNL A   1      41.913  18.567  26.115  1.00  0.00    -0.269 OA
BRANCH  32  35
ATOM     35  C   UNL A   1      41.828  20.900  26.426  1.00  0.00     0.039 A 
ATOM     36  C   UNL A   1      41.775  21.865  25.417  1.00  0.00     0.014 A 
ATOM     37  C   UNL A   1      42.434  21.201  27.649  1.00  0.00     0.014 A 
ATOM     38  C   UNL A   1      42.262  23.152  25.662  1.00  0.00     0.010 A 
ATOM     39  C   UNL A   1      42.847  22.505  27.917  1.00  0.00     0.010 A 
ATOM     40  C   UNL A   1      42.762  23.498  26.929  1.00  0.00    -0.014 A 
BRANCH  40  41
ATOM     41  C   UNL A   1      43.197  24.889  27.235  1.00  0.00     0.031 A 
ATOM     42  C   UNL A   1      42.242  25.854  27.888  1.00  0.00     0.074 A 
ATOM     43  C   UNL A   1      44.434  25.299  26.885  1.00  0.00     0.049 A 
ATOM     44  N   UNL A   1      42.404  27.124  28.156  1.00  0.00    -0.248 NA
ATOM     45  C   UNL A   1      40.923  25.324  28.269  1.00  0.00     0.031 C 
ATOM     46  C   UNL A   1      45.444  24.469  26.224  1.00  0.00     0.029 A 
ATOM     47  N   UNL A   1      45.055  26.516  27.028  1.00  0.00    -0.354 N 
ATOM     48  C   UNL A   1      41.214  27.544  28.742  1.00  0.00     0.074 A 
ATOM     49  C   UNL A   1      40.316  26.410  28.724  1.00  0.00     0.031 C 
ATOM     50  C   UNL A   1      46.560  25.193  26.041  1.00  0.00     0.029 A 
ATOM     51  C   UNL A   1      46.334  26.554  26.517  1.00  0.00     0.049 A 
ATOM     52  H   UNL A   1      44.625  27.292  27.456  1.00  0.00     0.167 HD
ATOM     53  C   UNL A   1      40.910  28.752  29.276  1.00  0.00     0.034 A 
ATOM     54  C   UNL A   1      47.214  27.571  26.422  1.00  0.00     0.034 A 
ATOM     55  C   UNL A   1      41.812  29.877  29.292  1.00  0.00     0.049 A 
ATOM     56  C   UNL A   1      46.821  28.928  26.963  1.00  0.00     0.074 A 
ATOM     57  C   UNL A   1      41.606  31.140  29.820  1.00  0.00     0.029 A 
ATOM     58  N   UNL A   1      43.094  29.879  28.755  1.00  0.00    -0.354 N 
ATOM     59  N   UNL A   1      45.701  29.293  27.546  1.00  0.00    -0.248 NA
ATOM     60  C   UNL A   1      47.814  30.004  26.848  1.00  0.00     0.031 C 
ATOM     61  C   UNL A   1      42.730  31.923  29.544  1.00  0.00     0.029 A 
ATOM     62  C   UNL A   1      43.676  31.126  28.921  1.00  0.00     0.049 A 
ATOM     63  H   UNL A   1      43.525  29.107  28.322  1.00  0.00     0.167 HD
ATOM     64  C   UNL A   1      45.880  30.628  27.902  1.00  0.00     0.074 A 
ATOM     65  C   UNL A   1      47.217  30.994  27.490  1.00  0.00     0.031 C 
ATOM     66  C   UNL A   1      45.015  31.477  28.515  1.00  0.00     0.034 A 
BRANCH  53  67
ATOM     67  C   UNL A   1      39.540  28.923  29.885  1.00  0.00     0.023 A 
ATOM     68  C   UNL A   1      38.481  29.492  29.153  1.00  0.00     0.031 A 
ATOM     69  C   UNL A   1      39.279  28.500  31.200  1.00  0.00     0.131 A 
ATOM     70  C   UNL A   1      37.230  29.670  29.758  1.00  0.00     0.055 A 
ATOM     71  C   UNL A   1      38.010  28.610  31.770  1.00  0.00     0.041 A 
ATOM     72  F   UNL A   1      40.256  27.971  31.953  1.00  0.00    -0.206 F 
ATOM     73  C   UNL A   1      36.977  29.208  31.052  1.00  0.00     0.022 A 
BRANCH  70  74
ATOM     74  S   UNL A   1      35.967  30.620  28.869  1.00  0.00     0.124 S 
ATOM     75  O   UNL A   1      36.788  31.459  27.999  1.00  0.00    -0.237 OA
ATOM     76  O   UNL A   1      35.193  29.577  28.207  1.00  0.00    -0.237 OA
ATOM     77  O   UNL A   1      35.266  31.338  29.933  1.00  0.00    -0.744 OA
ENDBRANCH  70  74
ENDBRANCH  53  67
BRANCH  54  78
ATOM     78  C   UNL A   1      48.543  27.382  25.765  1.00  0.00     0.023 A 
ATOM     79  C   UNL A   1      48.703  27.582  24.384  1.00  0.00     0.031 A 
ATOM     80  C   UNL A   1      49.648  26.897  26.488  1.00  0.00     0.131 A 
ATOM     81  C   UNL A   1      49.905  27.216  23.756  1.00  0.00     0.055 A 
ATOM     82  C   UNL A   1      50.868  26.609  25.871  1.00  0.00     0.041 A 
ATOM     83  F   UNL A   1      49.556  26.683  27.811  1.00  0.00    -0.206 F 
ATOM     84  C   UNL A   1      50.993  26.746  24.493  1.00  0.00     0.022 A 
BRANCH  81  85
ATOM     85  S   UNL A   1      49.967  27.213  21.944  1.00  0.00     0.124 S 
ATOM     86  O   UNL A   1      48.809  26.389  21.611  1.00  0.00    -0.237 OA
ATOM     87  O   UNL A   1      49.854  28.634  21.634  1.00  0.00    -0.237 OA
ATOM     88  O   UNL A   1      51.266  26.612  21.650  1.00  0.00    -0.744 OA
ENDBRANCH  81  85
ENDBRANCH  54  78
BRANCH  66  89
ATOM     89  C   UNL A   1      45.520  32.863  28.838  1.00  0.00     0.023 A 
ATOM     90  C   UNL A   1      45.262  33.964  28.002  1.00  0.00     0.031 A 
ATOM     91  C   UNL A   1      46.280  33.082  30.001  1.00  0.00     0.131 A 
ATOM     92  C   UNL A   1      45.813  35.218  28.308  1.00  0.00     0.055 A 
ATOM     93  C   UNL A   1      46.766  34.347  30.337  1.00  0.00     0.041 A 
ATOM     94  F   UNL A   1      46.561  32.068  30.836  1.00  0.00    -0.206 F 
ATOM     95  C   UNL A   1      46.546  35.420  29.479  1.00  0.00     0.022 A 
BRANCH  92  96
ATOM     96  S   UNL A   1      45.643  36.560  27.099  1.00  0.00     0.124 S 
ATOM     97  O   UNL A   1      46.678  36.227  26.127  1.00  0.00    -0.237 OA
ATOM     98  O   UNL A   1      44.265  36.399  26.645  1.00  0.00    -0.237 OA
ATOM     99  O   UNL A   1      45.897  37.765  27.888  1.00  0.00    -0.744 OA
ENDBRANCH  92  96
ENDBRANCH  66  89
ENDBRANCH  40  41
ENDBRANCH  32  35
ENDBRANCH  30  31
ENDBRANCH  29  30
ENDBRANCH   1  29
TORSDOF 18
ENDMDL
