MODEL 1
REMARK VINA RESULT:      -9.9      0.000      0.000
REMARK SMILES COc1cc(OC)cc(-c2ccc([C@@H](C)C(=O)NCCCCNC(=O)c3ccc(-c4c5nc(c(-c6cc(S(=O)(=O)[O-])ccc6F)c6ccc([nH]6)c(-c6cc(S(=O)(=O)[O-])ccc6F)c6nc(c(-c7cc(S(=O)(=O)[O-])ccc7F)c7ccc4[nH]7)C=C6)C=C5)cc3)cc2F)c1
REMARK SMILES IDX 20 1 19 2 18 3 16 4 17 5 14 7 15 8 13 9 10 10 11 11 90 12
REMARK SMILES IDX 12 13 89 14 91 15 9 16 3 17 4 18 92 19 5 20 8 21 2 22 1 23
REMARK SMILES IDX 6 24 7 25 21 26 22 27 23 28 24 29 25 31 26 32 27 33 88 34
REMARK SMILES IDX 28 35 87 36 29 37 30 38 31 39 81 40 32 41 86 42 80 43 82 44
REMARK SMILES IDX 33 45 85 46 79 47 78 48 34 50 66 51 46 52 65 53 47 54 50 55
REMARK SMILES IDX 64 56 83 57 48 58 49 59 63 61 84 62 51 63 35 64 36 65 44 66
REMARK SMILES IDX 37 67 43 68 45 69 42 70 38 71 39 72 40 73 41 74 67 75 68 76
REMARK SMILES IDX 76 77 69 78 75 79 77 80 74 81 70 82 71 83 72 84 73 85 52 86
REMARK SMILES IDX 53 87 61 88 54 89 60 90 62 91 59 92 55 93 56 94 57 95 58 96
REMARK H PARENT 18 6 23 30 82 49 50 60
REMARK Flexibility Score: inf
ROOT
ATOM      1  C   UNL A   1      32.916  34.924  29.183  1.00  0.00     0.023 C 
ENDROOT
BRANCH   1   2
ATOM      2  C   UNL A   1      34.082  35.746  29.733  1.00  0.00     0.116 C 
BRANCH   2   3
ATOM      3  N   UNL A   1      34.164  35.685  31.178  1.00  0.00    -0.356 N 
ATOM      4  C   UNL A   1      34.697  34.752  32.015  1.00  0.00     0.227 C 
ATOM      5  O   UNL A   1      34.563  34.954  33.228  1.00  0.00    -0.274 OA
ATOM      6  H   UNL A   1      33.761  36.456  31.639  1.00  0.00     0.163 HD
BRANCH   4   7
ATOM      7  C   UNL A   1      35.444  33.498  31.534  1.00  0.00     0.105 C 
ATOM      8  C   UNL A   1      35.346  32.309  32.492  1.00  0.00     0.023 C 
BRANCH   7   9
ATOM      9  C   UNL A   1      36.826  33.798  30.977  1.00  0.00    -0.033 A 
ATOM     10  C   UNL A   1      39.503  34.217  30.039  1.00  0.00     0.018 A 
ATOM     11  C   UNL A   1      38.469  33.796  29.182  1.00  0.00     0.012 A 
ATOM     12  C   UNL A   1      39.146  34.441  31.376  1.00  0.00     0.131 A 
ATOM     13  C   UNL A   1      37.153  33.631  29.630  1.00  0.00     0.005 A 
ATOM     14  C   UNL A   1      37.845  34.220  31.844  1.00  0.00     0.044 A 
ATOM     15  F   UNL A   1      40.052  34.892  32.258  1.00  0.00    -0.206 F 
BRANCH  10  16
ATOM     16  C   UNL A   1      40.877  34.419  29.519  1.00  0.00    -0.008 A 
ATOM     17  C   UNL A   1      42.561  35.749  28.346  1.00  0.00     0.123 A 
ATOM     18  C   UNL A   1      43.508  34.749  28.573  1.00  0.00     0.092 A 
ATOM     19  C   UNL A   1      41.256  35.583  28.822  1.00  0.00     0.055 A 
ATOM     20  C   UNL A   1      43.173  33.592  29.271  1.00  0.00     0.123 A 
ATOM     21  C   UNL A   1      41.864  33.431  29.726  1.00  0.00     0.055 A 
BRANCH  17  22
ATOM     22  O   UNL A   1      43.028  36.819  27.631  1.00  0.00    -0.497 OA
ATOM     23  C   UNL A   1      42.106  37.869  27.371  1.00  0.00     0.278 C 
ENDBRANCH  17  22
BRANCH  20  24
ATOM     24  O   UNL A   1      44.192  32.696  29.441  1.00  0.00    -0.497 OA
ATOM     25  C   UNL A   1      43.826  31.371  29.808  1.00  0.00     0.278 C 
ENDBRANCH  20  24
ENDBRANCH  10  16
ENDBRANCH   7   9
ENDBRANCH   4   7
ENDBRANCH   2   3
ENDBRANCH   1   2
BRANCH   1  26
ATOM     26  C   UNL A   1      33.244  34.062  27.965  1.00  0.00     0.023 C 
BRANCH  26  27
ATOM     27  C   UNL A   1      34.052  32.801  28.254  1.00  0.00     0.116 C 
BRANCH  27  28
ATOM     28  N   UNL A   1      33.537  31.604  27.606  1.00  0.00    -0.352 N 
ATOM     29  C   UNL A   1      34.145  30.372  27.484  1.00  0.00     0.251 C 
ATOM     30  H   UNL A   1      32.642  31.684  27.205  1.00  0.00     0.163 HD
ATOM     31  O   UNL A   1      33.604  29.485  26.837  1.00  0.00    -0.269 OA
BRANCH  29  32
ATOM     32  C   UNL A   1      35.477  30.163  28.095  1.00  0.00     0.039 A 
ATOM     33  C   UNL A   1      35.549  29.695  29.409  1.00  0.00     0.014 A 
ATOM     34  C   UNL A   1      36.642  30.360  27.350  1.00  0.00     0.014 A 
ATOM     35  C   UNL A   1      36.789  29.338  29.944  1.00  0.00     0.010 A 
ATOM     36  C   UNL A   1      37.864  29.931  27.858  1.00  0.00     0.010 A 
ATOM     37  C   UNL A   1      37.949  29.406  29.156  1.00  0.00    -0.014 A 
BRANCH  37  38
ATOM     38  C   UNL A   1      39.256  28.914  29.665  1.00  0.00     0.031 A 
ATOM     39  C   UNL A   1      39.944  29.626  30.796  1.00  0.00     0.074 A 
ATOM     40  C   UNL A   1      39.857  27.875  29.052  1.00  0.00     0.049 A 
ATOM     41  N   UNL A   1      41.114  29.392  31.334  1.00  0.00    -0.248 NA
ATOM     42  C   UNL A   1      39.238  30.780  31.372  1.00  0.00     0.031 C 
ATOM     43  C   UNL A   1      39.320  27.146  27.899  1.00  0.00     0.029 A 
ATOM     44  N   UNL A   1      41.056  27.256  29.303  1.00  0.00    -0.354 N 
ATOM     45  C   UNL A   1      41.291  30.377  32.300  1.00  0.00     0.074 A 
ATOM     46  C   UNL A   1      40.137  31.249  32.222  1.00  0.00     0.031 C 
ATOM     47  C   UNL A   1      40.174  26.165  27.563  1.00  0.00     0.029 A 
ATOM     48  C   UNL A   1      41.333  26.216  28.447  1.00  0.00     0.049 A 
ATOM     49  H   UNL A   1      41.662  27.532  30.029  1.00  0.00     0.167 HD
ATOM     50  C   UNL A   1      42.307  30.524  33.185  1.00  0.00     0.034 A 
ATOM     51  C   UNL A   1      42.402  25.398  28.379  1.00  0.00     0.034 A 
ATOM     52  C   UNL A   1      43.442  29.635  33.258  1.00  0.00     0.049 A 
ATOM     53  C   UNL A   1      43.513  25.570  29.381  1.00  0.00     0.074 A 
ATOM     54  C   UNL A   1      44.493  29.648  34.157  1.00  0.00     0.029 A 
ATOM     55  N   UNL A   1      43.677  28.575  32.391  1.00  0.00    -0.354 N 
ATOM     56  N   UNL A   1      43.634  26.465  30.333  1.00  0.00    -0.248 NA
ATOM     57  C   UNL A   1      44.622  24.611  29.307  1.00  0.00     0.031 C 
ATOM     58  C   UNL A   1      45.392  28.635  33.799  1.00  0.00     0.029 A 
ATOM     59  C   UNL A   1      44.869  27.946  32.717  1.00  0.00     0.049 A 
ATOM     60  H   UNL A   1      43.083  28.309  31.651  1.00  0.00     0.167 HD
ATOM     61  C   UNL A   1      44.825  26.161  30.989  1.00  0.00     0.074 A 
ATOM     62  C   UNL A   1      45.371  24.990  30.332  1.00  0.00     0.031 C 
ATOM     63  C   UNL A   1      45.410  26.790  32.041  1.00  0.00     0.034 A 
BRANCH  50  64
ATOM     64  C   UNL A   1      42.237  31.706  34.125  1.00  0.00     0.023 A 
ATOM     65  C   UNL A   1      41.593  31.618  35.373  1.00  0.00     0.031 A 
ATOM     66  C   UNL A   1      42.779  32.949  33.754  1.00  0.00     0.131 A 
ATOM     67  C   UNL A   1      41.423  32.768  36.158  1.00  0.00     0.055 A 
ATOM     68  C   UNL A   1      42.685  34.071  34.581  1.00  0.00     0.041 A 
ATOM     69  F   UNL A   1      43.390  33.102  32.569  1.00  0.00    -0.206 F 
ATOM     70  C   UNL A   1      41.987  33.989  35.783  1.00  0.00     0.022 A 
BRANCH  67  71
ATOM     71  S   UNL A   1      40.317  32.678  37.593  1.00  0.00     0.124 S 
ATOM     72  O   UNL A   1      39.999  34.089  37.806  1.00  0.00    -0.237 OA
ATOM     73  O   UNL A   1      39.227  31.845  37.100  1.00  0.00    -0.237 OA
ATOM     74  O   UNL A   1      41.149  32.072  38.630  1.00  0.00    -0.744 OA
ENDBRANCH  67  71
ENDBRANCH  50  64
BRANCH  51  75
ATOM     75  C   UNL A   1      42.473  24.339  27.333  1.00  0.00     0.023 A 
ATOM     76  C   UNL A   1      41.732  23.153  27.454  1.00  0.00     0.031 A 
ATOM     77  C   UNL A   1      43.302  24.489  26.208  1.00  0.00     0.131 A 
ATOM     78  C   UNL A   1      41.866  22.144  26.488  1.00  0.00     0.055 A 
ATOM     79  C   UNL A   1      43.398  23.501  25.226  1.00  0.00     0.041 A 
ATOM     80  F   UNL A   1      44.023  25.609  26.040  1.00  0.00    -0.206 F 
ATOM     81  C   UNL A   1      42.685  22.314  25.369  1.00  0.00     0.022 A 
BRANCH  78  82
ATOM     82  S   UNL A   1      40.998  20.572  26.748  1.00  0.00     0.124 S 
ATOM     83  O   UNL A   1      39.757  20.792  26.015  1.00  0.00    -0.237 OA
ATOM     84  O   UNL A   1      41.929  19.613  26.163  1.00  0.00    -0.237 OA
ATOM     85  O   UNL A   1      40.861  20.496  28.201  1.00  0.00    -0.744 OA
ENDBRANCH  78  82
ENDBRANCH  51  75
BRANCH  63  86
ATOM     86  C   UNL A   1      46.694  26.192  32.560  1.00  0.00     0.023 A 
ATOM     87  C   UNL A   1      46.697  25.168  33.522  1.00  0.00     0.031 A 
ATOM     88  C   UNL A   1      47.933  26.673  32.100  1.00  0.00     0.131 A 
ATOM     89  C   UNL A   1      47.913  24.697  34.038  1.00  0.00     0.055 A 
ATOM     90  C   UNL A   1      49.141  26.159  32.573  1.00  0.00     0.041 A 
ATOM     91  F   UNL A   1      47.989  27.652  31.183  1.00  0.00    -0.206 F 
ATOM     92  C   UNL A   1      49.136  25.175  33.558  1.00  0.00     0.022 A 
BRANCH  89  93
ATOM     93  S   UNL A   1      47.877  23.515  35.414  1.00  0.00     0.124 S 
ATOM     94  O   UNL A   1      46.499  23.634  35.878  1.00  0.00    -0.237 OA
ATOM     95  O   UNL A   1      48.223  22.260  34.756  1.00  0.00    -0.237 OA
ATOM     96  O   UNL A   1      48.888  24.031  36.336  1.00  0.00    -0.744 OA
ENDBRANCH  89  93
ENDBRANCH  63  86
ENDBRANCH  37  38
ENDBRANCH  29  32
ENDBRANCH  27  28
ENDBRANCH  26  27
ENDBRANCH   1  26
TORSDOF 18
ENDMDL
MODEL 2
REMARK VINA RESULT:      -9.7      4.900     11.509
REMARK SMILES COc1cc(OC)cc(-c2ccc([C@@H](C)C(=O)NCCCCNC(=O)c3ccc(-c4c5nc(c(-c6cc(S(=O)(=O)[O-])ccc6F)c6ccc([nH]6)c(-c6cc(S(=O)(=O)[O-])ccc6F)c6nc(c(-c7cc(S(=O)(=O)[O-])ccc7F)c7ccc4[nH]7)C=C6)C=C5)cc3)cc2F)c1
REMARK SMILES IDX 20 1 19 2 18 3 16 4 17 5 14 7 15 8 13 9 10 10 11 11 90 12
REMARK SMILES IDX 12 13 89 14 91 15 9 16 3 17 4 18 92 19 5 20 8 21 2 22 1 23
REMARK SMILES IDX 6 24 7 25 21 26 22 27 23 28 24 29 25 31 26 32 27 33 88 34
REMARK SMILES IDX 28 35 87 36 29 37 30 38 31 39 81 40 32 41 86 42 80 43 82 44
REMARK SMILES IDX 33 45 85 46 79 47 78 48 34 50 66 51 46 52 65 53 47 54 50 55
REMARK SMILES IDX 64 56 83 57 48 58 49 59 63 61 84 62 51 63 35 64 36 65 44 66
REMARK SMILES IDX 37 67 43 68 45 69 42 70 38 71 39 72 40 73 41 74 67 75 68 76
REMARK SMILES IDX 76 77 69 78 75 79 77 80 74 81 70 82 71 83 72 84 73 85 52 86
REMARK SMILES IDX 53 87 61 88 54 89 60 90 62 91 59 92 55 93 56 94 57 95 58 96
REMARK H PARENT 18 6 23 30 82 49 50 60
REMARK Flexibility Score: inf
ROOT
ATOM      1  C   UNL A   1      35.870  21.092  24.638  1.00  0.00     0.023 C 
ENDROOT
BRANCH   1   2
ATOM      2  C   UNL A   1      34.880  21.246  25.794  1.00  0.00     0.116 C 
BRANCH   2   3
ATOM      3  N   UNL A   1      33.969  20.123  25.890  1.00  0.00    -0.356 N 
ATOM      4  C   UNL A   1      32.766  19.881  25.301  1.00  0.00     0.227 C 
ATOM      5  O   UNL A   1      32.188  18.837  25.628  1.00  0.00    -0.274 OA
ATOM      6  H   UNL A   1      34.276  19.406  26.490  1.00  0.00     0.163 HD
BRANCH   4   7
ATOM      7  C   UNL A   1      32.113  20.818  24.271  1.00  0.00     0.105 C 
ATOM      8  C   UNL A   1      32.357  20.410  22.817  1.00  0.00     0.023 C 
BRANCH   7   9
ATOM      9  C   UNL A   1      32.300  22.291  24.595  1.00  0.00    -0.033 A 
ATOM     10  C   UNL A   1      32.546  25.111  25.044  1.00  0.00     0.018 A 
ATOM     11  C   UNL A   1      31.854  24.272  25.936  1.00  0.00     0.012 A 
ATOM     12  C   UNL A   1      33.129  24.487  23.932  1.00  0.00     0.131 A 
ATOM     13  C   UNL A   1      31.768  22.889  25.740  1.00  0.00     0.005 A 
ATOM     14  C   UNL A   1      32.996  23.115  23.698  1.00  0.00     0.044 A 
ATOM     15  F   UNL A   1      33.851  25.199  23.052  1.00  0.00    -0.206 F 
BRANCH  10  16
ATOM     16  C   UNL A   1      32.649  26.568  25.307  1.00  0.00    -0.008 A 
ATOM     17  C   UNL A   1      33.783  28.505  26.278  1.00  0.00     0.123 A 
ATOM     18  C   UNL A   1      32.797  29.343  25.756  1.00  0.00     0.092 A 
ATOM     19  C   UNL A   1      33.709  27.127  26.049  1.00  0.00     0.055 A 
ATOM     20  C   UNL A   1      31.744  28.826  25.006  1.00  0.00     0.123 A 
ATOM     21  C   UNL A   1      31.672  27.449  24.798  1.00  0.00     0.055 A 
BRANCH  17  22
ATOM     22  O   UNL A   1      34.745  29.149  27.009  1.00  0.00    -0.497 OA
ATOM     23  C   UNL A   1      34.446  30.470  27.442  1.00  0.00     0.278 C 
ENDBRANCH  17  22
BRANCH  20  24
ATOM     24  O   UNL A   1      30.851  29.751  24.537  1.00  0.00    -0.497 OA
ATOM     25  C   UNL A   1      29.949  29.317  23.526  1.00  0.00     0.278 C 
ENDBRANCH  20  24
ENDBRANCH  10  16
ENDBRANCH   7   9
ENDBRANCH   4   7
ENDBRANCH   2   3
ENDBRANCH   1   2
BRANCH   1  26
ATOM     26  C   UNL A   1      36.479  22.395  24.124  1.00  0.00     0.023 C 
BRANCH  26  27
ATOM     27  C   UNL A   1      37.427  23.101  25.089  1.00  0.00     0.116 C 
BRANCH  27  28
ATOM     28  N   UNL A   1      38.447  22.233  25.661  1.00  0.00    -0.352 N 
ATOM     29  C   UNL A   1      39.505  22.582  26.473  1.00  0.00     0.251 C 
ATOM     30  H   UNL A   1      38.370  21.278  25.442  1.00  0.00     0.163 HD
ATOM     31  O   UNL A   1      40.323  21.736  26.809  1.00  0.00    -0.269 OA
BRANCH  29  32
ATOM     32  C   UNL A   1      39.665  23.996  26.879  1.00  0.00     0.039 A 
ATOM     33  C   UNL A   1      39.359  24.359  28.192  1.00  0.00     0.014 A 
ATOM     34  C   UNL A   1      40.182  24.940  25.988  1.00  0.00     0.014 A 
ATOM     35  C   UNL A   1      39.657  25.649  28.637  1.00  0.00     0.010 A 
ATOM     36  C   UNL A   1      40.549  26.199  26.454  1.00  0.00     0.010 A 
ATOM     37  C   UNL A   1      40.300  26.563  27.787  1.00  0.00    -0.014 A 
BRANCH  37  38
ATOM     38  C   UNL A   1      40.738  27.896  28.277  1.00  0.00     0.031 A 
ATOM     39  C   UNL A   1      42.203  28.209  28.409  1.00  0.00     0.074 A 
ATOM     40  C   UNL A   1      39.814  28.790  28.680  1.00  0.00     0.049 A 
ATOM     41  N   UNL A   1      42.781  29.285  28.878  1.00  0.00    -0.248 NA
ATOM     42  C   UNL A   1      43.140  27.156  27.993  1.00  0.00     0.031 C 
ATOM     43  C   UNL A   1      38.364  28.574  28.665  1.00  0.00     0.029 A 
ATOM     44  N   UNL A   1      39.953  30.056  29.189  1.00  0.00    -0.354 N 
ATOM     45  C   UNL A   1      44.148  29.034  28.829  1.00  0.00     0.074 A 
ATOM     46  C   UNL A   1      44.304  27.676  28.348  1.00  0.00     0.031 C 
ATOM     47  C   UNL A   1      37.751  29.679  29.119  1.00  0.00     0.029 A 
ATOM     48  C   UNL A   1      38.757  30.667  29.491  1.00  0.00     0.049 A 
ATOM     49  H   UNL A   1      40.828  30.488  29.327  1.00  0.00     0.167 HD
ATOM     50  C   UNL A   1      45.176  29.865  29.131  1.00  0.00     0.034 A 
ATOM     51  C   UNL A   1      38.502  31.884  30.010  1.00  0.00     0.034 A 
ATOM     52  C   UNL A   1      45.000  31.221  29.593  1.00  0.00     0.049 A 
ATOM     53  C   UNL A   1      39.657  32.797  30.325  1.00  0.00     0.074 A 
ATOM     54  C   UNL A   1      45.966  32.174  29.863  1.00  0.00     0.029 A 
ATOM     55  N   UNL A   1      43.773  31.816  29.862  1.00  0.00    -0.354 N 
ATOM     56  N   UNL A   1      40.945  32.569  30.209  1.00  0.00    -0.248 NA
ATOM     57  C   UNL A   1      39.323  34.135  30.827  1.00  0.00     0.031 C 
ATOM     58  C   UNL A   1      45.329  33.322  30.350  1.00  0.00     0.029 A 
ATOM     59  C   UNL A   1      43.960  33.111  30.320  1.00  0.00     0.049 A 
ATOM     60  H   UNL A   1      42.897  31.380  29.745  1.00  0.00     0.167 HD
ATOM     61  C   UNL A   1      41.575  33.747  30.601  1.00  0.00     0.074 A 
ATOM     62  C   UNL A   1      40.523  34.686  30.938  1.00  0.00     0.031 C 
ATOM     63  C   UNL A   1      42.901  34.029  30.670  1.00  0.00     0.034 A 
BRANCH  50  64
ATOM     64  C   UNL A   1      46.575  29.313  28.987  1.00  0.00     0.023 A 
ATOM     65  C   UNL A   1      47.196  29.195  27.730  1.00  0.00     0.031 A 
ATOM     66  C   UNL A   1      47.282  28.852  30.112  1.00  0.00     0.131 A 
ATOM     67  C   UNL A   1      48.436  28.550  27.617  1.00  0.00     0.055 A 
ATOM     68  C   UNL A   1      48.556  28.291  30.003  1.00  0.00     0.041 A 
ATOM     69  F   UNL A   1      46.736  28.919  31.336  1.00  0.00    -0.206 F 
ATOM     70  C   UNL A   1      49.133  28.119  28.748  1.00  0.00     0.022 A 
BRANCH  67  71
ATOM     71  S   UNL A   1      49.047  28.136  25.960  1.00  0.00     0.124 S 
ATOM     72  O   UNL A   1      50.176  29.054  25.826  1.00  0.00    -0.237 OA
ATOM     73  O   UNL A   1      49.382  26.724  26.090  1.00  0.00    -0.237 OA
ATOM     74  O   UNL A   1      47.909  28.432  25.092  1.00  0.00    -0.744 OA
ENDBRANCH  67  71
ENDBRANCH  50  64
BRANCH  51  75
ATOM     75  C   UNL A   1      37.097  32.314  30.261  1.00  0.00     0.023 A 
ATOM     76  C   UNL A   1      36.364  32.993  29.275  1.00  0.00     0.031 A 
ATOM     77  C   UNL A   1      36.477  32.074  31.499  1.00  0.00     0.131 A 
ATOM     78  C   UNL A   1      35.065  33.444  29.558  1.00  0.00     0.055 A 
ATOM     79  C   UNL A   1      35.169  32.486  31.760  1.00  0.00     0.041 A 
ATOM     80  F   UNL A   1      37.132  31.420  32.471  1.00  0.00    -0.206 F 
ATOM     81  C   UNL A   1      34.459  33.186  30.789  1.00  0.00     0.022 A 
BRANCH  78  82
ATOM     82  S   UNL A   1      34.199  34.434  28.308  1.00  0.00     0.124 S 
ATOM     83  O   UNL A   1      34.020  35.703  29.005  1.00  0.00    -0.237 OA
ATOM     84  O   UNL A   1      35.157  34.436  27.207  1.00  0.00    -0.237 OA
ATOM     85  O   UNL A   1      32.974  33.677  28.063  1.00  0.00    -0.744 OA
ENDBRANCH  78  82
ENDBRANCH  51  75
BRANCH  63  86
ATOM     86  C   UNL A   1      43.277  35.426  31.099  1.00  0.00     0.023 A 
ATOM     87  C   UNL A   1      43.484  36.455  30.165  1.00  0.00     0.031 A 
ATOM     88  C   UNL A   1      43.453  35.722  32.463  1.00  0.00     0.131 A 
ATOM     89  C   UNL A   1      43.911  37.719  30.600  1.00  0.00     0.055 A 
ATOM     90  C   UNL A   1      43.821  36.997  32.895  1.00  0.00     0.041 A 
ATOM     91  F   UNL A   1      43.271  34.776  33.398  1.00  0.00    -0.206 F 
ATOM     92  C   UNL A   1      44.066  38.000  31.961  1.00  0.00     0.022 A 
BRANCH  89  93
ATOM     93  S   UNL A   1      44.353  38.964  29.359  1.00  0.00     0.124 S 
ATOM     94  O   UNL A   1      43.094  39.139  28.643  1.00  0.00    -0.237 OA
ATOM     95  O   UNL A   1      44.780  40.089  30.183  1.00  0.00    -0.237 OA
ATOM     96  O   UNL A   1      45.418  38.320  28.590  1.00  0.00    -0.744 OA
ENDBRANCH  89  93
ENDBRANCH  63  86
ENDBRANCH  37  38
ENDBRANCH  29  32
ENDBRANCH  27  28
ENDBRANCH  26  27
ENDBRANCH   1  26
TORSDOF 18
ENDMDL
MODEL 3
REMARK VINA RESULT:      -9.6      3.674     11.490
REMARK SMILES COc1cc(OC)cc(-c2ccc([C@@H](C)C(=O)NCCCCNC(=O)c3ccc(-c4c5nc(c(-c6cc(S(=O)(=O)[O-])ccc6F)c6ccc([nH]6)c(-c6cc(S(=O)(=O)[O-])ccc6F)c6nc(c(-c7cc(S(=O)(=O)[O-])ccc7F)c7ccc4[nH]7)C=C6)C=C5)cc3)cc2F)c1
REMARK SMILES IDX 20 1 19 2 18 3 16 4 17 5 14 7 15 8 13 9 10 10 11 11 90 12
REMARK SMILES IDX 12 13 89 14 91 15 9 16 3 17 4 18 92 19 5 20 8 21 2 22 1 23
REMARK SMILES IDX 6 24 7 25 21 26 22 27 23 28 24 29 25 31 26 32 27 33 88 34
REMARK SMILES IDX 28 35 87 36 29 37 30 38 31 39 81 40 32 41 86 42 80 43 82 44
REMARK SMILES IDX 33 45 85 46 79 47 78 48 34 50 66 51 46 52 65 53 47 54 50 55
REMARK SMILES IDX 64 56 83 57 48 58 49 59 63 61 84 62 51 63 35 64 36 65 44 66
REMARK SMILES IDX 37 67 43 68 45 69 42 70 38 71 39 72 40 73 41 74 67 75 68 76
REMARK SMILES IDX 76 77 69 78 75 79 77 80 74 81 70 82 71 83 72 84 73 85 52 86
REMARK SMILES IDX 53 87 61 88 54 89 60 90 62 91 59 92 55 93 56 94 57 95 58 96
REMARK H PARENT 18 6 23 30 82 49 50 60
REMARK Flexibility Score: inf
ROOT
ATOM      1  C   UNL A   1      41.946  19.505  25.656  1.00  0.00     0.023 C 
ENDROOT
BRANCH   1   2
ATOM      2  C   UNL A   1      43.290  19.254  26.341  1.00  0.00     0.116 C 
BRANCH   2   3
ATOM      3  N   UNL A   1      44.378  19.952  25.687  1.00  0.00    -0.356 N 
ATOM      4  C   UNL A   1      44.564  21.269  25.399  1.00  0.00     0.227 C 
ATOM      5  O   UNL A   1      45.591  21.561  24.772  1.00  0.00    -0.274 OA
ATOM      6  H   UNL A   1      45.117  19.368  25.399  1.00  0.00     0.163 HD
BRANCH   4   7
ATOM      7  C   UNL A   1      43.587  22.382  25.811  1.00  0.00     0.105 C 
ATOM      8  C   UNL A   1      43.406  23.474  24.755  1.00  0.00     0.023 C 
BRANCH   7   9
ATOM      9  C   UNL A   1      43.787  22.858  27.240  1.00  0.00    -0.033 A 
ATOM     10  C   UNL A   1      44.168  23.942  29.867  1.00  0.00     0.018 A 
ATOM     11  C   UNL A   1      42.993  23.259  29.505  1.00  0.00     0.012 A 
ATOM     12  C   UNL A   1      45.154  24.045  28.875  1.00  0.00     0.131 A 
ATOM     13  C   UNL A   1      42.822  22.693  28.236  1.00  0.00     0.005 A 
ATOM     14  C   UNL A   1      44.966  23.535  27.586  1.00  0.00     0.044 A 
ATOM     15  F   UNL A   1      46.330  24.635  29.142  1.00  0.00    -0.206 F 
BRANCH  10  16
ATOM     16  C   UNL A   1      44.329  24.493  31.235  1.00  0.00    -0.008 A 
ATOM     17  C   UNL A   1      44.631  24.216  33.645  1.00  0.00     0.123 A 
ATOM     18  C   UNL A   1      44.647  25.602  33.802  1.00  0.00     0.092 A 
ATOM     19  C   UNL A   1      44.477  23.668  32.367  1.00  0.00     0.055 A 
ATOM     20  C   UNL A   1      44.518  26.447  32.703  1.00  0.00     0.123 A 
ATOM     21  C   UNL A   1      44.349  25.889  31.436  1.00  0.00     0.055 A 
BRANCH  17  22
ATOM     22  O   UNL A   1      44.749  23.512  34.814  1.00  0.00    -0.497 OA
ATOM     23  C   UNL A   1      45.762  22.516  34.865  1.00  0.00     0.278 C 
ENDBRANCH  17  22
BRANCH  20  24
ATOM     24  O   UNL A   1      44.564  27.785  32.986  1.00  0.00    -0.497 OA
ATOM     25  C   UNL A   1      43.597  28.610  32.346  1.00  0.00     0.278 C 
ENDBRANCH  20  24
ENDBRANCH  10  16
ENDBRANCH   7   9
ENDBRANCH   4   7
ENDBRANCH   2   3
ENDBRANCH   1   2
BRANCH   1  26
ATOM     26  C   UNL A   1      40.769  19.747  26.599  1.00  0.00     0.023 C 
BRANCH  26  27
ATOM     27  C   UNL A   1      40.376  21.208  26.796  1.00  0.00     0.116 C 
BRANCH  27  28
ATOM     28  N   UNL A   1      39.119  21.576  26.162  1.00  0.00    -0.352 N 
ATOM     29  C   UNL A   1      38.538  22.824  26.082  1.00  0.00     0.251 C 
ATOM     30  H   UNL A   1      38.622  20.842  25.736  1.00  0.00     0.163 HD
ATOM     31  O   UNL A   1      37.431  22.952  25.575  1.00  0.00    -0.269 OA
BRANCH  29  32
ATOM     32  C   UNL A   1      39.245  23.986  26.666  1.00  0.00     0.039 A 
ATOM     33  C   UNL A   1      40.013  24.798  25.828  1.00  0.00     0.014 A 
ATOM     34  C   UNL A   1      39.091  24.310  28.016  1.00  0.00     0.014 A 
ATOM     35  C   UNL A   1      40.553  25.985  26.326  1.00  0.00     0.010 A 
ATOM     36  C   UNL A   1      39.563  25.530  28.489  1.00  0.00     0.010 A 
ATOM     37  C   UNL A   1      40.289  26.386  27.646  1.00  0.00    -0.014 A 
BRANCH  37  38
ATOM     38  C   UNL A   1      40.748  27.704  28.158  1.00  0.00     0.031 A 
ATOM     39  C   UNL A   1      42.218  28.002  28.268  1.00  0.00     0.074 A 
ATOM     40  C   UNL A   1      39.840  28.596  28.599  1.00  0.00     0.049 A 
ATOM     41  N   UNL A   1      42.814  29.063  28.750  1.00  0.00    -0.248 NA
ATOM     42  C   UNL A   1      43.137  26.951  27.810  1.00  0.00     0.031 C 
ATOM     43  C   UNL A   1      38.388  28.393  28.608  1.00  0.00     0.029 A 
ATOM     44  N   UNL A   1      40.000  29.850  29.134  1.00  0.00    -0.354 N 
ATOM     45  C   UNL A   1      44.178  28.801  28.667  1.00  0.00     0.074 A 
ATOM     46  C   UNL A   1      44.313  27.453  28.154  1.00  0.00     0.031 C 
ATOM     47  C   UNL A   1      37.793  29.493  29.098  1.00  0.00     0.029 A 
ATOM     48  C   UNL A   1      38.816  30.464  29.472  1.00  0.00     0.049 A 
ATOM     49  H   UNL A   1      40.881  30.271  29.264  1.00  0.00     0.167 HD
ATOM     50  C   UNL A   1      45.219  29.616  28.968  1.00  0.00     0.034 A 
ATOM     51  C   UNL A   1      38.581  31.670  30.024  1.00  0.00     0.034 A 
ATOM     52  C   UNL A   1      45.064  30.963  29.464  1.00  0.00     0.049 A 
ATOM     53  C   UNL A   1      39.750  32.566  30.336  1.00  0.00     0.074 A 
ATOM     54  C   UNL A   1      46.043  31.902  29.736  1.00  0.00     0.029 A 
ATOM     55  N   UNL A   1      43.847  31.562  29.770  1.00  0.00    -0.354 N 
ATOM     56  N   UNL A   1      41.034  32.330  30.190  1.00  0.00    -0.248 NA
ATOM     57  C   UNL A   1      39.437  33.896  30.874  1.00  0.00     0.031 C 
ATOM     58  C   UNL A   1      45.426  33.043  30.261  1.00  0.00     0.029 A 
ATOM     59  C   UNL A   1      44.055  32.845  30.253  1.00  0.00     0.049 A 
ATOM     60  H   UNL A   1      42.966  31.136  29.660  1.00  0.00     0.167 HD
ATOM     61  C   UNL A   1      41.681  33.494  30.596  1.00  0.00     0.074 A 
ATOM     62  C   UNL A   1      40.644  34.434  30.974  1.00  0.00     0.031 C 
ATOM     63  C   UNL A   1      43.011  33.763  30.645  1.00  0.00     0.034 A 
BRANCH  50  64
ATOM     64  C   UNL A   1      46.610  29.056  28.784  1.00  0.00     0.023 A 
ATOM     65  C   UNL A   1      47.213  28.980  27.516  1.00  0.00     0.031 A 
ATOM     66  C   UNL A   1      47.327  28.546  29.882  1.00  0.00     0.131 A 
ATOM     67  C   UNL A   1      48.445  28.327  27.361  1.00  0.00     0.055 A 
ATOM     68  C   UNL A   1      48.593  27.976  29.734  1.00  0.00     0.041 A 
ATOM     69  F   UNL A   1      46.798  28.572  31.115  1.00  0.00    -0.206 F 
ATOM     70  C   UNL A   1      49.152  27.847  28.466  1.00  0.00     0.022 A 
BRANCH  67  71
ATOM     71  S   UNL A   1      49.029  27.970  25.681  1.00  0.00     0.124 S 
ATOM     72  O   UNL A   1      50.238  28.787  25.612  1.00  0.00    -0.237 OA
ATOM     73  O   UNL A   1      49.232  26.527  25.717  1.00  0.00    -0.237 OA
ATOM     74  O   UNL A   1      47.930  28.426  24.832  1.00  0.00    -0.744 OA
ENDBRANCH  67  71
ENDBRANCH  50  64
BRANCH  51  75
ATOM     75  C   UNL A   1      37.185  32.107  30.311  1.00  0.00     0.023 A 
ATOM     76  C   UNL A   1      36.408  32.734  29.326  1.00  0.00     0.031 A 
ATOM     77  C   UNL A   1      36.618  31.924  31.585  1.00  0.00     0.131 A 
ATOM     78  C   UNL A   1      35.119  33.193  29.640  1.00  0.00     0.055 A 
ATOM     79  C   UNL A   1      35.320  32.343  31.880  1.00  0.00     0.041 A 
ATOM     80  F   UNL A   1      37.318  31.320  32.558  1.00  0.00    -0.206 F 
ATOM     81  C   UNL A   1      34.566  32.992  30.907  1.00  0.00     0.022 A 
BRANCH  78  82
ATOM     82  S   UNL A   1      34.197  34.118  28.381  1.00  0.00     0.124 S 
ATOM     83  O   UNL A   1      33.132  33.181  28.044  1.00  0.00    -0.237 OA
ATOM     84  O   UNL A   1      33.793  35.311  29.119  1.00  0.00    -0.237 OA
ATOM     85  O   UNL A   1      35.187  34.344  27.331  1.00  0.00    -0.744 OA
ENDBRANCH  78  82
ENDBRANCH  51  75
BRANCH  63  86
ATOM     86  C   UNL A   1      43.407  35.147  31.098  1.00  0.00     0.023 A 
ATOM     87  C   UNL A   1      43.561  36.206  30.187  1.00  0.00     0.031 A 
ATOM     88  C   UNL A   1      43.657  35.400  32.458  1.00  0.00     0.131 A 
ATOM     89  C   UNL A   1      44.010  37.457  30.639  1.00  0.00     0.055 A 
ATOM     90  C   UNL A   1      44.046  36.662  32.911  1.00  0.00     0.041 A 
ATOM     91  F   UNL A   1      43.528  34.424  33.371  1.00  0.00    -0.206 F 
ATOM     92  C   UNL A   1      44.238  37.695  31.997  1.00  0.00     0.022 A 
BRANCH  89  93
ATOM     93  S   UNL A   1      44.382  38.743  29.416  1.00  0.00     0.124 S 
ATOM     94  O   UNL A   1      43.802  39.929  30.038  1.00  0.00    -0.237 OA
ATOM     95  O   UNL A   1      45.838  38.703  29.354  1.00  0.00    -0.237 OA
ATOM     96  O   UNL A   1      43.697  38.278  28.210  1.00  0.00    -0.744 OA
ENDBRANCH  89  93
ENDBRANCH  63  86
ENDBRANCH  37  38
ENDBRANCH  29  32
ENDBRANCH  27  28
ENDBRANCH  26  27
ENDBRANCH   1  26
TORSDOF 18
ENDMDL
