MODEL 1
REMARK VINA RESULT:     -12.3      0.000      0.000
REMARK SMILES CC(C)(C)c1cc2c(cc1Cl)C=C(C(=O)NCCCCNC(=O)c1ccc(-c3c4nc(c(-c5cc(S(=O)(=O)[O-])ccc5F)c5ccc([nH]5)c(-c5cc(S(=O)(=O)[O-])ccc5F)c5nc(c(-c6cc(S(=O)(=O)[O-])ccc6F)c6ccc3[nH]6)C=C5)C=C4)cc1)[C@@H](C(F)(F)F)O2
REMARK SMILES IDX 19 1 18 2 17 3 16 4 14 5 15 6 13 8 5 9 6 10 10 11 7 12 9 13
REMARK SMILES IDX 11 14 8 15 92 16 12 17 87 18 2 19 1 20 3 21 4 22 88 23 89 24
REMARK SMILES IDX 90 25 91 26 20 27 21 28 22 29 23 31 24 32 25 33 86 34 26 35
REMARK SMILES IDX 85 36 27 37 28 38 29 39 79 40 30 41 84 42 78 43 80 44 31 45
REMARK SMILES IDX 83 46 77 47 76 48 32 50 64 51 44 52 63 53 45 54 48 55 62 56
REMARK SMILES IDX 81 57 46 58 47 59 61 61 82 62 49 63 33 64 34 65 42 66 35 67
REMARK SMILES IDX 41 68 43 69 40 70 36 71 37 72 38 73 39 74 65 75 66 76 74 77
REMARK SMILES IDX 67 78 73 79 75 80 72 81 68 82 69 83 70 84 71 85 50 86 51 87
REMARK SMILES IDX 59 88 52 89 58 90 60 91 57 92 53 93 54 94 55 95 56 96
REMARK H PARENT 16 7 21 30 80 49 48 60
REMARK Flexibility Score: inf
ROOT
ATOM      1  C   UNL A   1      31.413  31.970  26.927  1.00  0.00     0.023 C 
ENDROOT
BRANCH   1   2
ATOM      2  C   UNL A   1      31.905  30.521  26.877  1.00  0.00     0.023 C 
BRANCH   2   3
ATOM      3  C   UNL A   1      32.271  30.033  25.479  1.00  0.00     0.116 C 
BRANCH   3   4
ATOM      4  N   UNL A   1      31.105  29.907  24.621  1.00  0.00    -0.352 N 
ATOM      5  C   UNL A   1      30.535  28.933  23.874  1.00  0.00     0.251 C 
ATOM      6  O   UNL A   1      29.511  29.262  23.267  1.00  0.00    -0.270 OA
ATOM      7  H   UNL A   1      30.600  30.750  24.568  1.00  0.00     0.163 HD
BRANCH   5   8
ATOM      8  C   UNL A   1      31.046  27.537  23.747  1.00  0.00     0.067 C 
ATOM      9  C   UNL A   1      32.436  22.725  24.637  1.00  0.00    -0.020 A 
ATOM     10  C   UNL A   1      32.236  23.530  23.494  1.00  0.00     0.053 A 
ATOM     11  C   UNL A   1      32.115  23.327  25.880  1.00  0.00     0.045 A 
ATOM     12  C   UNL A   1      31.770  24.842  23.580  1.00  0.00     0.128 A 
ATOM     13  C   UNL A   1      31.613  24.641  25.954  1.00  0.00     0.032 A 
ATOM     14  Cl  UNL A   1      32.318  22.555  27.416  1.00  0.00    -0.084 Cl
ATOM     15  C   UNL A   1      31.443  25.406  24.804  1.00  0.00     0.019 A 
ATOM     16  O   UNL A   1      31.631  25.526  22.404  1.00  0.00    -0.475 OA
ATOM     17  C   UNL A   1      30.924  26.766  24.846  1.00  0.00     0.025 C 
ATOM     18  C   UNL A   1      31.710  26.978  22.520  1.00  0.00     0.314 C 
BRANCH   9  19
ATOM     19  C   UNL A   1      33.004  21.293  24.470  1.00  0.00    -0.012 C 
ATOM     20  C   UNL A   1      32.481  20.291  25.540  1.00  0.00     0.016 C 
ATOM     21  C   UNL A   1      34.542  21.263  24.610  1.00  0.00     0.016 C 
ATOM     22  C   UNL A   1      32.574  20.711  23.106  1.00  0.00     0.016 C 
ENDBRANCH   9  19
BRANCH  18  23
ATOM     23  C   UNL A   1      33.180  27.424  22.386  1.00  0.00     0.429 C 
ATOM     24  F   UNL A   1      33.802  27.372  23.590  1.00  0.00    -0.167 F 
ATOM     25  F   UNL A   1      33.890  26.631  21.551  1.00  0.00    -0.167 F 
ATOM     26  F   UNL A   1      33.303  28.689  21.925  1.00  0.00    -0.167 F 
ENDBRANCH  18  23
ENDBRANCH   5   8
ENDBRANCH   3   4
ENDBRANCH   2   3
ENDBRANCH   1   2
BRANCH   1  27
ATOM     27  C   UNL A   1      32.487  33.033  26.711  1.00  0.00     0.116 C 
BRANCH  27  28
ATOM     28  N   UNL A   1      32.369  34.191  27.588  1.00  0.00    -0.352 N 
ATOM     29  C   UNL A   1      33.220  34.547  28.612  1.00  0.00     0.251 C 
ATOM     30  H   UNL A   1      31.598  34.783  27.432  1.00  0.00     0.163 HD
ATOM     31  O   UNL A   1      32.988  35.520  29.319  1.00  0.00    -0.269 OA
BRANCH  29  32
ATOM     32  C   UNL A   1      34.385  33.677  28.861  1.00  0.00     0.039 A 
ATOM     33  C   UNL A   1      34.191  32.406  29.404  1.00  0.00     0.014 A 
ATOM     34  C   UNL A   1      35.667  34.210  28.710  1.00  0.00     0.014 A 
ATOM     35  C   UNL A   1      35.275  31.732  29.952  1.00  0.00     0.010 A 
ATOM     36  C   UNL A   1      36.761  33.497  29.200  1.00  0.00     0.010 A 
ATOM     37  C   UNL A   1      36.566  32.282  29.876  1.00  0.00    -0.014 A 
BRANCH  37  38
ATOM     38  C   UNL A   1      37.700  31.582  30.525  1.00  0.00     0.031 A 
ATOM     39  C   UNL A   1      38.052  31.861  31.960  1.00  0.00     0.074 A 
ATOM     40  C   UNL A   1      38.381  30.656  29.825  1.00  0.00     0.049 A 
ATOM     41  N   UNL A   1      39.019  31.357  32.682  1.00  0.00    -0.248 NA
ATOM     42  C   UNL A   1      37.209  32.828  32.682  1.00  0.00     0.031 C 
ATOM     43  C   UNL A   1      38.095  30.287  28.439  1.00  0.00     0.029 A 
ATOM     44  N   UNL A   1      39.431  29.849  30.179  1.00  0.00    -0.354 N 
ATOM     45  C   UNL A   1      38.913  31.953  33.934  1.00  0.00     0.074 A 
ATOM     46  C   UNL A   1      37.802  32.877  33.868  1.00  0.00     0.031 C 
ATOM     47  C   UNL A   1      38.916  29.293  28.075  1.00  0.00     0.029 A 
ATOM     48  C   UNL A   1      39.839  29.010  29.171  1.00  0.00     0.049 A 
ATOM     49  H   UNL A   1      39.851  29.868  31.069  1.00  0.00     0.167 HD
ATOM     50  C   UNL A   1      39.668  31.735  35.037  1.00  0.00     0.034 A 
ATOM     51  C   UNL A   1      40.857  28.126  29.121  1.00  0.00     0.034 A 
ATOM     52  C   UNL A   1      40.759  30.796  35.088  1.00  0.00     0.049 A 
ATOM     53  C   UNL A   1      41.726  27.955  30.337  1.00  0.00     0.074 A 
ATOM     54  C   UNL A   1      41.568  30.484  36.167  1.00  0.00     0.029 A 
ATOM     55  N   UNL A   1      41.191  30.016  34.025  1.00  0.00    -0.354 N 
ATOM     56  N   UNL A   1      41.605  28.517  31.517  1.00  0.00    -0.248 NA
ATOM     57  C   UNL A   1      42.874  27.048  30.217  1.00  0.00     0.031 C 
ATOM     58  C   UNL A   1      42.518  29.553  35.743  1.00  0.00     0.029 A 
ATOM     59  C   UNL A   1      42.273  29.245  34.414  1.00  0.00     0.049 A 
ATOM     60  H   UNL A   1      40.787  30.012  33.127  1.00  0.00     0.167 HD
ATOM     61  C   UNL A   1      42.661  28.032  32.282  1.00  0.00     0.074 A 
ATOM     62  C   UNL A   1      43.392  27.106  31.439  1.00  0.00     0.031 C 
ATOM     63  C   UNL A   1      42.996  28.331  33.561  1.00  0.00     0.034 A 
BRANCH  50  64
ATOM     64  C   UNL A   1      39.351  32.509  36.291  1.00  0.00     0.023 A 
ATOM     65  C   UNL A   1      38.428  31.996  37.222  1.00  0.00     0.031 A 
ATOM     66  C   UNL A   1      39.871  33.797  36.506  1.00  0.00     0.131 A 
ATOM     67  C   UNL A   1      38.035  32.781  38.315  1.00  0.00     0.055 A 
ATOM     68  C   UNL A   1      39.496  34.564  37.610  1.00  0.00     0.041 A 
ATOM     69  F   UNL A   1      40.759  34.325  35.648  1.00  0.00    -0.206 F 
ATOM     70  C   UNL A   1      38.566  34.060  38.514  1.00  0.00     0.022 A 
BRANCH  67  71
ATOM     71  S   UNL A   1      36.787  32.195  39.492  1.00  0.00     0.124 S 
ATOM     72  O   UNL A   1      35.552  32.684  38.882  1.00  0.00    -0.237 OA
ATOM     73  O   UNL A   1      36.974  30.747  39.444  1.00  0.00    -0.237 OA
ATOM     74  O   UNL A   1      37.156  32.839  40.747  1.00  0.00    -0.744 OA
ENDBRANCH  67  71
ENDBRANCH  50  64
BRANCH  51  75
ATOM     75  C   UNL A   1      41.064  27.339  27.873  1.00  0.00     0.023 A 
ATOM     76  C   UNL A   1      40.776  25.962  27.832  1.00  0.00     0.031 A 
ATOM     77  C   UNL A   1      41.690  27.917  26.757  1.00  0.00     0.131 A 
ATOM     78  C   UNL A   1      41.197  25.194  26.740  1.00  0.00     0.055 A 
ATOM     79  C   UNL A   1      42.043  27.160  25.638  1.00  0.00     0.041 A 
ATOM     80  F   UNL A   1      41.993  29.224  26.754  1.00  0.00    -0.206 F 
ATOM     81  C   UNL A   1      41.817  25.786  25.637  1.00  0.00     0.022 A 
BRANCH  78  82
ATOM     82  S   UNL A   1      41.104  23.382  26.792  1.00  0.00     0.124 S 
ATOM     83  O   UNL A   1      39.698  23.142  26.481  1.00  0.00    -0.237 OA
ATOM     84  O   UNL A   1      42.055  23.002  25.751  1.00  0.00    -0.237 OA
ATOM     85  O   UNL A   1      41.516  23.055  28.153  1.00  0.00    -0.744 OA
ENDBRANCH  78  82
ENDBRANCH  51  75
BRANCH  63  86
ATOM     86  C   UNL A   1      44.223  27.682  34.147  1.00  0.00     0.023 A 
ATOM     87  C   UNL A   1      44.107  26.499  34.900  1.00  0.00     0.031 A 
ATOM     88  C   UNL A   1      45.474  28.319  34.086  1.00  0.00     0.131 A 
ATOM     89  C   UNL A   1      45.217  26.011  35.599  1.00  0.00     0.055 A 
ATOM     90  C   UNL A   1      46.587  27.807  34.753  1.00  0.00     0.041 A 
ATOM     91  F   UNL A   1      45.627  29.453  33.384  1.00  0.00    -0.206 F 
ATOM     92  C   UNL A   1      46.458  26.654  35.524  1.00  0.00     0.022 A 
BRANCH  89  93
ATOM     93  S   UNL A   1      45.078  24.566  36.685  1.00  0.00     0.124 S 
ATOM     94  O   UNL A   1      46.315  24.648  37.459  1.00  0.00    -0.237 OA
ATOM     95  O   UNL A   1      43.856  24.859  37.430  1.00  0.00    -0.237 OA
ATOM     96  O   UNL A   1      44.996  23.438  35.763  1.00  0.00    -0.744 OA
ENDBRANCH  89  93
ENDBRANCH  63  86
ENDBRANCH  37  38
ENDBRANCH  29  32
ENDBRANCH  27  28
ENDBRANCH   1  27
TORSDOF 16
ENDMDL
MODEL 2
REMARK VINA RESULT:     -12.3      2.158      7.932
REMARK SMILES CC(C)(C)c1cc2c(cc1Cl)C=C(C(=O)NCCCCNC(=O)c1ccc(-c3c4nc(c(-c5cc(S(=O)(=O)[O-])ccc5F)c5ccc([nH]5)c(-c5cc(S(=O)(=O)[O-])ccc5F)c5nc(c(-c6cc(S(=O)(=O)[O-])ccc6F)c6ccc3[nH]6)C=C5)C=C4)cc1)[C@@H](C(F)(F)F)O2
REMARK SMILES IDX 19 1 18 2 17 3 16 4 14 5 15 6 13 8 5 9 6 10 10 11 7 12 9 13
REMARK SMILES IDX 11 14 8 15 92 16 12 17 87 18 2 19 1 20 3 21 4 22 88 23 89 24
REMARK SMILES IDX 90 25 91 26 20 27 21 28 22 29 23 31 24 32 25 33 86 34 26 35
REMARK SMILES IDX 85 36 27 37 28 38 29 39 79 40 30 41 84 42 78 43 80 44 31 45
REMARK SMILES IDX 83 46 77 47 76 48 32 50 64 51 44 52 63 53 45 54 48 55 62 56
REMARK SMILES IDX 81 57 46 58 47 59 61 61 82 62 49 63 33 64 34 65 42 66 35 67
REMARK SMILES IDX 41 68 43 69 40 70 36 71 37 72 38 73 39 74 65 75 66 76 74 77
REMARK SMILES IDX 67 78 73 79 75 80 72 81 68 82 69 83 70 84 71 85 50 86 51 87
REMARK SMILES IDX 59 88 52 89 58 90 60 91 57 92 53 93 54 94 55 95 56 96
REMARK H PARENT 16 7 21 30 80 49 48 60
REMARK Flexibility Score: inf
ROOT
ATOM      1  C   UNL A   1      32.055  28.790  26.614  1.00  0.00     0.023 C 
ENDROOT
BRANCH   1   2
ATOM      2  C   UNL A   1      32.568  27.349  26.648  1.00  0.00     0.023 C 
BRANCH   2   3
ATOM      3  C   UNL A   1      33.090  26.839  25.308  1.00  0.00     0.116 C 
BRANCH   3   4
ATOM      4  N   UNL A   1      32.015  26.428  24.422  1.00  0.00    -0.352 N 
ATOM      5  C   UNL A   1      31.545  25.262  23.921  1.00  0.00     0.251 C 
ATOM      6  O   UNL A   1      30.574  25.362  23.166  1.00  0.00    -0.270 OA
ATOM      7  H   UNL A   1      31.493  27.199  24.102  1.00  0.00     0.163 HD
BRANCH   5   8
ATOM      8  C   UNL A   1      32.107  23.911  24.218  1.00  0.00     0.067 C 
ATOM      9  C   UNL A   1      33.463  19.012  24.008  1.00  0.00    -0.020 A 
ATOM     10  C   UNL A   1      33.810  20.130  24.800  1.00  0.00     0.053 A 
ATOM     11  C   UNL A   1      32.571  19.268  22.936  1.00  0.00     0.045 A 
ATOM     12  C   UNL A   1      33.294  21.404  24.556  1.00  0.00     0.128 A 
ATOM     13  C   UNL A   1      32.083  20.564  22.677  1.00  0.00     0.032 A 
ATOM     14  Cl  UNL A   1      31.971  18.053  21.859  1.00  0.00    -0.084 Cl
ATOM     15  C   UNL A   1      32.438  21.636  23.489  1.00  0.00     0.019 A 
ATOM     16  O   UNL A   1      33.692  22.402  25.400  1.00  0.00    -0.475 OA
ATOM     17  C   UNL A   1      31.953  22.988  23.247  1.00  0.00     0.025 C 
ATOM     18  C   UNL A   1      32.767  23.524  25.511  1.00  0.00     0.314 C 
BRANCH   9  19
ATOM     19  C   UNL A   1      34.035  17.618  24.369  1.00  0.00    -0.012 C 
ATOM     20  C   UNL A   1      34.054  16.628  23.168  1.00  0.00     0.016 C 
ATOM     21  C   UNL A   1      33.194  16.913  25.456  1.00  0.00     0.016 C 
ATOM     22  C   UNL A   1      35.504  17.752  24.825  1.00  0.00     0.016 C 
ENDBRANCH   9  19
BRANCH  18  23
ATOM     23  C   UNL A   1      31.749  23.240  26.634  1.00  0.00     0.429 C 
ATOM     24  F   UNL A   1      31.154  24.391  27.036  1.00  0.00    -0.167 F 
ATOM     25  F   UNL A   1      30.756  22.410  26.239  1.00  0.00    -0.167 F 
ATOM     26  F   UNL A   1      32.317  22.680  27.726  1.00  0.00    -0.167 F 
ENDBRANCH  18  23
ENDBRANCH   5   8
ENDBRANCH   3   4
ENDBRANCH   2   3
ENDBRANCH   1   2
BRANCH   1  27
ATOM     27  C   UNL A   1      33.094  29.846  26.246  1.00  0.00     0.116 C 
BRANCH  27  28
ATOM     28  N   UNL A   1      32.838  31.163  26.816  1.00  0.00    -0.352 N 
ATOM     29  C   UNL A   1      33.689  31.905  27.606  1.00  0.00     0.251 C 
ATOM     30  H   UNL A   1      31.962  31.566  26.614  1.00  0.00     0.163 HD
ATOM     31  O   UNL A   1      33.341  32.984  28.073  1.00  0.00    -0.269 OA
BRANCH  29  32
ATOM     32  C   UNL A   1      35.008  31.324  27.917  1.00  0.00     0.039 A 
ATOM     33  C   UNL A   1      35.094  29.993  28.329  1.00  0.00     0.014 A 
ATOM     34  C   UNL A   1      36.121  32.166  27.959  1.00  0.00     0.014 A 
ATOM     35  C   UNL A   1      36.258  29.549  28.942  1.00  0.00     0.010 A 
ATOM     36  C   UNL A   1      37.310  31.693  28.513  1.00  0.00     0.010 A 
ATOM     37  C   UNL A   1      37.369  30.402  29.060  1.00  0.00    -0.014 A 
BRANCH  37  38
ATOM     38  C   UNL A   1      38.580  29.934  29.778  1.00  0.00     0.031 A 
ATOM     39  C   UNL A   1      39.508  28.935  29.144  1.00  0.00     0.074 A 
ATOM     40  C   UNL A   1      38.862  30.453  30.986  1.00  0.00     0.049 A 
ATOM     41  N   UNL A   1      40.598  28.402  29.631  1.00  0.00    -0.248 NA
ATOM     42  C   UNL A   1      39.173  28.476  27.786  1.00  0.00     0.031 C 
ATOM     43  C   UNL A   1      38.044  31.455  31.672  1.00  0.00     0.029 A 
ATOM     44  N   UNL A   1      39.910  30.232  31.841  1.00  0.00    -0.354 N 
ATOM     45  C   UNL A   1      41.072  27.537  28.651  1.00  0.00     0.074 A 
ATOM     46  C   UNL A   1      40.136  27.594  27.550  1.00  0.00     0.031 C 
ATOM     47  C   UNL A   1      38.646  31.797  32.819  1.00  0.00     0.029 A 
ATOM     48  C   UNL A   1      39.847  30.983  32.990  1.00  0.00     0.049 A 
ATOM     49  H   UNL A   1      40.638  29.598  31.650  1.00  0.00     0.167 HD
ATOM     50  C   UNL A   1      42.192  26.775  28.670  1.00  0.00     0.034 A 
ATOM     51  C   UNL A   1      40.649  31.002  34.073  1.00  0.00     0.034 A 
ATOM     52  C   UNL A   1      43.122  26.746  29.769  1.00  0.00     0.049 A 
ATOM     53  C   UNL A   1      41.849  30.094  34.100  1.00  0.00     0.074 A 
ATOM     54  C   UNL A   1      44.300  26.028  29.873  1.00  0.00     0.029 A 
ATOM     55  N   UNL A   1      42.987  27.465  30.948  1.00  0.00    -0.354 N 
ATOM     56  N   UNL A   1      42.290  29.290  33.161  1.00  0.00    -0.248 NA
ATOM     57  C   UNL A   1      42.651  30.080  35.330  1.00  0.00     0.031 C 
ATOM     58  C   UNL A   1      44.851  26.275  31.132  1.00  0.00     0.029 A 
ATOM     59  C   UNL A   1      44.045  27.186  31.796  1.00  0.00     0.049 A 
ATOM     60  H   UNL A   1      42.247  28.083  31.151  1.00  0.00     0.167 HD
ATOM     61  C   UNL A   1      43.421  28.673  33.685  1.00  0.00     0.074 A 
ATOM     62  C   UNL A   1      43.614  29.222  35.013  1.00  0.00     0.031 C 
ATOM     63  C   UNL A   1      44.221  27.735  33.120  1.00  0.00     0.034 A 
BRANCH  50  64
ATOM     64  C   UNL A   1      42.497  25.913  27.473  1.00  0.00     0.023 A 
ATOM     65  C   UNL A   1      42.061  24.574  27.437  1.00  0.00     0.031 A 
ATOM     66  C   UNL A   1      43.314  26.376  26.427  1.00  0.00     0.131 A 
ATOM     67  C   UNL A   1      42.463  23.740  26.386  1.00  0.00     0.055 A 
ATOM     68  C   UNL A   1      43.692  25.548  25.370  1.00  0.00     0.041 A 
ATOM     69  F   UNL A   1      43.750  27.647  26.417  1.00  0.00    -0.206 F 
ATOM     70  C   UNL A   1      43.275  24.220  25.352  1.00  0.00     0.022 A 
BRANCH  67  71
ATOM     71  S   UNL A   1      41.994  21.989  26.342  1.00  0.00     0.124 S 
ATOM     72  O   UNL A   1      42.788  21.497  25.219  1.00  0.00    -0.237 OA
ATOM     73  O   UNL A   1      42.421  21.524  27.659  1.00  0.00    -0.237 OA
ATOM     74  O   UNL A   1      40.553  22.017  26.119  1.00  0.00    -0.744 OA
ENDBRANCH  67  71
ENDBRANCH  50  64
BRANCH  51  75
ATOM     75  C   UNL A   1      40.330  31.937  35.189  1.00  0.00     0.023 A 
ATOM     76  C   UNL A   1      39.396  31.585  36.181  1.00  0.00     0.031 A 
ATOM     77  C   UNL A   1      40.840  33.245  35.195  1.00  0.00     0.131 A 
ATOM     78  C   UNL A   1      38.932  32.556  37.077  1.00  0.00     0.055 A 
ATOM     79  C   UNL A   1      40.429  34.190  36.136  1.00  0.00     0.041 A 
ATOM     80  F   UNL A   1      41.726  33.629  34.263  1.00  0.00    -0.206 F 
ATOM     81  C   UNL A   1      39.452  33.852  37.070  1.00  0.00     0.022 A 
BRANCH  78  82
ATOM     82  S   UNL A   1      37.522  32.210  38.167  1.00  0.00     0.124 S 
ATOM     83  O   UNL A   1      36.477  33.047  37.585  1.00  0.00    -0.237 OA
ATOM     84  O   UNL A   1      37.351  30.770  37.988  1.00  0.00    -0.237 OA
ATOM     85  O   UNL A   1      37.998  32.615  39.485  1.00  0.00    -0.744 OA
ENDBRANCH  78  82
ENDBRANCH  51  75
BRANCH  63  86
ATOM     86  C   UNL A   1      45.376  27.204  33.927  1.00  0.00     0.023 A 
ATOM     87  C   UNL A   1      45.166  26.193  34.884  1.00  0.00     0.031 A 
ATOM     88  C   UNL A   1      46.645  27.804  33.853  1.00  0.00     0.131 A 
ATOM     89  C   UNL A   1      46.201  25.842  35.759  1.00  0.00     0.055 A 
ATOM     90  C   UNL A   1      47.684  27.424  34.702  1.00  0.00     0.041 A 
ATOM     91  F   UNL A   1      46.886  28.776  32.959  1.00  0.00    -0.206 F 
ATOM     92  C   UNL A   1      47.460  26.447  35.670  1.00  0.00     0.022 A 
BRANCH  89  93
ATOM     93  S   UNL A   1      45.932  24.641  37.091  1.00  0.00     0.124 S 
ATOM     94  O   UNL A   1      46.321  23.386  36.452  1.00  0.00    -0.237 OA
ATOM     95  O   UNL A   1      46.843  25.123  38.126  1.00  0.00    -0.237 OA
ATOM     96  O   UNL A   1      44.511  24.767  37.398  1.00  0.00    -0.744 OA
ENDBRANCH  89  93
ENDBRANCH  63  86
ENDBRANCH  37  38
ENDBRANCH  29  32
ENDBRANCH  27  28
ENDBRANCH   1  27
TORSDOF 16
ENDMDL
MODEL 3
REMARK VINA RESULT:     -12.3      5.642     11.054
REMARK SMILES CC(C)(C)c1cc2c(cc1Cl)C=C(C(=O)NCCCCNC(=O)c1ccc(-c3c4nc(c(-c5cc(S(=O)(=O)[O-])ccc5F)c5ccc([nH]5)c(-c5cc(S(=O)(=O)[O-])ccc5F)c5nc(c(-c6cc(S(=O)(=O)[O-])ccc6F)c6ccc3[nH]6)C=C5)C=C4)cc1)[C@@H](C(F)(F)F)O2
REMARK SMILES IDX 19 1 18 2 17 3 16 4 14 5 15 6 13 8 5 9 6 10 10 11 7 12 9 13
REMARK SMILES IDX 11 14 8 15 92 16 12 17 87 18 2 19 1 20 3 21 4 22 88 23 89 24
REMARK SMILES IDX 90 25 91 26 20 27 21 28 22 29 23 31 24 32 25 33 86 34 26 35
REMARK SMILES IDX 85 36 27 37 28 38 29 39 79 40 30 41 84 42 78 43 80 44 31 45
REMARK SMILES IDX 83 46 77 47 76 48 32 50 64 51 44 52 63 53 45 54 48 55 62 56
REMARK SMILES IDX 81 57 46 58 47 59 61 61 82 62 49 63 33 64 34 65 42 66 35 67
REMARK SMILES IDX 41 68 43 69 40 70 36 71 37 72 38 73 39 74 65 75 66 76 74 77
REMARK SMILES IDX 67 78 73 79 75 80 72 81 68 82 69 83 70 84 71 85 50 86 51 87
REMARK SMILES IDX 59 88 52 89 58 90 60 91 57 92 53 93 54 94 55 95 56 96
REMARK H PARENT 16 7 21 30 80 49 48 60
REMARK Flexibility Score: inf
ROOT
ATOM      1  C   UNL A   1      37.759  21.134  24.796  1.00  0.00     0.023 C 
ENDROOT
BRANCH   1   2
ATOM      2  C   UNL A   1      36.378  20.809  25.371  1.00  0.00     0.023 C 
BRANCH   2   3
ATOM      3  C   UNL A   1      35.693  19.614  24.717  1.00  0.00     0.116 C 
BRANCH   3   4
ATOM      4  N   UNL A   1      34.282  19.538  25.057  1.00  0.00    -0.352 N 
ATOM      5  C   UNL A   1      33.233  20.391  25.097  1.00  0.00     0.251 C 
ATOM      6  O   UNL A   1      32.163  19.899  25.466  1.00  0.00    -0.270 OA
ATOM      7  H   UNL A   1      34.024  18.629  25.332  1.00  0.00     0.163 HD
BRANCH   5   8
ATOM      8  C   UNL A   1      33.287  21.838  24.732  1.00  0.00     0.067 C 
ATOM      9  C   UNL A   1      32.953  26.914  24.751  1.00  0.00    -0.020 A 
ATOM     10  C   UNL A   1      33.584  25.940  23.945  1.00  0.00     0.053 A 
ATOM     11  C   UNL A   1      32.289  26.425  25.904  1.00  0.00     0.045 A 
ATOM     12  C   UNL A   1      33.542  24.579  24.252  1.00  0.00     0.128 A 
ATOM     13  C   UNL A   1      32.282  25.053  26.224  1.00  0.00     0.032 A 
ATOM     14  Cl  UNL A   1      31.411  27.420  27.016  1.00  0.00    -0.084 Cl
ATOM     15  C   UNL A   1      32.904  24.124  25.397  1.00  0.00     0.019 A 
ATOM     16  O   UNL A   1      34.178  23.732  23.388  1.00  0.00    -0.475 OA
ATOM     17  C   UNL A   1      32.917  22.700  25.700  1.00  0.00     0.025 C 
ATOM     18  C   UNL A   1      33.671  22.365  23.378  1.00  0.00     0.314 C 
BRANCH   9  19
ATOM     19  C   UNL A   1      32.997  28.402  24.321  1.00  0.00    -0.012 C 
ATOM     20  C   UNL A   1      33.483  29.358  25.449  1.00  0.00     0.016 C 
ATOM     21  C   UNL A   1      31.601  28.929  23.922  1.00  0.00     0.016 C 
ATOM     22  C   UNL A   1      33.997  28.585  23.158  1.00  0.00     0.016 C 
ENDBRANCH   9  19
BRANCH  18  23
ATOM     23  C   UNL A   1      32.527  22.249  22.350  1.00  0.00     0.429 C 
ATOM     24  F   UNL A   1      32.201  20.947  22.150  1.00  0.00    -0.167 F 
ATOM     25  F   UNL A   1      31.397  22.871  22.758  1.00  0.00    -0.167 F 
ATOM     26  F   UNL A   1      32.851  22.771  21.146  1.00  0.00    -0.167 F 
ENDBRANCH  18  23
ENDBRANCH   5   8
ENDBRANCH   3   4
ENDBRANCH   2   3
ENDBRANCH   1   2
BRANCH   1  27
ATOM     27  C   UNL A   1      38.896  21.181  25.813  1.00  0.00     0.116 C 
BRANCH  27  28
ATOM     28  N   UNL A   1      39.687  19.958  25.884  1.00  0.00    -0.352 N 
ATOM     29  C   UNL A   1      41.031  19.854  26.171  1.00  0.00     0.251 C 
ATOM     30  H   UNL A   1      39.209  19.115  25.709  1.00  0.00     0.163 HD
ATOM     31  O   UNL A   1      41.601  18.770  26.152  1.00  0.00    -0.269 OA
BRANCH  29  32
ATOM     32  C   UNL A   1      41.767  21.103  26.443  1.00  0.00     0.039 A 
ATOM     33  C   UNL A   1      41.991  21.495  27.764  1.00  0.00     0.014 A 
ATOM     34  C   UNL A   1      42.071  21.950  25.376  1.00  0.00     0.014 A 
ATOM     35  C   UNL A   1      42.366  22.807  28.025  1.00  0.00     0.010 A 
ATOM     36  C   UNL A   1      42.515  23.245  25.643  1.00  0.00     0.010 A 
ATOM     37  C   UNL A   1      42.609  23.700  26.968  1.00  0.00    -0.014 A 
BRANCH  37  38
ATOM     38  C   UNL A   1      42.942  25.114  27.265  1.00  0.00     0.031 A 
ATOM     39  C   UNL A   1      44.269  25.691  26.856  1.00  0.00     0.074 A 
ATOM     40  C   UNL A   1      42.019  25.889  27.864  1.00  0.00     0.049 A 
ATOM     41  N   UNL A   1      44.735  26.898  27.049  1.00  0.00    -0.248 NA
ATOM     42  C   UNL A   1      45.193  24.802  26.133  1.00  0.00     0.031 C 
ATOM     43  C   UNL A   1      40.689  25.434  28.268  1.00  0.00     0.029 A 
ATOM     44  N   UNL A   1      42.045  27.212  28.221  1.00  0.00    -0.354 N 
ATOM     45  C   UNL A   1      46.007  26.911  26.489  1.00  0.00     0.074 A 
ATOM     46  C   UNL A   1      46.252  25.584  25.969  1.00  0.00     0.031 C 
ATOM     47  C   UNL A   1      40.008  26.471  28.773  1.00  0.00     0.029 A 
ATOM     48  C   UNL A   1      40.878  27.644  28.804  1.00  0.00     0.049 A 
ATOM     49  H   UNL A   1      42.823  27.796  28.072  1.00  0.00     0.167 HD
ATOM     50  C   UNL A   1      46.881  27.943  26.407  1.00  0.00     0.034 A 
ATOM     51  C   UNL A   1      40.549  28.842  29.327  1.00  0.00     0.034 A 
ATOM     52  C   UNL A   1      46.611  29.263  26.914  1.00  0.00     0.049 A 
ATOM     53  C   UNL A   1      41.564  29.952  29.288  1.00  0.00     0.074 A 
ATOM     54  C   UNL A   1      47.421  30.383  26.857  1.00  0.00     0.029 A 
ATOM     55  N   UNL A   1      45.446  29.645  27.565  1.00  0.00    -0.354 N 
ATOM     56  N   UNL A   1      42.758  29.953  28.744  1.00  0.00    -0.248 NA
ATOM     57  C   UNL A   1      41.201  31.215  29.943  1.00  0.00     0.031 C 
ATOM     58  C   UNL A   1      46.768  31.428  27.514  1.00  0.00     0.029 A 
ATOM     59  C   UNL A   1      45.528  30.975  27.939  1.00  0.00     0.049 A 
ATOM     60  H   UNL A   1      44.675  29.056  27.735  1.00  0.00     0.167 HD
ATOM     61  C   UNL A   1      43.290  31.214  28.989  1.00  0.00     0.074 A 
ATOM     62  C   UNL A   1      42.274  31.960  29.704  1.00  0.00     0.031 C 
ATOM     63  C   UNL A   1      44.510  31.705  28.658  1.00  0.00     0.034 A 
BRANCH  50  64
ATOM     64  C   UNL A   1      48.213  27.708  25.740  1.00  0.00     0.023 A 
ATOM     65  C   UNL A   1      48.324  27.789  24.339  1.00  0.00     0.031 A 
ATOM     66  C   UNL A   1      49.335  27.293  26.477  1.00  0.00     0.131 A 
ATOM     67  C   UNL A   1      49.529  27.437  23.717  1.00  0.00     0.055 A 
ATOM     68  C   UNL A   1      50.541  26.967  25.854  1.00  0.00     0.041 A 
ATOM     69  F   UNL A   1      49.277  27.205  27.816  1.00  0.00    -0.206 F 
ATOM     70  C   UNL A   1      50.638  27.028  24.467  1.00  0.00     0.022 A 
BRANCH  67  71
ATOM     71  S   UNL A   1      49.692  27.447  21.911  1.00  0.00     0.124 S 
ATOM     72  O   UNL A   1      51.079  27.018  21.736  1.00  0.00    -0.237 OA
ATOM     73  O   UNL A   1      48.683  26.472  21.506  1.00  0.00    -0.237 OA
ATOM     74  O   UNL A   1      49.419  28.830  21.540  1.00  0.00    -0.744 OA
ENDBRANCH  67  71
ENDBRANCH  50  64
BRANCH  51  75
ATOM     75  C   UNL A   1      39.186  29.026  29.901  1.00  0.00     0.023 A 
ATOM     76  C   UNL A   1      38.209  29.775  29.217  1.00  0.00     0.031 A 
ATOM     77  C   UNL A   1      38.890  28.584  31.201  1.00  0.00     0.131 A 
ATOM     78  C   UNL A   1      37.025  30.137  29.871  1.00  0.00     0.055 A 
ATOM     79  C   UNL A   1      37.677  28.886  31.822  1.00  0.00     0.041 A 
ATOM     80  F   UNL A   1      39.794  27.875  31.895  1.00  0.00    -0.206 F 
ATOM     81  C   UNL A   1      36.747  29.686  31.164  1.00  0.00     0.022 A 
BRANCH  78  82
ATOM     82  S   UNL A   1      35.889  31.340  29.125  1.00  0.00     0.124 S 
ATOM     83  O   UNL A   1      35.040  30.485  28.301  1.00  0.00    -0.237 OA
ATOM     84  O   UNL A   1      35.248  31.918  30.305  1.00  0.00    -0.237 OA
ATOM     85  O   UNL A   1      36.773  32.245  28.398  1.00  0.00    -0.744 OA
ENDBRANCH  78  82
ENDBRANCH  51  75
BRANCH  63  86
ATOM     86  C   UNL A   1      44.851  33.111  29.077  1.00  0.00     0.023 A 
ATOM     87  C   UNL A   1      44.518  34.198  28.249  1.00  0.00     0.031 A 
ATOM     88  C   UNL A   1      45.636  33.352  30.218  1.00  0.00     0.131 A 
ATOM     89  C   UNL A   1      45.006  35.475  28.551  1.00  0.00     0.055 A 
ATOM     90  C   UNL A   1      46.087  34.633  30.536  1.00  0.00     0.041 A 
ATOM     91  F   UNL A   1      45.981  32.342  31.032  1.00  0.00    -0.206 F 
ATOM     92  C   UNL A   1      45.783  35.699  29.694  1.00  0.00     0.022 A 
BRANCH  89  93
ATOM     93  S   UNL A   1      44.711  36.877  27.440  1.00  0.00     0.124 S 
ATOM     94  O   UNL A   1      45.912  36.862  26.607  1.00  0.00    -0.237 OA
ATOM     95  O   UNL A   1      43.479  36.479  26.764  1.00  0.00    -0.237 OA
ATOM     96  O   UNL A   1      44.593  38.020  28.338  1.00  0.00    -0.744 OA
ENDBRANCH  89  93
ENDBRANCH  63  86
ENDBRANCH  37  38
ENDBRANCH  29  32
ENDBRANCH  27  28
ENDBRANCH   1  27
TORSDOF 16
ENDMDL
