MODEL 1
REMARK VINA RESULT:     -12.9      0.000      0.000
REMARK SMILES O=C(NCCCCNC(=O)c1ccc(F)c(S(=O)(=O)N2CCOc3ccccc32)c1)c1ccc(-c2c3nc(c(-c4cc(S(=O)(=O)[O-])ccc4F)c4ccc([nH]4)c(-c4cc(S(=O)(=O)[O-])ccc4F)c4nc(c(-c5cc(S(=O)(=O)[O-])ccc5F)c5ccc2[nH]5)C=C4)C=C3)cc1
REMARK SMILES IDX 5 1 4 2 3 3 1 4 2 5 31 7 32 8 93 9 33 10 92 11 34 12 35 13
REMARK SMILES IDX 36 14 86 15 37 16 91 17 85 18 87 19 38 20 90 21 84 22 83 23
REMARK SMILES IDX 39 25 71 26 51 27 70 28 52 29 55 30 69 31 88 32 53 33 54 34
REMARK SMILES IDX 68 36 89 37 56 38 40 39 41 40 49 41 42 42 48 43 50 44 47 45
REMARK SMILES IDX 43 46 44 47 45 48 46 49 72 50 73 51 81 52 74 53 80 54 82 55
REMARK SMILES IDX 79 56 75 57 76 58 77 59 78 60 57 61 58 62 66 63 59 64 65 65
REMARK SMILES IDX 67 66 64 67 60 68 61 69 62 70 63 71 6 72 7 73 8 74 9 75
REMARK SMILES IDX 10 77 11 78 12 79 30 80 13 81 16 82 14 83 15 84 17 85 18 86
REMARK SMILES IDX 19 87 20 88 21 89 29 90 22 91 24 92 28 93 23 94 25 95 27 96
REMARK SMILES IDX 26 97
REMARK H PARENT 3 6 87 24 55 35 8 76
REMARK Flexibility Score: inf
ROOT
ATOM      1  C   UNL A   1      31.415  32.444  26.670  1.00  0.00     0.023 C 
ENDROOT
BRANCH   1   2
ATOM      2  C   UNL A   1      32.584  33.026  27.454  1.00  0.00     0.116 C 
BRANCH   2   3
ATOM      3  N   UNL A   1      32.401  34.429  27.799  1.00  0.00    -0.352 N 
ATOM      4  O   UNL A   1      32.678  36.324  28.992  1.00  0.00    -0.269 OA
ATOM      5  C   UNL A   1      33.051  35.180  28.753  1.00  0.00     0.251 C 
ATOM      6  H   UNL A   1      31.717  34.908  27.278  1.00  0.00     0.163 HD
BRANCH   5   7
ATOM      7  C   UNL A   1      34.180  34.587  29.504  1.00  0.00     0.039 A 
ATOM      8  C   UNL A   1      35.474  34.624  28.980  1.00  0.00     0.014 A 
ATOM      9  C   UNL A   1      33.937  33.966  30.732  1.00  0.00     0.014 A 
ATOM     10  C   UNL A   1      36.486  33.903  29.598  1.00  0.00     0.010 A 
ATOM     11  C   UNL A   1      34.981  33.320  31.401  1.00  0.00     0.010 A 
ATOM     12  C   UNL A   1      36.258  33.256  30.823  1.00  0.00    -0.014 A 
BRANCH  12  13
ATOM     13  C   UNL A   1      37.390  32.570  31.500  1.00  0.00     0.031 A 
ATOM     14  C   UNL A   1      38.129  31.440  30.839  1.00  0.00     0.074 A 
ATOM     15  C   UNL A   1      37.781  33.020  32.710  1.00  0.00     0.049 A 
ATOM     16  N   UNL A   1      39.141  30.745  31.291  1.00  0.00    -0.248 NA
ATOM     17  C   UNL A   1      37.673  31.030  29.500  1.00  0.00     0.031 C 
ATOM     18  C   UNL A   1      37.145  34.119  33.442  1.00  0.00     0.029 A 
ATOM     19  N   UNL A   1      38.816  32.638  33.523  1.00  0.00    -0.354 N 
ATOM     20  C   UNL A   1      39.438  29.811  30.306  1.00  0.00     0.074 A 
ATOM     21  C   UNL A   1      38.480  30.010  29.239  1.00  0.00     0.031 C 
ATOM     22  C   UNL A   1      37.840  34.363  34.561  1.00  0.00     0.029 A 
ATOM     23  C   UNL A   1      38.921  33.392  34.668  1.00  0.00     0.049 A 
ATOM     24  H   UNL A   1      39.425  31.896  33.308  1.00  0.00     0.167 HD
ATOM     25  C   UNL A   1      40.421  28.878  30.295  1.00  0.00     0.034 A 
ATOM     26  C   UNL A   1      39.775  33.302  35.705  1.00  0.00     0.034 A 
ATOM     27  C   UNL A   1      41.378  28.701  31.361  1.00  0.00     0.049 A 
ATOM     28  C   UNL A   1      40.824  32.227  35.690  1.00  0.00     0.074 A 
ATOM     29  C   UNL A   1      42.428  27.801  31.434  1.00  0.00     0.029 A 
ATOM     30  N   UNL A   1      41.403  29.434  32.540  1.00  0.00    -0.354 N 
ATOM     31  N   UNL A   1      41.067  31.332  34.762  1.00  0.00    -0.248 NA
ATOM     32  C   UNL A   1      41.700  32.139  36.864  1.00  0.00     0.031 C 
ATOM     33  C   UNL A   1      43.047  27.947  32.678  1.00  0.00     0.029 A 
ATOM     34  C   UNL A   1      42.429  28.984  33.357  1.00  0.00     0.049 A 
ATOM     35  H   UNL A   1      40.782  30.164  32.764  1.00  0.00     0.167 HD
ATOM     36  C   UNL A   1      42.133  30.578  35.238  1.00  0.00     0.074 A 
ATOM     37  C   UNL A   1      42.491  31.129  36.529  1.00  0.00     0.031 C 
ATOM     38  C   UNL A   1      42.759  29.526  34.653  1.00  0.00     0.034 A 
BRANCH  25  39
ATOM     39  C   UNL A   1      40.501  27.947  29.112  1.00  0.00     0.023 A 
ATOM     40  C   UNL A   1      41.397  28.171  28.054  1.00  0.00     0.031 A 
ATOM     41  C   UNL A   1      39.695  26.796  29.065  1.00  0.00     0.131 A 
ATOM     42  C   UNL A   1      41.442  27.272  26.976  1.00  0.00     0.055 A 
ATOM     43  C   UNL A   1      39.786  25.875  28.020  1.00  0.00     0.041 A 
ATOM     44  F   UNL A   1      38.811  26.543  30.043  1.00  0.00    -0.206 F 
ATOM     45  C   UNL A   1      40.660  26.113  26.965  1.00  0.00     0.022 A 
BRANCH  42  46
ATOM     46  S   UNL A   1      42.491  27.670  25.551  1.00  0.00     0.124 S 
ATOM     47  O   UNL A   1      43.796  27.841  26.185  1.00  0.00    -0.237 OA
ATOM     48  O   UNL A   1      42.342  26.489  24.707  1.00  0.00    -0.237 OA
ATOM     49  O   UNL A   1      41.898  28.895  25.019  1.00  0.00    -0.744 OA
ENDBRANCH  42  46
ENDBRANCH  25  39
BRANCH  26  50
ATOM     50  C   UNL A   1      39.638  34.238  36.854  1.00  0.00     0.023 A 
ATOM     51  C   UNL A   1      39.095  33.812  38.074  1.00  0.00     0.031 A 
ATOM     52  C   UNL A   1      40.086  35.567  36.751  1.00  0.00     0.131 A 
ATOM     53  C   UNL A   1      39.002  34.714  39.145  1.00  0.00     0.055 A 
ATOM     54  C   UNL A   1      40.028  36.449  37.831  1.00  0.00     0.041 A 
ATOM     55  F   UNL A   1      40.626  36.014  35.606  1.00  0.00    -0.206 F 
ATOM     56  C   UNL A   1      39.478  36.025  39.035  1.00  0.00     0.022 A 
BRANCH  53  57
ATOM     57  S   UNL A   1      38.231  34.159  40.689  1.00  0.00     0.124 S 
ATOM     58  O   UNL A   1      37.620  35.391  41.176  1.00  0.00    -0.237 OA
ATOM     59  O   UNL A   1      37.312  33.128  40.218  1.00  0.00    -0.237 OA
ATOM     60  O   UNL A   1      39.361  33.668  41.476  1.00  0.00    -0.744 OA
ENDBRANCH  53  57
ENDBRANCH  26  50
BRANCH  38  61
ATOM     61  C   UNL A   1      43.911  28.912  35.399  1.00  0.00     0.023 A 
ATOM     62  C   UNL A   1      43.726  27.820  36.263  1.00  0.00     0.031 A 
ATOM     63  C   UNL A   1      45.215  29.405  35.213  1.00  0.00     0.131 A 
ATOM     64  C   UNL A   1      44.828  27.270  36.934  1.00  0.00     0.055 A 
ATOM     65  C   UNL A   1      46.313  28.826  35.849  1.00  0.00     0.041 A 
ATOM     66  F   UNL A   1      45.441  30.446  34.397  1.00  0.00    -0.206 F 
ATOM     67  C   UNL A   1      46.122  27.755  36.718  1.00  0.00     0.022 A 
BRANCH  64  68
ATOM     68  S   UNL A   1      44.548  25.926  38.118  1.00  0.00     0.124 S 
ATOM     69  O   UNL A   1      45.910  25.595  38.525  1.00  0.00    -0.237 OA
ATOM     70  O   UNL A   1      43.717  26.566  39.134  1.00  0.00    -0.237 OA
ATOM     71  O   UNL A   1      43.871  24.904  37.322  1.00  0.00    -0.744 OA
ENDBRANCH  64  68
ENDBRANCH  38  61
ENDBRANCH  12  13
ENDBRANCH   5   7
ENDBRANCH   2   3
ENDBRANCH   1   2
BRANCH   1  72
ATOM     72  C   UNL A   1      31.607  31.012  26.184  1.00  0.00     0.023 C 
BRANCH  72  73
ATOM     73  C   UNL A   1      31.922  29.992  27.271  1.00  0.00     0.116 C 
BRANCH  73  74
ATOM     74  N   UNL A   1      33.348  29.833  27.517  1.00  0.00    -0.352 N 
ATOM     75  C   UNL A   1      34.246  29.001  26.892  1.00  0.00     0.251 C 
ATOM     76  H   UNL A   1      33.722  30.400  28.229  1.00  0.00     0.163 HD
ATOM     77  O   UNL A   1      35.404  28.903  27.276  1.00  0.00    -0.269 OA
BRANCH  75  78
ATOM     78  C   UNL A   1      33.790  28.185  25.748  1.00  0.00     0.041 A 
ATOM     79  C   UNL A   1      33.878  28.689  24.446  1.00  0.00     0.017 A 
ATOM     80  C   UNL A   1      33.235  26.925  25.991  1.00  0.00     0.039 A 
ATOM     81  C   UNL A   1      33.277  27.994  23.405  1.00  0.00     0.041 A 
ATOM     82  C   UNL A   1      32.672  26.209  24.925  1.00  0.00     0.124 A 
ATOM     83  C   UNL A   1      32.649  26.775  23.654  1.00  0.00     0.143 A 
ATOM     84  F   UNL A   1      32.025  26.210  22.618  1.00  0.00    -0.205 F 
BRANCH  82  85
ATOM     85  S   UNL A   1      31.981  24.617  25.289  1.00  0.00     0.267 S 
ATOM     86  O   UNL A   1      32.156  24.426  26.715  1.00  0.00    -0.201 OA
ATOM     87  O   UNL A   1      30.655  24.637  24.709  1.00  0.00    -0.201 OA
BRANCH  85  88
ATOM     88  N   UNL A   1      32.975  23.496  24.505  1.00  0.00    -0.259 N 
ATOM     89  C   UNL A   1      32.448  22.888  23.254  1.00  0.00     0.177 C 
ATOM     90  C   UNL A   1      34.416  23.540  24.596  1.00  0.00     0.094 A 
ATOM     91  C   UNL A   1      33.297  23.354  22.085  1.00  0.00     0.252 C 
ATOM     92  C   UNL A   1      35.183  23.190  23.465  1.00  0.00     0.143 A 
ATOM     93  C   UNL A   1      35.083  23.758  25.805  1.00  0.00     0.031 A 
ATOM     94  O   UNL A   1      34.651  22.908  22.226  1.00  0.00    -0.489 OA
ATOM     95  C   UNL A   1      36.571  23.068  23.552  1.00  0.00     0.049 A 
ATOM     96  C   UNL A   1      36.477  23.671  25.881  1.00  0.00     0.002 A 
ATOM     97  C   UNL A   1      37.220  23.320  24.757  1.00  0.00     0.004 A 
ENDBRANCH  85  88
ENDBRANCH  82  85
ENDBRANCH  75  78
ENDBRANCH  73  74
ENDBRANCH  72  73
ENDBRANCH   1  72
TORSDOF 16
ENDMDL
MODEL 2
REMARK VINA RESULT:     -12.8      5.710     11.758
REMARK SMILES O=C(NCCCCNC(=O)c1ccc(F)c(S(=O)(=O)N2CCOc3ccccc32)c1)c1ccc(-c2c3nc(c(-c4cc(S(=O)(=O)[O-])ccc4F)c4ccc([nH]4)c(-c4cc(S(=O)(=O)[O-])ccc4F)c4nc(c(-c5cc(S(=O)(=O)[O-])ccc5F)c5ccc2[nH]5)C=C4)C=C3)cc1
REMARK SMILES IDX 5 1 4 2 3 3 1 4 2 5 31 7 32 8 93 9 33 10 92 11 34 12 35 13
REMARK SMILES IDX 36 14 86 15 37 16 91 17 85 18 87 19 38 20 90 21 84 22 83 23
REMARK SMILES IDX 39 25 71 26 51 27 70 28 52 29 55 30 69 31 88 32 53 33 54 34
REMARK SMILES IDX 68 36 89 37 56 38 40 39 41 40 49 41 42 42 48 43 50 44 47 45
REMARK SMILES IDX 43 46 44 47 45 48 46 49 72 50 73 51 81 52 74 53 80 54 82 55
REMARK SMILES IDX 79 56 75 57 76 58 77 59 78 60 57 61 58 62 66 63 59 64 65 65
REMARK SMILES IDX 67 66 64 67 60 68 61 69 62 70 63 71 6 72 7 73 8 74 9 75
REMARK SMILES IDX 10 77 11 78 12 79 30 80 13 81 16 82 14 83 15 84 17 85 18 86
REMARK SMILES IDX 19 87 20 88 21 89 29 90 22 91 24 92 28 93 23 94 25 95 27 96
REMARK SMILES IDX 26 97
REMARK H PARENT 3 6 87 24 55 35 8 76
REMARK Flexibility Score: inf
ROOT
ATOM      1  C   UNL A   1      38.394  19.367  24.998  1.00  0.00     0.023 C 
ENDROOT
BRANCH   1   2
ATOM      2  C   UNL A   1      39.585  19.825  25.830  1.00  0.00     0.116 C 
BRANCH   2   3
ATOM      3  N   UNL A   1      40.633  18.818  25.935  1.00  0.00    -0.352 N 
ATOM      4  O   UNL A   1      42.741  18.024  26.051  1.00  0.00    -0.269 OA
ATOM      5  C   UNL A   1      41.987  18.991  26.110  1.00  0.00     0.251 C 
ATOM      6  H   UNL A   1      40.330  17.884  25.873  1.00  0.00     0.163 HD
BRANCH   5   7
ATOM      7  C   UNL A   1      42.527  20.350  26.339  1.00  0.00     0.039 A 
ATOM      8  C   UNL A   1      42.497  20.915  27.614  1.00  0.00     0.014 A 
ATOM      9  C   UNL A   1      43.043  21.074  25.261  1.00  0.00     0.014 A 
ATOM     10  C   UNL A   1      42.829  22.253  27.781  1.00  0.00     0.010 A 
ATOM     11  C   UNL A   1      43.466  22.392  25.450  1.00  0.00     0.010 A 
ATOM     12  C   UNL A   1      43.332  23.004  26.706  1.00  0.00    -0.014 A 
BRANCH  12  13
ATOM     13  C   UNL A   1      43.762  24.407  26.943  1.00  0.00     0.031 A 
ATOM     14  C   UNL A   1      42.814  25.432  27.502  1.00  0.00     0.074 A 
ATOM     15  C   UNL A   1      45.046  24.735  26.696  1.00  0.00     0.049 A 
ATOM     16  N   UNL A   1      43.035  26.692  27.774  1.00  0.00    -0.248 NA
ATOM     17  C   UNL A   1      41.439  24.992  27.787  1.00  0.00     0.031 C 
ATOM     18  C   UNL A   1      46.058  23.818  26.165  1.00  0.00     0.029 A 
ATOM     19  N   UNL A   1      45.730  25.908  26.884  1.00  0.00    -0.354 N 
ATOM     20  C   UNL A   1      41.833  27.201  28.250  1.00  0.00     0.074 A 
ATOM     21  C   UNL A   1      40.873  26.117  28.204  1.00  0.00     0.031 C 
ATOM     22  C   UNL A   1      47.243  24.442  26.130  1.00  0.00     0.029 A 
ATOM     23  C   UNL A   1      47.064  25.823  26.559  1.00  0.00     0.049 A 
ATOM     24  H   UNL A   1      45.308  26.731  27.218  1.00  0.00     0.167 HD
ATOM     25  C   UNL A   1      41.559  28.455  28.686  1.00  0.00     0.034 A 
ATOM     26  C   UNL A   1      48.035  26.756  26.580  1.00  0.00     0.034 A 
ATOM     27  C   UNL A   1      42.530  29.522  28.738  1.00  0.00     0.049 A 
ATOM     28  C   UNL A   1      47.692  28.150  27.020  1.00  0.00     0.074 A 
ATOM     29  C   UNL A   1      42.358  30.820  29.188  1.00  0.00     0.029 A 
ATOM     30  N   UNL A   1      43.852  29.417  28.327  1.00  0.00    -0.354 N 
ATOM     31  N   UNL A   1      46.540  28.619  27.436  1.00  0.00    -0.248 NA
ATOM     32  C   UNL A   1      48.772  29.143  26.980  1.00  0.00     0.031 C 
ATOM     33  C   UNL A   1      43.554  31.516  28.991  1.00  0.00     0.029 A 
ATOM     34  C   UNL A   1      44.495  30.635  28.483  1.00  0.00     0.049 A 
ATOM     35  H   UNL A   1      44.271  28.598  27.975  1.00  0.00     0.167 HD
ATOM     36  C   UNL A   1      46.758  29.962  27.716  1.00  0.00     0.074 A 
ATOM     37  C   UNL A   1      48.155  30.226  27.431  1.00  0.00     0.031 C 
ATOM     38  C   UNL A   1      45.881  30.890  28.172  1.00  0.00     0.034 A 
BRANCH  25  39
ATOM     39  C   UNL A   1      40.146  28.763  29.112  1.00  0.00     0.023 A 
ATOM     40  C   UNL A   1      39.763  28.756  30.463  1.00  0.00     0.031 A 
ATOM     41  C   UNL A   1      39.180  29.111  28.151  1.00  0.00     0.131 A 
ATOM     42  C   UNL A   1      38.438  29.059  30.814  1.00  0.00     0.055 A 
ATOM     43  C   UNL A   1      37.879  29.468  28.511  1.00  0.00     0.041 A 
ATOM     44  F   UNL A   1      39.489  29.119  26.845  1.00  0.00    -0.206 F 
ATOM     45  C   UNL A   1      37.500  29.438  29.849  1.00  0.00     0.022 A 
BRANCH  42  46
ATOM     46  S   UNL A   1      37.932  28.885  32.547  1.00  0.00     0.124 S 
ATOM     47  O   UNL A   1      36.567  29.401  32.509  1.00  0.00    -0.237 OA
ATOM     48  O   UNL A   1      38.066  27.451  32.775  1.00  0.00    -0.237 OA
ATOM     49  O   UNL A   1      38.888  29.723  33.269  1.00  0.00    -0.744 OA
ENDBRANCH  42  46
ENDBRANCH  25  39
BRANCH  26  50
ATOM     50  C   UNL A   1      49.408  26.398  26.131  1.00  0.00     0.023 A 
ATOM     51  C   UNL A   1      49.921  26.874  24.917  1.00  0.00     0.031 A 
ATOM     52  C   UNL A   1      50.238  25.599  26.938  1.00  0.00     0.131 A 
ATOM     53  C   UNL A   1      51.228  26.537  24.535  1.00  0.00     0.055 A 
ATOM     54  C   UNL A   1      51.551  25.298  26.573  1.00  0.00     0.041 A 
ATOM     55  F   UNL A   1      49.793  25.131  28.115  1.00  0.00    -0.206 F 
ATOM     56  C   UNL A   1      52.051  25.765  25.362  1.00  0.00     0.022 A 
BRANCH  53  57
ATOM     57  S   UNL A   1      51.842  27.108  22.928  1.00  0.00     0.124 S 
ATOM     58  O   UNL A   1      53.021  26.267  22.745  1.00  0.00    -0.237 OA
ATOM     59  O   UNL A   1      50.710  26.826  22.051  1.00  0.00    -0.237 OA
ATOM     60  O   UNL A   1      52.114  28.526  23.152  1.00  0.00    -0.744 OA
ENDBRANCH  53  57
ENDBRANCH  26  50
BRANCH  38  61
ATOM     61  C   UNL A   1      46.411  32.278  28.409  1.00  0.00     0.023 A 
ATOM     62  C   UNL A   1      46.507  33.213  27.365  1.00  0.00     0.031 A 
ATOM     63  C   UNL A   1      46.789  32.677  29.702  1.00  0.00     0.131 A 
ATOM     64  C   UNL A   1      46.999  34.500  27.629  1.00  0.00     0.055 A 
ATOM     65  C   UNL A   1      47.235  33.972  29.967  1.00  0.00     0.041 A 
ATOM     66  F   UNL A   1      46.714  31.818  30.731  1.00  0.00    -0.206 F 
ATOM     67  C   UNL A   1      47.346  34.890  28.926  1.00  0.00     0.022 A 
BRANCH  64  68
ATOM     68  S   UNL A   1      47.206  35.656  26.247  1.00  0.00     0.124 S 
ATOM     69  O   UNL A   1      47.090  34.770  25.093  1.00  0.00    -0.237 OA
ATOM     70  O   UNL A   1      46.103  36.591  26.446  1.00  0.00    -0.237 OA
ATOM     71  O   UNL A   1      48.538  36.217  26.467  1.00  0.00    -0.744 OA
ENDBRANCH  64  68
ENDBRANCH  38  61
ENDBRANCH  12  13
ENDBRANCH   5   7
ENDBRANCH   2   3
ENDBRANCH   1   2
BRANCH   1  72
ATOM     72  C   UNL A   1      37.200  20.315  24.996  1.00  0.00     0.023 C 
BRANCH  72  73
ATOM     73  C   UNL A   1      37.417  21.634  24.265  1.00  0.00     0.116 C 
BRANCH  73  74
ATOM     74  N   UNL A   1      37.942  22.688  25.122  1.00  0.00    -0.352 N 
ATOM     75  C   UNL A   1      37.257  23.628  25.854  1.00  0.00     0.251 C 
ATOM     76  H   UNL A   1      38.923  22.734  25.185  1.00  0.00     0.163 HD
ATOM     77  O   UNL A   1      37.839  24.522  26.455  1.00  0.00    -0.269 OA
BRANCH  75  78
ATOM     78  C   UNL A   1      35.782  23.571  25.893  1.00  0.00     0.041 A 
ATOM     79  C   UNL A   1      35.133  22.818  26.876  1.00  0.00     0.017 A 
ATOM     80  C   UNL A   1      35.051  24.245  24.910  1.00  0.00     0.039 A 
ATOM     81  C   UNL A   1      33.761  22.621  26.788  1.00  0.00     0.041 A 
ATOM     82  C   UNL A   1      33.659  24.077  24.856  1.00  0.00     0.124 A 
ATOM     83  C   UNL A   1      33.036  23.224  25.761  1.00  0.00     0.143 A 
ATOM     84  F   UNL A   1      31.738  22.919  25.697  1.00  0.00    -0.205 F 
BRANCH  82  85
ATOM     85  S   UNL A   1      32.782  24.955  23.590  1.00  0.00     0.267 S 
ATOM     86  O   UNL A   1      33.790  25.674  22.836  1.00  0.00    -0.201 OA
ATOM     87  O   UNL A   1      31.953  23.959  22.943  1.00  0.00    -0.201 OA
BRANCH  85  88
ATOM     88  N   UNL A   1      31.841  26.104  24.397  1.00  0.00    -0.259 N 
ATOM     89  C   UNL A   1      30.381  25.833  24.490  1.00  0.00     0.177 C 
ATOM     90  C   UNL A   1      32.369  26.939  25.450  1.00  0.00     0.094 A 
ATOM     91  C   UNL A   1      30.017  25.592  25.943  1.00  0.00     0.252 C 
ATOM     92  C   UNL A   1      31.540  27.268  26.543  1.00  0.00     0.143 A 
ATOM     93  C   UNL A   1      33.615  27.567  25.354  1.00  0.00     0.031 A 
ATOM     94  O   UNL A   1      30.275  26.757  26.736  1.00  0.00    -0.489 OA
ATOM     95  C   UNL A   1      31.954  28.195  27.502  1.00  0.00     0.049 A 
ATOM     96  C   UNL A   1      34.043  28.466  26.335  1.00  0.00     0.002 A 
ATOM     97  C   UNL A   1      33.211  28.785  27.405  1.00  0.00     0.004 A 
ENDBRANCH  85  88
ENDBRANCH  82  85
ENDBRANCH  75  78
ENDBRANCH  73  74
ENDBRANCH  72  73
ENDBRANCH   1  72
TORSDOF 16
ENDMDL
MODEL 3
REMARK VINA RESULT:     -12.6      1.563      7.857
REMARK SMILES O=C(NCCCCNC(=O)c1ccc(F)c(S(=O)(=O)N2CCOc3ccccc32)c1)c1ccc(-c2c3nc(c(-c4cc(S(=O)(=O)[O-])ccc4F)c4ccc([nH]4)c(-c4cc(S(=O)(=O)[O-])ccc4F)c4nc(c(-c5cc(S(=O)(=O)[O-])ccc5F)c5ccc2[nH]5)C=C4)C=C3)cc1
REMARK SMILES IDX 5 1 4 2 3 3 1 4 2 5 31 7 32 8 93 9 33 10 92 11 34 12 35 13
REMARK SMILES IDX 36 14 86 15 37 16 91 17 85 18 87 19 38 20 90 21 84 22 83 23
REMARK SMILES IDX 39 25 71 26 51 27 70 28 52 29 55 30 69 31 88 32 53 33 54 34
REMARK SMILES IDX 68 36 89 37 56 38 40 39 41 40 49 41 42 42 48 43 50 44 47 45
REMARK SMILES IDX 43 46 44 47 45 48 46 49 72 50 73 51 81 52 74 53 80 54 82 55
REMARK SMILES IDX 79 56 75 57 76 58 77 59 78 60 57 61 58 62 66 63 59 64 65 65
REMARK SMILES IDX 67 66 64 67 60 68 61 69 62 70 63 71 6 72 7 73 8 74 9 75
REMARK SMILES IDX 10 77 11 78 12 79 30 80 13 81 16 82 14 83 15 84 17 85 18 86
REMARK SMILES IDX 19 87 20 88 21 89 29 90 22 91 24 92 28 93 23 94 25 95 27 96
REMARK SMILES IDX 26 97
REMARK H PARENT 3 6 87 24 55 35 8 76
REMARK Flexibility Score: inf
ROOT
ATOM      1  C   UNL A   1      31.427  31.880  26.535  1.00  0.00     0.023 C 
ENDROOT
BRANCH   1   2
ATOM      2  C   UNL A   1      32.727  32.583  26.903  1.00  0.00     0.116 C 
BRANCH   2   3
ATOM      3  N   UNL A   1      32.520  33.881  27.531  1.00  0.00    -0.352 N 
ATOM      4  O   UNL A   1      32.797  35.507  29.070  1.00  0.00    -0.269 OA
ATOM      5  C   UNL A   1      33.192  34.449  28.590  1.00  0.00     0.251 C 
ATOM      6  H   UNL A   1      31.799  34.428  27.144  1.00  0.00     0.163 HD
BRANCH   5   7
ATOM      7  C   UNL A   1      34.372  33.761  29.160  1.00  0.00     0.039 A 
ATOM      8  C   UNL A   1      34.208  32.661  30.004  1.00  0.00     0.014 A 
ATOM      9  C   UNL A   1      35.653  34.238  28.868  1.00  0.00     0.014 A 
ATOM     10  C   UNL A   1      35.305  32.145  30.681  1.00  0.00     0.010 A 
ATOM     11  C   UNL A   1      36.766  33.654  29.478  1.00  0.00     0.010 A 
ATOM     12  C   UNL A   1      36.598  32.623  30.416  1.00  0.00    -0.014 A 
BRANCH  12  13
ATOM     13  C   UNL A   1      37.757  31.984  31.093  1.00  0.00     0.031 A 
ATOM     14  C   UNL A   1      38.145  32.354  32.497  1.00  0.00     0.074 A 
ATOM     15  C   UNL A   1      38.429  31.016  30.436  1.00  0.00     0.049 A 
ATOM     16  N   UNL A   1      39.122  31.884  33.230  1.00  0.00    -0.248 NA
ATOM     17  C   UNL A   1      37.340  33.388  33.167  1.00  0.00     0.031 C 
ATOM     18  C   UNL A   1      38.132  30.566  29.073  1.00  0.00     0.029 A 
ATOM     19  N   UNL A   1      39.473  30.218  30.827  1.00  0.00    -0.354 N 
ATOM     20  C   UNL A   1      39.061  32.568  34.438  1.00  0.00     0.074 A 
ATOM     21  C   UNL A   1      37.964  33.507  34.332  1.00  0.00     0.031 C 
ATOM     22  C   UNL A   1      38.929  29.533  28.768  1.00  0.00     0.029 A 
ATOM     23  C   UNL A   1      39.845  29.297  29.876  1.00  0.00     0.049 A 
ATOM     24  H   UNL A   1      39.913  30.297  31.704  1.00  0.00     0.167 HD
ATOM     25  C   UNL A   1      39.845  32.420  35.533  1.00  0.00     0.034 A 
ATOM     26  C   UNL A   1      40.830  28.378  29.881  1.00  0.00     0.034 A 
ATOM     27  C   UNL A   1      40.927  31.469  35.629  1.00  0.00     0.049 A 
ATOM     28  C   UNL A   1      41.716  28.270  31.088  1.00  0.00     0.074 A 
ATOM     29  C   UNL A   1      41.765  31.225  36.704  1.00  0.00     0.029 A 
ATOM     30  N   UNL A   1      41.323  30.608  34.615  1.00  0.00    -0.354 N 
ATOM     31  N   UNL A   1      41.661  28.949  32.209  1.00  0.00    -0.248 NA
ATOM     32  C   UNL A   1      42.804  27.287  31.026  1.00  0.00     0.031 C 
ATOM     33  C   UNL A   1      42.704  30.263  36.321  1.00  0.00     0.029 A 
ATOM     34  C   UNL A   1      42.412  29.856  35.030  1.00  0.00     0.049 A 
ATOM     35  H   UNL A   1      40.895  30.542  33.731  1.00  0.00     0.167 HD
ATOM     36  C   UNL A   1      42.704  28.469  32.992  1.00  0.00     0.074 A 
ATOM     37  C   UNL A   1      43.364  27.436  32.219  1.00  0.00     0.031 C 
ATOM     38  C   UNL A   1      43.076  28.847  34.240  1.00  0.00     0.034 A 
BRANCH  25  39
ATOM     39  C   UNL A   1      39.595  33.327  36.711  1.00  0.00     0.023 A 
ATOM     40  C   UNL A   1      38.946  32.871  37.870  1.00  0.00     0.031 A 
ATOM     41  C   UNL A   1      40.051  34.657  36.687  1.00  0.00     0.131 A 
ATOM     42  C   UNL A   1      38.742  33.750  38.947  1.00  0.00     0.055 A 
ATOM     43  C   UNL A   1      39.897  35.509  37.782  1.00  0.00     0.041 A 
ATOM     44  F   UNL A   1      40.664  35.148  35.598  1.00  0.00    -0.206 F 
ATOM     45  C   UNL A   1      39.235  35.058  38.919  1.00  0.00     0.022 A 
BRANCH  42  46
ATOM     46  S   UNL A   1      37.763  33.182  40.363  1.00  0.00     0.124 S 
ATOM     47  O   UNL A   1      37.775  34.362  41.222  1.00  0.00    -0.237 OA
ATOM     48  O   UNL A   1      36.480  32.852  39.751  1.00  0.00    -0.237 OA
ATOM     49  O   UNL A   1      38.522  32.041  40.871  1.00  0.00    -0.744 OA
ENDBRANCH  42  46
ENDBRANCH  25  39
BRANCH  26  50
ATOM     50  C   UNL A   1      41.041  27.522  28.682  1.00  0.00     0.023 A 
ATOM     51  C   UNL A   1      42.033  27.827  27.740  1.00  0.00     0.031 A 
ATOM     52  C   UNL A   1      40.269  26.362  28.487  1.00  0.00     0.131 A 
ATOM     53  C   UNL A   1      42.221  26.985  26.633  1.00  0.00     0.055 A 
ATOM     54  C   UNL A   1      40.486  25.507  27.406  1.00  0.00     0.041 A 
ATOM     55  F   UNL A   1      39.317  26.024  29.371  1.00  0.00    -0.206 F 
ATOM     56  C   UNL A   1      41.465  25.820  26.469  1.00  0.00     0.022 A 
BRANCH  53  57
ATOM     57  S   UNL A   1      43.463  27.439  25.393  1.00  0.00     0.124 S 
ATOM     58  O   UNL A   1      44.185  28.508  26.074  1.00  0.00    -0.237 OA
ATOM     59  O   UNL A   1      44.189  26.185  25.214  1.00  0.00    -0.237 OA
ATOM     60  O   UNL A   1      42.660  27.859  24.246  1.00  0.00    -0.744 OA
ENDBRANCH  53  57
ENDBRANCH  26  50
BRANCH  38  61
ATOM     61  C   UNL A   1      44.243  28.126  34.856  1.00  0.00     0.023 A 
ATOM     62  C   UNL A   1      44.090  26.867  35.459  1.00  0.00     0.031 A 
ATOM     63  C   UNL A   1      45.528  28.692  34.806  1.00  0.00     0.131 A 
ATOM     64  C   UNL A   1      45.205  26.223  36.015  1.00  0.00     0.055 A 
ATOM     65  C   UNL A   1      46.641  28.028  35.321  1.00  0.00     0.041 A 
ATOM     66  F   UNL A   1      45.723  29.893  34.239  1.00  0.00    -0.206 F 
ATOM     67  C   UNL A   1      46.482  26.788  35.934  1.00  0.00     0.022 A 
BRANCH  64  68
ATOM     68  S   UNL A   1      44.964  24.645  36.876  1.00  0.00     0.124 S 
ATOM     69  O   UNL A   1      46.293  24.049  36.789  1.00  0.00    -0.237 OA
ATOM     70  O   UNL A   1      44.541  25.070  38.207  1.00  0.00    -0.237 OA
ATOM     71  O   UNL A   1      43.932  23.978  36.084  1.00  0.00    -0.744 OA
ENDBRANCH  64  68
ENDBRANCH  38  61
ENDBRANCH  12  13
ENDBRANCH   5   7
ENDBRANCH   2   3
ENDBRANCH   1   2
BRANCH   1  72
ATOM     72  C   UNL A   1      31.447  30.362  26.676  1.00  0.00     0.023 C 
BRANCH  72  73
ATOM     73  C   UNL A   1      31.722  29.592  25.391  1.00  0.00     0.116 C 
BRANCH  73  74
ATOM     74  N   UNL A   1      30.990  30.107  24.242  1.00  0.00    -0.352 N 
ATOM     75  C   UNL A   1      30.407  29.415  23.208  1.00  0.00     0.251 C 
ATOM     76  H   UNL A   1      30.901  31.087  24.201  1.00  0.00     0.163 HD
ATOM     77  O   UNL A   1      29.906  29.994  22.252  1.00  0.00    -0.269 OA
BRANCH  75  78
ATOM     78  C   UNL A   1      30.410  27.939  23.241  1.00  0.00     0.041 A 
ATOM     79  C   UNL A   1      29.267  27.242  23.643  1.00  0.00     0.017 A 
ATOM     80  C   UNL A   1      31.582  27.255  22.904  1.00  0.00     0.039 A 
ATOM     81  C   UNL A   1      29.343  25.871  23.850  1.00  0.00     0.041 A 
ATOM     82  C   UNL A   1      31.635  25.864  23.071  1.00  0.00     0.124 A 
ATOM     83  C   UNL A   1      30.534  25.194  23.594  1.00  0.00     0.143 A 
ATOM     84  F   UNL A   1      30.550  23.893  23.896  1.00  0.00    -0.205 F 
BRANCH  82  85
ATOM     85  S   UNL A   1      33.147  25.048  22.629  1.00  0.00     0.267 S 
ATOM     86  O   UNL A   1      32.766  23.720  22.192  1.00  0.00    -0.201 OA
ATOM     87  O   UNL A   1      33.817  25.956  21.722  1.00  0.00    -0.201 OA
BRANCH  85  88
ATOM     88  N   UNL A   1      34.012  24.876  24.072  1.00  0.00    -0.259 N 
ATOM     89  C   UNL A   1      33.389  25.436  25.301  1.00  0.00     0.177 C 
ATOM     90  C   UNL A   1      34.929  23.784  24.302  1.00  0.00     0.094 A 
ATOM     91  C   UNL A   1      33.035  24.295  26.237  1.00  0.00     0.252 C 
ATOM     92  C   UNL A   1      35.021  23.230  25.595  1.00  0.00     0.143 A 
ATOM     93  C   UNL A   1      35.845  23.360  23.334  1.00  0.00     0.031 A 
ATOM     94  O   UNL A   1      34.211  23.588  26.651  1.00  0.00    -0.489 OA
ATOM     95  C   UNL A   1      36.000  22.282  25.900  1.00  0.00     0.049 A 
ATOM     96  C   UNL A   1      36.801  22.383  23.631  1.00  0.00     0.002 A 
ATOM     97  C   UNL A   1      36.883  21.849  24.914  1.00  0.00     0.004 A 
ENDBRANCH  85  88
ENDBRANCH  82  85
ENDBRANCH  75  78
ENDBRANCH  73  74
ENDBRANCH  72  73
ENDBRANCH   1  72
TORSDOF 16
ENDMDL
