MODEL 1
REMARK VINA RESULT:     -12.4      0.000      0.000
REMARK SMILES COc1ccc(C(=O)NCCCCNC(=O)c2ccc(-c3c4nc(c(-c5cc(S(=O)(=O)[O-])ccc5F)c5ccc([nH]5)c(-c5cc(S(=O)(=O)[O-])ccc5F)c5nc(c(-c6cc(S(=O)(=O)[O-])ccc6F)c6ccc3[nH]6)C=C5)C=C4)cc2)cc1NC(=O)c1ccccc1[N+](=O)[O-]
REMARK SMILES IDX 11 1 10 2 9 3 7 4 8 5 6 7 3 8 4 9 81 10 5 11 80 12 2 13 1 14
REMARK SMILES IDX 82 15 83 16 84 18 85 19 86 20 90 21 87 22 89 23 88 24 91 25
REMARK SMILES IDX 92 26 93 27 12 28 13 29 14 30 15 31 16 33 17 34 18 35 79 36
REMARK SMILES IDX 19 37 78 38 20 39 21 40 22 41 72 42 23 43 77 44 71 45 73 46
REMARK SMILES IDX 24 47 76 48 70 49 69 50 25 52 57 53 37 54 56 55 38 56 41 57
REMARK SMILES IDX 55 58 74 59 39 60 40 61 54 63 75 64 42 65 26 66 27 67 35 68
REMARK SMILES IDX 28 69 34 70 36 71 33 72 29 73 30 74 31 75 32 76 58 77 59 78
REMARK SMILES IDX 67 79 60 80 66 81 68 82 65 83 61 84 62 85 63 86 64 87 43 88
REMARK SMILES IDX 44 89 52 90 45 91 51 92 53 93 50 94 46 95 47 96 48 97 49 98
REMARK H PARENT 9 6 82 17 14 32 73 51 41 62
REMARK Flexibility Score: inf
ROOT
ATOM      1  C   UNL A   1      35.761  21.204  24.554  1.00  0.00     0.023 C 
ENDROOT
BRANCH   1   2
ATOM      2  C   UNL A   1      36.155  22.602  24.070  1.00  0.00     0.116 C 
BRANCH   2   3
ATOM      3  N   UNL A   1      35.300  23.024  22.982  1.00  0.00    -0.352 N 
ATOM      4  C   UNL A   1      33.997  23.439  22.913  1.00  0.00     0.251 C 
ATOM      5  O   UNL A   1      33.591  23.799  21.805  1.00  0.00    -0.269 OA
ATOM      6  H   UNL A   1      35.749  23.009  22.106  1.00  0.00     0.163 HD
BRANCH   4   7
ATOM      7  C   UNL A   1      33.053  23.508  24.069  1.00  0.00     0.042 A 
ATOM      8  C   UNL A   1      31.395  23.319  26.323  1.00  0.00     0.142 A 
ATOM      9  C   UNL A   1      31.650  22.182  25.568  1.00  0.00     0.049 A 
ATOM     10  C   UNL A   1      31.942  24.562  25.961  1.00  0.00     0.084 A 
ATOM     11  C   UNL A   1      32.454  22.285  24.435  1.00  0.00     0.018 A 
ATOM     12  C   UNL A   1      32.808  24.644  24.859  1.00  0.00     0.044 A 
BRANCH   8  13
ATOM     13  O   UNL A   1      30.651  23.179  27.470  1.00  0.00    -0.495 OA
ATOM     14  C   UNL A   1      29.340  22.688  27.179  1.00  0.00     0.278 C 
ENDBRANCH   8  13
BRANCH  10  15
ATOM     15  N   UNL A   1      31.600  25.652  26.777  1.00  0.00    -0.319 N 
ATOM     16  C   UNL A   1      31.277  26.957  26.527  1.00  0.00     0.262 C 
ATOM     17  H   UNL A   1      31.592  25.429  27.737  1.00  0.00     0.170 HD
ATOM     18  O   UNL A   1      31.175  27.746  27.467  1.00  0.00    -0.269 OA
BRANCH  16  19
ATOM     19  C   UNL A   1      30.977  27.466  25.174  1.00  0.00     0.117 A 
ATOM     20  C   UNL A   1      29.820  26.955  24.568  1.00  0.00     0.021 A 
ATOM     21  C   UNL A   1      31.804  28.310  24.426  1.00  0.00     0.282 A 
ATOM     22  C   UNL A   1      29.485  27.316  23.261  1.00  0.00     0.001 A 
ATOM     23  C   UNL A   1      31.450  28.713  23.128  1.00  0.00     0.086 A 
ATOM     24  C   UNL A   1      30.285  28.212  22.551  1.00  0.00     0.007 A 
BRANCH  21  25
ATOM     25  N   UNL A   1      33.092  28.747  24.925  1.00  0.00     0.063 N 
ATOM     26  O   UNL A   1      34.048  27.977  24.762  1.00  0.00    -0.258 OA
ATOM     27  O   UNL A   1      33.143  29.837  25.509  1.00  0.00    -0.258 OA
ENDBRANCH  21  25
ENDBRANCH  16  19
ENDBRANCH  10  15
ENDBRANCH   4   7
ENDBRANCH   2   3
ENDBRANCH   1   2
BRANCH   1  28
ATOM     28  C   UNL A   1      36.880  20.457  25.294  1.00  0.00     0.023 C 
BRANCH  28  29
ATOM     29  C   UNL A   1      38.291  21.015  25.089  1.00  0.00     0.116 C 
BRANCH  29  30
ATOM     30  N   UNL A   1      39.335  20.162  25.637  1.00  0.00    -0.352 N 
ATOM     31  C   UNL A   1      40.291  20.451  26.585  1.00  0.00     0.251 C 
ATOM     32  H   UNL A   1      39.360  19.246  25.279  1.00  0.00     0.163 HD
ATOM     33  O   UNL A   1      41.089  19.589  26.930  1.00  0.00    -0.269 OA
BRANCH  31  34
ATOM     34  C   UNL A   1      40.391  21.829  27.108  1.00  0.00     0.039 A 
ATOM     35  C   UNL A   1      41.321  22.082  28.121  1.00  0.00     0.014 A 
ATOM     36  C   UNL A   1      39.670  22.874  26.526  1.00  0.00     0.014 A 
ATOM     37  C   UNL A   1      41.632  23.400  28.452  1.00  0.00     0.010 A 
ATOM     38  C   UNL A   1      40.019  24.188  26.820  1.00  0.00     0.010 A 
ATOM     39  C   UNL A   1      41.039  24.459  27.747  1.00  0.00    -0.014 A 
BRANCH  39  40
ATOM     40  C   UNL A   1      41.558  25.844  27.866  1.00  0.00     0.031 A 
ATOM     41  C   UNL A   1      42.928  26.191  27.368  1.00  0.00     0.074 A 
ATOM     42  C   UNL A   1      40.820  26.754  28.536  1.00  0.00     0.049 A 
ATOM     43  N   UNL A   1      43.594  27.308  27.497  1.00  0.00    -0.248 NA
ATOM     44  C   UNL A   1      43.654  25.132  26.652  1.00  0.00     0.031 C 
ATOM     45  C   UNL A   1      39.490  26.511  29.104  1.00  0.00     0.029 A 
ATOM     46  N   UNL A   1      41.085  28.058  28.871  1.00  0.00    -0.354 N 
ATOM     47  C   UNL A   1      44.828  27.085  26.896  1.00  0.00     0.074 A 
ATOM     48  C   UNL A   1      44.826  25.712  26.433  1.00  0.00     0.031 C 
ATOM     49  C   UNL A   1      39.055  27.630  29.705  1.00  0.00     0.029 A 
ATOM     50  C   UNL A   1      40.087  28.654  29.608  1.00  0.00     0.049 A 
ATOM     51  H   UNL A   1      41.912  28.524  28.608  1.00  0.00     0.167 HD
ATOM     52  C   UNL A   1      45.859  27.951  26.743  1.00  0.00     0.034 A 
ATOM     53  C   UNL A   1      40.021  29.881  30.163  1.00  0.00     0.034 A 
ATOM     54  C   UNL A   1      45.834  29.320  27.199  1.00  0.00     0.049 A 
ATOM     55  C   UNL A   1      41.190  30.816  29.989  1.00  0.00     0.074 A 
ATOM     56  C   UNL A   1      46.790  30.305  27.024  1.00  0.00     0.029 A 
ATOM     57  N   UNL A   1      44.805  29.894  27.934  1.00  0.00    -0.354 N 
ATOM     58  N   UNL A   1      42.324  30.608  29.360  1.00  0.00    -0.248 NA
ATOM     59  C   UNL A   1      41.070  32.146  30.597  1.00  0.00     0.031 C 
ATOM     60  C   UNL A   1      46.366  31.455  27.701  1.00  0.00     0.029 A 
ATOM     61  C   UNL A   1      45.118  31.208  28.249  1.00  0.00     0.049 A 
ATOM     62  H   UNL A   1      43.973  29.435  28.192  1.00  0.00     0.167 HD
ATOM     63  C   UNL A   1      43.040  31.796  29.473  1.00  0.00     0.074 A 
ATOM     64  C   UNL A   1      42.204  32.716  30.219  1.00  0.00     0.031 C 
ATOM     65  C   UNL A   1      44.275  32.103  29.003  1.00  0.00     0.034 A 
BRANCH  52  66
ATOM     66  C   UNL A   1      47.111  27.429  26.084  1.00  0.00     0.023 A 
ATOM     67  C   UNL A   1      48.088  26.725  26.807  1.00  0.00     0.031 A 
ATOM     68  C   UNL A   1      47.339  27.658  24.716  1.00  0.00     0.131 A 
ATOM     69  C   UNL A   1      49.277  26.331  26.175  1.00  0.00     0.055 A 
ATOM     70  C   UNL A   1      48.492  27.201  24.077  1.00  0.00     0.041 A 
ATOM     71  F   UNL A   1      46.448  28.342  23.980  1.00  0.00    -0.206 F 
ATOM     72  C   UNL A   1      49.476  26.544  24.810  1.00  0.00     0.022 A 
BRANCH  69  73
ATOM     73  S   UNL A   1      50.612  25.644  27.192  1.00  0.00     0.124 S 
ATOM     74  O   UNL A   1      50.031  24.374  27.621  1.00  0.00    -0.237 OA
ATOM     75  O   UNL A   1      51.717  25.553  26.245  1.00  0.00    -0.237 OA
ATOM     76  O   UNL A   1      50.780  26.635  28.253  1.00  0.00    -0.744 OA
ENDBRANCH  69  73
ENDBRANCH  52  66
BRANCH  53  77
ATOM     77  C   UNL A   1      38.828  30.299  30.952  1.00  0.00     0.023 A 
ATOM     78  C   UNL A   1      37.752  30.953  30.333  1.00  0.00     0.031 A 
ATOM     79  C   UNL A   1      38.771  30.104  32.343  1.00  0.00     0.131 A 
ATOM     80  C   UNL A   1      36.686  31.436  31.108  1.00  0.00     0.055 A 
ATOM     81  C   UNL A   1      37.685  30.543  33.104  1.00  0.00     0.041 A 
ATOM     82  F   UNL A   1      39.770  29.477  32.984  1.00  0.00    -0.206 F 
ATOM     83  C   UNL A   1      36.641  31.226  32.488  1.00  0.00     0.022 A 
BRANCH  80  84
ATOM     84  S   UNL A   1      35.404  32.428  30.296  1.00  0.00     0.124 S 
ATOM     85  O   UNL A   1      34.380  32.497  31.332  1.00  0.00    -0.237 OA
ATOM     86  O   UNL A   1      36.117  33.669  30.015  1.00  0.00    -0.237 OA
ATOM     87  O   UNL A   1      35.053  31.633  29.121  1.00  0.00    -0.744 OA
ENDBRANCH  80  84
ENDBRANCH  53  77
BRANCH  65  88
ATOM     88  C   UNL A   1      44.764  33.506  29.253  1.00  0.00     0.023 A 
ATOM     89  C   UNL A   1      44.597  34.524  28.299  1.00  0.00     0.031 A 
ATOM     90  C   UNL A   1      45.427  33.818  30.452  1.00  0.00     0.131 A 
ATOM     91  C   UNL A   1      45.134  35.797  28.538  1.00  0.00     0.055 A 
ATOM     92  C   UNL A   1      45.913  35.101  30.708  1.00  0.00     0.041 A 
ATOM     93  F   UNL A   1      45.614  32.880  31.394  1.00  0.00    -0.206 F 
ATOM     94  C   UNL A   1      45.777  36.096  29.743  1.00  0.00     0.022 A 
BRANCH  91  95
ATOM     95  S   UNL A   1      45.045  37.040  27.221  1.00  0.00     0.124 S 
ATOM     96  O   UNL A   1      45.962  36.493  26.227  1.00  0.00    -0.237 OA
ATOM     97  O   UNL A   1      43.631  37.018  26.864  1.00  0.00    -0.237 OA
ATOM     98  O   UNL A   1      45.498  38.267  27.876  1.00  0.00    -0.744 OA
ENDBRANCH  91  95
ENDBRANCH  65  88
ENDBRANCH  39  40
ENDBRANCH  31  34
ENDBRANCH  29  30
ENDBRANCH  28  29
ENDBRANCH   1  28
TORSDOF 18
ENDMDL
MODEL 2
REMARK VINA RESULT:     -12.4      4.643      7.818
REMARK SMILES COc1ccc(C(=O)NCCCCNC(=O)c2ccc(-c3c4nc(c(-c5cc(S(=O)(=O)[O-])ccc5F)c5ccc([nH]5)c(-c5cc(S(=O)(=O)[O-])ccc5F)c5nc(c(-c6cc(S(=O)(=O)[O-])ccc6F)c6ccc3[nH]6)C=C5)C=C4)cc2)cc1NC(=O)c1ccccc1[N+](=O)[O-]
REMARK SMILES IDX 11 1 10 2 9 3 7 4 8 5 6 7 3 8 4 9 81 10 5 11 80 12 2 13 1 14
REMARK SMILES IDX 82 15 83 16 84 18 85 19 86 20 90 21 87 22 89 23 88 24 91 25
REMARK SMILES IDX 92 26 93 27 12 28 13 29 14 30 15 31 16 33 17 34 18 35 79 36
REMARK SMILES IDX 19 37 78 38 20 39 21 40 22 41 72 42 23 43 77 44 71 45 73 46
REMARK SMILES IDX 24 47 76 48 70 49 69 50 25 52 57 53 37 54 56 55 38 56 41 57
REMARK SMILES IDX 55 58 74 59 39 60 40 61 54 63 75 64 42 65 26 66 27 67 35 68
REMARK SMILES IDX 28 69 34 70 36 71 33 72 29 73 30 74 31 75 32 76 58 77 59 78
REMARK SMILES IDX 67 79 60 80 66 81 68 82 65 83 61 84 62 85 63 86 64 87 43 88
REMARK SMILES IDX 44 89 52 90 45 91 51 92 53 93 50 94 46 95 47 96 48 97 49 98
REMARK H PARENT 9 6 82 17 14 32 73 51 41 62
REMARK Flexibility Score: inf
ROOT
ATOM      1  C   UNL A   1      33.033  28.687  24.227  1.00  0.00     0.023 C 
ENDROOT
BRANCH   1   2
ATOM      2  C   UNL A   1      32.576  28.376  22.800  1.00  0.00     0.116 C 
BRANCH   2   3
ATOM      3  N   UNL A   1      31.131  28.365  22.718  1.00  0.00    -0.352 N 
ATOM      4  C   UNL A   1      30.167  27.511  23.184  1.00  0.00     0.251 C 
ATOM      5  O   UNL A   1      28.996  27.844  22.990  1.00  0.00    -0.269 OA
ATOM      6  H   UNL A   1      30.764  29.132  22.223  1.00  0.00     0.163 HD
BRANCH   4   7
ATOM      7  C   UNL A   1      30.429  26.236  23.918  1.00  0.00     0.042 A 
ATOM      8  C   UNL A   1      30.683  23.954  25.527  1.00  0.00     0.142 A 
ATOM      9  C   UNL A   1      30.450  25.185  26.125  1.00  0.00     0.049 A 
ATOM     10  C   UNL A   1      30.812  23.842  24.132  1.00  0.00     0.084 A 
ATOM     11  C   UNL A   1      30.349  26.320  25.323  1.00  0.00     0.018 A 
ATOM     12  C   UNL A   1      30.638  24.980  23.327  1.00  0.00     0.044 A 
BRANCH   8  13
ATOM     13  O   UNL A   1      30.716  22.841  26.332  1.00  0.00    -0.495 OA
ATOM     14  C   UNL A   1      29.617  22.831  27.246  1.00  0.00     0.278 C 
ENDBRANCH   8  13
BRANCH  10  15
ATOM     15  N   UNL A   1      31.072  22.556  23.633  1.00  0.00    -0.319 N 
ATOM     16  C   UNL A   1      32.215  21.828  23.444  1.00  0.00     0.262 C 
ATOM     17  H   UNL A   1      30.257  22.074  23.361  1.00  0.00     0.170 HD
ATOM     18  O   UNL A   1      32.158  20.763  22.828  1.00  0.00    -0.269 OA
BRANCH  16  19
ATOM     19  C   UNL A   1      33.523  22.225  24.001  1.00  0.00     0.117 A 
ATOM     20  C   UNL A   1      33.871  21.641  25.229  1.00  0.00     0.021 A 
ATOM     21  C   UNL A   1      34.366  23.204  23.467  1.00  0.00     0.282 A 
ATOM     22  C   UNL A   1      35.054  22.003  25.877  1.00  0.00     0.001 A 
ATOM     23  C   UNL A   1      35.578  23.541  24.091  1.00  0.00     0.086 A 
ATOM     24  C   UNL A   1      35.918  22.933  25.298  1.00  0.00     0.007 A 
BRANCH  21  25
ATOM     25  N   UNL A   1      33.995  23.964  22.291  1.00  0.00     0.063 N 
ATOM     26  O   UNL A   1      34.021  25.199  22.389  1.00  0.00    -0.258 OA
ATOM     27  O   UNL A   1      33.644  23.334  21.285  1.00  0.00    -0.258 OA
ENDBRANCH  21  25
ENDBRANCH  16  19
ENDBRANCH  10  15
ENDBRANCH   4   7
ENDBRANCH   2   3
ENDBRANCH   1   2
BRANCH   1  28
ATOM     28  C   UNL A   1      32.151  29.706  24.961  1.00  0.00     0.023 C 
BRANCH  28  29
ATOM     29  C   UNL A   1      32.441  29.871  26.455  1.00  0.00     0.116 C 
BRANCH  29  30
ATOM     30  N   UNL A   1      32.252  31.232  26.934  1.00  0.00    -0.352 N 
ATOM     31  C   UNL A   1      33.171  32.103  27.476  1.00  0.00     0.251 C 
ATOM     32  H   UNL A   1      31.335  31.581  26.857  1.00  0.00     0.163 HD
ATOM     33  O   UNL A   1      32.821  33.226  27.816  1.00  0.00    -0.269 OA
BRANCH  31  34
ATOM     34  C   UNL A   1      34.550  31.634  27.719  1.00  0.00     0.039 A 
ATOM     35  C   UNL A   1      35.548  32.594  27.904  1.00  0.00     0.014 A 
ATOM     36  C   UNL A   1      34.830  30.275  27.883  1.00  0.00     0.014 A 
ATOM     37  C   UNL A   1      36.794  32.203  28.394  1.00  0.00     0.010 A 
ATOM     38  C   UNL A   1      36.054  29.892  28.420  1.00  0.00     0.010 A 
ATOM     39  C   UNL A   1      37.025  30.859  28.728  1.00  0.00    -0.014 A 
BRANCH  39  40
ATOM     40  C   UNL A   1      38.217  30.461  29.517  1.00  0.00     0.031 A 
ATOM     41  C   UNL A   1      39.190  29.457  28.975  1.00  0.00     0.074 A 
ATOM     42  C   UNL A   1      38.345  30.931  30.775  1.00  0.00     0.049 A 
ATOM     43  N   UNL A   1      40.212  28.898  29.567  1.00  0.00    -0.248 NA
ATOM     44  C   UNL A   1      38.965  29.004  27.595  1.00  0.00     0.031 C 
ATOM     45  C   UNL A   1      37.430  31.878  31.420  1.00  0.00     0.029 A 
ATOM     46  N   UNL A   1      39.278  30.665  31.746  1.00  0.00    -0.354 N 
ATOM     47  C   UNL A   1      40.747  28.009  28.640  1.00  0.00     0.074 A 
ATOM     48  C   UNL A   1      39.911  28.084  27.459  1.00  0.00     0.031 C 
ATOM     49  C   UNL A   1      37.854  32.121  32.670  1.00  0.00     0.029 A 
ATOM     50  C   UNL A   1      39.040  31.315  32.936  1.00  0.00     0.049 A 
ATOM     51  H   UNL A   1      40.047  30.066  31.603  1.00  0.00     0.167 HD
ATOM     52  C   UNL A   1      41.837  27.215  28.766  1.00  0.00     0.034 A 
ATOM     53  C   UNL A   1      39.691  31.252  34.114  1.00  0.00     0.034 A 
ATOM     54  C   UNL A   1      42.665  27.168  29.947  1.00  0.00     0.049 A 
ATOM     55  C   UNL A   1      40.890  30.347  34.228  1.00  0.00     0.074 A 
ATOM     56  C   UNL A   1      43.838  26.461  30.151  1.00  0.00     0.029 A 
ATOM     57  N   UNL A   1      42.401  27.845  31.130  1.00  0.00    -0.354 N 
ATOM     58  N   UNL A   1      41.420  29.563  33.318  1.00  0.00    -0.248 NA
ATOM     59  C   UNL A   1      41.578  30.319  35.525  1.00  0.00     0.031 C 
ATOM     60  C   UNL A   1      44.249  26.664  31.473  1.00  0.00     0.029 A 
ATOM     61  C   UNL A   1      43.368  27.545  32.078  1.00  0.00     0.049 A 
ATOM     62  H   UNL A   1      41.639  28.452  31.275  1.00  0.00     0.167 HD
ATOM     63  C   UNL A   1      42.523  28.971  33.927  1.00  0.00     0.074 A 
ATOM     64  C   UNL A   1      42.586  29.499  35.275  1.00  0.00     0.031 C 
ATOM     65  C   UNL A   1      43.406  28.075  33.420  1.00  0.00     0.034 A 
BRANCH  52  66
ATOM     66  C   UNL A   1      42.173  26.309  27.609  1.00  0.00     0.023 A 
ATOM     67  C   UNL A   1      41.697  24.989  27.541  1.00  0.00     0.031 A 
ATOM     68  C   UNL A   1      42.999  26.768  26.567  1.00  0.00     0.131 A 
ATOM     69  C   UNL A   1      42.103  24.152  26.490  1.00  0.00     0.055 A 
ATOM     70  C   UNL A   1      43.341  25.952  25.487  1.00  0.00     0.041 A 
ATOM     71  F   UNL A   1      43.498  28.014  26.590  1.00  0.00    -0.206 F 
ATOM     72  C   UNL A   1      42.903  24.632  25.451  1.00  0.00     0.022 A 
BRANCH  69  73
ATOM     73  S   UNL A   1      41.668  22.394  26.565  1.00  0.00     0.124 S 
ATOM     74  O   UNL A   1      42.068  22.050  27.928  1.00  0.00    -0.237 OA
ATOM     75  O   UNL A   1      40.233  22.411  26.306  1.00  0.00    -0.237 OA
ATOM     76  O   UNL A   1      42.486  21.793  25.513  1.00  0.00    -0.744 OA
ENDBRANCH  69  73
ENDBRANCH  52  66
BRANCH  53  77
ATOM     77  C   UNL A   1      39.223  32.041  35.288  1.00  0.00     0.023 A 
ATOM     78  C   UNL A   1      39.672  33.355  35.493  1.00  0.00     0.031 A 
ATOM     79  C   UNL A   1      38.369  31.477  36.251  1.00  0.00     0.131 A 
ATOM     80  C   UNL A   1      39.307  34.045  36.660  1.00  0.00     0.055 A 
ATOM     81  C   UNL A   1      37.969  32.185  37.387  1.00  0.00     0.041 A 
ATOM     82  F   UNL A   1      37.904  30.227  36.100  1.00  0.00    -0.206 F 
ATOM     83  C   UNL A   1      38.451  33.472  37.603  1.00  0.00     0.022 A 
BRANCH  80  84
ATOM     84  S   UNL A   1      40.048  35.671  36.973  1.00  0.00     0.124 S 
ATOM     85  O   UNL A   1      39.411  36.052  38.228  1.00  0.00    -0.237 OA
ATOM     86  O   UNL A   1      41.468  35.344  37.047  1.00  0.00    -0.237 OA
ATOM     87  O   UNL A   1      39.651  36.455  35.806  1.00  0.00    -0.744 OA
ENDBRANCH  80  84
ENDBRANCH  53  77
BRANCH  65  88
ATOM     88  C   UNL A   1      44.533  27.650  34.325  1.00  0.00     0.023 A 
ATOM     89  C   UNL A   1      44.447  26.489  35.110  1.00  0.00     0.031 A 
ATOM     90  C   UNL A   1      45.696  28.434  34.418  1.00  0.00     0.131 A 
ATOM     91  C   UNL A   1      45.486  26.168  35.996  1.00  0.00     0.055 A 
ATOM     92  C   UNL A   1      46.750  28.082  35.261  1.00  0.00     0.041 A 
ATOM     93  F   UNL A   1      45.826  29.554  33.690  1.00  0.00    -0.206 F 
ATOM     94  C   UNL A   1      46.643  26.949  36.065  1.00  0.00     0.022 A 
BRANCH  91  95
ATOM     95  S   UNL A   1      45.273  24.756  37.112  1.00  0.00     0.124 S 
ATOM     96  O   UNL A   1      46.588  24.664  37.739  1.00  0.00    -0.237 OA
ATOM     97  O   UNL A   1      44.185  25.200  37.976  1.00  0.00    -0.237 OA
ATOM     98  O   UNL A   1      44.937  23.654  36.211  1.00  0.00    -0.744 OA
ENDBRANCH  91  95
ENDBRANCH  65  88
ENDBRANCH  39  40
ENDBRANCH  31  34
ENDBRANCH  29  30
ENDBRANCH  28  29
ENDBRANCH   1  28
TORSDOF 18
ENDMDL
MODEL 3
REMARK VINA RESULT:     -12.3      4.665     10.290
REMARK SMILES COc1ccc(C(=O)NCCCCNC(=O)c2ccc(-c3c4nc(c(-c5cc(S(=O)(=O)[O-])ccc5F)c5ccc([nH]5)c(-c5cc(S(=O)(=O)[O-])ccc5F)c5nc(c(-c6cc(S(=O)(=O)[O-])ccc6F)c6ccc3[nH]6)C=C5)C=C4)cc2)cc1NC(=O)c1ccccc1[N+](=O)[O-]
REMARK SMILES IDX 11 1 10 2 9 3 7 4 8 5 6 7 3 8 4 9 81 10 5 11 80 12 2 13 1 14
REMARK SMILES IDX 82 15 83 16 84 18 85 19 86 20 90 21 87 22 89 23 88 24 91 25
REMARK SMILES IDX 92 26 93 27 12 28 13 29 14 30 15 31 16 33 17 34 18 35 79 36
REMARK SMILES IDX 19 37 78 38 20 39 21 40 22 41 72 42 23 43 77 44 71 45 73 46
REMARK SMILES IDX 24 47 76 48 70 49 69 50 25 52 57 53 37 54 56 55 38 56 41 57
REMARK SMILES IDX 55 58 74 59 39 60 40 61 54 63 75 64 42 65 26 66 27 67 35 68
REMARK SMILES IDX 28 69 34 70 36 71 33 72 29 73 30 74 31 75 32 76 58 77 59 78
REMARK SMILES IDX 67 79 60 80 66 81 68 82 65 83 61 84 62 85 63 86 64 87 43 88
REMARK SMILES IDX 44 89 52 90 45 91 51 92 53 93 50 94 46 95 47 96 48 97 49 98
REMARK H PARENT 9 6 82 17 14 32 73 51 41 62
REMARK Flexibility Score: inf
ROOT
ATOM      1  C   UNL A   1      31.791  29.642  26.621  1.00  0.00     0.023 C 
ENDROOT
BRANCH   1   2
ATOM      2  C   UNL A   1      32.606  29.440  25.342  1.00  0.00     0.116 C 
BRANCH   2   3
ATOM      3  N   UNL A   1      31.736  29.358  24.190  1.00  0.00    -0.352 N 
ATOM      4  C   UNL A   1      31.029  28.337  23.612  1.00  0.00     0.251 C 
ATOM      5  O   UNL A   1      30.315  28.634  22.652  1.00  0.00    -0.269 OA
ATOM      6  H   UNL A   1      31.629  30.217  23.721  1.00  0.00     0.163 HD
BRANCH   4   7
ATOM      7  C   UNL A   1      31.043  26.914  24.070  1.00  0.00     0.042 A 
ATOM      8  C   UNL A   1      30.838  24.342  25.169  1.00  0.00     0.142 A 
ATOM      9  C   UNL A   1      30.753  25.448  26.004  1.00  0.00     0.049 A 
ATOM     10  C   UNL A   1      31.044  24.497  23.787  1.00  0.00     0.084 A 
ATOM     11  C   UNL A   1      30.880  26.723  25.457  1.00  0.00     0.018 A 
ATOM     12  C   UNL A   1      31.101  25.787  23.234  1.00  0.00     0.044 A 
BRANCH   8  13
ATOM     13  O   UNL A   1      30.647  23.099  25.722  1.00  0.00    -0.495 OA
ATOM     14  C   UNL A   1      31.423  22.938  26.912  1.00  0.00     0.278 C 
ENDBRANCH   8  13
BRANCH  10  15
ATOM     15  N   UNL A   1      31.141  23.314  23.038  1.00  0.00    -0.319 N 
ATOM     16  C   UNL A   1      32.142  22.405  22.829  1.00  0.00     0.262 C 
ATOM     17  H   UNL A   1      30.310  23.090  22.559  1.00  0.00     0.170 HD
ATOM     18  O   UNL A   1      31.994  21.526  21.979  1.00  0.00    -0.269 OA
BRANCH  16  19
ATOM     19  C   UNL A   1      33.385  22.381  23.625  1.00  0.00     0.117 A 
ATOM     20  C   UNL A   1      34.256  23.465  23.438  1.00  0.00     0.021 A 
ATOM     21  C   UNL A   1      33.801  21.327  24.444  1.00  0.00     0.282 A 
ATOM     22  C   UNL A   1      35.491  23.504  24.089  1.00  0.00     0.001 A 
ATOM     23  C   UNL A   1      35.022  21.380  25.136  1.00  0.00     0.086 A 
ATOM     24  C   UNL A   1      35.863  22.476  24.955  1.00  0.00     0.007 A 
BRANCH  21  25
ATOM     25  N   UNL A   1      33.031  20.105  24.558  1.00  0.00     0.063 N 
ATOM     26  O   UNL A   1      32.072  20.117  25.341  1.00  0.00    -0.258 OA
ATOM     27  O   UNL A   1      33.403  19.127  23.897  1.00  0.00    -0.258 OA
ENDBRANCH  21  25
ENDBRANCH  16  19
ENDBRANCH  10  15
ENDBRANCH   4   7
ENDBRANCH   2   3
ENDBRANCH   1   2
BRANCH   1  28
ATOM     28  C   UNL A   1      31.261  31.071  26.809  1.00  0.00     0.023 C 
BRANCH  28  29
ATOM     29  C   UNL A   1      32.181  32.185  26.303  1.00  0.00     0.116 C 
BRANCH  29  30
ATOM     30  N   UNL A   1      32.180  33.366  27.153  1.00  0.00    -0.352 N 
ATOM     31  C   UNL A   1      33.155  33.824  28.012  1.00  0.00     0.251 C 
ATOM     32  H   UNL A   1      31.367  33.917  27.107  1.00  0.00     0.163 HD
ATOM     33  O   UNL A   1      32.974  34.857  28.645  1.00  0.00    -0.269 OA
BRANCH  31  34
ATOM     34  C   UNL A   1      34.371  33.012  28.219  1.00  0.00     0.039 A 
ATOM     35  C   UNL A   1      35.595  33.677  28.325  1.00  0.00     0.014 A 
ATOM     36  C   UNL A   1      34.288  31.633  28.428  1.00  0.00     0.014 A 
ATOM     37  C   UNL A   1      36.715  32.982  28.781  1.00  0.00     0.010 A 
ATOM     38  C   UNL A   1      35.392  30.954  28.932  1.00  0.00     0.010 A 
ATOM     39  C   UNL A   1      36.599  31.636  29.161  1.00  0.00    -0.014 A 
BRANCH  39  40
ATOM     40  C   UNL A   1      37.680  30.957  29.918  1.00  0.00     0.031 A 
ATOM     41  C   UNL A   1      37.967  31.333  31.341  1.00  0.00     0.074 A 
ATOM     42  C   UNL A   1      38.473  30.082  29.266  1.00  0.00     0.049 A 
ATOM     43  N   UNL A   1      38.943  30.941  32.115  1.00  0.00    -0.248 NA
ATOM     44  C   UNL A   1      37.047  32.296  31.963  1.00  0.00     0.031 C 
ATOM     45  C   UNL A   1      38.313  29.677  27.866  1.00  0.00     0.029 A 
ATOM     46  N   UNL A   1      39.582  29.388  29.681  1.00  0.00    -0.354 N 
ATOM     47  C   UNL A   1      38.772  31.624  33.315  1.00  0.00     0.074 A 
ATOM     48  C   UNL A   1      37.614  32.478  33.148  1.00  0.00     0.031 C 
ATOM     49  C   UNL A   1      39.277  28.801  27.545  1.00  0.00     0.029 A 
ATOM     50  C   UNL A   1      40.153  28.616  28.696  1.00  0.00     0.049 A 
ATOM     51  H   UNL A   1      39.935  29.439  30.599  1.00  0.00     0.167 HD
ATOM     52  C   UNL A   1      39.510  31.535  34.448  1.00  0.00     0.034 A 
ATOM     53  C   UNL A   1      41.269  27.860  28.712  1.00  0.00     0.034 A 
ATOM     54  C   UNL A   1      40.652  30.665  34.597  1.00  0.00     0.049 A 
ATOM     55  C   UNL A   1      42.078  27.794  29.981  1.00  0.00     0.074 A 
ATOM     56  C   UNL A   1      41.421  30.437  35.725  1.00  0.00     0.029 A 
ATOM     57  N   UNL A   1      41.198  29.889  33.583  1.00  0.00    -0.354 N 
ATOM     58  N   UNL A   1      41.862  28.396  31.128  1.00  0.00    -0.248 NA
ATOM     59  C   UNL A   1      43.278  26.948  29.958  1.00  0.00     0.031 C 
ATOM     60  C   UNL A   1      42.464  29.571  35.378  1.00  0.00     0.029 A 
ATOM     61  C   UNL A   1      42.313  29.210  34.049  1.00  0.00     0.049 A 
ATOM     62  H   UNL A   1      40.844  29.829  32.666  1.00  0.00     0.167 HD
ATOM     63  C   UNL A   1      42.886  27.976  31.972  1.00  0.00     0.074 A 
ATOM     64  C   UNL A   1      43.709  27.063  31.205  1.00  0.00     0.031 C 
ATOM     65  C   UNL A   1      43.125  28.311  33.264  1.00  0.00     0.034 A 
BRANCH  52  66
ATOM     66  C   UNL A   1      39.123  32.428  35.599  1.00  0.00     0.023 A 
ATOM     67  C   UNL A   1      39.587  33.750  35.697  1.00  0.00     0.031 A 
ATOM     68  C   UNL A   1      38.294  31.941  36.625  1.00  0.00     0.131 A 
ATOM     69  C   UNL A   1      39.274  34.519  36.829  1.00  0.00     0.055 A 
ATOM     70  C   UNL A   1      37.927  32.735  37.712  1.00  0.00     0.041 A 
ATOM     71  F   UNL A   1      37.837  30.679  36.592  1.00  0.00    -0.206 F 
ATOM     72  C   UNL A   1      38.428  34.029  37.826  1.00  0.00     0.022 A 
BRANCH  69  73
ATOM     73  S   UNL A   1      40.086  36.127  37.035  1.00  0.00     0.124 S 
ATOM     74  O   UNL A   1      39.811  36.763  35.749  1.00  0.00    -0.237 OA
ATOM     75  O   UNL A   1      39.390  36.688  38.187  1.00  0.00    -0.237 OA
ATOM     76  O   UNL A   1      41.487  35.777  37.262  1.00  0.00    -0.744 OA
ENDBRANCH  69  73
ENDBRANCH  52  66
BRANCH  53  77
ATOM     77  C   UNL A   1      41.709  27.122  27.494  1.00  0.00     0.023 A 
ATOM     78  C   UNL A   1      41.552  25.731  27.403  1.00  0.00     0.031 A 
ATOM     79  C   UNL A   1      42.343  27.786  26.430  1.00  0.00     0.131 A 
ATOM     80  C   UNL A   1      42.070  25.038  26.297  1.00  0.00     0.055 A 
ATOM     81  C   UNL A   1      42.813  27.100  25.308  1.00  0.00     0.041 A 
ATOM     82  F   UNL A   1      42.511  29.118  26.462  1.00  0.00    -0.206 F 
ATOM     83  C   UNL A   1      42.690  25.715  25.245  1.00  0.00     0.022 A 
BRANCH  80  84
ATOM     84  S   UNL A   1      42.004  23.226  26.301  1.00  0.00     0.124 S 
ATOM     85  O   UNL A   1      40.573  22.980  26.439  1.00  0.00    -0.237 OA
ATOM     86  O   UNL A   1      42.588  22.902  25.003  1.00  0.00    -0.237 OA
ATOM     87  O   UNL A   1      42.817  22.859  27.457  1.00  0.00    -0.744 OA
ENDBRANCH  80  84
ENDBRANCH  53  77
BRANCH  65  88
ATOM     88  C   UNL A   1      44.303  27.648  33.928  1.00  0.00     0.023 A 
ATOM     89  C   UNL A   1      44.158  26.464  34.671  1.00  0.00     0.031 A 
ATOM     90  C   UNL A   1      45.582  28.222  33.833  1.00  0.00     0.131 A 
ATOM     91  C   UNL A   1      45.265  25.919  35.336  1.00  0.00     0.055 A 
ATOM     92  C   UNL A   1      46.691  27.646  34.454  1.00  0.00     0.041 A 
ATOM     93  F   UNL A   1      45.773  29.354  33.137  1.00  0.00    -0.206 F 
ATOM     94  C   UNL A   1      46.533  26.494  35.220  1.00  0.00     0.022 A 
BRANCH  91  95
ATOM     95  S   UNL A   1      45.011  24.486  36.419  1.00  0.00     0.124 S 
ATOM     96  O   UNL A   1      46.204  24.526  37.258  1.00  0.00    -0.237 OA
ATOM     97  O   UNL A   1      43.754  24.814  37.083  1.00  0.00    -0.237 OA
ATOM     98  O   UNL A   1      44.943  23.360  35.488  1.00  0.00    -0.744 OA
ENDBRANCH  91  95
ENDBRANCH  65  88
ENDBRANCH  39  40
ENDBRANCH  31  34
ENDBRANCH  29  30
ENDBRANCH  28  29
ENDBRANCH   1  28
TORSDOF 18
ENDMDL
