MODEL 1
REMARK VINA RESULT:     -13.0      0.000      0.000
REMARK SMILES O=C(NCCCCNC(=O)c1ccccc1NC(=O)c1ccc(N2C(=O)[C@H]3CC=CC[C@H]3C2=O)cc1)c1ccc(-c2c3nc(c(-c4cc(S(=O)(=O)[O-])ccc4F)c4ccc([nH]4)c(-c4cc(S(=O)(=O)[O-])ccc4F)c4nc(c(-c5cc(S(=O)(=O)[O-])ccc5F)c5ccc2[nH]5)C=C4)C=C3)cc1
REMARK SMILES IDX 5 1 4 2 3 3 1 4 2 5 37 7 38 8 99 9 39 10 98 11 40 12 41 13
REMARK SMILES IDX 42 14 92 15 43 16 97 17 91 18 93 19 44 20 96 21 90 22 89 23
REMARK SMILES IDX 45 25 77 26 57 27 76 28 58 29 61 30 75 31 94 32 59 33 60 34
REMARK SMILES IDX 74 36 95 37 62 38 46 39 47 40 55 41 48 42 54 43 56 44 53 45
REMARK SMILES IDX 49 46 50 47 51 48 52 49 78 50 79 51 87 52 80 53 86 54 88 55
REMARK SMILES IDX 85 56 81 57 82 58 83 59 84 60 63 61 64 62 72 63 65 64 71 65
REMARK SMILES IDX 73 66 70 67 66 68 67 69 68 70 69 71 6 72 7 73 8 74 9 75
REMARK SMILES IDX 10 77 11 78 12 79 16 80 13 81 15 82 14 83 17 84 18 85 19 87
REMARK SMILES IDX 20 88 21 89 36 90 22 91 35 92 23 93 24 94 25 95 33 96 26 97
REMARK SMILES IDX 27 98 32 99 34 100 28 101 31 102 29 103 30 104
REMARK H PARENT 3 6 93 24 61 35 8 76 17 86
REMARK Flexibility Score: inf
ROOT
ATOM      1  C   UNL A   1      31.380  31.827  26.837  1.00  0.00     0.023 C 
ENDROOT
BRANCH   1   2
ATOM      2  C   UNL A   1      32.687  32.582  27.052  1.00  0.00     0.116 C 
BRANCH   2   3
ATOM      3  N   UNL A   1      32.483  33.930  27.557  1.00  0.00    -0.352 N 
ATOM      4  O   UNL A   1      32.703  35.659  28.989  1.00  0.00    -0.269 OA
ATOM      5  C   UNL A   1      33.117  34.570  28.596  1.00  0.00     0.251 C 
ATOM      6  H   UNL A   1      31.797  34.458  27.090  1.00  0.00     0.163 HD
BRANCH   5   7
ATOM      7  C   UNL A   1      34.280  33.934  29.254  1.00  0.00     0.039 A 
ATOM      8  C   UNL A   1      34.099  32.882  30.155  1.00  0.00     0.014 A 
ATOM      9  C   UNL A   1      35.569  34.389  28.959  1.00  0.00     0.014 A 
ATOM     10  C   UNL A   1      35.186  32.383  30.864  1.00  0.00     0.010 A 
ATOM     11  C   UNL A   1      36.672  33.823  29.609  1.00  0.00     0.010 A 
ATOM     12  C   UNL A   1      36.487  32.830  30.584  1.00  0.00    -0.014 A 
BRANCH  12  13
ATOM     13  C   UNL A   1      37.640  32.174  31.256  1.00  0.00     0.031 A 
ATOM     14  C   UNL A   1      38.398  31.055  30.598  1.00  0.00     0.074 A 
ATOM     15  C   UNL A   1      38.008  32.625  32.473  1.00  0.00     0.049 A 
ATOM     16  N   UNL A   1      39.426  30.382  31.050  1.00  0.00    -0.248 NA
ATOM     17  C   UNL A   1      37.944  30.630  29.265  1.00  0.00     0.031 C 
ATOM     18  C   UNL A   1      37.335  33.702  33.207  1.00  0.00     0.029 A 
ATOM     19  N   UNL A   1      39.034  32.254  33.303  1.00  0.00    -0.354 N 
ATOM     20  C   UNL A   1      39.733  29.443  30.071  1.00  0.00     0.074 A 
ATOM     21  C   UNL A   1      38.767  29.621  29.006  1.00  0.00     0.031 C 
ATOM     22  C   UNL A   1      37.990  33.930  34.354  1.00  0.00     0.029 A 
ATOM     23  C   UNL A   1      39.078  32.969  34.477  1.00  0.00     0.049 A 
ATOM     24  H   UNL A   1      39.678  31.543  33.079  1.00  0.00     0.167 HD
ATOM     25  C   UNL A   1      40.729  28.522  30.066  1.00  0.00     0.034 A 
ATOM     26  C   UNL A   1      39.882  32.847  35.550  1.00  0.00     0.034 A 
ATOM     27  C   UNL A   1      41.689  28.370  31.136  1.00  0.00     0.049 A 
ATOM     28  C   UNL A   1      40.954  31.791  35.528  1.00  0.00     0.074 A 
ATOM     29  C   UNL A   1      42.771  27.508  31.204  1.00  0.00     0.029 A 
ATOM     30  N   UNL A   1      41.678  29.083  32.328  1.00  0.00    -0.354 N 
ATOM     31  N   UNL A   1      41.252  30.938  34.575  1.00  0.00    -0.248 NA
ATOM     32  C   UNL A   1      41.800  31.682  36.723  1.00  0.00     0.031 C 
ATOM     33  C   UNL A   1      43.368  27.647  32.461  1.00  0.00     0.029 A 
ATOM     34  C   UNL A   1      42.708  28.650  33.152  1.00  0.00     0.049 A 
ATOM     35  H   UNL A   1      41.034  29.791  32.555  1.00  0.00     0.167 HD
ATOM     36  C   UNL A   1      42.330  30.202  35.053  1.00  0.00     0.074 A 
ATOM     37  C   UNL A   1      42.649  30.732  36.362  1.00  0.00     0.031 C 
ATOM     38  C   UNL A   1      42.998  29.176  34.464  1.00  0.00     0.034 A 
BRANCH  25  39
ATOM     39  C   UNL A   1      40.814  27.574  28.895  1.00  0.00     0.023 A 
ATOM     40  C   UNL A   1      41.764  27.733  27.871  1.00  0.00     0.031 A 
ATOM     41  C   UNL A   1      39.947  26.468  28.824  1.00  0.00     0.131 A 
ATOM     42  C   UNL A   1      41.798  26.822  26.803  1.00  0.00     0.055 A 
ATOM     43  C   UNL A   1      40.027  25.532  27.792  1.00  0.00     0.041 A 
ATOM     44  F   UNL A   1      39.008  26.276  29.764  1.00  0.00    -0.206 F 
ATOM     45  C   UNL A   1      40.952  25.710  26.768  1.00  0.00     0.022 A 
BRANCH  42  46
ATOM     46  S   UNL A   1      42.907  27.156  25.405  1.00  0.00     0.124 S 
ATOM     47  O   UNL A   1      44.142  27.529  26.089  1.00  0.00    -0.237 OA
ATOM     48  O   UNL A   1      42.926  25.877  24.704  1.00  0.00    -0.237 OA
ATOM     49  O   UNL A   1      42.244  28.248  24.695  1.00  0.00    -0.744 OA
ENDBRANCH  42  46
ENDBRANCH  25  39
BRANCH  26  50
ATOM     50  C   UNL A   1      39.675  33.705  36.752  1.00  0.00     0.023 A 
ATOM     51  C   UNL A   1      39.081  33.194  37.917  1.00  0.00     0.031 A 
ATOM     52  C   UNL A   1      40.023  35.069  36.734  1.00  0.00     0.131 A 
ATOM     53  C   UNL A   1      38.803  34.051  38.992  1.00  0.00     0.055 A 
ATOM     54  C   UNL A   1      39.805  35.902  37.831  1.00  0.00     0.041 A 
ATOM     55  F   UNL A   1      40.594  35.610  35.646  1.00  0.00    -0.206 F 
ATOM     56  C   UNL A   1      39.175  35.398  38.964  1.00  0.00     0.022 A 
BRANCH  53  57
ATOM     57  S   UNL A   1      37.841  33.406  40.388  1.00  0.00     0.124 S 
ATOM     58  O   UNL A   1      38.757  32.419  40.949  1.00  0.00    -0.237 OA
ATOM     59  O   UNL A   1      37.624  34.608  41.185  1.00  0.00    -0.237 OA
ATOM     60  O   UNL A   1      36.645  32.857  39.751  1.00  0.00    -0.744 OA
ENDBRANCH  53  57
ENDBRANCH  26  50
BRANCH  38  61
ATOM     61  C   UNL A   1      44.153  28.593  35.237  1.00  0.00     0.023 A 
ATOM     62  C   UNL A   1      43.971  27.535  36.146  1.00  0.00     0.031 A 
ATOM     63  C   UNL A   1      45.447  29.123  35.090  1.00  0.00     0.131 A 
ATOM     64  C   UNL A   1      45.050  27.084  36.919  1.00  0.00     0.055 A 
ATOM     65  C   UNL A   1      46.530  28.628  35.816  1.00  0.00     0.041 A 
ATOM     66  F   UNL A   1      45.676  30.136  34.238  1.00  0.00    -0.206 F 
ATOM     67  C   UNL A   1      46.332  27.613  36.747  1.00  0.00     0.022 A 
BRANCH  64  68
ATOM     68  S   UNL A   1      44.737  25.862  38.223  1.00  0.00     0.124 S 
ATOM     69  O   UNL A   1      46.090  25.489  38.621  1.00  0.00    -0.237 OA
ATOM     70  O   UNL A   1      43.975  26.635  39.198  1.00  0.00    -0.237 OA
ATOM     71  O   UNL A   1      43.982  24.815  37.537  1.00  0.00    -0.744 OA
ENDBRANCH  64  68
ENDBRANCH  38  61
ENDBRANCH  12  13
ENDBRANCH   5   7
ENDBRANCH   2   3
ENDBRANCH   1   2
BRANCH   1  72
ATOM     72  C   UNL A   1      31.033  31.511  25.382  1.00  0.00     0.023 C 
BRANCH  72  73
ATOM     73  C   UNL A   1      29.584  31.769  24.984  1.00  0.00     0.116 C 
BRANCH  73  74
ATOM     74  N   UNL A   1      29.425  31.988  23.555  1.00  0.00    -0.352 N 
ATOM     75  C   UNL A   1      29.215  31.086  22.548  1.00  0.00     0.253 C 
ATOM     76  H   UNL A   1      29.475  32.928  23.271  1.00  0.00     0.163 HD
ATOM     77  O   UNL A   1      29.233  31.457  21.377  1.00  0.00    -0.269 OA
BRANCH  75  78
ATOM     78  C   UNL A   1      28.966  29.659  22.839  1.00  0.00     0.063 A 
ATOM     79  C   UNL A   1      27.638  29.328  23.153  1.00  0.00     0.016 A 
ATOM     80  C   UNL A   1      29.989  28.688  22.883  1.00  0.00     0.054 A 
ATOM     81  C   UNL A   1      27.308  28.026  23.513  1.00  0.00     0.001 A 
ATOM     82  C   UNL A   1      29.640  27.403  23.312  1.00  0.00     0.027 A 
ATOM     83  C   UNL A   1      28.311  27.069  23.605  1.00  0.00     0.002 A 
BRANCH  80  84
ATOM     84  N   UNL A   1      31.310  29.056  22.532  1.00  0.00    -0.321 N 
ATOM     85  C   UNL A   1      32.554  28.586  22.884  1.00  0.00     0.255 C 
ATOM     86  H   UNL A   1      31.347  29.811  21.902  1.00  0.00     0.170 HD
ATOM     87  O   UNL A   1      33.563  29.151  22.469  1.00  0.00    -0.269 OA
BRANCH  85  88
ATOM     88  C   UNL A   1      32.729  27.390  23.723  1.00  0.00     0.040 A 
ATOM     89  C   UNL A   1      32.738  26.149  23.091  1.00  0.00     0.016 A 
ATOM     90  C   UNL A   1      32.900  27.476  25.105  1.00  0.00     0.016 A 
ATOM     91  C   UNL A   1      33.049  25.002  23.825  1.00  0.00     0.027 A 
ATOM     92  C   UNL A   1      33.198  26.319  25.835  1.00  0.00     0.027 A 
ATOM     93  C   UNL A   1      33.327  25.069  25.199  1.00  0.00     0.052 A 
BRANCH  93  94
ATOM     94  N   UNL A   1      33.805  23.932  25.912  1.00  0.00    -0.250 N 
ATOM     95  C   UNL A   1      32.990  22.994  26.502  1.00  0.00     0.238 C 
ATOM     96  C   UNL A   1      35.132  23.607  26.046  1.00  0.00     0.238 C 
ATOM     97  O   UNL A   1      31.768  22.991  26.594  1.00  0.00    -0.274 OA
ATOM     98  C   UNL A   1      33.832  21.860  27.040  1.00  0.00     0.096 C 
ATOM     99  C   UNL A   1      35.260  22.231  26.650  1.00  0.00     0.096 C 
ATOM    100  O   UNL A   1      36.114  24.288  25.771  1.00  0.00    -0.274 OA
ATOM    101  C   UNL A   1      33.319  20.525  26.490  1.00  0.00     0.041 C 
ATOM    102  C   UNL A   1      35.960  21.311  25.642  1.00  0.00     0.041 C 
ATOM    103  C   UNL A   1      33.792  20.258  25.094  1.00  0.00    -0.030 C 
ATOM    104  C   UNL A   1      35.016  20.630  24.700  1.00  0.00    -0.030 C 
ENDBRANCH  93  94
ENDBRANCH  85  88
ENDBRANCH  80  84
ENDBRANCH  75  78
ENDBRANCH  73  74
ENDBRANCH  72  73
ENDBRANCH   1  72
TORSDOF 17
ENDMDL
MODEL 2
REMARK VINA RESULT:     -12.9      5.730     11.524
REMARK SMILES O=C(NCCCCNC(=O)c1ccccc1NC(=O)c1ccc(N2C(=O)[C@H]3CC=CC[C@H]3C2=O)cc1)c1ccc(-c2c3nc(c(-c4cc(S(=O)(=O)[O-])ccc4F)c4ccc([nH]4)c(-c4cc(S(=O)(=O)[O-])ccc4F)c4nc(c(-c5cc(S(=O)(=O)[O-])ccc5F)c5ccc2[nH]5)C=C4)C=C3)cc1
REMARK SMILES IDX 5 1 4 2 3 3 1 4 2 5 37 7 38 8 99 9 39 10 98 11 40 12 41 13
REMARK SMILES IDX 42 14 92 15 43 16 97 17 91 18 93 19 44 20 96 21 90 22 89 23
REMARK SMILES IDX 45 25 77 26 57 27 76 28 58 29 61 30 75 31 94 32 59 33 60 34
REMARK SMILES IDX 74 36 95 37 62 38 46 39 47 40 55 41 48 42 54 43 56 44 53 45
REMARK SMILES IDX 49 46 50 47 51 48 52 49 78 50 79 51 87 52 80 53 86 54 88 55
REMARK SMILES IDX 85 56 81 57 82 58 83 59 84 60 63 61 64 62 72 63 65 64 71 65
REMARK SMILES IDX 73 66 70 67 66 68 67 69 68 70 69 71 6 72 7 73 8 74 9 75
REMARK SMILES IDX 10 77 11 78 12 79 16 80 13 81 15 82 14 83 17 84 18 85 19 87
REMARK SMILES IDX 20 88 21 89 36 90 22 91 35 92 23 93 24 94 25 95 33 96 26 97
REMARK SMILES IDX 27 98 32 99 34 100 28 101 31 102 29 103 30 104
REMARK H PARENT 3 6 93 24 61 35 8 76 17 86
REMARK Flexibility Score: inf
ROOT
ATOM      1  C   UNL A   1      37.922  19.871  24.679  1.00  0.00     0.023 C 
ENDROOT
BRANCH   1   2
ATOM      2  C   UNL A   1      38.836  20.244  25.839  1.00  0.00     0.116 C 
BRANCH   2   3
ATOM      3  N   UNL A   1      39.949  19.322  25.999  1.00  0.00    -0.352 N 
ATOM      4  O   UNL A   1      42.110  18.697  26.170  1.00  0.00    -0.269 OA
ATOM      5  C   UNL A   1      41.278  19.601  26.222  1.00  0.00     0.251 C 
ATOM      6  H   UNL A   1      39.721  18.367  25.941  1.00  0.00     0.163 HD
BRANCH   5   7
ATOM      7  C   UNL A   1      41.704  20.990  26.499  1.00  0.00     0.039 A 
ATOM      8  C   UNL A   1      41.904  21.423  27.812  1.00  0.00     0.014 A 
ATOM      9  C   UNL A   1      41.915  21.869  25.432  1.00  0.00     0.014 A 
ATOM     10  C   UNL A   1      42.175  22.763  28.065  1.00  0.00     0.010 A 
ATOM     11  C   UNL A   1      42.275  23.197  25.686  1.00  0.00     0.010 A 
ATOM     12  C   UNL A   1      42.387  23.661  27.006  1.00  0.00    -0.014 A 
BRANCH  12  13
ATOM     13  C   UNL A   1      42.816  25.052  27.310  1.00  0.00     0.031 A 
ATOM     14  C   UNL A   1      41.903  26.019  28.010  1.00  0.00     0.074 A 
ATOM     15  C   UNL A   1      44.065  25.424  26.960  1.00  0.00     0.049 A 
ATOM     16  N   UNL A   1      42.128  27.263  28.349  1.00  0.00    -0.248 NA
ATOM     17  C   UNL A   1      40.562  25.534  28.373  1.00  0.00     0.031 C 
ATOM     18  C   UNL A   1      45.032  24.566  26.268  1.00  0.00     0.029 A 
ATOM     19  N   UNL A   1      44.742  26.601  27.142  1.00  0.00    -0.354 N 
ATOM     20  C   UNL A   1      40.957  27.718  28.947  1.00  0.00     0.074 A 
ATOM     21  C   UNL A   1      40.015  26.619  28.906  1.00  0.00     0.031 C 
ATOM     22  C   UNL A   1      46.187  25.230  26.122  1.00  0.00     0.029 A 
ATOM     23  C   UNL A   1      46.022  26.584  26.636  1.00  0.00     0.049 A 
ATOM     24  H   UNL A   1      44.350  27.385  27.591  1.00  0.00     0.167 HD
ATOM     25  C   UNL A   1      40.700  28.939  29.479  1.00  0.00     0.034 A 
ATOM     26  C   UNL A   1      46.951  27.555  26.564  1.00  0.00     0.034 A 
ATOM     27  C   UNL A   1      41.660  30.018  29.519  1.00  0.00     0.049 A 
ATOM     28  C   UNL A   1      46.620  28.910  27.130  1.00  0.00     0.074 A 
ATOM     29  C   UNL A   1      41.519  31.274  30.086  1.00  0.00     0.029 A 
ATOM     30  N   UNL A   1      42.931  29.979  28.961  1.00  0.00    -0.354 N 
ATOM     31  N   UNL A   1      45.519  29.308  27.726  1.00  0.00    -0.248 NA
ATOM     32  C   UNL A   1      47.655  29.945  27.018  1.00  0.00     0.031 C 
ATOM     33  C   UNL A   1      42.672  32.016  29.808  1.00  0.00     0.029 A 
ATOM     34  C   UNL A   1      43.566  31.201  29.134  1.00  0.00     0.049 A 
ATOM     35  H   UNL A   1      43.324  29.198  28.508  1.00  0.00     0.167 HD
ATOM     36  C   UNL A   1      45.738  30.636  28.072  1.00  0.00     0.074 A 
ATOM     37  C   UNL A   1      47.085  30.960  27.647  1.00  0.00     0.031 C 
ATOM     38  C   UNL A   1      44.902  31.513  28.685  1.00  0.00     0.034 A 
BRANCH  25  39
ATOM     39  C   UNL A   1      39.316  29.199  30.023  1.00  0.00     0.023 A 
ATOM     40  C   UNL A   1      38.353  29.926  29.302  1.00  0.00     0.031 A 
ATOM     41  C   UNL A   1      38.945  28.676  31.275  1.00  0.00     0.131 A 
ATOM     42  C   UNL A   1      37.080  30.141  29.855  1.00  0.00     0.055 A 
ATOM     43  C   UNL A   1      37.659  28.840  31.793  1.00  0.00     0.041 A 
ATOM     44  F   UNL A   1      39.829  27.989  32.016  1.00  0.00    -0.206 F 
ATOM     45  C   UNL A   1      36.719  29.583  31.085  1.00  0.00     0.022 A 
BRANCH  42  46
ATOM     46  S   UNL A   1      35.924  31.237  28.987  1.00  0.00     0.124 S 
ATOM     47  O   UNL A   1      36.837  32.128  28.276  1.00  0.00    -0.237 OA
ATOM     48  O   UNL A   1      35.167  30.305  28.158  1.00  0.00    -0.237 OA
ATOM     49  O   UNL A   1      35.168  31.866  30.068  1.00  0.00    -0.744 OA
ENDBRANCH  42  46
ENDBRANCH  25  39
BRANCH  26  50
ATOM     50  C   UNL A   1      48.256  27.305  25.886  1.00  0.00     0.023 A 
ATOM     51  C   UNL A   1      48.408  27.503  24.505  1.00  0.00     0.031 A 
ATOM     52  C   UNL A   1      49.360  26.812  26.607  1.00  0.00     0.131 A 
ATOM     53  C   UNL A   1      49.616  27.158  23.879  1.00  0.00     0.055 A 
ATOM     54  C   UNL A   1      50.580  26.534  25.991  1.00  0.00     0.041 A 
ATOM     55  F   UNL A   1      49.270  26.604  27.930  1.00  0.00    -0.206 F 
ATOM     56  C   UNL A   1      50.708  26.690  24.615  1.00  0.00     0.022 A 
BRANCH  53  57
ATOM     57  S   UNL A   1      49.702  27.222  22.069  1.00  0.00     0.124 S 
ATOM     58  O   UNL A   1      49.386  28.621  21.805  1.00  0.00    -0.237 OA
ATOM     59  O   UNL A   1      51.081  26.817  21.819  1.00  0.00    -0.237 OA
ATOM     60  O   UNL A   1      48.685  26.261  21.647  1.00  0.00    -0.744 OA
ENDBRANCH  53  57
ENDBRANCH  26  50
BRANCH  38  61
ATOM     61  C   UNL A   1      45.447  32.894  28.947  1.00  0.00     0.023 A 
ATOM     62  C   UNL A   1      45.317  33.928  28.003  1.00  0.00     0.031 A 
ATOM     63  C   UNL A   1      46.137  33.170  30.141  1.00  0.00     0.131 A 
ATOM     64  C   UNL A   1      45.923  35.170  28.239  1.00  0.00     0.055 A 
ATOM     65  C   UNL A   1      46.683  34.428  30.398  1.00  0.00     0.041 A 
ATOM     66  F   UNL A   1      46.293  32.218  31.075  1.00  0.00    -0.206 F 
ATOM     67  C   UNL A   1      46.591  35.432  29.439  1.00  0.00     0.022 A 
BRANCH  64  68
ATOM     68  S   UNL A   1      45.910  36.411  26.916  1.00  0.00     0.124 S 
ATOM     69  O   UNL A   1      46.948  37.337  27.358  1.00  0.00    -0.237 OA
ATOM     70  O   UNL A   1      46.228  35.612  25.736  1.00  0.00    -0.237 OA
ATOM     71  O   UNL A   1      44.548  36.941  26.956  1.00  0.00    -0.744 OA
ENDBRANCH  64  68
ENDBRANCH  38  61
ENDBRANCH  12  13
ENDBRANCH   5   7
ENDBRANCH   2   3
ENDBRANCH   1   2
BRANCH   1  72
ATOM     72  C   UNL A   1      36.540  19.347  25.071  1.00  0.00     0.023 C 
BRANCH  72  73
ATOM     73  C   UNL A   1      36.094  18.075  24.356  1.00  0.00     0.116 C 
BRANCH  73  74
ATOM     74  N   UNL A   1      35.066  17.353  25.085  1.00  0.00    -0.352 N 
ATOM     75  C   UNL A   1      33.722  17.597  25.181  1.00  0.00     0.253 C 
ATOM     76  H   UNL A   1      35.384  16.568  25.586  1.00  0.00     0.163 HD
ATOM     77  O   UNL A   1      33.032  16.940  25.955  1.00  0.00    -0.269 OA
BRANCH  75  78
ATOM     78  C   UNL A   1      33.076  18.646  24.366  1.00  0.00     0.063 A 
ATOM     79  C   UNL A   1      32.723  18.266  23.061  1.00  0.00     0.016 A 
ATOM     80  C   UNL A   1      32.889  19.969  24.816  1.00  0.00     0.054 A 
ATOM     81  C   UNL A   1      32.174  19.197  22.186  1.00  0.00     0.001 A 
ATOM     82  C   UNL A   1      32.397  20.900  23.894  1.00  0.00     0.027 A 
ATOM     83  C   UNL A   1      32.024  20.515  22.599  1.00  0.00     0.002 A 
BRANCH  80  84
ATOM     84  N   UNL A   1      33.233  20.305  26.147  1.00  0.00    -0.321 N 
ATOM     85  C   UNL A   1      33.605  21.475  26.767  1.00  0.00     0.255 C 
ATOM     86  H   UNL A   1      33.200  19.537  26.760  1.00  0.00     0.170 HD
ATOM     87  O   UNL A   1      33.920  21.467  27.955  1.00  0.00    -0.269 OA
BRANCH  85  88
ATOM     88  C   UNL A   1      33.606  22.767  26.065  1.00  0.00     0.040 A 
ATOM     89  C   UNL A   1      32.419  23.497  26.045  1.00  0.00     0.016 A 
ATOM     90  C   UNL A   1      34.750  23.271  25.447  1.00  0.00     0.016 A 
ATOM     91  C   UNL A   1      32.413  24.791  25.519  1.00  0.00     0.027 A 
ATOM     92  C   UNL A   1      34.731  24.565  24.910  1.00  0.00     0.027 A 
ATOM     93  C   UNL A   1      33.575  25.366  24.983  1.00  0.00     0.052 A 
BRANCH  93  94
ATOM     94  N   UNL A   1      33.612  26.738  24.601  1.00  0.00    -0.250 N 
ATOM     95  C   UNL A   1      33.533  27.178  23.300  1.00  0.00     0.238 C 
ATOM     96  C   UNL A   1      33.674  27.785  25.487  1.00  0.00     0.238 C 
ATOM     97  O   UNL A   1      33.495  26.517  22.269  1.00  0.00    -0.274 OA
ATOM     98  C   UNL A   1      33.457  28.687  23.281  1.00  0.00     0.096 C 
ATOM     99  C   UNL A   1      33.460  29.085  24.754  1.00  0.00     0.096 C 
ATOM    100  O   UNL A   1      33.897  27.749  26.692  1.00  0.00    -0.274 OA
ATOM    101  C   UNL A   1      32.235  29.138  22.474  1.00  0.00     0.041 C 
ATOM    102  C   UNL A   1      32.187  29.751  25.290  1.00  0.00     0.041 C 
ATOM    103  C   UNL A   1      30.963  29.051  23.260  1.00  0.00    -0.030 C 
ATOM    104  C   UNL A   1      30.943  29.329  24.569  1.00  0.00    -0.030 C 
ENDBRANCH  93  94
ENDBRANCH  85  88
ENDBRANCH  80  84
ENDBRANCH  75  78
ENDBRANCH  73  74
ENDBRANCH  72  73
ENDBRANCH   1  72
TORSDOF 17
ENDMDL
MODEL 3
REMARK VINA RESULT:     -12.6      0.579      7.406
REMARK SMILES O=C(NCCCCNC(=O)c1ccccc1NC(=O)c1ccc(N2C(=O)[C@H]3CC=CC[C@H]3C2=O)cc1)c1ccc(-c2c3nc(c(-c4cc(S(=O)(=O)[O-])ccc4F)c4ccc([nH]4)c(-c4cc(S(=O)(=O)[O-])ccc4F)c4nc(c(-c5cc(S(=O)(=O)[O-])ccc5F)c5ccc2[nH]5)C=C4)C=C3)cc1
REMARK SMILES IDX 5 1 4 2 3 3 1 4 2 5 37 7 38 8 99 9 39 10 98 11 40 12 41 13
REMARK SMILES IDX 42 14 92 15 43 16 97 17 91 18 93 19 44 20 96 21 90 22 89 23
REMARK SMILES IDX 45 25 77 26 57 27 76 28 58 29 61 30 75 31 94 32 59 33 60 34
REMARK SMILES IDX 74 36 95 37 62 38 46 39 47 40 55 41 48 42 54 43 56 44 53 45
REMARK SMILES IDX 49 46 50 47 51 48 52 49 78 50 79 51 87 52 80 53 86 54 88 55
REMARK SMILES IDX 85 56 81 57 82 58 83 59 84 60 63 61 64 62 72 63 65 64 71 65
REMARK SMILES IDX 73 66 70 67 66 68 67 69 68 70 69 71 6 72 7 73 8 74 9 75
REMARK SMILES IDX 10 77 11 78 12 79 16 80 13 81 15 82 14 83 17 84 18 85 19 87
REMARK SMILES IDX 20 88 21 89 36 90 22 91 35 92 23 93 24 94 25 95 33 96 26 97
REMARK SMILES IDX 27 98 32 99 34 100 28 101 31 102 29 103 30 104
REMARK H PARENT 3 6 93 24 61 35 8 76 17 86
REMARK Flexibility Score: inf
ROOT
ATOM      1  C   UNL A   1      31.421  32.126  27.017  1.00  0.00     0.023 C 
ENDROOT
BRANCH   1   2
ATOM      2  C   UNL A   1      32.712  32.918  27.185  1.00  0.00     0.116 C 
BRANCH   2   3
ATOM      3  N   UNL A   1      32.488  34.259  27.704  1.00  0.00    -0.352 N 
ATOM      4  O   UNL A   1      32.659  35.967  29.166  1.00  0.00    -0.269 OA
ATOM      5  C   UNL A   1      33.089  34.886  28.770  1.00  0.00     0.251 C 
ATOM      6  H   UNL A   1      31.813  34.791  27.225  1.00  0.00     0.163 HD
BRANCH   5   7
ATOM      7  C   UNL A   1      34.236  34.245  29.452  1.00  0.00     0.039 A 
ATOM      8  C   UNL A   1      35.544  34.498  29.029  1.00  0.00     0.014 A 
ATOM      9  C   UNL A   1      34.002  33.388  30.531  1.00  0.00     0.014 A 
ATOM     10  C   UNL A   1      36.601  33.791  29.591  1.00  0.00     0.010 A 
ATOM     11  C   UNL A   1      35.077  32.744  31.153  1.00  0.00     0.010 A 
ATOM     12  C   UNL A   1      36.384  32.923  30.673  1.00  0.00    -0.014 A 
BRANCH  12  13
ATOM     13  C   UNL A   1      37.553  32.293  31.343  1.00  0.00     0.031 A 
ATOM     14  C   UNL A   1      38.050  32.781  32.675  1.00  0.00     0.074 A 
ATOM     15  C   UNL A   1      38.149  31.248  30.732  1.00  0.00     0.049 A 
ATOM     16  N   UNL A   1      39.053  32.337  33.390  1.00  0.00    -0.248 NA
ATOM     17  C   UNL A   1      37.338  33.915  33.283  1.00  0.00     0.031 C 
ATOM     18  C   UNL A   1      37.752  30.699  29.432  1.00  0.00     0.029 A 
ATOM     19  N   UNL A   1      39.199  30.455  31.116  1.00  0.00    -0.354 N 
ATOM     20  C   UNL A   1      39.108  33.144  34.521  1.00  0.00     0.074 A 
ATOM     21  C   UNL A   1      38.045  34.120  34.387  1.00  0.00     0.031 C 
ATOM     22  C   UNL A   1      38.519  29.637  29.148  1.00  0.00     0.029 A 
ATOM     23  C   UNL A   1      39.512  29.475  30.202  1.00  0.00     0.049 A 
ATOM     24  H   UNL A   1      39.684  30.576  31.965  1.00  0.00     0.167 HD
ATOM     25  C   UNL A   1      39.965  33.072  35.570  1.00  0.00     0.034 A 
ATOM     26  C   UNL A   1      40.505  28.566  30.194  1.00  0.00     0.034 A 
ATOM     27  C   UNL A   1      41.011  32.082  35.688  1.00  0.00     0.049 A 
ATOM     28  C   UNL A   1      41.462  28.537  31.356  1.00  0.00     0.074 A 
ATOM     29  C   UNL A   1      41.896  31.886  36.735  1.00  0.00     0.029 A 
ATOM     30  N   UNL A   1      41.325  31.132  34.725  1.00  0.00    -0.354 N 
ATOM     31  N   UNL A   1      41.471  29.285  32.435  1.00  0.00    -0.248 NA
ATOM     32  C   UNL A   1      42.538  27.540  31.301  1.00  0.00     0.031 C 
ATOM     33  C   UNL A   1      42.787  30.870  36.376  1.00  0.00     0.029 A 
ATOM     34  C   UNL A   1      42.415  30.377  35.136  1.00  0.00     0.049 A 
ATOM     35  H   UNL A   1      40.845  31.012  33.874  1.00  0.00     0.167 HD
ATOM     36  C   UNL A   1      42.547  28.837  33.194  1.00  0.00     0.074 A 
ATOM     37  C   UNL A   1      43.140  27.736  32.464  1.00  0.00     0.031 C 
ATOM     38  C   UNL A   1      43.006  29.295  34.386  1.00  0.00     0.034 A 
BRANCH  25  39
ATOM     39  C   UNL A   1      39.846  34.112  36.657  1.00  0.00     0.023 A 
ATOM     40  C   UNL A   1      39.393  33.795  37.949  1.00  0.00     0.031 A 
ATOM     41  C   UNL A   1      40.228  35.442  36.400  1.00  0.00     0.131 A 
ATOM     42  C   UNL A   1      39.299  34.803  38.924  1.00  0.00     0.055 A 
ATOM     43  C   UNL A   1      40.191  36.425  37.390  1.00  0.00     0.041 A 
ATOM     44  F   UNL A   1      40.651  35.806  35.179  1.00  0.00    -0.206 F 
ATOM     45  C   UNL A   1      39.717  36.110  38.660  1.00  0.00     0.022 A 
BRANCH  42  46
ATOM     46  S   UNL A   1      38.538  34.404  40.522  1.00  0.00     0.124 S 
ATOM     47  O   UNL A   1      37.439  33.531  40.117  1.00  0.00    -0.237 OA
ATOM     48  O   UNL A   1      39.632  33.762  41.242  1.00  0.00    -0.237 OA
ATOM     49  O   UNL A   1      38.128  35.707  41.042  1.00  0.00    -0.744 OA
ENDBRANCH  42  46
ENDBRANCH  25  39
BRANCH  26  50
ATOM     50  C   UNL A   1      40.682  27.649  29.032  1.00  0.00     0.023 A 
ATOM     51  C   UNL A   1      41.605  27.934  28.014  1.00  0.00     0.031 A 
ATOM     52  C   UNL A   1      39.888  26.494  28.897  1.00  0.00     0.131 A 
ATOM     53  C   UNL A   1      41.673  27.108  26.881  1.00  0.00     0.055 A 
ATOM     54  C   UNL A   1      40.006  25.640  27.800  1.00  0.00     0.041 A 
ATOM     55  F   UNL A   1      38.988  26.174  29.841  1.00  0.00    -0.206 F 
ATOM     56  C   UNL A   1      40.891  25.955  26.775  1.00  0.00     0.022 A 
BRANCH  53  57
ATOM     57  S   UNL A   1      42.718  27.627  25.492  1.00  0.00     0.124 S 
ATOM     58  O   UNL A   1      42.634  26.468  24.610  1.00  0.00    -0.237 OA
ATOM     59  O   UNL A   1      42.035  28.832  25.036  1.00  0.00    -0.237 OA
ATOM     60  O   UNL A   1      44.022  27.846  26.113  1.00  0.00    -0.744 OA
ENDBRANCH  53  57
ENDBRANCH  26  50
BRANCH  38  61
ATOM     61  C   UNL A   1      44.194  28.575  34.973  1.00  0.00     0.023 A 
ATOM     62  C   UNL A   1      44.038  27.564  35.937  1.00  0.00     0.031 A 
ATOM     63  C   UNL A   1      45.499  28.929  34.588  1.00  0.00     0.131 A 
ATOM     64  C   UNL A   1      45.169  26.986  36.532  1.00  0.00     0.055 A 
ATOM     65  C   UNL A   1      46.620  28.305  35.138  1.00  0.00     0.041 A 
ATOM     66  F   UNL A   1      45.705  29.891  33.674  1.00  0.00    -0.206 F 
ATOM     67  C   UNL A   1      46.459  27.339  36.126  1.00  0.00     0.022 A 
BRANCH  64  68
ATOM     68  S   UNL A   1      44.932  25.835  37.914  1.00  0.00     0.124 S 
ATOM     69  O   UNL A   1      44.668  24.578  37.221  1.00  0.00    -0.237 OA
ATOM     70  O   UNL A   1      46.211  25.921  38.614  1.00  0.00    -0.237 OA
ATOM     71  O   UNL A   1      43.793  26.396  38.637  1.00  0.00    -0.744 OA
ENDBRANCH  64  68
ENDBRANCH  38  61
ENDBRANCH  12  13
ENDBRANCH   5   7
ENDBRANCH   2   3
ENDBRANCH   1   2
BRANCH   1  72
ATOM     72  C   UNL A   1      30.708  32.307  25.677  1.00  0.00     0.023 C 
BRANCH  72  73
ATOM     73  C   UNL A   1      30.363  31.017  24.939  1.00  0.00     0.116 C 
BRANCH  73  74
ATOM     74  N   UNL A   1      29.650  31.255  23.696  1.00  0.00    -0.352 N 
ATOM     75  C   UNL A   1      29.185  30.365  22.766  1.00  0.00     0.253 C 
ATOM     76  H   UNL A   1      29.474  32.202  23.492  1.00  0.00     0.163 HD
ATOM     77  O   UNL A   1      28.712  30.771  21.708  1.00  0.00    -0.269 OA
BRANCH  75  78
ATOM     78  C   UNL A   1      29.240  28.908  23.009  1.00  0.00     0.063 A 
ATOM     79  C   UNL A   1      28.035  28.318  23.424  1.00  0.00     0.016 A 
ATOM     80  C   UNL A   1      30.427  28.153  22.916  1.00  0.00     0.054 A 
ATOM     81  C   UNL A   1      27.993  26.966  23.748  1.00  0.00     0.001 A 
ATOM     82  C   UNL A   1      30.371  26.812  23.312  1.00  0.00     0.027 A 
ATOM     83  C   UNL A   1      29.164  26.219  23.705  1.00  0.00     0.002 A 
BRANCH  80  84
ATOM     84  N   UNL A   1      31.615  28.779  22.468  1.00  0.00    -0.321 N 
ATOM     85  C   UNL A   1      32.954  28.531  22.663  1.00  0.00     0.255 C 
ATOM     86  H   UNL A   1      31.447  29.561  21.895  1.00  0.00     0.170 HD
ATOM     87  O   UNL A   1      33.795  29.296  22.196  1.00  0.00    -0.269 OA
BRANCH  85  88
ATOM     88  C   UNL A   1      33.431  27.345  23.391  1.00  0.00     0.040 A 
ATOM     89  C   UNL A   1      33.581  27.447  24.772  1.00  0.00     0.016 A 
ATOM     90  C   UNL A   1      33.714  26.144  22.740  1.00  0.00     0.016 A 
ATOM     91  C   UNL A   1      33.888  26.308  25.520  1.00  0.00     0.027 A 
ATOM     92  C   UNL A   1      34.035  25.010  23.498  1.00  0.00     0.027 A 
ATOM     93  C   UNL A   1      34.078  25.061  24.904  1.00  0.00     0.052 A 
BRANCH  93  94
ATOM     94  N   UNL A   1      34.226  23.872  25.675  1.00  0.00    -0.250 N 
ATOM     95  C   UNL A   1      33.172  23.109  26.124  1.00  0.00     0.238 C 
ATOM     96  C   UNL A   1      35.435  23.316  26.013  1.00  0.00     0.238 C 
ATOM     97  O   UNL A   1      31.971  23.328  26.024  1.00  0.00    -0.274 OA
ATOM     98  C   UNL A   1      33.701  21.854  26.779  1.00  0.00     0.096 C 
ATOM     99  C   UNL A   1      35.215  21.954  26.620  1.00  0.00     0.096 C 
ATOM    100  O   UNL A   1      36.554  23.803  25.899  1.00  0.00    -0.274 OA
ATOM    101  C   UNL A   1      33.046  20.622  26.146  1.00  0.00     0.041 C 
ATOM    102  C   UNL A   1      35.884  20.900  25.727  1.00  0.00     0.041 C 
ATOM    103  C   UNL A   1      33.673  20.244  24.839  1.00  0.00    -0.030 C 
ATOM    104  C   UNL A   1      34.990  20.380  24.644  1.00  0.00    -0.030 C 
ENDBRANCH  93  94
ENDBRANCH  85  88
ENDBRANCH  80  84
ENDBRANCH  75  78
ENDBRANCH  73  74
ENDBRANCH  72  73
ENDBRANCH   1  72
TORSDOF 17
ENDMDL
