MODEL 1
REMARK VINA RESULT:     -11.7      0.000      0.000
REMARK SMILES CN(C(=O)N1CCC(C(=O)NCCCCNC(=O)c2ccc(-c3c4nc(c(-c5cc(S(=O)(=O)[O-])ccc5F)c5ccc([nH]5)c(-c5cc(S(=O)(=O)[O-])ccc5F)c5nc(c(-c6cc(S(=O)(=O)[O-])ccc6F)c6ccc3[nH]6)C=C5)C=C4)cc2)CC1)[C@H]1CCSC1
REMARK SMILES IDX 14 1 13 2 12 3 11 4 9 5 10 6 8 8 3 9 4 10 5 11 6 12 83 13
REMARK SMILES IDX 7 14 82 15 2 16 1 17 84 18 85 19 88 20 86 21 87 22 15 23
REMARK SMILES IDX 16 24 17 25 18 27 19 28 20 29 81 30 21 31 80 32 22 33 23 34
REMARK SMILES IDX 24 35 74 36 25 37 79 38 73 39 75 40 26 41 78 42 72 43 71 44
REMARK SMILES IDX 27 46 59 47 39 48 58 49 40 50 43 51 57 52 76 53 41 54 42 55
REMARK SMILES IDX 56 57 77 58 44 59 28 60 29 61 37 62 30 63 36 64 38 65 35 66
REMARK SMILES IDX 31 67 32 68 33 69 34 70 60 71 61 72 69 73 62 74 68 75 70 76
REMARK SMILES IDX 67 77 63 78 64 79 65 80 66 81 45 82 46 83 54 84 47 85 53 86
REMARK SMILES IDX 55 87 52 88 48 89 49 90 50 91 51 92
REMARK H PARENT 11 7 16 26 75 45 43 56
REMARK Flexibility Score: inf
ROOT
ATOM      1  C   UNL A   1      31.892  31.648  26.768  1.00  0.00     0.023 C 
ENDROOT
BRANCH   1   2
ATOM      2  C   UNL A   1      32.102  30.136  26.736  1.00  0.00     0.023 C 
BRANCH   2   3
ATOM      3  C   UNL A   1      31.804  29.483  25.391  1.00  0.00     0.116 C 
BRANCH   3   4
ATOM      4  N   UNL A   1      32.936  29.572  24.482  1.00  0.00    -0.356 N 
ATOM      5  C   UNL A   1      33.545  28.619  23.725  1.00  0.00     0.223 C 
ATOM      6  O   UNL A   1      34.509  28.954  23.033  1.00  0.00    -0.275 OA
ATOM      7  H   UNL A   1      33.326  30.471  24.401  1.00  0.00     0.163 HD
BRANCH   5   8
ATOM      8  C   UNL A   1      33.049  27.180  23.696  1.00  0.00     0.082 C 
ATOM      9  C   UNL A   1      34.555  23.309  23.462  1.00  0.00     0.320 C 
ATOM     10  O   UNL A   1      35.165  23.199  22.398  1.00  0.00    -0.248 OA
ATOM     11  N   UNL A   1      33.655  24.348  23.643  1.00  0.00    -0.325 N 
ATOM     12  C   UNL A   1      33.096  24.985  22.455  1.00  0.00     0.122 C 
ATOM     13  C   UNL A   1      33.227  24.934  24.911  1.00  0.00     0.122 C 
ATOM     14  C   UNL A   1      33.427  26.466  22.396  1.00  0.00     0.035 C 
ATOM     15  C   UNL A   1      33.441  26.440  24.979  1.00  0.00     0.035 C 
BRANCH   9  16
ATOM     16  N   UNL A   1      34.728  22.381  24.479  1.00  0.00    -0.324 N 
ATOM     17  C   UNL A   1      33.931  21.164  24.592  1.00  0.00     0.149 C 
BRANCH  16  18
ATOM     18  C   UNL A   1      35.985  22.345  25.254  1.00  0.00     0.097 C 
ATOM     19  C   UNL A   1      37.030  21.408  24.639  1.00  0.00     0.037 C 
ATOM     20  C   UNL A   1      36.717  23.668  25.519  1.00  0.00     0.094 C 
ATOM     21  C   UNL A   1      38.225  21.433  25.576  1.00  0.00     0.072 C 
ATOM     22  S   UNL A   1      38.355  23.149  26.149  1.00  0.00    -0.160 SA
ENDBRANCH  16  18
ENDBRANCH   9  16
ENDBRANCH   5   8
ENDBRANCH   3   4
ENDBRANCH   2   3
ENDBRANCH   1   2
BRANCH   1  23
ATOM     23  C   UNL A   1      33.034  32.449  27.384  1.00  0.00     0.116 C 
BRANCH  23  24
ATOM     24  N   UNL A   1      32.674  33.829  27.675  1.00  0.00    -0.352 N 
ATOM     25  C   UNL A   1      33.201  34.673  28.622  1.00  0.00     0.251 C 
ATOM     26  H   UNL A   1      31.957  34.208  27.117  1.00  0.00     0.163 HD
ATOM     27  O   UNL A   1      32.693  35.774  28.814  1.00  0.00    -0.269 OA
BRANCH  25  28
ATOM     28  C   UNL A   1      34.352  34.226  29.433  1.00  0.00     0.039 A 
ATOM     29  C   UNL A   1      34.117  33.467  30.581  1.00  0.00     0.014 A 
ATOM     30  C   UNL A   1      35.660  34.516  29.034  1.00  0.00     0.014 A 
ATOM     31  C   UNL A   1      35.197  32.936  31.290  1.00  0.00     0.010 A 
ATOM     32  C   UNL A   1      36.731  33.925  29.698  1.00  0.00     0.010 A 
ATOM     33  C   UNL A   1      36.510  33.125  30.830  1.00  0.00    -0.014 A 
BRANCH  33  34
ATOM     34  C   UNL A   1      37.669  32.502  31.523  1.00  0.00     0.031 A 
ATOM     35  C   UNL A   1      38.398  31.355  30.879  1.00  0.00     0.074 A 
ATOM     36  C   UNL A   1      38.024  32.929  32.751  1.00  0.00     0.049 A 
ATOM     37  N   UNL A   1      39.364  30.613  31.357  1.00  0.00    -0.248 NA
ATOM     38  C   UNL A   1      37.960  30.975  29.527  1.00  0.00     0.031 C 
ATOM     39  C   UNL A   1      37.373  34.013  33.492  1.00  0.00     0.029 A 
ATOM     40  N   UNL A   1      39.013  32.500  33.600  1.00  0.00    -0.354 N 
ATOM     41  C   UNL A   1      39.649  29.679  30.368  1.00  0.00     0.074 A 
ATOM     42  C   UNL A   1      38.704  29.904  29.294  1.00  0.00     0.031 C 
ATOM     43  C   UNL A   1      37.994  34.175  34.672  1.00  0.00     0.029 A 
ATOM     44  C   UNL A   1      39.054  33.180  34.796  1.00  0.00     0.049 A 
ATOM     45  H   UNL A   1      39.638  31.772  33.374  1.00  0.00     0.167 HD
ATOM     46  C   UNL A   1      40.628  28.742  30.342  1.00  0.00     0.034 A 
ATOM     47  C   UNL A   1      39.846  33.010  35.874  1.00  0.00     0.034 A 
ATOM     48  C   UNL A   1      41.567  28.531  31.417  1.00  0.00     0.049 A 
ATOM     49  C   UNL A   1      40.900  31.930  35.838  1.00  0.00     0.074 A 
ATOM     50  C   UNL A   1      42.605  27.620  31.491  1.00  0.00     0.029 A 
ATOM     51  N   UNL A   1      41.581  29.244  32.609  1.00  0.00    -0.354 N 
ATOM     52  N   UNL A   1      41.175  31.074  34.880  1.00  0.00    -0.248 NA
ATOM     53  C   UNL A   1      41.759  31.803  37.022  1.00  0.00     0.031 C 
ATOM     54  C   UNL A   1      43.213  27.744  32.745  1.00  0.00     0.029 A 
ATOM     55  C   UNL A   1      42.599  28.782  33.428  1.00  0.00     0.049 A 
ATOM     56  H   UNL A   1      40.959  29.972  32.839  1.00  0.00     0.167 HD
ATOM     57  C   UNL A   1      42.264  30.334  35.336  1.00  0.00     0.074 A 
ATOM     58  C   UNL A   1      42.603  30.855  36.643  1.00  0.00     0.031 C 
ATOM     59  C   UNL A   1      42.926  29.316  34.729  1.00  0.00     0.034 A 
BRANCH  46  60
ATOM     60  C   UNL A   1      40.719  27.872  29.112  1.00  0.00     0.023 A 
ATOM     61  C   UNL A   1      41.622  28.164  28.074  1.00  0.00     0.031 A 
ATOM     62  C   UNL A   1      39.882  26.753  28.959  1.00  0.00     0.131 A 
ATOM     63  C   UNL A   1      41.616  27.395  26.902  1.00  0.00     0.055 A 
ATOM     64  C   UNL A   1      39.939  25.942  27.823  1.00  0.00     0.041 A 
ATOM     65  F   UNL A   1      38.984  26.436  29.905  1.00  0.00    -0.206 F 
ATOM     66  C   UNL A   1      40.799  26.270  26.779  1.00  0.00     0.022 A 
BRANCH  63  67
ATOM     67  S   UNL A   1      42.595  27.969  25.486  1.00  0.00     0.124 S 
ATOM     68  O   UNL A   1      42.582  26.790  24.623  1.00  0.00    -0.237 OA
ATOM     69  O   UNL A   1      41.825  29.115  25.014  1.00  0.00    -0.237 OA
ATOM     70  O   UNL A   1      43.892  28.290  26.075  1.00  0.00    -0.744 OA
ENDBRANCH  63  67
ENDBRANCH  46  60
BRANCH  47  71
ATOM     71  C   UNL A   1      39.678  33.861  37.088  1.00  0.00     0.023 A 
ATOM     72  C   UNL A   1      40.546  34.936  37.341  1.00  0.00     0.031 A 
ATOM     73  C   UNL A   1      38.698  33.567  38.052  1.00  0.00     0.131 A 
ATOM     74  C   UNL A   1      40.461  35.634  38.556  1.00  0.00     0.055 A 
ATOM     75  C   UNL A   1      38.577  34.305  39.231  1.00  0.00     0.041 A 
ATOM     76  F   UNL A   1      37.838  32.553  37.861  1.00  0.00    -0.206 F 
ATOM     77  C   UNL A   1      39.475  35.334  39.497  1.00  0.00     0.022 A 
BRANCH  74  78
ATOM     78  S   UNL A   1      41.742  36.861  38.941  1.00  0.00     0.124 S 
ATOM     79  O   UNL A   1      42.606  36.113  39.847  1.00  0.00    -0.237 OA
ATOM     80  O   UNL A   1      42.290  37.147  37.620  1.00  0.00    -0.237 OA
ATOM     81  O   UNL A   1      40.991  37.954  39.554  1.00  0.00    -0.744 OA
ENDBRANCH  74  78
ENDBRANCH  47  71
BRANCH  59  82
ATOM     82  C   UNL A   1      44.120  28.748  35.454  1.00  0.00     0.023 A 
ATOM     83  C   UNL A   1      44.000  27.681  36.359  1.00  0.00     0.031 A 
ATOM     84  C   UNL A   1      45.398  29.298  35.244  1.00  0.00     0.131 A 
ATOM     85  C   UNL A   1      45.127  27.233  37.065  1.00  0.00     0.055 A 
ATOM     86  C   UNL A   1      46.526  28.809  35.905  1.00  0.00     0.041 A 
ATOM     87  F   UNL A   1      45.570  30.320  34.390  1.00  0.00    -0.206 F 
ATOM     88  C   UNL A   1      46.391  27.779  36.832  1.00  0.00     0.022 A 
BRANCH  85  89
ATOM     89  S   UNL A   1      44.903  25.982  38.359  1.00  0.00     0.124 S 
ATOM     90  O   UNL A   1      44.144  26.718  39.366  1.00  0.00    -0.237 OA
ATOM     91  O   UNL A   1      44.176  24.931  37.656  1.00  0.00    -0.237 OA
ATOM     92  O   UNL A   1      46.271  25.637  38.744  1.00  0.00    -0.744 OA
ENDBRANCH  85  89
ENDBRANCH  59  82
ENDBRANCH  33  34
ENDBRANCH  25  28
ENDBRANCH  23  24
ENDBRANCH   1  23
TORSDOF 16
ENDMDL
MODEL 2
REMARK VINA RESULT:     -11.6      1.567      1.878
REMARK SMILES CN(C(=O)N1CCC(C(=O)NCCCCNC(=O)c2ccc(-c3c4nc(c(-c5cc(S(=O)(=O)[O-])ccc5F)c5ccc([nH]5)c(-c5cc(S(=O)(=O)[O-])ccc5F)c5nc(c(-c6cc(S(=O)(=O)[O-])ccc6F)c6ccc3[nH]6)C=C5)C=C4)cc2)CC1)[C@H]1CCSC1
REMARK SMILES IDX 14 1 13 2 12 3 11 4 9 5 10 6 8 8 3 9 4 10 5 11 6 12 83 13
REMARK SMILES IDX 7 14 82 15 2 16 1 17 84 18 85 19 88 20 86 21 87 22 15 23
REMARK SMILES IDX 16 24 17 25 18 27 19 28 20 29 81 30 21 31 80 32 22 33 23 34
REMARK SMILES IDX 24 35 74 36 25 37 79 38 73 39 75 40 26 41 78 42 72 43 71 44
REMARK SMILES IDX 27 46 59 47 39 48 58 49 40 50 43 51 57 52 76 53 41 54 42 55
REMARK SMILES IDX 56 57 77 58 44 59 28 60 29 61 37 62 30 63 36 64 38 65 35 66
REMARK SMILES IDX 31 67 32 68 33 69 34 70 60 71 61 72 69 73 62 74 68 75 70 76
REMARK SMILES IDX 67 77 63 78 64 79 65 80 66 81 45 82 46 83 54 84 47 85 53 86
REMARK SMILES IDX 55 87 52 88 48 89 49 90 50 91 51 92
REMARK H PARENT 11 7 16 26 75 45 43 56
REMARK Flexibility Score: inf
ROOT
ATOM      1  C   UNL A   1      31.314  31.992  26.618  1.00  0.00     0.023 C 
ENDROOT
BRANCH   1   2
ATOM      2  C   UNL A   1      31.425  30.735  25.757  1.00  0.00     0.023 C 
BRANCH   2   3
ATOM      3  C   UNL A   1      32.768  30.021  25.847  1.00  0.00     0.116 C 
BRANCH   3   4
ATOM      4  N   UNL A   1      33.296  29.688  24.534  1.00  0.00    -0.356 N 
ATOM      5  C   UNL A   1      33.340  28.502  23.868  1.00  0.00     0.223 C 
ATOM      6  O   UNL A   1      33.858  28.481  22.749  1.00  0.00    -0.275 OA
ATOM      7  H   UNL A   1      33.685  30.447  24.044  1.00  0.00     0.163 HD
BRANCH   5   8
ATOM      8  C   UNL A   1      32.749  27.229  24.458  1.00  0.00     0.082 C 
ATOM      9  C   UNL A   1      33.161  23.100  24.154  1.00  0.00     0.320 C 
ATOM     10  O   UNL A   1      32.900  22.773  22.995  1.00  0.00    -0.248 OA
ATOM     11  N   UNL A   1      32.761  24.337  24.634  1.00  0.00    -0.325 N 
ATOM     12  C   UNL A   1      31.658  25.011  23.955  1.00  0.00     0.122 C 
ATOM     13  C   UNL A   1      33.357  25.093  25.733  1.00  0.00     0.122 C 
ATOM     14  C   UNL A   1      32.076  26.359  23.394  1.00  0.00     0.035 C 
ATOM     15  C   UNL A   1      33.776  26.503  25.334  1.00  0.00     0.035 C 
BRANCH   9  16
ATOM     16  N   UNL A   1      33.824  22.228  25.006  1.00  0.00    -0.324 N 
ATOM     17  C   UNL A   1      33.132  21.255  25.845  1.00  0.00     0.149 C 
BRANCH  16  18
ATOM     18  C   UNL A   1      35.258  21.935  24.809  1.00  0.00     0.097 C 
ATOM     19  C   UNL A   1      36.160  22.765  25.728  1.00  0.00     0.037 C 
ATOM     20  C   UNL A   1      35.734  20.484  24.958  1.00  0.00     0.094 C 
ATOM     21  C   UNL A   1      37.588  22.401  25.362  1.00  0.00     0.072 C 
ATOM     22  S   UNL A   1      37.558  20.621  25.013  1.00  0.00    -0.160 SA
ENDBRANCH  16  18
ENDBRANCH   9  16
ENDBRANCH   5   8
ENDBRANCH   3   4
ENDBRANCH   2   3
ENDBRANCH   1   2
BRANCH   1  23
ATOM     23  C   UNL A   1      32.640  32.558  27.113  1.00  0.00     0.116 C 
BRANCH  23  24
ATOM     24  N   UNL A   1      32.523  33.907  27.646  1.00  0.00    -0.352 N 
ATOM     25  C   UNL A   1      33.278  34.515  28.620  1.00  0.00     0.251 C 
ATOM     26  H   UNL A   1      31.807  34.458  27.256  1.00  0.00     0.163 HD
ATOM     27  O   UNL A   1      32.964  35.625  29.037  1.00  0.00    -0.269 OA
BRANCH  25  28
ATOM     28  C   UNL A   1      34.442  33.802  29.186  1.00  0.00     0.039 A 
ATOM     29  C   UNL A   1      35.728  34.237  28.857  1.00  0.00     0.014 A 
ATOM     30  C   UNL A   1      34.263  32.737  30.073  1.00  0.00     0.014 A 
ATOM     31  C   UNL A   1      36.833  33.651  29.476  1.00  0.00     0.010 A 
ATOM     32  C   UNL A   1      35.360  32.205  30.744  1.00  0.00     0.010 A 
ATOM     33  C   UNL A   1      36.657  32.661  30.456  1.00  0.00    -0.014 A 
BRANCH  33  34
ATOM     34  C   UNL A   1      37.815  32.080  31.185  1.00  0.00     0.031 A 
ATOM     35  C   UNL A   1      38.596  30.950  30.570  1.00  0.00     0.074 A 
ATOM     36  C   UNL A   1      38.124  32.528  32.418  1.00  0.00     0.049 A 
ATOM     37  N   UNL A   1      39.571  30.243  31.081  1.00  0.00    -0.248 NA
ATOM     38  C   UNL A   1      38.206  30.546  29.211  1.00  0.00     0.031 C 
ATOM     39  C   UNL A   1      37.420  33.597  33.132  1.00  0.00     0.029 A 
ATOM     40  N   UNL A   1      39.103  32.136  33.296  1.00  0.00    -0.354 N 
ATOM     41  C   UNL A   1      39.912  29.310  30.107  1.00  0.00     0.074 A 
ATOM     42  C   UNL A   1      38.989  29.497  29.007  1.00  0.00     0.031 C 
ATOM     43  C   UNL A   1      38.004  33.787  34.326  1.00  0.00     0.029 A 
ATOM     44  C   UNL A   1      39.091  32.826  34.487  1.00  0.00     0.049 A 
ATOM     45  H   UNL A   1      39.755  31.426  33.093  1.00  0.00     0.167 HD
ATOM     46  C   UNL A   1      40.919  28.404  30.116  1.00  0.00     0.034 A 
ATOM     47  C   UNL A   1      39.858  32.690  35.587  1.00  0.00     0.034 A 
ATOM     48  C   UNL A   1      41.834  28.230  31.217  1.00  0.00     0.049 A 
ATOM     49  C   UNL A   1      40.946  31.643  35.588  1.00  0.00     0.074 A 
ATOM     50  C   UNL A   1      42.898  27.353  31.327  1.00  0.00     0.029 A 
ATOM     51  N   UNL A   1      41.795  28.953  32.403  1.00  0.00    -0.354 N 
ATOM     52  N   UNL A   1      41.272  30.788  34.646  1.00  0.00    -0.248 NA
ATOM     53  C   UNL A   1      41.776  31.551  36.796  1.00  0.00     0.031 C 
ATOM     54  C   UNL A   1      43.468  27.506  32.596  1.00  0.00     0.029 A 
ATOM     55  C   UNL A   1      42.804  28.529  33.253  1.00  0.00     0.049 A 
ATOM     56  H   UNL A   1      41.145  29.663  32.609  1.00  0.00     0.167 HD
ATOM     57  C   UNL A   1      42.370  30.085  35.137  1.00  0.00     0.074 A 
ATOM     58  C   UNL A   1      42.659  30.627  36.448  1.00  0.00     0.031 C 
ATOM     59  C   UNL A   1      43.079  29.084  34.557  1.00  0.00     0.034 A 
BRANCH  46  60
ATOM     60  C   UNL A   1      41.069  27.527  28.896  1.00  0.00     0.023 A 
ATOM     61  C   UNL A   1      42.067  27.773  27.937  1.00  0.00     0.031 A 
ATOM     62  C   UNL A   1      40.196  26.448  28.674  1.00  0.00     0.131 A 
ATOM     63  C   UNL A   1      42.122  27.002  26.767  1.00  0.00     0.055 A 
ATOM     64  C   UNL A   1      40.308  25.632  27.546  1.00  0.00     0.041 A 
ATOM     65  F   UNL A   1      39.210  26.176  29.543  1.00  0.00    -0.206 F 
ATOM     66  C   UNL A   1      41.266  25.916  26.576  1.00  0.00     0.022 A 
BRANCH  63  67
ATOM     67  S   UNL A   1      43.239  27.526  25.437  1.00  0.00     0.124 S 
ATOM     68  O   UNL A   1      43.722  26.241  24.936  1.00  0.00    -0.237 OA
ATOM     69  O   UNL A   1      42.348  28.264  24.548  1.00  0.00    -0.237 OA
ATOM     70  O   UNL A   1      44.239  28.334  26.130  1.00  0.00    -0.744 OA
ENDBRANCH  63  67
ENDBRANCH  46  60
BRANCH  47  71
ATOM     71  C   UNL A   1      39.632  33.545  36.788  1.00  0.00     0.023 A 
ATOM     72  C   UNL A   1      39.014  33.026  37.938  1.00  0.00     0.031 A 
ATOM     73  C   UNL A   1      39.959  34.912  36.779  1.00  0.00     0.131 A 
ATOM     74  C   UNL A   1      38.682  33.880  39.001  1.00  0.00     0.055 A 
ATOM     75  C   UNL A   1      39.683  35.745  37.866  1.00  0.00     0.041 A 
ATOM     76  F   UNL A   1      40.554  35.462  35.709  1.00  0.00    -0.206 F 
ATOM     77  C   UNL A   1      39.023  35.233  38.978  1.00  0.00     0.022 A 
BRANCH  74  78
ATOM     78  S   UNL A   1      37.684  33.217  40.365  1.00  0.00     0.124 S 
ATOM     79  O   UNL A   1      36.441  32.874  39.682  1.00  0.00    -0.237 OA
ATOM     80  O   UNL A   1      38.500  32.095  40.816  1.00  0.00    -0.237 OA
ATOM     81  O   UNL A   1      37.596  34.338  41.297  1.00  0.00    -0.744 OA
ENDBRANCH  74  78
ENDBRANCH  47  71
BRANCH  59  82
ATOM     82  C   UNL A   1      44.271  28.559  35.319  1.00  0.00     0.023 A 
ATOM     83  C   UNL A   1      44.158  27.501  36.236  1.00  0.00     0.031 A 
ATOM     84  C   UNL A   1      45.538  29.141  35.132  1.00  0.00     0.131 A 
ATOM     85  C   UNL A   1      45.279  27.093  36.975  1.00  0.00     0.055 A 
ATOM     86  C   UNL A   1      46.662  28.693  35.826  1.00  0.00     0.041 A 
ATOM     87  F   UNL A   1      45.703  30.155  34.268  1.00  0.00    -0.206 F 
ATOM     88  C   UNL A   1      46.533  27.672  36.764  1.00  0.00     0.022 A 
BRANCH  85  89
ATOM     89  S   UNL A   1      45.058  25.854  38.280  1.00  0.00     0.124 S 
ATOM     90  O   UNL A   1      46.437  25.532  38.632  1.00  0.00    -0.237 OA
ATOM     91  O   UNL A   1      44.300  26.592  39.286  1.00  0.00    -0.237 OA
ATOM     92  O   UNL A   1      44.321  24.781  37.614  1.00  0.00    -0.744 OA
ENDBRANCH  85  89
ENDBRANCH  59  82
ENDBRANCH  33  34
ENDBRANCH  25  28
ENDBRANCH  23  24
ENDBRANCH   1  23
TORSDOF 16
ENDMDL
MODEL 3
REMARK VINA RESULT:     -11.5      5.923     10.959
REMARK SMILES CN(C(=O)N1CCC(C(=O)NCCCCNC(=O)c2ccc(-c3c4nc(c(-c5cc(S(=O)(=O)[O-])ccc5F)c5ccc([nH]5)c(-c5cc(S(=O)(=O)[O-])ccc5F)c5nc(c(-c6cc(S(=O)(=O)[O-])ccc6F)c6ccc3[nH]6)C=C5)C=C4)cc2)CC1)[C@H]1CCSC1
REMARK SMILES IDX 14 1 13 2 12 3 11 4 9 5 10 6 8 8 3 9 4 10 5 11 6 12 83 13
REMARK SMILES IDX 7 14 82 15 2 16 1 17 84 18 85 19 88 20 86 21 87 22 15 23
REMARK SMILES IDX 16 24 17 25 18 27 19 28 20 29 81 30 21 31 80 32 22 33 23 34
REMARK SMILES IDX 24 35 74 36 25 37 79 38 73 39 75 40 26 41 78 42 72 43 71 44
REMARK SMILES IDX 27 46 59 47 39 48 58 49 40 50 43 51 57 52 76 53 41 54 42 55
REMARK SMILES IDX 56 57 77 58 44 59 28 60 29 61 37 62 30 63 36 64 38 65 35 66
REMARK SMILES IDX 31 67 32 68 33 69 34 70 60 71 61 72 69 73 62 74 68 75 70 76
REMARK SMILES IDX 67 77 63 78 64 79 65 80 66 81 45 82 46 83 54 84 47 85 53 86
REMARK SMILES IDX 55 87 52 88 48 89 49 90 50 91 51 92
REMARK H PARENT 11 7 16 26 75 45 43 56
REMARK Flexibility Score: inf
ROOT
ATOM      1  C   UNL A   1      35.655  21.401  24.680  1.00  0.00     0.023 C 
ENDROOT
BRANCH   1   2
ATOM      2  C   UNL A   1      34.561  20.837  25.584  1.00  0.00     0.023 C 
BRANCH   2   3
ATOM      3  C   UNL A   1      34.414  21.550  26.923  1.00  0.00     0.116 C 
BRANCH   3   4
ATOM      4  N   UNL A   1      33.039  21.945  27.180  1.00  0.00    -0.356 N 
ATOM      5  C   UNL A   1      32.334  23.035  26.770  1.00  0.00     0.223 C 
ATOM      6  O   UNL A   1      31.163  23.144  27.139  1.00  0.00    -0.275 OA
ATOM      7  H   UNL A   1      32.532  21.318  27.745  1.00  0.00     0.163 HD
BRANCH   5   8
ATOM      8  C   UNL A   1      32.948  24.088  25.858  1.00  0.00     0.082 C 
ATOM      9  C   UNL A   1      31.861  26.580  22.708  1.00  0.00     0.320 C 
ATOM     10  O   UNL A   1      31.495  25.873  21.769  1.00  0.00    -0.248 OA
ATOM     11  N   UNL A   1      32.612  26.034  23.738  1.00  0.00    -0.325 N 
ATOM     12  C   UNL A   1      33.346  24.800  23.471  1.00  0.00     0.122 C 
ATOM     13  C   UNL A   1      32.719  26.526  25.109  1.00  0.00     0.122 C 
ATOM     14  C   UNL A   1      32.908  23.670  24.386  1.00  0.00     0.035 C 
ATOM     15  C   UNL A   1      32.366  25.475  26.154  1.00  0.00     0.035 C 
BRANCH   9  16
ATOM     16  N   UNL A   1      31.564  27.935  22.735  1.00  0.00    -0.324 N 
ATOM     17  C   UNL A   1      32.587  28.976  22.725  1.00  0.00     0.149 C 
BRANCH  16  18
ATOM     18  C   UNL A   1      30.221  28.414  22.351  1.00  0.00     0.097 C 
ATOM     19  C   UNL A   1      29.174  28.169  23.442  1.00  0.00     0.037 C 
ATOM     20  C   UNL A   1      30.059  29.884  21.941  1.00  0.00     0.094 C 
ATOM     21  C   UNL A   1      27.850  28.651  22.876  1.00  0.00     0.072 C 
ATOM     22  S   UNL A   1      28.247  30.140  21.919  1.00  0.00    -0.160 SA
ENDBRANCH  16  18
ENDBRANCH   9  16
ENDBRANCH   5   8
ENDBRANCH   3   4
ENDBRANCH   2   3
ENDBRANCH   1   2
BRANCH   1  23
ATOM     23  C   UNL A   1      36.926  21.843  25.398  1.00  0.00     0.116 C 
BRANCH  23  24
ATOM     24  N   UNL A   1      37.880  20.761  25.588  1.00  0.00    -0.352 N 
ATOM     25  C   UNL A   1      39.167  20.824  26.067  1.00  0.00     0.251 C 
ATOM     26  H   UNL A   1      37.561  19.863  25.341  1.00  0.00     0.163 HD
ATOM     27  O   UNL A   1      39.878  19.825  26.048  1.00  0.00    -0.269 OA
BRANCH  25  28
ATOM     28  C   UNL A   1      39.694  22.112  26.562  1.00  0.00     0.039 A 
ATOM     29  C   UNL A   1      40.745  22.105  27.481  1.00  0.00     0.014 A 
ATOM     30  C   UNL A   1      39.182  23.322  26.085  1.00  0.00     0.014 A 
ATOM     31  C   UNL A   1      41.333  23.311  27.866  1.00  0.00     0.010 A 
ATOM     32  C   UNL A   1      39.816  24.517  26.412  1.00  0.00     0.010 A 
ATOM     33  C   UNL A   1      40.902  24.524  27.303  1.00  0.00    -0.014 A 
BRANCH  33  34
ATOM     34  C   UNL A   1      41.565  25.811  27.638  1.00  0.00     0.031 A 
ATOM     35  C   UNL A   1      40.811  26.865  28.402  1.00  0.00     0.074 A 
ATOM     36  C   UNL A   1      42.819  26.052  27.205  1.00  0.00     0.049 A 
ATOM     37  N   UNL A   1      41.171  28.085  28.707  1.00  0.00    -0.248 NA
ATOM     38  C   UNL A   1      39.460  26.504  28.859  1.00  0.00     0.031 C 
ATOM     39  C   UNL A   1      43.640  25.120  26.428  1.00  0.00     0.029 A 
ATOM     40  N   UNL A   1      43.621  27.156  27.347  1.00  0.00    -0.354 N 
ATOM     41  C   UNL A   1      40.094  28.639  29.389  1.00  0.00     0.074 A 
ATOM     42  C   UNL A   1      39.041  27.644  29.388  1.00  0.00     0.031 C 
ATOM     43  C   UNL A   1      44.834  25.684  26.183  1.00  0.00     0.029 A 
ATOM     44  C   UNL A   1      44.849  27.034  26.739  1.00  0.00     0.049 A 
ATOM     45  H   UNL A   1      43.343  27.964  27.839  1.00  0.00     0.167 HD
ATOM     46  C   UNL A   1      40.000  29.851  29.988  1.00  0.00     0.034 A 
ATOM     47  C   UNL A   1      45.865  27.913  26.630  1.00  0.00     0.034 A 
ATOM     48  C   UNL A   1      41.058  30.832  29.986  1.00  0.00     0.049 A 
ATOM     49  C   UNL A   1      45.720  29.273  27.269  1.00  0.00     0.074 A 
ATOM     50  C   UNL A   1      41.076  32.085  30.572  1.00  0.00     0.029 A 
ATOM     51  N   UNL A   1      42.290  30.668  29.365  1.00  0.00    -0.354 N 
ATOM     52  N   UNL A   1      44.702  29.769  27.936  1.00  0.00    -0.248 NA
ATOM     53  C   UNL A   1      46.864  30.187  27.151  1.00  0.00     0.031 C 
ATOM     54  C   UNL A   1      42.294  32.699  30.262  1.00  0.00     0.029 A 
ATOM     55  C   UNL A   1      43.066  31.802  29.542  1.00  0.00     0.049 A 
ATOM     56  H   UNL A   1      42.571  29.863  28.873  1.00  0.00     0.167 HD
ATOM     57  C   UNL A   1      45.104  31.038  28.348  1.00  0.00     0.074 A 
ATOM     58  C   UNL A   1      46.457  31.223  27.869  1.00  0.00     0.031 C 
ATOM     59  C   UNL A   1      44.417  31.968  29.060  1.00  0.00     0.034 A 
BRANCH  46  60
ATOM     60  C   UNL A   1      38.702  30.179  30.685  1.00  0.00     0.023 A 
ATOM     61  C   UNL A   1      37.667  30.860  30.020  1.00  0.00     0.031 A 
ATOM     62  C   UNL A   1      38.500  29.830  32.031  1.00  0.00     0.131 A 
ATOM     63  C   UNL A   1      36.512  31.237  30.720  1.00  0.00     0.055 A 
ATOM     64  C   UNL A   1      37.312  30.135  32.700  1.00  0.00     0.041 A 
ATOM     65  F   UNL A   1      39.459  29.197  32.726  1.00  0.00    -0.206 F 
ATOM     66  C   UNL A   1      36.315  30.856  32.049  1.00  0.00     0.022 A 
BRANCH  63  67
ATOM     67  S   UNL A   1      35.331  32.348  29.907  1.00  0.00     0.124 S 
ATOM     68  O   UNL A   1      34.389  32.618  30.990  1.00  0.00    -0.237 OA
ATOM     69  O   UNL A   1      36.177  33.466  29.502  1.00  0.00    -0.237 OA
ATOM     70  O   UNL A   1      34.799  31.540  28.812  1.00  0.00    -0.744 OA
ENDBRANCH  63  67
ENDBRANCH  46  60
BRANCH  47  71
ATOM     71  C   UNL A   1      47.106  27.559  25.882  1.00  0.00     0.023 A 
ATOM     72  C   UNL A   1      47.252  27.895  24.526  1.00  0.00     0.031 A 
ATOM     73  C   UNL A   1      48.133  26.813  26.488  1.00  0.00     0.131 A 
ATOM     74  C   UNL A   1      48.362  27.430  23.804  1.00  0.00     0.055 A 
ATOM     75  C   UNL A   1      49.266  26.407  25.781  1.00  0.00     0.041 A 
ATOM     76  F   UNL A   1      48.049  26.467  27.782  1.00  0.00    -0.206 F 
ATOM     77  C   UNL A   1      49.376  26.698  24.425  1.00  0.00     0.022 A 
BRANCH  74  78
ATOM     78  S   UNL A   1      48.399  27.690  22.008  1.00  0.00     0.124 S 
ATOM     79  O   UNL A   1      47.084  28.273  21.767  1.00  0.00    -0.237 OA
ATOM     80  O   UNL A   1      49.538  28.590  21.858  1.00  0.00    -0.237 OA
ATOM     81  O   UNL A   1      48.594  26.344  21.474  1.00  0.00    -0.744 OA
ENDBRANCH  74  78
ENDBRANCH  47  71
BRANCH  59  82
ATOM     82  C   UNL A   1      45.150  33.239  29.411  1.00  0.00     0.023 A 
ATOM     83  C   UNL A   1      45.117  34.369  28.577  1.00  0.00     0.031 A 
ATOM     84  C   UNL A   1      45.905  33.311  30.595  1.00  0.00     0.131 A 
ATOM     85  C   UNL A   1      45.872  35.504  28.909  1.00  0.00     0.055 A 
ATOM     86  C   UNL A   1      46.607  34.464  30.950  1.00  0.00     0.041 A 
ATOM     87  F   UNL A   1      45.972  32.260  31.429  1.00  0.00    -0.206 F 
ATOM     88  C   UNL A   1      46.604  35.564  30.097  1.00  0.00     0.022 A 
BRANCH  85  89
ATOM     89  S   UNL A   1      45.956  36.872  27.720  1.00  0.00     0.124 S 
ATOM     90  O   UNL A   1      44.583  37.366  27.727  1.00  0.00    -0.237 OA
ATOM     91  O   UNL A   1      46.953  37.750  28.324  1.00  0.00    -0.237 OA
ATOM     92  O   UNL A   1      46.375  36.222  26.479  1.00  0.00    -0.744 OA
ENDBRANCH  85  89
ENDBRANCH  59  82
ENDBRANCH  33  34
ENDBRANCH  25  28
ENDBRANCH  23  24
ENDBRANCH   1  23
TORSDOF 16
ENDMDL
