MODEL 1
REMARK VINA RESULT:     -12.8      0.000      0.000
REMARK SMILES Cc1cc(OC(F)(F)F)cc2c1O[C@H](C(F)(F)F)C(C(=O)NCCCCNC(=O)c1ccc(-c3c4nc(c(-c5cc(S(=O)(=O)[O-])ccc5F)c5ccc([nH]5)c(-c5cc(S(=O)(=O)[O-])ccc5F)c5nc(c(-c6cc(S(=O)(=O)[O-])ccc6F)c6ccc3[nH]6)C=C5)C=C4)cc1)=C2
REMARK SMILES IDX 25 1 24 2 23 3 22 4 20 5 21 6 19 8 1 9 2 10 3 11 12 12 4 13
REMARK SMILES IDX 11 14 13 15 10 16 93 17 14 18 5 19 6 20 7 21 8 22 9 23 15 24
REMARK SMILES IDX 16 25 17 26 18 27 26 28 27 29 28 30 29 32 30 33 31 34 92 35
REMARK SMILES IDX 32 36 91 37 33 38 34 39 35 40 85 41 36 42 90 43 84 44 86 45
REMARK SMILES IDX 37 46 89 47 83 48 82 49 38 51 70 52 50 53 69 54 51 55 54 56
REMARK SMILES IDX 68 57 87 58 52 59 53 60 67 62 88 63 55 64 39 65 40 66 48 67
REMARK SMILES IDX 41 68 47 69 49 70 46 71 42 72 43 73 44 74 45 75 71 76 72 77
REMARK SMILES IDX 80 78 73 79 79 80 81 81 78 82 74 83 75 84 76 85 77 86 56 87
REMARK SMILES IDX 57 88 65 89 58 90 64 91 66 92 63 93 59 94 60 95 61 96 62 97
REMARK H PARENT 22 7 27 31 86 50 54 61
REMARK Flexibility Score: inf
ROOT
ATOM      1  C   UNL A   1      35.623  22.335  24.347  1.00  0.00     0.023 C 
ENDROOT
BRANCH   1   2
ATOM      2  C   UNL A   1      34.263  21.635  24.274  1.00  0.00     0.023 C 
BRANCH   2   3
ATOM      3  C   UNL A   1      33.120  22.546  23.838  1.00  0.00     0.116 C 
BRANCH   3   4
ATOM      4  N   UNL A   1      31.987  22.468  24.741  1.00  0.00    -0.352 N 
ATOM      5  C   UNL A   1      31.174  23.341  25.379  1.00  0.00     0.251 C 
ATOM      6  O   UNL A   1      30.295  22.831  26.083  1.00  0.00    -0.270 OA
ATOM      7  H   UNL A   1      31.747  21.535  24.943  1.00  0.00     0.163 HD
BRANCH   5   8
ATOM      8  C   UNL A   1      31.267  24.829  25.288  1.00  0.00     0.067 C 
ATOM      9  C   UNL A   1      31.874  29.876  26.042  1.00  0.00     0.048 C 
ATOM     10  C   UNL A   1      31.271  29.020  24.963  1.00  0.00    -0.005 A 
ATOM     11  C   UNL A   1      30.726  29.616  23.814  1.00  0.00     0.054 A 
ATOM     12  C   UNL A   1      31.210  27.627  25.099  1.00  0.00     0.131 A 
ATOM     13  C   UNL A   1      30.140  28.836  22.814  1.00  0.00     0.130 A 
ATOM     14  C   UNL A   1      30.628  26.837  24.108  1.00  0.00     0.021 A 
ATOM     15  O   UNL A   1      31.695  27.082  26.256  1.00  0.00    -0.475 OA
ATOM     16  C   UNL A   1      30.097  27.446  22.968  1.00  0.00     0.058 A 
ATOM     17  C   UNL A   1      30.555  25.394  24.294  1.00  0.00     0.025 C 
ATOM     18  C   UNL A   1      32.115  25.689  26.179  1.00  0.00     0.314 C 
BRANCH  13  19
ATOM     19  O   UNL A   1      29.576  29.291  21.656  1.00  0.00    -0.406 OA
BRANCH  19  20
ATOM     20  C   UNL A   1      28.519  30.228  21.760  1.00  0.00     0.573 C 
ATOM     21  F   UNL A   1      27.742  29.974  22.835  1.00  0.00    -0.132 F 
ATOM     22  F   UNL A   1      28.989  31.492  21.834  1.00  0.00    -0.132 F 
ATOM     23  F   UNL A   1      27.745  30.135  20.655  1.00  0.00    -0.132 F 
ENDBRANCH  19  20
ENDBRANCH  13  19
BRANCH  18  24
ATOM     24  C   UNL A   1      33.612  25.632  25.816  1.00  0.00     0.429 C 
ATOM     25  F   UNL A   1      33.767  25.534  24.471  1.00  0.00    -0.167 F 
ATOM     26  F   UNL A   1      34.286  26.739  26.201  1.00  0.00    -0.167 F 
ATOM     27  F   UNL A   1      34.243  24.573  26.371  1.00  0.00    -0.167 F 
ENDBRANCH  18  24
ENDBRANCH   5   8
ENDBRANCH   3   4
ENDBRANCH   2   3
ENDBRANCH   1   2
BRANCH   1  28
ATOM     28  C   UNL A   1      36.408  22.104  25.637  1.00  0.00     0.116 C 
BRANCH  28  29
ATOM     29  N   UNL A   1      37.395  21.036  25.541  1.00  0.00    -0.352 N 
ATOM     30  C   UNL A   1      38.726  21.107  25.883  1.00  0.00     0.251 C 
ATOM     31  H   UNL A   1      37.077  20.172  25.194  1.00  0.00     0.163 HD
ATOM     32  O   UNL A   1      39.480  20.158  25.716  1.00  0.00    -0.269 OA
BRANCH  30  33
ATOM     33  C   UNL A   1      39.221  22.386  26.421  1.00  0.00     0.039 A 
ATOM     34  C   UNL A   1      40.283  22.367  27.325  1.00  0.00     0.014 A 
ATOM     35  C   UNL A   1      38.722  23.588  25.910  1.00  0.00     0.014 A 
ATOM     36  C   UNL A   1      40.896  23.568  27.675  1.00  0.00     0.010 A 
ATOM     37  C   UNL A   1      39.366  24.779  26.226  1.00  0.00     0.010 A 
ATOM     38  C   UNL A   1      40.461  24.776  27.104  1.00  0.00    -0.014 A 
BRANCH  38  39
ATOM     39  C   UNL A   1      41.149  26.047  27.417  1.00  0.00     0.031 A 
ATOM     40  C   UNL A   1      40.438  27.104  28.207  1.00  0.00     0.074 A 
ATOM     41  C   UNL A   1      42.395  26.263  26.950  1.00  0.00     0.049 A 
ATOM     42  N   UNL A   1      40.878  28.267  28.604  1.00  0.00    -0.248 NA
ATOM     43  C   UNL A   1      39.041  26.825  28.583  1.00  0.00     0.031 C 
ATOM     44  C   UNL A   1      43.153  25.330  26.115  1.00  0.00     0.029 A 
ATOM     45  N   UNL A   1      43.239  27.333  27.104  1.00  0.00    -0.354 N 
ATOM     46  C   UNL A   1      39.817  28.859  29.276  1.00  0.00     0.074 A 
ATOM     47  C   UNL A   1      38.694  27.953  29.184  1.00  0.00     0.031 C 
ATOM     48  C   UNL A   1      44.357  25.861  25.845  1.00  0.00     0.029 A 
ATOM     49  C   UNL A   1      44.453  27.176  26.477  1.00  0.00     0.049 A 
ATOM     50  H   UNL A   1      42.997  28.139  27.615  1.00  0.00     0.167 HD
ATOM     51  C   UNL A   1      39.793  30.039  29.938  1.00  0.00     0.034 A 
ATOM     52  C   UNL A   1      45.528  27.990  26.435  1.00  0.00     0.034 A 
ATOM     53  C   UNL A   1      40.922  30.923  30.036  1.00  0.00     0.049 A 
ATOM     54  C   UNL A   1      45.493  29.279  27.216  1.00  0.00     0.074 A 
ATOM     55  C   UNL A   1      41.015  32.121  30.720  1.00  0.00     0.029 A 
ATOM     56  N   UNL A   1      42.156  30.699  29.445  1.00  0.00    -0.354 N 
ATOM     57  N   UNL A   1      44.518  29.775  27.940  1.00  0.00    -0.248 NA
ATOM     58  C   UNL A   1      46.707  30.107  27.200  1.00  0.00     0.031 C 
ATOM     59  C   UNL A   1      42.299  32.635  30.522  1.00  0.00     0.029 A 
ATOM     60  C   UNL A   1      43.018  31.737  29.747  1.00  0.00     0.049 A 
ATOM     61  H   UNL A   1      42.386  29.916  28.893  1.00  0.00     0.167 HD
ATOM     62  C   UNL A   1      45.012  30.952  28.494  1.00  0.00     0.074 A 
ATOM     63  C   UNL A   1      46.376  31.089  28.029  1.00  0.00     0.031 C 
ATOM     64  C   UNL A   1      44.390  31.836  29.314  1.00  0.00     0.034 A 
BRANCH  51  65
ATOM     65  C   UNL A   1      38.523  30.428  30.642  1.00  0.00     0.023 A 
ATOM     66  C   UNL A   1      37.550  31.198  29.981  1.00  0.00     0.031 A 
ATOM     67  C   UNL A   1      38.318  30.104  31.994  1.00  0.00     0.131 A 
ATOM     68  C   UNL A   1      36.420  31.632  30.683  1.00  0.00     0.055 A 
ATOM     69  C   UNL A   1      37.176  30.515  32.680  1.00  0.00     0.041 A 
ATOM     70  F   UNL A   1      39.220  29.364  32.661  1.00  0.00    -0.206 F 
ATOM     71  C   UNL A   1      36.223  31.288  32.026  1.00  0.00     0.022 A 
BRANCH  68  72
ATOM     72  S   UNL A   1      35.164  32.669  29.885  1.00  0.00     0.124 S 
ATOM     73  O   UNL A   1      34.293  33.009  31.009  1.00  0.00    -0.237 OA
ATOM     74  O   UNL A   1      35.968  33.768  29.360  1.00  0.00    -0.237 OA
ATOM     75  O   UNL A   1      34.566  31.787  28.888  1.00  0.00    -0.744 OA
ENDBRANCH  68  72
ENDBRANCH  51  65
BRANCH  52  76
ATOM     76  C   UNL A   1      46.751  27.548  25.708  1.00  0.00     0.023 A 
ATOM     77  C   UNL A   1      46.971  27.905  24.367  1.00  0.00     0.031 A 
ATOM     78  C   UNL A   1      47.675  26.690  26.328  1.00  0.00     0.131 A 
ATOM     79  C   UNL A   1      48.072  27.375  23.680  1.00  0.00     0.055 A 
ATOM     80  C   UNL A   1      48.797  26.206  25.655  1.00  0.00     0.041 A 
ATOM     81  F   UNL A   1      47.494  26.310  27.603  1.00  0.00    -0.206 F 
ATOM     82  C   UNL A   1      48.994  26.541  24.320  1.00  0.00     0.022 A 
BRANCH  79  83
ATOM     83  S   UNL A   1      48.302  27.682  21.907  1.00  0.00     0.124 S 
ATOM     84  O   UNL A   1      47.033  28.300  21.536  1.00  0.00    -0.237 OA
ATOM     85  O   UNL A   1      49.461  28.572  21.908  1.00  0.00    -0.237 OA
ATOM     86  O   UNL A   1      48.541  26.352  21.355  1.00  0.00    -0.744 OA
ENDBRANCH  79  83
ENDBRANCH  52  76
BRANCH  64  87
ATOM     87  C   UNL A   1      45.164  33.029  29.809  1.00  0.00     0.023 A 
ATOM     88  C   UNL A   1      45.235  34.190  29.016  1.00  0.00     0.031 A 
ATOM     89  C   UNL A   1      45.959  32.954  30.963  1.00  0.00     0.131 A 
ATOM     90  C   UNL A   1      46.116  35.218  29.369  1.00  0.00     0.055 A 
ATOM     91  C   UNL A   1      46.810  33.997  31.330  1.00  0.00     0.041 A 
ATOM     92  F   UNL A   1      45.931  31.860  31.740  1.00  0.00    -0.206 F 
ATOM     93  C   UNL A   1      46.901  35.130  30.524  1.00  0.00     0.022 A 
BRANCH  90  94
ATOM     94  S   UNL A   1      46.329  36.673  28.307  1.00  0.00     0.124 S 
ATOM     95  O   UNL A   1      46.631  36.063  27.014  1.00  0.00    -0.237 OA
ATOM     96  O   UNL A   1      45.021  37.315  28.404  1.00  0.00    -0.237 OA
ATOM     97  O   UNL A   1      47.434  37.401  28.922  1.00  0.00    -0.744 OA
ENDBRANCH  90  94
ENDBRANCH  64  87
ENDBRANCH  38  39
ENDBRANCH  30  33
ENDBRANCH  28  29
ENDBRANCH   1  28
TORSDOF 17
ENDMDL
MODEL 2
REMARK VINA RESULT:     -12.7      5.121      7.873
REMARK SMILES Cc1cc(OC(F)(F)F)cc2c1O[C@H](C(F)(F)F)C(C(=O)NCCCCNC(=O)c1ccc(-c3c4nc(c(-c5cc(S(=O)(=O)[O-])ccc5F)c5ccc([nH]5)c(-c5cc(S(=O)(=O)[O-])ccc5F)c5nc(c(-c6cc(S(=O)(=O)[O-])ccc6F)c6ccc3[nH]6)C=C5)C=C4)cc1)=C2
REMARK SMILES IDX 25 1 24 2 23 3 22 4 20 5 21 6 19 8 1 9 2 10 3 11 12 12 4 13
REMARK SMILES IDX 11 14 13 15 10 16 93 17 14 18 5 19 6 20 7 21 8 22 9 23 15 24
REMARK SMILES IDX 16 25 17 26 18 27 26 28 27 29 28 30 29 32 30 33 31 34 92 35
REMARK SMILES IDX 32 36 91 37 33 38 34 39 35 40 85 41 36 42 90 43 84 44 86 45
REMARK SMILES IDX 37 46 89 47 83 48 82 49 38 51 70 52 50 53 69 54 51 55 54 56
REMARK SMILES IDX 68 57 87 58 52 59 53 60 67 62 88 63 55 64 39 65 40 66 48 67
REMARK SMILES IDX 41 68 47 69 49 70 46 71 42 72 43 73 44 74 45 75 71 76 72 77
REMARK SMILES IDX 80 78 73 79 79 80 81 81 78 82 74 83 75 84 76 85 77 86 56 87
REMARK SMILES IDX 57 88 65 89 58 90 64 91 66 92 63 93 59 94 60 95 61 96 62 97
REMARK H PARENT 22 7 27 31 86 50 54 61
REMARK Flexibility Score: inf
ROOT
ATOM      1  C   UNL A   1      31.920  28.995  24.931  1.00  0.00     0.023 C 
ENDROOT
BRANCH   1   2
ATOM      2  C   UNL A   1      32.212  29.021  23.428  1.00  0.00     0.023 C 
BRANCH   2   3
ATOM      3  C   UNL A   1      33.557  28.410  23.047  1.00  0.00     0.116 C 
BRANCH   3   4
ATOM      4  N   UNL A   1      33.430  27.433  21.982  1.00  0.00    -0.352 N 
ATOM      5  C   UNL A   1      33.233  26.098  21.889  1.00  0.00     0.251 C 
ATOM      6  O   UNL A   1      33.183  25.647  20.740  1.00  0.00    -0.270 OA
ATOM      7  H   UNL A   1      33.507  27.851  21.095  1.00  0.00     0.163 HD
BRANCH   5   8
ATOM      8  C   UNL A   1      33.074  25.168  23.047  1.00  0.00     0.067 C 
ATOM      9  C   UNL A   1      32.249  22.889  27.579  1.00  0.00     0.048 C 
ATOM     10  C   UNL A   1      32.881  22.484  26.276  1.00  0.00    -0.005 A 
ATOM     11  C   UNL A   1      33.391  21.185  26.116  1.00  0.00     0.054 A 
ATOM     12  C   UNL A   1      33.005  23.397  25.222  1.00  0.00     0.131 A 
ATOM     13  C   UNL A   1      34.004  20.801  24.921  1.00  0.00     0.130 A 
ATOM     14  C   UNL A   1      33.615  23.026  24.023  1.00  0.00     0.021 A 
ATOM     15  O   UNL A   1      32.552  24.671  25.430  1.00  0.00    -0.475 OA
ATOM     16  C   UNL A   1      34.110  21.727  23.878  1.00  0.00     0.058 A 
ATOM     17  C   UNL A   1      33.753  24.008  22.956  1.00  0.00     0.025 C 
ATOM     18  C   UNL A   1      32.195  25.424  24.236  1.00  0.00     0.314 C 
BRANCH  13  19
ATOM     19  O   UNL A   1      34.539  19.575  24.641  1.00  0.00    -0.406 OA
BRANCH  19  20
ATOM     20  C   UNL A   1      33.646  18.517  24.342  1.00  0.00     0.573 C 
ATOM     21  F   UNL A   1      33.430  17.737  25.423  1.00  0.00    -0.132 F 
ATOM     22  F   UNL A   1      32.465  18.988  23.884  1.00  0.00    -0.132 F 
ATOM     23  F   UNL A   1      34.192  17.747  23.374  1.00  0.00    -0.132 F 
ENDBRANCH  19  20
ENDBRANCH  13  19
BRANCH  18  24
ATOM     24  C   UNL A   1      30.699  25.209  23.932  1.00  0.00     0.429 C 
ATOM     25  F   UNL A   1      30.223  26.226  23.170  1.00  0.00    -0.167 F 
ATOM     26  F   UNL A   1      30.465  24.070  23.241  1.00  0.00    -0.167 F 
ATOM     27  F   UNL A   1      29.941  25.156  25.050  1.00  0.00    -0.167 F 
ENDBRANCH  18  24
ENDBRANCH   5   8
ENDBRANCH   3   4
ENDBRANCH   2   3
ENDBRANCH   1   2
BRANCH   1  28
ATOM     28  C   UNL A   1      32.972  29.666  25.813  1.00  0.00     0.116 C 
BRANCH  28  29
ATOM     29  N   UNL A   1      32.550  30.951  26.357  1.00  0.00    -0.352 N 
ATOM     30  C   UNL A   1      33.249  31.745  27.236  1.00  0.00     0.251 C 
ATOM     31  H   UNL A   1      31.672  31.286  26.066  1.00  0.00     0.163 HD
ATOM     32  O   UNL A   1      32.777  32.789  27.668  1.00  0.00    -0.269 OA
BRANCH  30  33
ATOM     33  C   UNL A   1      34.574  31.273  27.672  1.00  0.00     0.039 A 
ATOM     34  C   UNL A   1      35.609  32.200  27.798  1.00  0.00     0.014 A 
ATOM     35  C   UNL A   1      34.730  29.947  28.090  1.00  0.00     0.014 A 
ATOM     36  C   UNL A   1      36.798  31.808  28.408  1.00  0.00     0.010 A 
ATOM     37  C   UNL A   1      35.901  29.574  28.740  1.00  0.00     0.010 A 
ATOM     38  C   UNL A   1      36.939  30.503  28.909  1.00  0.00    -0.014 A 
BRANCH  38  39
ATOM     39  C   UNL A   1      38.173  30.098  29.619  1.00  0.00     0.031 A 
ATOM     40  C   UNL A   1      38.446  30.627  30.995  1.00  0.00     0.074 A 
ATOM     41  C   UNL A   1      39.062  29.294  29.003  1.00  0.00     0.049 A 
ATOM     42  N   UNL A   1      39.452  30.371  31.787  1.00  0.00    -0.248 NA
ATOM     43  C   UNL A   1      37.472  31.585  31.545  1.00  0.00     0.031 C 
ATOM     44  C   UNL A   1      38.927  28.778  27.640  1.00  0.00     0.029 A 
ATOM     45  N   UNL A   1      40.256  28.777  29.439  1.00  0.00    -0.354 N 
ATOM     46  C   UNL A   1      39.233  31.132  32.927  1.00  0.00     0.074 A 
ATOM     47  C   UNL A   1      38.032  31.903  32.702  1.00  0.00     0.031 C 
ATOM     48  C   UNL A   1      39.986  28.003  27.357  1.00  0.00     0.029 A 
ATOM     49  C   UNL A   1      40.882  27.975  28.513  1.00  0.00     0.049 A 
ATOM     50  H   UNL A   1      40.628  28.962  30.331  1.00  0.00     0.167 HD
ATOM     51  C   UNL A   1      39.955  31.160  34.071  1.00  0.00     0.034 A 
ATOM     52  C   UNL A   1      42.036  27.281  28.595  1.00  0.00     0.034 A 
ATOM     53  C   UNL A   1      41.139  30.374  34.288  1.00  0.00     0.049 A 
ATOM     54  C   UNL A   1      42.799  27.293  29.896  1.00  0.00     0.074 A 
ATOM     55  C   UNL A   1      41.919  30.296  35.428  1.00  0.00     0.029 A 
ATOM     56  N   UNL A   1      41.706  29.523  33.353  1.00  0.00    -0.354 N 
ATOM     57  N   UNL A   1      42.520  27.933  31.006  1.00  0.00    -0.248 NA
ATOM     58  C   UNL A   1      44.016  26.472  29.968  1.00  0.00     0.031 C 
ATOM     59  C   UNL A   1      42.972  29.415  35.173  1.00  0.00     0.029 A 
ATOM     60  C   UNL A   1      42.828  28.915  33.888  1.00  0.00     0.049 A 
ATOM     61  H   UNL A   1      41.363  29.372  32.442  1.00  0.00     0.167 HD
ATOM     62  C   UNL A   1      43.504  27.564  31.919  1.00  0.00     0.074 A 
ATOM     63  C   UNL A   1      44.380  26.637  31.233  1.00  0.00     0.031 C 
ATOM     64  C   UNL A   1      43.664  27.958  33.207  1.00  0.00     0.034 A 
BRANCH  51  65
ATOM     65  C   UNL A   1      39.467  32.033  35.193  1.00  0.00     0.023 A 
ATOM     66  C   UNL A   1      38.734  31.482  36.258  1.00  0.00     0.031 A 
ATOM     67  C   UNL A   1      39.661  33.425  35.160  1.00  0.00     0.131 A 
ATOM     68  C   UNL A   1      38.206  32.325  37.242  1.00  0.00     0.055 A 
ATOM     69  C   UNL A   1      39.158  34.258  36.159  1.00  0.00     0.041 A 
ATOM     70  F   UNL A   1      40.363  33.992  34.164  1.00  0.00    -0.206 F 
ATOM     71  C   UNL A   1      38.421  33.709  37.203  1.00  0.00     0.022 A 
BRANCH  68  72
ATOM     72  S   UNL A   1      37.211  31.664  38.606  1.00  0.00     0.124 S 
ATOM     73  O   UNL A   1      36.034  32.530  38.571  1.00  0.00    -0.237 OA
ATOM     74  O   UNL A   1      36.988  30.287  38.178  1.00  0.00    -0.237 OA
ATOM     75  O   UNL A   1      38.067  31.835  39.775  1.00  0.00    -0.744 OA
ENDBRANCH  68  72
ENDBRANCH  51  65
BRANCH  52  76
ATOM     76  C   UNL A   1      42.468  26.445  27.441  1.00  0.00     0.023 A 
ATOM     77  C   UNL A   1      42.082  25.098  27.330  1.00  0.00     0.031 A 
ATOM     78  C   UNL A   1      43.347  26.965  26.476  1.00  0.00     0.131 A 
ATOM     79  C   UNL A   1      42.602  24.309  26.295  1.00  0.00     0.055 A 
ATOM     80  C   UNL A   1      43.823  26.190  25.418  1.00  0.00     0.041 A 
ATOM     81  F   UNL A   1      43.756  28.242  26.554  1.00  0.00    -0.206 F 
ATOM     82  C   UNL A   1      43.458  24.851  25.330  1.00  0.00     0.022 A 
BRANCH  79  83
ATOM     83  S   UNL A   1      42.255  22.531  26.211  1.00  0.00     0.124 S 
ATOM     84  O   UNL A   1      42.907  22.150  24.962  1.00  0.00    -0.237 OA
ATOM     85  O   UNL A   1      42.897  22.047  27.431  1.00  0.00    -0.237 OA
ATOM     86  O   UNL A   1      40.797  22.464  26.207  1.00  0.00    -0.744 OA
ENDBRANCH  79  83
ENDBRANCH  52  76
BRANCH  64  87
ATOM     87  C   UNL A   1      44.803  27.379  34.002  1.00  0.00     0.023 A 
ATOM     88  C   UNL A   1      44.570  26.284  34.856  1.00  0.00     0.031 A 
ATOM     89  C   UNL A   1      46.056  28.010  34.047  1.00  0.00     0.131 A 
ATOM     90  C   UNL A   1      45.567  25.876  35.749  1.00  0.00     0.055 A 
ATOM     91  C   UNL A   1      47.060  27.577  34.914  1.00  0.00     0.041 A 
ATOM     92  F   UNL A   1      46.316  29.065  33.259  1.00  0.00    -0.206 F 
ATOM     93  C   UNL A   1      46.813  26.513  35.780  1.00  0.00     0.022 A 
BRANCH  90  94
ATOM     94  S   UNL A   1      45.262  24.553  36.950  1.00  0.00     0.124 S 
ATOM     95  O   UNL A   1      43.930  24.893  37.446  1.00  0.00    -0.237 OA
ATOM     96  O   UNL A   1      45.329  23.358  36.113  1.00  0.00    -0.237 OA
ATOM     97  O   UNL A   1      46.341  24.701  37.922  1.00  0.00    -0.744 OA
ENDBRANCH  90  94
ENDBRANCH  64  87
ENDBRANCH  38  39
ENDBRANCH  30  33
ENDBRANCH  28  29
ENDBRANCH   1  28
TORSDOF 17
ENDMDL
MODEL 3
REMARK VINA RESULT:     -12.5      2.535      7.690
REMARK SMILES Cc1cc(OC(F)(F)F)cc2c1O[C@H](C(F)(F)F)C(C(=O)NCCCCNC(=O)c1ccc(-c3c4nc(c(-c5cc(S(=O)(=O)[O-])ccc5F)c5ccc([nH]5)c(-c5cc(S(=O)(=O)[O-])ccc5F)c5nc(c(-c6cc(S(=O)(=O)[O-])ccc6F)c6ccc3[nH]6)C=C5)C=C4)cc1)=C2
REMARK SMILES IDX 25 1 24 2 23 3 22 4 20 5 21 6 19 8 1 9 2 10 3 11 12 12 4 13
REMARK SMILES IDX 11 14 13 15 10 16 93 17 14 18 5 19 6 20 7 21 8 22 9 23 15 24
REMARK SMILES IDX 16 25 17 26 18 27 26 28 27 29 28 30 29 32 30 33 31 34 92 35
REMARK SMILES IDX 32 36 91 37 33 38 34 39 35 40 85 41 36 42 90 43 84 44 86 45
REMARK SMILES IDX 37 46 89 47 83 48 82 49 38 51 70 52 50 53 69 54 51 55 54 56
REMARK SMILES IDX 68 57 87 58 52 59 53 60 67 62 88 63 55 64 39 65 40 66 48 67
REMARK SMILES IDX 41 68 47 69 49 70 46 71 42 72 43 73 44 74 45 75 71 76 72 77
REMARK SMILES IDX 80 78 73 79 79 80 81 81 78 82 74 83 75 84 76 85 77 86 56 87
REMARK SMILES IDX 57 88 65 89 58 90 64 91 66 92 63 93 59 94 60 95 61 96 62 97
REMARK H PARENT 22 7 27 31 86 50 54 61
REMARK Flexibility Score: inf
ROOT
ATOM      1  C   UNL A   1      36.340  22.811  24.382  1.00  0.00     0.023 C 
ENDROOT
BRANCH   1   2
ATOM      2  C   UNL A   1      34.952  22.172  24.477  1.00  0.00     0.023 C 
BRANCH   2   3
ATOM      3  C   UNL A   1      33.818  23.078  24.007  1.00  0.00     0.116 C 
BRANCH   3   4
ATOM      4  N   UNL A   1      32.601  22.866  24.767  1.00  0.00    -0.352 N 
ATOM      5  C   UNL A   1      31.622  23.637  25.293  1.00  0.00     0.251 C 
ATOM      6  O   UNL A   1      30.728  23.027  25.889  1.00  0.00    -0.270 OA
ATOM      7  H   UNL A   1      32.447  21.911  24.948  1.00  0.00     0.163 HD
BRANCH   5   8
ATOM      8  C   UNL A   1      31.553  25.126  25.198  1.00  0.00     0.067 C 
ATOM      9  C   UNL A   1      31.609  30.210  25.941  1.00  0.00     0.048 C 
ATOM     10  C   UNL A   1      31.105  29.292  24.864  1.00  0.00    -0.005 A 
ATOM     11  C   UNL A   1      30.500  29.824  23.712  1.00  0.00     0.054 A 
ATOM     12  C   UNL A   1      31.194  27.902  25.003  1.00  0.00     0.131 A 
ATOM     13  C   UNL A   1      30.003  28.983  22.714  1.00  0.00     0.130 A 
ATOM     14  C   UNL A   1      30.702  27.051  24.013  1.00  0.00     0.021 A 
ATOM     15  O   UNL A   1      31.734  27.414  26.162  1.00  0.00    -0.475 OA
ATOM     16  C   UNL A   1      30.110  27.596  22.871  1.00  0.00     0.058 A 
ATOM     17  C   UNL A   1      30.785  25.608  24.202  1.00  0.00     0.025 C 
ATOM     18  C   UNL A   1      32.301  26.075  26.088  1.00  0.00     0.314 C 
BRANCH  13  19
ATOM     19  O   UNL A   1      29.395  29.372  21.554  1.00  0.00    -0.406 OA
BRANCH  19  20
ATOM     20  C   UNL A   1      28.370  30.346  21.640  1.00  0.00     0.573 C 
ATOM     21  F   UNL A   1      27.752  30.514  20.451  1.00  0.00    -0.132 F 
ATOM     22  F   UNL A   1      27.457  30.015  22.579  1.00  0.00    -0.132 F 
ATOM     23  F   UNL A   1      28.922  31.529  21.994  1.00  0.00    -0.132 F 
ENDBRANCH  19  20
ENDBRANCH  13  19
BRANCH  18  24
ATOM     24  C   UNL A   1      33.796  26.179  25.727  1.00  0.00     0.429 C 
ATOM     25  F   UNL A   1      33.955  26.208  24.380  1.00  0.00    -0.167 F 
ATOM     26  F   UNL A   1      34.372  27.306  26.206  1.00  0.00    -0.167 F 
ATOM     27  F   UNL A   1      34.520  25.137  26.195  1.00  0.00    -0.167 F 
ENDBRANCH  18  24
ENDBRANCH   5   8
ENDBRANCH   3   4
ENDBRANCH   2   3
ENDBRANCH   1   2
BRANCH   1  28
ATOM     28  C   UNL A   1      37.021  23.096  25.718  1.00  0.00     0.116 C 
BRANCH  28  29
ATOM     29  N   UNL A   1      38.175  22.245  25.983  1.00  0.00    -0.352 N 
ATOM     30  C   UNL A   1      39.372  22.627  26.544  1.00  0.00     0.251 C 
ATOM     31  H   UNL A   1      38.090  21.297  25.734  1.00  0.00     0.163 HD
ATOM     32  O   UNL A   1      40.297  21.835  26.677  1.00  0.00    -0.269 OA
BRANCH  30  33
ATOM     33  C   UNL A   1      39.517  24.038  26.940  1.00  0.00     0.039 A 
ATOM     34  C   UNL A   1      39.267  24.391  28.267  1.00  0.00     0.014 A 
ATOM     35  C   UNL A   1      40.039  24.960  26.028  1.00  0.00     0.014 A 
ATOM     36  C   UNL A   1      39.602  25.671  28.701  1.00  0.00     0.010 A 
ATOM     37  C   UNL A   1      40.415  26.221  26.478  1.00  0.00     0.010 A 
ATOM     38  C   UNL A   1      40.206  26.581  27.818  1.00  0.00    -0.014 A 
BRANCH  38  39
ATOM     39  C   UNL A   1      40.628  27.919  28.289  1.00  0.00     0.031 A 
ATOM     40  C   UNL A   1      42.081  28.288  28.276  1.00  0.00     0.074 A 
ATOM     41  C   UNL A   1      39.706  28.777  28.768  1.00  0.00     0.049 A 
ATOM     42  N   UNL A   1      42.644  29.414  28.621  1.00  0.00    -0.248 NA
ATOM     43  C   UNL A   1      43.027  27.249  27.837  1.00  0.00     0.031 C 
ATOM     44  C   UNL A   1      38.275  28.495  28.889  1.00  0.00     0.029 A 
ATOM     45  N   UNL A   1      39.835  30.056  29.249  1.00  0.00    -0.354 N 
ATOM     46  C   UNL A   1      44.007  29.221  28.441  1.00  0.00     0.074 A 
ATOM     47  C   UNL A   1      44.192  27.853  28.012  1.00  0.00     0.031 C 
ATOM     48  C   UNL A   1      37.655  29.574  29.393  1.00  0.00     0.029 A 
ATOM     49  C   UNL A   1      38.644  30.622  29.642  1.00  0.00     0.049 A 
ATOM     50  H   UNL A   1      40.699  30.524  29.307  1.00  0.00     0.167 HD
ATOM     51  C   UNL A   1      45.011  30.116  28.590  1.00  0.00     0.034 A 
ATOM     52  C   UNL A   1      38.379  31.852  30.127  1.00  0.00     0.034 A 
ATOM     53  C   UNL A   1      44.811  31.479  29.002  1.00  0.00     0.049 A 
ATOM     54  C   UNL A   1      39.507  32.846  30.243  1.00  0.00     0.074 A 
ATOM     55  C   UNL A   1      45.756  32.479  29.141  1.00  0.00     0.029 A 
ATOM     56  N   UNL A   1      43.583  32.036  29.326  1.00  0.00    -0.354 N 
ATOM     57  N   UNL A   1      40.778  32.682  29.963  1.00  0.00    -0.248 NA
ATOM     58  C   UNL A   1      39.167  34.197  30.713  1.00  0.00     0.031 C 
ATOM     59  C   UNL A   1      45.103  33.635  29.574  1.00  0.00     0.029 A 
ATOM     60  C   UNL A   1      43.746  33.367  29.667  1.00  0.00     0.049 A 
ATOM     61  H   UNL A   1      42.723  31.557  29.315  1.00  0.00     0.167 HD
ATOM     62  C   UNL A   1      41.382  33.916  30.188  1.00  0.00     0.074 A 
ATOM     63  C   UNL A   1      40.335  34.819  30.618  1.00  0.00     0.031 C 
ATOM     64  C   UNL A   1      42.685  34.266  30.049  1.00  0.00     0.034 A 
BRANCH  51  65
ATOM     65  C   UNL A   1      46.409  29.669  28.271  1.00  0.00     0.023 A 
ATOM     66  C   UNL A   1      47.225  29.113  29.272  1.00  0.00     0.031 A 
ATOM     67  C   UNL A   1      46.958  29.870  26.992  1.00  0.00     0.131 A 
ATOM     68  C   UNL A   1      48.556  28.793  28.979  1.00  0.00     0.055 A 
ATOM     69  C   UNL A   1      48.275  29.521  26.698  1.00  0.00     0.041 A 
ATOM     70  F   UNL A   1      46.210  30.391  26.005  1.00  0.00    -0.206 F 
ATOM     71  C   UNL A   1      49.083  28.986  27.696  1.00  0.00     0.022 A 
BRANCH  68  72
ATOM     72  S   UNL A   1      49.659  28.122  30.251  1.00  0.00     0.124 S 
ATOM     73  O   UNL A   1      50.976  28.503  29.744  1.00  0.00    -0.237 OA
ATOM     74  O   UNL A   1      49.217  28.838  31.444  1.00  0.00    -0.237 OA
ATOM     75  O   UNL A   1      49.383  26.690  30.232  1.00  0.00    -0.744 OA
ENDBRANCH  68  72
ENDBRANCH  51  65
BRANCH  52  76
ATOM     76  C   UNL A   1      36.971  32.227  30.436  1.00  0.00     0.023 A 
ATOM     77  C   UNL A   1      36.135  32.796  29.460  1.00  0.00     0.031 A 
ATOM     78  C   UNL A   1      36.470  32.096  31.743  1.00  0.00     0.131 A 
ATOM     79  C   UNL A   1      34.856  33.244  29.816  1.00  0.00     0.055 A 
ATOM     80  C   UNL A   1      35.178  32.497  32.082  1.00  0.00     0.041 A 
ATOM     81  F   UNL A   1      37.241  31.574  32.711  1.00  0.00    -0.206 F 
ATOM     82  C   UNL A   1      34.367  33.084  31.117  1.00  0.00     0.022 A 
BRANCH  79  83
ATOM     83  S   UNL A   1      33.811  34.127  28.625  1.00  0.00     0.124 S 
ATOM     84  O   UNL A   1      33.379  33.051  27.739  1.00  0.00    -0.237 OA
ATOM     85  O   UNL A   1      32.776  34.682  29.495  1.00  0.00    -0.237 OA
ATOM     86  O   UNL A   1      34.716  35.107  28.033  1.00  0.00    -0.744 OA
ENDBRANCH  79  83
ENDBRANCH  52  76
BRANCH  64  87
ATOM     87  C   UNL A   1      43.083  35.691  30.324  1.00  0.00     0.023 A 
ATOM     88  C   UNL A   1      43.088  36.627  29.273  1.00  0.00     0.031 A 
ATOM     89  C   UNL A   1      43.614  36.073  31.566  1.00  0.00     0.131 A 
ATOM     90  C   UNL A   1      43.653  37.892  29.473  1.00  0.00     0.055 A 
ATOM     91  C   UNL A   1      44.143  37.348  31.771  1.00  0.00     0.041 A 
ATOM     92  F   UNL A   1      43.640  35.208  32.591  1.00  0.00    -0.206 F 
ATOM     93  C   UNL A   1      44.175  38.260  30.718  1.00  0.00     0.022 A 
BRANCH  90  94
ATOM     94  S   UNL A   1      43.792  39.080  28.110  1.00  0.00     0.124 S 
ATOM     95  O   UNL A   1      44.421  40.224  28.767  1.00  0.00    -0.237 OA
ATOM     96  O   UNL A   1      44.640  38.361  27.163  1.00  0.00    -0.237 OA
ATOM     97  O   UNL A   1      42.412  39.293  27.684  1.00  0.00    -0.744 OA
ENDBRANCH  90  94
ENDBRANCH  64  87
ENDBRANCH  38  39
ENDBRANCH  30  33
ENDBRANCH  28  29
ENDBRANCH   1  28
TORSDOF 17
ENDMDL
