MODEL 1
REMARK VINA RESULT:     -12.0      0.000      0.000
REMARK SMILES CCC(CC)(Nc1cc2ccccc2c(=O)[nH]1)C(=O)NCCCCNC(=O)c1ccc(-c2c3nc(c(-c4cc(S(=O)(=O)[O-])ccc4F)c4ccc([nH]4)c(-c4cc(S(=O)(=O)[O-])ccc4F)c4nc(c(-c5cc(S(=O)(=O)[O-])ccc5F)c5ccc2[nH]5)C=C4)C=C3)cc1
REMARK SMILES IDX 23 1 22 2 21 3 20 4 18 5 19 6 3 8 2 9 1 10 4 11 5 12 6 13
REMARK SMILES IDX 7 15 8 16 17 17 9 18 15 19 10 21 14 22 16 23 11 24 13 25
REMARK SMILES IDX 12 26 24 27 25 28 26 29 27 31 28 32 29 33 90 34 30 35 89 36
REMARK SMILES IDX 31 37 32 38 33 39 83 40 34 41 88 42 82 43 84 44 35 45 87 46
REMARK SMILES IDX 81 47 80 48 36 50 68 51 48 52 67 53 49 54 52 55 66 56 85 57
REMARK SMILES IDX 50 58 51 59 65 61 86 62 53 63 37 64 38 65 46 66 39 67 45 68
REMARK SMILES IDX 47 69 44 70 40 71 41 72 42 73 43 74 69 75 70 76 78 77 71 78
REMARK SMILES IDX 77 79 79 80 76 81 72 82 73 83 74 84 75 85 54 86 55 87 63 88
REMARK SMILES IDX 56 89 62 90 64 91 61 92 57 93 58 94 59 95 60 96
REMARK H PARENT 20 7 6 14 17 20 25 30 84 49 52 60
REMARK Flexibility Score: inf
ROOT
ATOM      1  C   UNL A   1      31.348  31.987  26.835  1.00  0.00     0.023 C 
ENDROOT
BRANCH   1   2
ATOM      2  C   UNL A   1      31.402  30.842  25.838  1.00  0.00     0.023 C 
BRANCH   2   3
ATOM      3  C   UNL A   1      32.728  30.085  25.784  1.00  0.00     0.116 C 
BRANCH   3   4
ATOM      4  N   UNL A   1      33.218  29.740  24.452  1.00  0.00    -0.354 N 
ATOM      5  C   UNL A   1      32.841  28.741  23.586  1.00  0.00     0.245 C 
ATOM      6  O   UNL A   1      33.437  28.696  22.506  1.00  0.00    -0.272 OA
ATOM      7  H   UNL A   1      33.939  30.320  24.119  1.00  0.00     0.163 HD
BRANCH   5   8
ATOM      8  C   UNL A   1      31.785  27.670  24.001  1.00  0.00     0.117 C 
BRANCH   8   9
ATOM      9  C   UNL A   1      31.910  26.350  23.177  1.00  0.00     0.035 C 
ATOM     10  C   UNL A   1      30.675  25.459  23.076  1.00  0.00     0.007 C 
ENDBRANCH   8   9
BRANCH   8  11
ATOM     11  C   UNL A   1      30.395  28.335  23.737  1.00  0.00     0.035 C 
ATOM     12  C   UNL A   1      30.259  29.237  22.524  1.00  0.00     0.007 C 
ENDBRANCH   8  11
BRANCH   8  13
ATOM     13  N   UNL A   1      31.986  27.249  25.427  1.00  0.00    -0.357 N 
ATOM     14  H   UNL A   1      31.793  27.946  26.094  1.00  0.00     0.163 HD
BRANCH  13  15
ATOM     15  C   UNL A   1      32.404  26.024  25.961  1.00  0.00     0.107 A 
ATOM     16  C   UNL A   1      33.651  25.552  25.735  1.00  0.00     0.053 A 
ATOM     17  N   UNL A   1      31.561  25.200  26.667  1.00  0.00    -0.308 N 
ATOM     18  C   UNL A   1      34.038  24.178  26.119  1.00  0.00    -0.009 A 
ATOM     19  C   UNL A   1      31.758  23.876  26.967  1.00  0.00     0.257 A 
ATOM     20  H   UNL A   1      30.725  25.604  26.993  1.00  0.00     0.171 HD
ATOM     21  C   UNL A   1      35.332  23.679  25.943  1.00  0.00     0.009 A 
ATOM     22  C   UNL A   1      33.056  23.304  26.595  1.00  0.00     0.047 A 
ATOM     23  O   UNL A   1      30.888  23.197  27.508  1.00  0.00    -0.269 OA
ATOM     24  C   UNL A   1      35.601  22.319  26.165  1.00  0.00     0.001 A 
ATOM     25  C   UNL A   1      33.300  21.937  26.760  1.00  0.00     0.014 A 
ATOM     26  C   UNL A   1      34.578  21.442  26.531  1.00  0.00     0.001 A 
ENDBRANCH  13  15
ENDBRANCH   8  13
ENDBRANCH   5   8
ENDBRANCH   3   4
ENDBRANCH   2   3
ENDBRANCH   1   2
BRANCH   1  27
ATOM     27  C   UNL A   1      32.698  32.617  27.113  1.00  0.00     0.116 C 
BRANCH  27  28
ATOM     28  N   UNL A   1      32.573  33.983  27.598  1.00  0.00    -0.352 N 
ATOM     29  C   UNL A   1      33.208  34.590  28.654  1.00  0.00     0.251 C 
ATOM     30  H   UNL A   1      31.946  34.554  27.098  1.00  0.00     0.163 HD
ATOM     31  O   UNL A   1      32.794  35.666  29.076  1.00  0.00    -0.269 OA
BRANCH  29  32
ATOM     32  C   UNL A   1      34.370  33.928  29.284  1.00  0.00     0.039 A 
ATOM     33  C   UNL A   1      35.658  34.365  28.974  1.00  0.00     0.014 A 
ATOM     34  C   UNL A   1      34.183  32.881  30.191  1.00  0.00     0.014 A 
ATOM     35  C   UNL A   1      36.753  33.788  29.619  1.00  0.00     0.010 A 
ATOM     36  C   UNL A   1      35.261  32.394  30.917  1.00  0.00     0.010 A 
ATOM     37  C   UNL A   1      36.561  32.823  30.623  1.00  0.00    -0.014 A 
BRANCH  37  38
ATOM     38  C   UNL A   1      37.707  32.215  31.344  1.00  0.00     0.031 A 
ATOM     39  C   UNL A   1      38.458  31.070  30.717  1.00  0.00     0.074 A 
ATOM     40  C   UNL A   1      38.035  32.654  32.576  1.00  0.00     0.049 A 
ATOM     41  N   UNL A   1      39.435  30.350  31.207  1.00  0.00    -0.248 NA
ATOM     42  C   UNL A   1      38.029  30.655  29.372  1.00  0.00     0.031 C 
ATOM     43  C   UNL A   1      37.347  33.725  33.302  1.00  0.00     0.029 A 
ATOM     44  N   UNL A   1      39.024  32.253  33.437  1.00  0.00    -0.354 N 
ATOM     45  C   UNL A   1      39.725  29.395  30.238  1.00  0.00     0.074 A 
ATOM     46  C   UNL A   1      38.767  29.575  29.170  1.00  0.00     0.031 C 
ATOM     47  C   UNL A   1      37.957  33.919  34.481  1.00  0.00     0.029 A 
ATOM     48  C   UNL A   1      39.041  32.953  34.623  1.00  0.00     0.049 A 
ATOM     49  H   UNL A   1      39.662  31.534  33.228  1.00  0.00     0.167 HD
ATOM     50  C   UNL A   1      40.719  28.475  30.226  1.00  0.00     0.034 A 
ATOM     51  C   UNL A   1      39.831  32.817  35.707  1.00  0.00     0.034 A 
ATOM     52  C   UNL A   1      41.671  28.319  31.298  1.00  0.00     0.049 A 
ATOM     53  C   UNL A   1      40.910  31.764  35.685  1.00  0.00     0.074 A 
ATOM     54  C   UNL A   1      42.746  27.452  31.378  1.00  0.00     0.029 A 
ATOM     55  N   UNL A   1      41.656  29.044  32.485  1.00  0.00    -0.354 N 
ATOM     56  N   UNL A   1      41.205  30.900  34.739  1.00  0.00    -0.248 NA
ATOM     57  C   UNL A   1      41.771  31.674  36.871  1.00  0.00     0.031 C 
ATOM     58  C   UNL A   1      43.332  27.598  32.639  1.00  0.00     0.029 A 
ATOM     59  C   UNL A   1      42.683  28.620  33.313  1.00  0.00     0.049 A 
ATOM     60  H   UNL A   1      41.011  29.754  32.704  1.00  0.00     0.167 HD
ATOM     61  C   UNL A   1      42.307  30.187  35.205  1.00  0.00     0.074 A 
ATOM     62  C   UNL A   1      42.633  30.735  36.506  1.00  0.00     0.031 C 
ATOM     63  C   UNL A   1      42.989  29.174  34.613  1.00  0.00     0.034 A 
BRANCH  50  64
ATOM     64  C   UNL A   1      40.806  27.560  29.026  1.00  0.00     0.023 A 
ATOM     65  C   UNL A   1      41.743  27.775  27.998  1.00  0.00     0.031 A 
ATOM     66  C   UNL A   1      39.921  26.476  28.888  1.00  0.00     0.131 A 
ATOM     67  C   UNL A   1      41.721  26.973  26.848  1.00  0.00     0.055 A 
ATOM     68  C   UNL A   1      39.965  25.626  27.781  1.00  0.00     0.041 A 
ATOM     69  F   UNL A   1      38.987  26.232  29.821  1.00  0.00    -0.206 F 
ATOM     70  C   UNL A   1      40.857  25.882  26.744  1.00  0.00     0.022 A 
BRANCH  67  71
ATOM     71  S   UNL A   1      42.728  27.475  25.424  1.00  0.00     0.124 S 
ATOM     72  O   UNL A   1      42.719  26.260  24.614  1.00  0.00    -0.237 OA
ATOM     73  O   UNL A   1      41.979  28.606  24.890  1.00  0.00    -0.237 OA
ATOM     74  O   UNL A   1      44.021  27.808  26.020  1.00  0.00    -0.744 OA
ENDBRANCH  67  71
ENDBRANCH  50  64
BRANCH  51  75
ATOM     75  C   UNL A   1      39.629  33.684  36.904  1.00  0.00     0.023 A 
ATOM     76  C   UNL A   1      39.003  33.193  38.061  1.00  0.00     0.031 A 
ATOM     77  C   UNL A   1      40.019  35.036  36.893  1.00  0.00     0.131 A 
ATOM     78  C   UNL A   1      38.740  34.056  39.137  1.00  0.00     0.055 A 
ATOM     79  C   UNL A   1      39.811  35.875  37.988  1.00  0.00     0.041 A 
ATOM     80  F   UNL A   1      40.622  35.559  35.813  1.00  0.00    -0.206 F 
ATOM     81  C   UNL A   1      39.155  35.389  39.114  1.00  0.00     0.022 A 
BRANCH  78  82
ATOM     82  S   UNL A   1      37.755  33.437  40.528  1.00  0.00     0.124 S 
ATOM     83  O   UNL A   1      38.621  32.392  41.063  1.00  0.00    -0.237 OA
ATOM     84  O   UNL A   1      37.607  34.633  41.352  1.00  0.00    -0.237 OA
ATOM     85  O   UNL A   1      36.527  32.965  39.892  1.00  0.00    -0.744 OA
ENDBRANCH  78  82
ENDBRANCH  51  75
BRANCH  63  86
ATOM     86  C   UNL A   1      44.190  28.630  35.349  1.00  0.00     0.023 A 
ATOM     87  C   UNL A   1      44.077  27.592  36.290  1.00  0.00     0.031 A 
ATOM     88  C   UNL A   1      45.467  29.167  35.107  1.00  0.00     0.131 A 
ATOM     89  C   UNL A   1      45.210  27.166  36.998  1.00  0.00     0.055 A 
ATOM     90  C   UNL A   1      46.603  28.690  35.762  1.00  0.00     0.041 A 
ATOM     91  F   UNL A   1      45.634  30.163  34.223  1.00  0.00    -0.206 F 
ATOM     92  C   UNL A   1      46.475  27.693  36.725  1.00  0.00     0.022 A 
BRANCH  89  93
ATOM     93  S   UNL A   1      44.994  25.985  38.357  1.00  0.00     0.124 S 
ATOM     94  O   UNL A   1      44.134  26.730  39.271  1.00  0.00    -0.237 OA
ATOM     95  O   UNL A   1      44.377  24.846  37.686  1.00  0.00    -0.237 OA
ATOM     96  O   UNL A   1      46.357  25.759  38.834  1.00  0.00    -0.744 OA
ENDBRANCH  89  93
ENDBRANCH  63  86
ENDBRANCH  37  38
ENDBRANCH  29  32
ENDBRANCH  27  28
ENDBRANCH   1  27
TORSDOF 18
ENDMDL
MODEL 2
REMARK VINA RESULT:     -11.7      6.017     11.418
REMARK SMILES CCC(CC)(Nc1cc2ccccc2c(=O)[nH]1)C(=O)NCCCCNC(=O)c1ccc(-c2c3nc(c(-c4cc(S(=O)(=O)[O-])ccc4F)c4ccc([nH]4)c(-c4cc(S(=O)(=O)[O-])ccc4F)c4nc(c(-c5cc(S(=O)(=O)[O-])ccc5F)c5ccc2[nH]5)C=C4)C=C3)cc1
REMARK SMILES IDX 23 1 22 2 21 3 20 4 18 5 19 6 3 8 2 9 1 10 4 11 5 12 6 13
REMARK SMILES IDX 7 15 8 16 17 17 9 18 15 19 10 21 14 22 16 23 11 24 13 25
REMARK SMILES IDX 12 26 24 27 25 28 26 29 27 31 28 32 29 33 90 34 30 35 89 36
REMARK SMILES IDX 31 37 32 38 33 39 83 40 34 41 88 42 82 43 84 44 35 45 87 46
REMARK SMILES IDX 81 47 80 48 36 50 68 51 48 52 67 53 49 54 52 55 66 56 85 57
REMARK SMILES IDX 50 58 51 59 65 61 86 62 53 63 37 64 38 65 46 66 39 67 45 68
REMARK SMILES IDX 47 69 44 70 40 71 41 72 42 73 43 74 69 75 70 76 78 77 71 78
REMARK SMILES IDX 77 79 79 80 76 81 72 82 73 83 74 84 75 85 54 86 55 87 63 88
REMARK SMILES IDX 56 89 62 90 64 91 61 92 57 93 58 94 59 95 60 96
REMARK H PARENT 20 7 6 14 17 20 25 30 84 49 52 60
REMARK Flexibility Score: inf
ROOT
ATOM      1  C   UNL A   1      38.067  19.301  24.969  1.00  0.00     0.023 C 
ENDROOT
BRANCH   1   2
ATOM      2  C   UNL A   1      36.749  20.056  24.920  1.00  0.00     0.023 C 
BRANCH   2   3
ATOM      3  C   UNL A   1      36.851  21.565  25.130  1.00  0.00     0.116 C 
BRANCH   3   4
ATOM      4  N   UNL A   1      36.401  22.401  24.022  1.00  0.00    -0.354 N 
ATOM      5  C   UNL A   1      35.210  23.056  23.814  1.00  0.00     0.245 C 
ATOM      6  O   UNL A   1      35.114  23.706  22.770  1.00  0.00    -0.272 OA
ATOM      7  H   UNL A   1      37.062  22.516  23.301  1.00  0.00     0.163 HD
BRANCH   5   8
ATOM      8  C   UNL A   1      34.018  22.893  24.808  1.00  0.00     0.117 C 
BRANCH   8   9
ATOM      9  C   UNL A   1      34.465  22.980  26.302  1.00  0.00     0.035 C 
ATOM     10  C   UNL A   1      33.451  22.577  27.369  1.00  0.00     0.007 C 
ENDBRANCH   8   9
BRANCH   8  11
ATOM     11  C   UNL A   1      33.419  21.480  24.511  1.00  0.00     0.035 C 
ATOM     12  C   UNL A   1      32.386  21.366  23.405  1.00  0.00     0.007 C 
ENDBRANCH   8  11
BRANCH   8  13
ATOM     13  N   UNL A   1      33.029  24.009  24.642  1.00  0.00    -0.357 N 
ATOM     14  H   UNL A   1      32.150  23.734  24.296  1.00  0.00     0.163 HD
BRANCH  13  15
ATOM     15  C   UNL A   1      33.156  25.380  24.900  1.00  0.00     0.107 A 
ATOM     16  C   UNL A   1      32.567  25.946  25.977  1.00  0.00     0.053 A 
ATOM     17  N   UNL A   1      33.805  26.235  24.042  1.00  0.00    -0.308 N 
ATOM     18  C   UNL A   1      32.522  27.413  26.150  1.00  0.00    -0.009 A 
ATOM     19  C   UNL A   1      33.732  27.605  24.027  1.00  0.00     0.257 A 
ATOM     20  H   UNL A   1      34.387  25.820  23.365  1.00  0.00     0.171 HD
ATOM     21  C   UNL A   1      31.964  28.026  27.276  1.00  0.00     0.009 A 
ATOM     22  C   UNL A   1      32.971  28.234  25.112  1.00  0.00     0.047 A 
ATOM     23  O   UNL A   1      34.266  28.274  23.145  1.00  0.00    -0.269 OA
ATOM     24  C   UNL A   1      31.794  29.419  27.312  1.00  0.00     0.001 A 
ATOM     25  C   UNL A   1      32.750  29.614  25.112  1.00  0.00     0.014 A 
ATOM     26  C   UNL A   1      32.147  30.207  26.215  1.00  0.00     0.001 A 
ENDBRANCH  13  15
ENDBRANCH   8  13
ENDBRANCH   5   8
ENDBRANCH   3   4
ENDBRANCH   2   3
ENDBRANCH   1   2
BRANCH   1  27
ATOM     27  C   UNL A   1      39.172  20.053  25.685  1.00  0.00     0.116 C 
BRANCH  27  28
ATOM     28  N   UNL A   1      40.295  19.187  26.014  1.00  0.00    -0.352 N 
ATOM     29  C   UNL A   1      41.590  19.527  26.323  1.00  0.00     0.251 C 
ATOM     30  H   UNL A   1      40.099  18.223  26.016  1.00  0.00     0.163 HD
ATOM     31  O   UNL A   1      42.461  18.663  26.323  1.00  0.00    -0.269 OA
BRANCH  29  32
ATOM     32  C   UNL A   1      41.920  20.934  26.633  1.00  0.00     0.039 A 
ATOM     33  C   UNL A   1      42.375  21.266  27.910  1.00  0.00     0.014 A 
ATOM     34  C   UNL A   1      41.790  21.924  25.655  1.00  0.00     0.014 A 
ATOM     35  C   UNL A   1      42.753  22.581  28.184  1.00  0.00     0.010 A 
ATOM     36  C   UNL A   1      42.278  23.201  25.893  1.00  0.00     0.010 A 
ATOM     37  C   UNL A   1      42.743  23.551  27.168  1.00  0.00    -0.014 A 
BRANCH  37  38
ATOM     38  C   UNL A   1      43.167  24.950  27.426  1.00  0.00     0.031 A 
ATOM     39  C   UNL A   1      42.203  25.914  28.067  1.00  0.00     0.074 A 
ATOM     40  C   UNL A   1      44.390  25.363  27.038  1.00  0.00     0.049 A 
ATOM     41  N   UNL A   1      42.345  27.192  28.310  1.00  0.00    -0.248 NA
ATOM     42  C   UNL A   1      40.888  25.377  28.454  1.00  0.00     0.031 C 
ATOM     43  C   UNL A   1      45.389  24.530  26.365  1.00  0.00     0.029 A 
ATOM     44  N   UNL A   1      45.001  26.586  27.149  1.00  0.00    -0.354 N 
ATOM     45  C   UNL A   1      41.139  27.609  28.863  1.00  0.00     0.074 A 
ATOM     46  C   UNL A   1      40.251  26.469  28.844  1.00  0.00     0.031 C 
ATOM     47  C   UNL A   1      46.499  25.256  26.156  1.00  0.00     0.029 A 
ATOM     48  C   UNL A   1      46.273  26.618  26.626  1.00  0.00     0.049 A 
ATOM     49  H   UNL A   1      44.570  27.368  27.563  1.00  0.00     0.167 HD
ATOM     50  C   UNL A   1      40.814  28.822  29.372  1.00  0.00     0.034 A 
ATOM     51  C   UNL A   1      47.151  27.637  26.522  1.00  0.00     0.034 A 
ATOM     52  C   UNL A   1      41.720  29.944  29.391  1.00  0.00     0.049 A 
ATOM     53  C   UNL A   1      46.756  28.987  27.064  1.00  0.00     0.074 A 
ATOM     54  C   UNL A   1      41.518  31.206  29.918  1.00  0.00     0.029 A 
ATOM     55  N   UNL A   1      43.001  29.940  28.850  1.00  0.00    -0.354 N 
ATOM     56  N   UNL A   1      45.628  29.353  27.632  1.00  0.00    -0.248 NA
ATOM     57  C   UNL A   1      47.755  30.058  26.964  1.00  0.00     0.031 C 
ATOM     58  C   UNL A   1      42.642  31.987  29.629  1.00  0.00     0.029 A 
ATOM     59  C   UNL A   1      43.586  31.187  29.003  1.00  0.00     0.049 A 
ATOM     60  H   UNL A   1      43.430  29.164  28.421  1.00  0.00     0.167 HD
ATOM     61  C   UNL A   1      45.798  30.690  27.985  1.00  0.00     0.074 A 
ATOM     62  C   UNL A   1      47.140  31.056  27.582  1.00  0.00     0.031 C 
ATOM     63  C   UNL A   1      44.925  31.537  28.588  1.00  0.00     0.034 A 
BRANCH  50  64
ATOM     64  C   UNL A   1      39.418  28.994  29.925  1.00  0.00     0.023 A 
ATOM     65  C   UNL A   1      38.385  29.567  29.162  1.00  0.00     0.031 A 
ATOM     66  C   UNL A   1      39.120  28.609  31.244  1.00  0.00     0.131 A 
ATOM     67  C   UNL A   1      37.133  29.813  29.745  1.00  0.00     0.055 A 
ATOM     68  C   UNL A   1      37.845  28.772  31.790  1.00  0.00     0.041 A 
ATOM     69  F   UNL A   1      40.068  28.078  32.033  1.00  0.00    -0.206 F 
ATOM     70  C   UNL A   1      36.847  29.393  31.045  1.00  0.00     0.022 A 
BRANCH  67  71
ATOM     71  S   UNL A   1      35.939  30.828  28.832  1.00  0.00     0.124 S 
ATOM     72  O   UNL A   1      36.821  31.659  28.015  1.00  0.00    -0.237 OA
ATOM     73  O   UNL A   1      35.156  29.829  28.116  1.00  0.00    -0.237 OA
ATOM     74  O   UNL A   1      35.222  31.544  29.887  1.00  0.00    -0.744 OA
ENDBRANCH  67  71
ENDBRANCH  50  64
BRANCH  51  75
ATOM     75  C   UNL A   1      48.478  27.428  25.872  1.00  0.00     0.023 A 
ATOM     76  C   UNL A   1      48.642  27.587  24.487  1.00  0.00     0.031 A 
ATOM     77  C   UNL A   1      49.596  27.022  26.622  1.00  0.00     0.131 A 
ATOM     78  C   UNL A   1      49.878  27.293  23.888  1.00  0.00     0.055 A 
ATOM     79  C   UNL A   1      50.839  26.790  26.032  1.00  0.00     0.041 A 
ATOM     80  F   UNL A   1      49.497  26.854  27.951  1.00  0.00    -0.206 F 
ATOM     81  C   UNL A   1      50.981  26.911  24.653  1.00  0.00     0.022 A 
BRANCH  78  82
ATOM     82  S   UNL A   1      49.995  27.316  22.078  1.00  0.00     0.124 S 
ATOM     83  O   UNL A   1      48.956  26.365  21.701  1.00  0.00    -0.237 OA
ATOM     84  O   UNL A   1      49.722  28.718  21.775  1.00  0.00    -0.237 OA
ATOM     85  O   UNL A   1      51.365  26.880  21.820  1.00  0.00    -0.744 OA
ENDBRANCH  78  82
ENDBRANCH  51  75
BRANCH  63  86
ATOM     86  C   UNL A   1      45.420  32.930  28.895  1.00  0.00     0.023 A 
ATOM     87  C   UNL A   1      45.351  33.968  27.950  1.00  0.00     0.031 A 
ATOM     88  C   UNL A   1      45.976  33.219  30.155  1.00  0.00     0.131 A 
ATOM     89  C   UNL A   1      45.885  35.228  28.258  1.00  0.00     0.055 A 
ATOM     90  C   UNL A   1      46.440  34.493  30.480  1.00  0.00     0.041 A 
ATOM     91  F   UNL A   1      46.071  32.265  31.095  1.00  0.00    -0.206 F 
ATOM     92  C   UNL A   1      46.409  35.504  29.524  1.00  0.00     0.022 A 
BRANCH  89  93
ATOM     93  S   UNL A   1      45.980  36.477  26.946  1.00  0.00     0.124 S 
ATOM     94  O   UNL A   1      46.201  35.654  25.761  1.00  0.00    -0.237 OA
ATOM     95  O   UNL A   1      44.678  37.127  27.038  1.00  0.00    -0.237 OA
ATOM     96  O   UNL A   1      47.116  37.306  27.345  1.00  0.00    -0.744 OA
ENDBRANCH  89  93
ENDBRANCH  63  86
ENDBRANCH  37  38
ENDBRANCH  29  32
ENDBRANCH  27  28
ENDBRANCH   1  27
TORSDOF 18
ENDMDL
MODEL 3
REMARK VINA RESULT:     -11.7      1.208      1.889
REMARK SMILES CCC(CC)(Nc1cc2ccccc2c(=O)[nH]1)C(=O)NCCCCNC(=O)c1ccc(-c2c3nc(c(-c4cc(S(=O)(=O)[O-])ccc4F)c4ccc([nH]4)c(-c4cc(S(=O)(=O)[O-])ccc4F)c4nc(c(-c5cc(S(=O)(=O)[O-])ccc5F)c5ccc2[nH]5)C=C4)C=C3)cc1
REMARK SMILES IDX 23 1 22 2 21 3 20 4 18 5 19 6 3 8 2 9 1 10 4 11 5 12 6 13
REMARK SMILES IDX 7 15 8 16 17 17 9 18 15 19 10 21 14 22 16 23 11 24 13 25
REMARK SMILES IDX 12 26 24 27 25 28 26 29 27 31 28 32 29 33 90 34 30 35 89 36
REMARK SMILES IDX 31 37 32 38 33 39 83 40 34 41 88 42 82 43 84 44 35 45 87 46
REMARK SMILES IDX 81 47 80 48 36 50 68 51 48 52 67 53 49 54 52 55 66 56 85 57
REMARK SMILES IDX 50 58 51 59 65 61 86 62 53 63 37 64 38 65 46 66 39 67 45 68
REMARK SMILES IDX 47 69 44 70 40 71 41 72 42 73 43 74 69 75 70 76 78 77 71 78
REMARK SMILES IDX 77 79 79 80 76 81 72 82 73 83 74 84 75 85 54 86 55 87 63 88
REMARK SMILES IDX 56 89 62 90 64 91 61 92 57 93 58 94 59 95 60 96
REMARK H PARENT 20 7 6 14 17 20 25 30 84 49 52 60
REMARK Flexibility Score: inf
ROOT
ATOM      1  C   UNL A   1      31.761  31.650  27.072  1.00  0.00     0.023 C 
ENDROOT
BRANCH   1   2
ATOM      2  C   UNL A   1      31.768  30.651  25.927  1.00  0.00     0.023 C 
BRANCH   2   3
ATOM      3  C   UNL A   1      32.907  29.634  25.952  1.00  0.00     0.116 C 
BRANCH   3   4
ATOM      4  N   UNL A   1      33.554  29.360  24.673  1.00  0.00    -0.354 N 
ATOM      5  C   UNL A   1      33.413  28.307  23.800  1.00  0.00     0.245 C 
ATOM      6  O   UNL A   1      34.095  28.348  22.773  1.00  0.00    -0.272 OA
ATOM      7  H   UNL A   1      34.200  30.045  24.386  1.00  0.00     0.163 HD
BRANCH   5   8
ATOM      8  C   UNL A   1      32.507  27.085  24.152  1.00  0.00     0.117 C 
BRANCH   8   9
ATOM      9  C   UNL A   1      30.985  27.431  24.102  1.00  0.00     0.035 C 
ATOM     10  C   UNL A   1      30.508  28.368  22.996  1.00  0.00     0.007 C 
ENDBRANCH   8   9
BRANCH   8  11
ATOM     11  C   UNL A   1      32.913  26.674  25.605  1.00  0.00     0.035 C 
ATOM     12  C   UNL A   1      31.844  26.063  26.493  1.00  0.00     0.007 C 
ENDBRANCH   8  11
BRANCH   8  13
ATOM     13  N   UNL A   1      32.681  25.985  23.148  1.00  0.00    -0.357 N 
ATOM     14  H   UNL A   1      32.353  26.196  22.244  1.00  0.00     0.163 HD
BRANCH  13  15
ATOM     15  C   UNL A   1      33.236  24.707  23.288  1.00  0.00     0.107 A 
ATOM     16  C   UNL A   1      32.456  23.630  23.532  1.00  0.00     0.053 A 
ATOM     17  N   UNL A   1      34.592  24.485  23.270  1.00  0.00    -0.308 N 
ATOM     18  C   UNL A   1      33.040  22.318  23.882  1.00  0.00    -0.009 A 
ATOM     19  C   UNL A   1      35.251  23.359  23.691  1.00  0.00     0.257 A 
ATOM     20  H   UNL A   1      35.151  25.213  22.913  1.00  0.00     0.171 HD
ATOM     21  C   UNL A   1      32.263  21.175  24.092  1.00  0.00     0.009 A 
ATOM     22  C   UNL A   1      34.417  22.224  24.102  1.00  0.00     0.047 A 
ATOM     23  O   UNL A   1      36.478  23.304  23.737  1.00  0.00    -0.269 OA
ATOM     24  C   UNL A   1      32.851  20.000  24.586  1.00  0.00     0.001 A 
ATOM     25  C   UNL A   1      35.002  21.080  24.653  1.00  0.00     0.014 A 
ATOM     26  C   UNL A   1      34.210  19.966  24.906  1.00  0.00     0.001 A 
ENDBRANCH  13  15
ENDBRANCH   8  13
ENDBRANCH   5   8
ENDBRANCH   3   4
ENDBRANCH   2   3
ENDBRANCH   1   2
BRANCH   1  27
ATOM     27  C   UNL A   1      33.028  32.478  27.164  1.00  0.00     0.116 C 
BRANCH  27  28
ATOM     28  N   UNL A   1      32.754  33.851  27.562  1.00  0.00    -0.352 N 
ATOM     29  C   UNL A   1      33.225  34.550  28.647  1.00  0.00     0.251 C 
ATOM     30  H   UNL A   1      32.145  34.349  26.971  1.00  0.00     0.163 HD
ATOM     31  O   UNL A   1      32.693  35.608  28.966  1.00  0.00    -0.269 OA
BRANCH  29  32
ATOM     32  C   UNL A   1      34.357  34.006  29.428  1.00  0.00     0.039 A 
ATOM     33  C   UNL A   1      34.103  33.105  30.463  1.00  0.00     0.014 A 
ATOM     34  C   UNL A   1      35.669  34.380  29.128  1.00  0.00     0.014 A 
ATOM     35  C   UNL A   1      35.173  32.537  31.157  1.00  0.00     0.010 A 
ATOM     36  C   UNL A   1      36.731  33.726  29.737  1.00  0.00     0.010 A 
ATOM     37  C   UNL A   1      36.497  32.815  30.775  1.00  0.00    -0.014 A 
BRANCH  37  38
ATOM     38  C   UNL A   1      37.652  32.202  31.478  1.00  0.00     0.031 A 
ATOM     39  C   UNL A   1      38.411  31.078  30.823  1.00  0.00     0.074 A 
ATOM     40  C   UNL A   1      37.980  32.617  32.718  1.00  0.00     0.049 A 
ATOM     41  N   UNL A   1      39.396  30.358  31.293  1.00  0.00    -0.248 NA
ATOM     42  C   UNL A   1      37.979  30.688  29.470  1.00  0.00     0.031 C 
ATOM     43  C   UNL A   1      37.286  33.664  33.470  1.00  0.00     0.029 A 
ATOM     44  N   UNL A   1      38.977  32.207  33.566  1.00  0.00    -0.354 N 
ATOM     45  C   UNL A   1      39.691  29.427  30.301  1.00  0.00     0.074 A 
ATOM     46  C   UNL A   1      38.727  29.621  29.242  1.00  0.00     0.031 C 
ATOM     47  C   UNL A   1      37.899  33.838  34.651  1.00  0.00     0.029 A 
ATOM     48  C   UNL A   1      38.993  32.880  34.766  1.00  0.00     0.049 A 
ATOM     49  H   UNL A   1      39.621  31.498  33.338  1.00  0.00     0.167 HD
ATOM     50  C   UNL A   1      40.694  28.516  30.265  1.00  0.00     0.034 A 
ATOM     51  C   UNL A   1      39.789  32.728  35.844  1.00  0.00     0.034 A 
ATOM     52  C   UNL A   1      41.652  28.347  31.329  1.00  0.00     0.049 A 
ATOM     53  C   UNL A   1      40.878  31.686  35.795  1.00  0.00     0.074 A 
ATOM     54  C   UNL A   1      42.735  27.488  31.385  1.00  0.00     0.029 A 
ATOM     55  N   UNL A   1      41.636  29.045  32.531  1.00  0.00    -0.354 N 
ATOM     56  N   UNL A   1      41.176  30.846  34.828  1.00  0.00    -0.248 NA
ATOM     57  C   UNL A   1      41.745  31.578  36.974  1.00  0.00     0.031 C 
ATOM     58  C   UNL A   1      43.326  27.612  32.646  1.00  0.00     0.029 A 
ATOM     59  C   UNL A   1      42.670  28.613  33.346  1.00  0.00     0.049 A 
ATOM     60  H   UNL A   1      40.984  29.744  32.769  1.00  0.00     0.167 HD
ATOM     61  C   UNL A   1      42.287  30.134  35.274  1.00  0.00     0.074 A 
ATOM     62  C   UNL A   1      42.614  30.656  36.585  1.00  0.00     0.031 C 
ATOM     63  C   UNL A   1      42.977  29.141  34.656  1.00  0.00     0.034 A 
BRANCH  50  64
ATOM     64  C   UNL A   1      40.784  27.629  29.044  1.00  0.00     0.023 A 
ATOM     65  C   UNL A   1      41.740  27.853  28.036  1.00  0.00     0.031 A 
ATOM     66  C   UNL A   1      39.884  26.564  28.867  1.00  0.00     0.131 A 
ATOM     67  C   UNL A   1      41.722  27.080  26.866  1.00  0.00     0.055 A 
ATOM     68  C   UNL A   1      39.930  25.739  27.741  1.00  0.00     0.041 A 
ATOM     69  F   UNL A   1      38.933  26.313  29.781  1.00  0.00    -0.206 F 
ATOM     70  C   UNL A   1      40.842  26.005  26.724  1.00  0.00     0.022 A 
BRANCH  67  71
ATOM     71  S   UNL A   1      42.758  27.599  25.470  1.00  0.00     0.124 S 
ATOM     72  O   UNL A   1      42.025  28.762  24.976  1.00  0.00    -0.237 OA
ATOM     73  O   UNL A   1      44.037  27.874  26.112  1.00  0.00    -0.237 OA
ATOM     74  O   UNL A   1      42.742  26.438  24.582  1.00  0.00    -0.744 OA
ENDBRANCH  67  71
ENDBRANCH  50  64
BRANCH  51  75
ATOM     75  C   UNL A   1      39.584  33.567  37.061  1.00  0.00     0.023 A 
ATOM     76  C   UNL A   1      39.028  33.027  38.231  1.00  0.00     0.031 A 
ATOM     77  C   UNL A   1      39.901  34.937  37.057  1.00  0.00     0.131 A 
ATOM     78  C   UNL A   1      38.758  33.860  39.329  1.00  0.00     0.055 A 
ATOM     79  C   UNL A   1      39.688  35.749  38.172  1.00  0.00     0.041 A 
ATOM     80  F   UNL A   1      40.435  35.507  35.965  1.00  0.00    -0.206 F 
ATOM     81  C   UNL A   1      39.099  35.213  39.313  1.00  0.00     0.022 A 
BRANCH  78  82
ATOM     82  S   UNL A   1      37.858  33.169  40.744  1.00  0.00     0.124 S 
ATOM     83  O   UNL A   1      36.500  33.080  40.218  1.00  0.00    -0.237 OA
ATOM     84  O   UNL A   1      38.549  31.901  40.954  1.00  0.00    -0.237 OA
ATOM     85  O   UNL A   1      38.057  34.165  41.794  1.00  0.00    -0.744 OA
ENDBRANCH  78  82
ENDBRANCH  51  75
BRANCH  63  86
ATOM     86  C   UNL A   1      44.186  28.592  35.375  1.00  0.00     0.023 A 
ATOM     87  C   UNL A   1      44.084  27.548  36.310  1.00  0.00     0.031 A 
ATOM     88  C   UNL A   1      45.460  29.131  35.122  1.00  0.00     0.131 A 
ATOM     89  C   UNL A   1      45.225  27.118  37.002  1.00  0.00     0.055 A 
ATOM     90  C   UNL A   1      46.603  28.650  35.761  1.00  0.00     0.041 A 
ATOM     91  F   UNL A   1      45.617  30.133  34.243  1.00  0.00    -0.206 F 
ATOM     92  C   UNL A   1      46.487  27.647  36.719  1.00  0.00     0.022 A 
BRANCH  89  93
ATOM     93  S   UNL A   1      45.025  25.927  38.356  1.00  0.00     0.124 S 
ATOM     94  O   UNL A   1      46.391  25.802  38.853  1.00  0.00    -0.237 OA
ATOM     95  O   UNL A   1      44.086  26.612  39.238  1.00  0.00    -0.237 OA
ATOM     96  O   UNL A   1      44.495  24.738  37.691  1.00  0.00    -0.744 OA
ENDBRANCH  89  93
ENDBRANCH  63  86
ENDBRANCH  37  38
ENDBRANCH  29  32
ENDBRANCH  27  28
ENDBRANCH   1  27
TORSDOF 18
ENDMDL
