MODEL 1
REMARK VINA RESULT:     -12.8      0.000      0.000
REMARK SMILES Cc1cc(C(=O)NCCCCNC(=O)c2ccc(-c3c4nc(c(-c5cc(S(=O)(=O)[O-])ccc5F)c5ccc([nH]5)c(-c5cc(S(=O)(=O)[O-])ccc5F)c5nc(c(-c6cc(S(=O)(=O)[O-])ccc6F)c6ccc3[nH]6)C=C5)C=C4)cc2)c(C)n1[C@@H]1C[N@H+]2CC[C@@H]1CC2
REMARK SMILES IDX 10 1 9 2 8 3 7 4 5 5 6 6 4 8 1 9 2 10 3 11 80 12 78 13 79 14
REMARK SMILES IDX 81 15 82 16 86 17 83 18 87 19 85 20 88 21 84 22 11 24 12 25
REMARK SMILES IDX 13 26 14 28 15 29 16 30 77 31 17 32 76 33 18 34 19 35 20 36
REMARK SMILES IDX 70 37 21 38 75 39 69 40 71 41 22 42 74 43 68 44 67 45 23 47
REMARK SMILES IDX 55 48 35 49 54 50 36 51 39 52 53 53 72 54 37 55 38 56 52 58
REMARK SMILES IDX 73 59 40 60 24 61 25 62 33 63 26 64 32 65 34 66 31 67 27 68
REMARK SMILES IDX 28 69 29 70 30 71 56 72 57 73 65 74 58 75 64 76 66 77 63 78
REMARK SMILES IDX 59 79 60 80 61 81 62 82 41 83 42 84 50 85 43 86 49 87 51 88
REMARK SMILES IDX 48 89 44 90 45 91 46 92 47 93
REMARK H PARENT 7 7 83 23 12 27 71 46 39 57
REMARK Flexibility Score: inf
ROOT
ATOM      1  C   UNL A   1      33.914  28.480  25.979  1.00  0.00     0.023 C 
ENDROOT
BRANCH   1   2
ATOM      2  C   UNL A   1      33.210  29.389  24.951  1.00  0.00     0.023 C 
BRANCH   2   3
ATOM      3  C   UNL A   1      31.688  29.463  25.064  1.00  0.00     0.116 C 
BRANCH   3   4
ATOM      4  N   UNL A   1      31.038  29.048  23.829  1.00  0.00    -0.352 N 
ATOM      5  C   UNL A   1      30.869  27.835  23.208  1.00  0.00     0.253 C 
ATOM      6  O   UNL A   1      30.157  27.834  22.199  1.00  0.00    -0.269 OA
ATOM      7  H   UNL A   1      30.635  29.796  23.333  1.00  0.00     0.163 HD
BRANCH   5   8
ATOM      8  C   UNL A   1      31.457  26.604  23.746  1.00  0.00     0.060 A 
ATOM      9  C   UNL A   1      31.133  23.252  25.172  1.00  0.00     0.064 C 
ATOM     10  C   UNL A   1      31.654  24.546  24.658  1.00  0.00     0.016 A 
ATOM     11  C   UNL A   1      30.960  25.736  24.738  1.00  0.00     0.037 A 
ATOM     12  N   UNL A   1      32.831  24.801  23.970  1.00  0.00    -0.339 N 
ATOM     13  C   UNL A   1      32.693  26.060  23.367  1.00  0.00     0.028 A 
ATOM     14  C   UNL A   1      33.680  26.696  22.431  1.00  0.00     0.065 C 
BRANCH  12  15
ATOM     15  C   UNL A   1      34.028  23.957  23.871  1.00  0.00     0.145 C 
ATOM     16  C   UNL A   1      33.819  22.434  23.695  1.00  0.00     0.288 C 
ATOM     17  C   UNL A   1      35.113  24.191  24.963  1.00  0.00     0.029 C 
ATOM     18  N   UNL A   1      34.731  21.639  24.566  1.00  0.00    -0.333 N 
ATOM     19  C   UNL A   1      36.406  23.497  24.471  1.00  0.00     0.067 C 
ATOM     20  C   UNL A   1      34.757  23.469  26.270  1.00  0.00     0.067 C 
ATOM     21  C   UNL A   1      36.133  21.995  24.258  1.00  0.00     0.262 C 
ATOM     22  C   UNL A   1      34.458  21.987  25.977  1.00  0.00     0.262 C 
ATOM     23  H   UNL A   1      34.581  20.642  24.405  1.00  0.00     0.348 HD
ENDBRANCH  12  15
ENDBRANCH   5   8
ENDBRANCH   3   4
ENDBRANCH   2   3
ENDBRANCH   1   2
BRANCH   1  24
ATOM     24  C   UNL A   1      34.103  28.996  27.419  1.00  0.00     0.116 C 
BRANCH  24  25
ATOM     25  N   UNL A   1      34.207  30.426  27.560  1.00  0.00    -0.352 N 
ATOM     26  C   UNL A   1      35.323  31.153  27.954  1.00  0.00     0.251 C 
ATOM     27  H   UNL A   1      33.397  30.946  27.354  1.00  0.00     0.163 HD
ATOM     28  O   UNL A   1      35.180  32.363  28.114  1.00  0.00    -0.269 OA
BRANCH  26  29
ATOM     29  C   UNL A   1      36.645  30.486  28.273  1.00  0.00     0.039 A 
ATOM     30  C   UNL A   1      37.447  30.082  27.224  1.00  0.00     0.014 A 
ATOM     31  C   UNL A   1      37.045  30.053  29.554  1.00  0.00     0.014 A 
ATOM     32  C   UNL A   1      38.635  29.328  27.470  1.00  0.00     0.010 A 
ATOM     33  C   UNL A   1      38.218  29.195  29.786  1.00  0.00     0.010 A 
ATOM     34  C   UNL A   1      39.063  28.771  28.743  1.00  0.00    -0.014 A 
BRANCH  34  35
ATOM     35  C   UNL A   1      40.073  27.458  28.662  1.00  0.00     0.031 A 
ATOM     36  C   UNL A   1      41.037  27.776  29.755  1.00  0.00     0.074 A 
ATOM     37  C   UNL A   1      40.462  26.313  27.940  1.00  0.00     0.049 A 
ATOM     38  N   UNL A   1      41.658  28.921  29.719  1.00  0.00    -0.248 NA
ATOM     39  C   UNL A   1      41.013  27.139  31.073  1.00  0.00     0.031 C 
ATOM     40  C   UNL A   1      39.970  25.839  26.634  1.00  0.00     0.029 A 
ATOM     41  N   UNL A   1      41.430  25.266  28.202  1.00  0.00    -0.354 N 
ATOM     42  C   UNL A   1      42.369  29.017  30.884  1.00  0.00     0.074 A 
ATOM     43  C   UNL A   1      41.745  28.028  31.758  1.00  0.00     0.031 C 
ATOM     44  C   UNL A   1      40.474  24.608  26.304  1.00  0.00     0.029 A 
ATOM     45  C   UNL A   1      41.417  24.111  27.313  1.00  0.00     0.049 A 
ATOM     46  H   UNL A   1      42.069  25.331  28.949  1.00  0.00     0.167 HD
ATOM     47  C   UNL A   1      43.694  29.299  30.722  1.00  0.00     0.034 A 
ATOM     48  C   UNL A   1      42.144  22.904  27.318  1.00  0.00     0.034 A 
ATOM     49  C   UNL A   1      44.492  28.106  30.818  1.00  0.00     0.049 A 
ATOM     50  C   UNL A   1      43.423  23.200  27.957  1.00  0.00     0.074 A 
ATOM     51  C   UNL A   1      44.471  27.032  31.685  1.00  0.00     0.029 A 
ATOM     52  N   UNL A   1      45.109  27.670  29.664  1.00  0.00    -0.354 N 
ATOM     53  N   UNL A   1      44.371  23.803  27.314  1.00  0.00    -0.248 NA
ATOM     54  C   UNL A   1      43.759  22.743  29.298  1.00  0.00     0.031 C 
ATOM     55  C   UNL A   1      44.581  25.901  30.848  1.00  0.00     0.029 A 
ATOM     56  C   UNL A   1      45.069  26.293  29.606  1.00  0.00     0.049 A 
ATOM     57  H   UNL A   1      45.516  28.255  28.984  1.00  0.00     0.167 HD
ATOM     58  C   UNL A   1      45.144  24.287  28.319  1.00  0.00     0.074 A 
ATOM     59  C   UNL A   1      44.925  23.379  29.433  1.00  0.00     0.031 C 
ATOM     60  C   UNL A   1      45.317  25.634  28.338  1.00  0.00     0.034 A 
BRANCH  47  61
ATOM     61  C   UNL A   1      43.937  30.423  29.741  1.00  0.00     0.023 A 
ATOM     62  C   UNL A   1      44.951  30.289  28.788  1.00  0.00     0.031 A 
ATOM     63  C   UNL A   1      43.300  31.682  29.847  1.00  0.00     0.131 A 
ATOM     64  C   UNL A   1      45.349  31.401  28.028  1.00  0.00     0.055 A 
ATOM     65  C   UNL A   1      43.741  32.800  29.142  1.00  0.00     0.041 A 
ATOM     66  F   UNL A   1      42.244  31.851  30.660  1.00  0.00    -0.206 F 
ATOM     67  C   UNL A   1      44.782  32.666  28.232  1.00  0.00     0.022 A 
BRANCH  64  68
ATOM     68  S   UNL A   1      46.599  31.184  26.735  1.00  0.00     0.124 S 
ATOM     69  O   UNL A   1      47.152  29.857  27.054  1.00  0.00    -0.237 OA
ATOM     70  O   UNL A   1      45.779  31.223  25.513  1.00  0.00    -0.237 OA
ATOM     71  O   UNL A   1      47.497  32.293  26.909  1.00  0.00    -0.744 OA
ENDBRANCH  64  68
ENDBRANCH  47  61
BRANCH  48  72
ATOM     72  C   UNL A   1      42.243  21.435  26.744  1.00  0.00     0.023 A 
ATOM     73  C   UNL A   1      43.262  21.032  25.775  1.00  0.00     0.031 A 
ATOM     74  C   UNL A   1      41.653  20.358  27.416  1.00  0.00     0.131 A 
ATOM     75  C   UNL A   1      43.665  19.674  25.573  1.00  0.00     0.055 A 
ATOM     76  C   UNL A   1      42.046  19.009  27.200  1.00  0.00     0.041 A 
ATOM     77  F   UNL A   1      40.753  20.579  28.384  1.00  0.00    -0.206 F 
ATOM     78  C   UNL A   1      43.058  18.664  26.303  1.00  0.00     0.022 A 
BRANCH  75  79
ATOM     79  S   UNL A   1      45.115  19.196  24.519  1.00  0.00     0.124 S 
ATOM     80  O   UNL A   1      44.506  18.923  23.224  1.00  0.00    -0.237 OA
ATOM     81  O   UNL A   1      45.981  20.368  24.600  1.00  0.00    -0.237 OA
ATOM     82  O   UNL A   1      45.654  18.012  25.195  1.00  0.00    -0.744 OA
ENDBRANCH  75  79
ENDBRANCH  48  72
BRANCH  60  83
ATOM     83  C   UNL A   1      45.550  26.336  26.993  1.00  0.00     0.023 A 
ATOM     84  C   UNL A   1      46.702  26.223  26.163  1.00  0.00     0.031 A 
ATOM     85  C   UNL A   1      44.569  27.241  26.556  1.00  0.00     0.131 A 
ATOM     86  C   UNL A   1      46.849  27.008  24.999  1.00  0.00     0.055 A 
ATOM     87  C   UNL A   1      44.688  27.979  25.375  1.00  0.00     0.041 A 
ATOM     88  F   UNL A   1      43.456  27.433  27.281  1.00  0.00    -0.206 F 
ATOM     89  C   UNL A   1      45.837  27.878  24.600  1.00  0.00     0.022 A 
BRANCH  86  90
ATOM     90  S   UNL A   1      48.402  26.965  24.037  1.00  0.00     0.124 S 
ATOM     91  O   UNL A   1      49.437  27.006  25.062  1.00  0.00    -0.237 OA
ATOM     92  O   UNL A   1      48.288  25.712  23.297  1.00  0.00    -0.237 OA
ATOM     93  O   UNL A   1      48.322  28.171  23.209  1.00  0.00    -0.744 OA
ENDBRANCH  86  90
ENDBRANCH  60  83
ENDBRANCH  34  35
ENDBRANCH  26  29
ENDBRANCH  24  25
ENDBRANCH   1  24
TORSDOF 15
ENDMDL
MODEL 2
REMARK VINA RESULT:     -12.1      4.878     10.672
REMARK SMILES Cc1cc(C(=O)NCCCCNC(=O)c2ccc(-c3c4nc(c(-c5cc(S(=O)(=O)[O-])ccc5F)c5ccc([nH]5)c(-c5cc(S(=O)(=O)[O-])ccc5F)c5nc(c(-c6cc(S(=O)(=O)[O-])ccc6F)c6ccc3[nH]6)C=C5)C=C4)cc2)c(C)n1[C@@H]1C[N@H+]2CC[C@@H]1CC2
REMARK SMILES IDX 10 1 9 2 8 3 7 4 5 5 6 6 4 8 1 9 2 10 3 11 80 12 78 13 79 14
REMARK SMILES IDX 81 15 82 16 86 17 83 18 87 19 85 20 88 21 84 22 11 24 12 25
REMARK SMILES IDX 13 26 14 28 15 29 16 30 77 31 17 32 76 33 18 34 19 35 20 36
REMARK SMILES IDX 70 37 21 38 75 39 69 40 71 41 22 42 74 43 68 44 67 45 23 47
REMARK SMILES IDX 55 48 35 49 54 50 36 51 39 52 53 53 72 54 37 55 38 56 52 58
REMARK SMILES IDX 73 59 40 60 24 61 25 62 33 63 26 64 32 65 34 66 31 67 27 68
REMARK SMILES IDX 28 69 29 70 30 71 56 72 57 73 65 74 58 75 64 76 66 77 63 78
REMARK SMILES IDX 59 79 60 80 61 81 62 82 41 83 42 84 50 85 43 86 49 87 51 88
REMARK SMILES IDX 48 89 44 90 45 91 46 92 47 93
REMARK H PARENT 7 7 83 23 12 27 71 46 39 57
REMARK Flexibility Score: inf
ROOT
ATOM      1  C   UNL A   1      38.521  21.405  25.362  1.00  0.00     0.023 C 
ENDROOT
BRANCH   1   2
ATOM      2  C   UNL A   1      37.199  22.121  25.016  1.00  0.00     0.023 C 
BRANCH   2   3
ATOM      3  C   UNL A   1      36.036  21.861  25.972  1.00  0.00     0.116 C 
BRANCH   3   4
ATOM      4  N   UNL A   1      34.873  21.334  25.271  1.00  0.00    -0.352 N 
ATOM      5  C   UNL A   1      33.838  21.916  24.582  1.00  0.00     0.253 C 
ATOM      6  O   UNL A   1      33.063  21.143  24.010  1.00  0.00    -0.269 OA
ATOM      7  H   UNL A   1      34.818  20.352  25.297  1.00  0.00     0.163 HD
BRANCH   5   8
ATOM      8  C   UNL A   1      33.696  23.373  24.487  1.00  0.00     0.060 A 
ATOM      9  C   UNL A   1      33.448  26.448  22.526  1.00  0.00     0.064 C 
ATOM     10  C   UNL A   1      33.541  25.457  23.629  1.00  0.00     0.016 A 
ATOM     11  C   UNL A   1      34.220  24.260  23.526  1.00  0.00     0.037 A 
ATOM     12  N   UNL A   1      32.945  25.486  24.881  1.00  0.00    -0.339 N 
ATOM     13  C   UNL A   1      33.002  24.182  25.396  1.00  0.00     0.028 A 
ATOM     14  C   UNL A   1      32.378  23.720  26.682  1.00  0.00     0.065 C 
BRANCH  12  15
ATOM     15  C   UNL A   1      32.363  26.635  25.584  1.00  0.00     0.145 C 
ATOM     16  C   UNL A   1      31.478  27.605  24.765  1.00  0.00     0.288 C 
ATOM     17  C   UNL A   1      33.351  27.469  26.451  1.00  0.00     0.029 C 
ATOM     18  N   UNL A   1      31.782  29.033  25.068  1.00  0.00    -0.333 N 
ATOM     19  C   UNL A   1      32.495  28.369  27.375  1.00  0.00     0.067 C 
ATOM     20  C   UNL A   1      34.158  28.452  25.592  1.00  0.00     0.067 C 
ATOM     21  C   UNL A   1      31.593  29.276  26.515  1.00  0.00     0.262 C 
ATOM     22  C   UNL A   1      33.198  29.294  24.731  1.00  0.00     0.262 C 
ATOM     23  H   UNL A   1      31.166  29.640  24.528  1.00  0.00     0.348 HD
ENDBRANCH  12  15
ENDBRANCH   5   8
ENDBRANCH   3   4
ENDBRANCH   2   3
ENDBRANCH   1   2
BRANCH   1  24
ATOM     24  C   UNL A   1      39.427  22.006  26.453  1.00  0.00     0.116 C 
BRANCH  24  25
ATOM     25  N   UNL A   1      40.769  22.330  26.041  1.00  0.00    -0.352 N 
ATOM     26  C   UNL A   1      41.506  23.456  26.383  1.00  0.00     0.251 C 
ATOM     27  H   UNL A   1      41.214  21.679  25.450  1.00  0.00     0.163 HD
ATOM     28  O   UNL A   1      42.600  23.600  25.843  1.00  0.00    -0.269 OA
BRANCH  26  29
ATOM     29  C   UNL A   1      40.958  24.524  27.306  1.00  0.00     0.039 A 
ATOM     30  C   UNL A   1      39.743  25.102  26.994  1.00  0.00     0.014 A 
ATOM     31  C   UNL A   1      41.676  25.132  28.357  1.00  0.00     0.014 A 
ATOM     32  C   UNL A   1      39.251  26.206  27.756  1.00  0.00     0.010 A 
ATOM     33  C   UNL A   1      41.202  26.329  29.071  1.00  0.00     0.010 A 
ATOM     34  C   UNL A   1      39.967  26.939  28.786  1.00  0.00    -0.014 A 
BRANCH  34  35
ATOM     35  C   UNL A   1      39.466  28.498  29.054  1.00  0.00     0.031 A 
ATOM     36  C   UNL A   1      40.777  29.193  29.211  1.00  0.00     0.074 A 
ATOM     37  C   UNL A   1      38.384  29.358  29.324  1.00  0.00     0.049 A 
ATOM     38  N   UNL A   1      41.611  28.746  30.108  1.00  0.00    -0.248 NA
ATOM     39  C   UNL A   1      41.390  30.021  28.171  1.00  0.00     0.031 C 
ATOM     40  C   UNL A   1      36.973  29.011  29.569  1.00  0.00     0.029 A 
ATOM     41  N   UNL A   1      38.282  30.798  29.459  1.00  0.00    -0.354 N 
ATOM     42  C   UNL A   1      42.767  29.462  29.958  1.00  0.00     0.074 A 
ATOM     43  C   UNL A   1      42.651  30.038  28.622  1.00  0.00     0.031 C 
ATOM     44  C   UNL A   1      36.172  30.120  29.655  1.00  0.00     0.029 A 
ATOM     45  C   UNL A   1      36.941  31.365  29.539  1.00  0.00     0.049 A 
ATOM     46  H   UNL A   1      39.083  31.370  29.494  1.00  0.00     0.167 HD
ATOM     47  C   UNL A   1      43.229  30.044  31.103  1.00  0.00     0.034 A 
ATOM     48  C   UNL A   1      36.476  32.694  29.595  1.00  0.00     0.034 A 
ATOM     49  C   UNL A   1      42.862  31.434  31.160  1.00  0.00     0.049 A 
ATOM     50  C   UNL A   1      37.534  33.470  30.236  1.00  0.00     0.074 A 
ATOM     51  C   UNL A   1      42.885  32.448  30.223  1.00  0.00     0.029 A 
ATOM     52  N   UNL A   1      41.940  31.801  32.117  1.00  0.00    -0.354 N 
ATOM     53  N   UNL A   1      37.701  33.443  31.520  1.00  0.00    -0.248 NA
ATOM     54  C   UNL A   1      38.383  34.401  29.506  1.00  0.00     0.031 C 
ATOM     55  C   UNL A   1      41.636  33.090  30.369  1.00  0.00     0.029 A 
ATOM     56  C   UNL A   1      41.087  32.752  31.601  1.00  0.00     0.049 A 
ATOM     57  H   UNL A   1      41.898  31.437  33.031  1.00  0.00     0.167 HD
ATOM     58  C   UNL A   1      38.982  33.872  31.657  1.00  0.00     0.074 A 
ATOM     59  C   UNL A   1      39.223  34.714  30.496  1.00  0.00     0.031 C 
ATOM     60  C   UNL A   1      39.831  33.014  32.279  1.00  0.00     0.034 A 
BRANCH  47  61
ATOM     61  C   UNL A   1      43.221  29.100  32.283  1.00  0.00     0.023 A 
ATOM     62  C   UNL A   1      42.760  29.560  33.520  1.00  0.00     0.031 A 
ATOM     63  C   UNL A   1      43.816  27.817  32.242  1.00  0.00     0.131 A 
ATOM     64  C   UNL A   1      42.962  28.785  34.674  1.00  0.00     0.055 A 
ATOM     65  C   UNL A   1      44.077  27.081  33.395  1.00  0.00     0.041 A 
ATOM     66  F   UNL A   1      44.178  27.266  31.070  1.00  0.00    -0.206 F 
ATOM     67  C   UNL A   1      43.658  27.570  34.626  1.00  0.00     0.022 A 
BRANCH  64  68
ATOM     68  S   UNL A   1      42.276  29.356  36.251  1.00  0.00     0.124 S 
ATOM     69  O   UNL A   1      41.903  30.747  35.945  1.00  0.00    -0.237 OA
ATOM     70  O   UNL A   1      41.135  28.445  36.431  1.00  0.00    -0.237 OA
ATOM     71  O   UNL A   1      43.350  29.191  37.194  1.00  0.00    -0.744 OA
ENDBRANCH  64  68
ENDBRANCH  47  61
BRANCH  48  72
ATOM     72  C   UNL A   1      35.227  33.649  29.448  1.00  0.00     0.023 A 
ATOM     73  C   UNL A   1      34.535  34.229  30.600  1.00  0.00     0.031 A 
ATOM     74  C   UNL A   1      34.967  34.317  28.245  1.00  0.00     0.131 A 
ATOM     75  C   UNL A   1      33.722  35.403  30.521  1.00  0.00     0.055 A 
ATOM     76  C   UNL A   1      34.145  35.474  28.170  1.00  0.00     0.041 A 
ATOM     77  F   UNL A   1      35.587  33.941  27.118  1.00  0.00    -0.206 F 
ATOM     78  C   UNL A   1      33.541  36.031  29.298  1.00  0.00     0.022 A 
BRANCH  75  79
ATOM     79  S   UNL A   1      33.044  36.265  32.018  1.00  0.00     0.124 S 
ATOM     80  O   UNL A   1      31.667  36.553  31.638  1.00  0.00    -0.237 OA
ATOM     81  O   UNL A   1      33.237  35.282  33.080  1.00  0.00    -0.237 OA
ATOM     82  O   UNL A   1      33.897  37.451  32.146  1.00  0.00    -0.744 OA
ENDBRANCH  75  79
ENDBRANCH  48  72
BRANCH  60  83
ATOM     83  C   UNL A   1      39.302  32.263  33.509  1.00  0.00     0.023 A 
ATOM     84  C   UNL A   1      39.016  32.820  34.787  1.00  0.00     0.031 A 
ATOM     85  C   UNL A   1      39.147  30.871  33.400  1.00  0.00     0.131 A 
ATOM     86  C   UNL A   1      38.638  32.004  35.876  1.00  0.00     0.055 A 
ATOM     87  C   UNL A   1      38.722  30.069  34.462  1.00  0.00     0.041 A 
ATOM     88  F   UNL A   1      39.413  30.250  32.240  1.00  0.00    -0.206 F 
ATOM     89  C   UNL A   1      38.482  30.631  35.710  1.00  0.00     0.022 A 
BRANCH  86  90
ATOM     90  S   UNL A   1      38.432  32.718  37.546  1.00  0.00     0.124 S 
ATOM     91  O   UNL A   1      39.614  32.255  38.262  1.00  0.00    -0.237 OA
ATOM     92  O   UNL A   1      38.369  34.152  37.278  1.00  0.00    -0.237 OA
ATOM     93  O   UNL A   1      37.173  32.130  38.013  1.00  0.00    -0.744 OA
ENDBRANCH  86  90
ENDBRANCH  60  83
ENDBRANCH  34  35
ENDBRANCH  26  29
ENDBRANCH  24  25
ENDBRANCH   1  24
TORSDOF 15
ENDMDL
MODEL 3
REMARK VINA RESULT:     -11.6      2.435      3.338
REMARK SMILES Cc1cc(C(=O)NCCCCNC(=O)c2ccc(-c3c4nc(c(-c5cc(S(=O)(=O)[O-])ccc5F)c5ccc([nH]5)c(-c5cc(S(=O)(=O)[O-])ccc5F)c5nc(c(-c6cc(S(=O)(=O)[O-])ccc6F)c6ccc3[nH]6)C=C5)C=C4)cc2)c(C)n1[C@@H]1C[N@H+]2CC[C@@H]1CC2
REMARK SMILES IDX 10 1 9 2 8 3 7 4 5 5 6 6 4 8 1 9 2 10 3 11 80 12 78 13 79 14
REMARK SMILES IDX 81 15 82 16 86 17 83 18 87 19 85 20 88 21 84 22 11 24 12 25
REMARK SMILES IDX 13 26 14 28 15 29 16 30 77 31 17 32 76 33 18 34 19 35 20 36
REMARK SMILES IDX 70 37 21 38 75 39 69 40 71 41 22 42 74 43 68 44 67 45 23 47
REMARK SMILES IDX 55 48 35 49 54 50 36 51 39 52 53 53 72 54 37 55 38 56 52 58
REMARK SMILES IDX 73 59 40 60 24 61 25 62 33 63 26 64 32 65 34 66 31 67 27 68
REMARK SMILES IDX 28 69 29 70 30 71 56 72 57 73 65 74 58 75 64 76 66 77 63 78
REMARK SMILES IDX 59 79 60 80 61 81 62 82 41 83 42 84 50 85 43 86 49 87 51 88
REMARK SMILES IDX 48 89 44 90 45 91 46 92 47 93
REMARK H PARENT 7 7 83 23 12 27 71 46 39 57
REMARK Flexibility Score: inf
ROOT
ATOM      1  C   UNL A   1      32.101  28.548  26.517  1.00  0.00     0.023 C 
ENDROOT
BRANCH   1   2
ATOM      2  C   UNL A   1      31.822  27.074  26.876  1.00  0.00     0.023 C 
BRANCH   2   3
ATOM      3  C   UNL A   1      30.816  26.354  25.979  1.00  0.00     0.116 C 
BRANCH   3   4
ATOM      4  N   UNL A   1      30.215  25.213  26.655  1.00  0.00    -0.352 N 
ATOM      5  C   UNL A   1      30.414  23.857  26.585  1.00  0.00     0.253 C 
ATOM      6  O   UNL A   1      29.787  23.171  27.399  1.00  0.00    -0.269 OA
ATOM      7  H   UNL A   1      29.517  25.469  27.300  1.00  0.00     0.163 HD
BRANCH   5   8
ATOM      8  C   UNL A   1      31.359  23.264  25.633  1.00  0.00     0.060 A 
ATOM      9  C   UNL A   1      32.613  22.792  22.231  1.00  0.00     0.064 C 
ATOM     10  C   UNL A   1      32.389  22.716  23.698  1.00  0.00     0.016 A 
ATOM     11  C   UNL A   1      31.155  22.880  24.293  1.00  0.00     0.037 A 
ATOM     12  N   UNL A   1      33.318  22.551  24.715  1.00  0.00    -0.339 N 
ATOM     13  C   UNL A   1      32.693  22.933  25.912  1.00  0.00     0.028 A 
ATOM     14  C   UNL A   1      33.355  23.022  27.257  1.00  0.00     0.065 C 
BRANCH  12  15
ATOM     15  C   UNL A   1      34.698  22.062  24.616  1.00  0.00     0.145 C 
ATOM     16  C   UNL A   1      35.331  21.438  25.883  1.00  0.00     0.288 C 
ATOM     17  C   UNL A   1      35.720  23.047  23.978  1.00  0.00     0.029 C 
ATOM     18  N   UNL A   1      36.729  21.910  26.101  1.00  0.00    -0.333 N 
ATOM     19  C   UNL A   1      36.985  22.226  23.631  1.00  0.00     0.067 C 
ATOM     20  C   UNL A   1      36.203  24.091  24.996  1.00  0.00     0.067 C 
ATOM     21  C   UNL A   1      37.546  21.581  24.913  1.00  0.00     0.262 C 
ATOM     22  C   UNL A   1      36.710  23.379  26.264  1.00  0.00     0.262 C 
ATOM     23  H   UNL A   1      37.120  21.461  26.930  1.00  0.00     0.348 HD
ENDBRANCH  12  15
ENDBRANCH   5   8
ENDBRANCH   3   4
ENDBRANCH   2   3
ENDBRANCH   1   2
BRANCH   1  24
ATOM     24  C   UNL A   1      33.358  29.227  27.095  1.00  0.00     0.116 C 
BRANCH  24  25
ATOM     25  N   UNL A   1      33.267  30.653  27.279  1.00  0.00    -0.352 N 
ATOM     26  C   UNL A   1      34.178  31.478  27.926  1.00  0.00     0.251 C 
ATOM     27  H   UNL A   1      32.469  31.093  26.903  1.00  0.00     0.163 HD
ATOM     28  O   UNL A   1      33.868  32.658  28.069  1.00  0.00    -0.269 OA
BRANCH  26  29
ATOM     29  C   UNL A   1      35.462  30.942  28.525  1.00  0.00     0.039 A 
ATOM     30  C   UNL A   1      36.627  31.061  27.794  1.00  0.00     0.014 A 
ATOM     31  C   UNL A   1      35.543  30.143  29.684  1.00  0.00     0.014 A 
ATOM     32  C   UNL A   1      37.835  30.452  28.253  1.00  0.00     0.010 A 
ATOM     33  C   UNL A   1      36.769  29.440  30.095  1.00  0.00     0.010 A 
ATOM     34  C   UNL A   1      37.976  29.546  29.380  1.00  0.00    -0.014 A 
BRANCH  34  35
ATOM     35  C   UNL A   1      39.272  28.511  29.327  1.00  0.00     0.031 A 
ATOM     36  C   UNL A   1      39.882  28.753  30.667  1.00  0.00     0.074 A 
ATOM     37  C   UNL A   1      40.069  27.662  28.535  1.00  0.00     0.049 A 
ATOM     38  N   UNL A   1      40.197  29.975  30.992  1.00  0.00    -0.248 NA
ATOM     39  C   UNL A   1      39.744  27.838  31.801  1.00  0.00     0.031 C 
ATOM     40  C   UNL A   1      39.989  27.413  27.085  1.00  0.00     0.029 A 
ATOM     41  N   UNL A   1      41.189  26.794  28.845  1.00  0.00    -0.354 N 
ATOM     42  C   UNL A   1      40.607  29.938  32.297  1.00  0.00     0.074 A 
ATOM     43  C   UNL A   1      40.077  28.672  32.795  1.00  0.00     0.031 C 
ATOM     44  C   UNL A   1      40.836  26.414  26.681  1.00  0.00     0.029 A 
ATOM     45  C   UNL A   1      41.643  25.894  27.791  1.00  0.00     0.049 A 
ATOM     46  H   UNL A   1      41.624  26.810  29.728  1.00  0.00     0.167 HD
ATOM     47  C   UNL A   1      41.827  30.505  32.527  1.00  0.00     0.034 A 
ATOM     48  C   UNL A   1      42.627  24.886  27.766  1.00  0.00     0.034 A 
ATOM     49  C   UNL A   1      42.855  29.502  32.609  1.00  0.00     0.049 A 
ATOM     50  C   UNL A   1      43.634  25.272  28.750  1.00  0.00     0.074 A 
ATOM     51  C   UNL A   1      42.919  28.275  33.239  1.00  0.00     0.029 A 
ATOM     52  N   UNL A   1      43.784  29.473  31.591  1.00  0.00    -0.354 N 
ATOM     53  N   UNL A   1      44.517  26.181  28.484  1.00  0.00    -0.248 NA
ATOM     54  C   UNL A   1      43.788  24.594  30.030  1.00  0.00     0.031 C 
ATOM     55  C   UNL A   1      43.473  27.411  32.270  1.00  0.00     0.029 A 
ATOM     56  C   UNL A   1      44.096  28.166  31.282  1.00  0.00     0.049 A 
ATOM     57  H   UNL A   1      44.167  30.266  31.151  1.00  0.00     0.167 HD
ATOM     58  C   UNL A   1      44.924  26.564  29.721  1.00  0.00     0.074 A 
ATOM     59  C   UNL A   1      44.709  25.399  30.565  1.00  0.00     0.031 C 
ATOM     60  C   UNL A   1      44.754  27.877  30.021  1.00  0.00     0.034 A 
BRANCH  47  61
ATOM     61  C   UNL A   1      41.983  31.849  31.855  1.00  0.00     0.023 A 
ATOM     62  C   UNL A   1      43.155  32.122  31.143  1.00  0.00     0.031 A 
ATOM     63  C   UNL A   1      41.073  32.914  32.051  1.00  0.00     0.131 A 
ATOM     64  C   UNL A   1      43.424  33.432  30.714  1.00  0.00     0.055 A 
ATOM     65  C   UNL A   1      41.373  34.225  31.686  1.00  0.00     0.041 A 
ATOM     66  F   UNL A   1      39.878  32.699  32.627  1.00  0.00    -0.206 F 
ATOM     67  C   UNL A   1      42.563  34.493  31.021  1.00  0.00     0.022 A 
BRANCH  64  68
ATOM     68  S   UNL A   1      44.902  33.747  29.713  1.00  0.00     0.124 S 
ATOM     69  O   UNL A   1      44.347  33.825  28.352  1.00  0.00    -0.237 OA
ATOM     70  O   UNL A   1      45.365  35.034  30.256  1.00  0.00    -0.237 OA
ATOM     71  O   UNL A   1      45.761  32.624  29.974  1.00  0.00    -0.744 OA
ENDBRANCH  64  68
ENDBRANCH  47  61
BRANCH  48  72
ATOM     72  C   UNL A   1      43.198  23.637  26.986  1.00  0.00     0.023 A 
ATOM     73  C   UNL A   1      42.691  22.278  27.188  1.00  0.00     0.031 A 
ATOM     74  C   UNL A   1      43.907  23.796  25.789  1.00  0.00     0.131 A 
ATOM     75  C   UNL A   1      42.848  21.228  26.230  1.00  0.00     0.055 A 
ATOM     76  C   UNL A   1      44.073  22.744  24.847  1.00  0.00     0.041 A 
ATOM     77  F   UNL A   1      44.369  25.004  25.435  1.00  0.00    -0.206 F 
ATOM     78  C   UNL A   1      43.533  21.473  25.049  1.00  0.00     0.022 A 
BRANCH  75  79
ATOM     79  S   UNL A   1      42.005  19.583  26.387  1.00  0.00     0.124 S 
ATOM     80  O   UNL A   1      42.728  18.749  25.436  1.00  0.00    -0.237 OA
ATOM     81  O   UNL A   1      42.172  19.261  27.800  1.00  0.00    -0.237 OA
ATOM     82  O   UNL A   1      40.618  19.871  26.004  1.00  0.00    -0.744 OA
ENDBRANCH  75  79
ENDBRANCH  48  72
BRANCH  60  83
ATOM     83  C   UNL A   1      45.080  28.901  28.925  1.00  0.00     0.023 A 
ATOM     84  C   UNL A   1      46.376  29.340  28.531  1.00  0.00     0.031 A 
ATOM     85  C   UNL A   1      44.000  29.532  28.286  1.00  0.00     0.131 A 
ATOM     86  C   UNL A   1      46.544  30.372  27.583  1.00  0.00     0.055 A 
ATOM     87  C   UNL A   1      44.166  30.517  27.308  1.00  0.00     0.041 A 
ATOM     88  F   UNL A   1      42.739  29.201  28.606  1.00  0.00    -0.206 F 
ATOM     89  C   UNL A   1      45.440  30.953  26.965  1.00  0.00     0.022 A 
BRANCH  86  90
ATOM     90  S   UNL A   1      48.208  31.030  27.209  1.00  0.00     0.124 S 
ATOM     91  O   UNL A   1      48.889  29.900  26.589  1.00  0.00    -0.237 OA
ATOM     92  O   UNL A   1      47.918  32.160  26.331  1.00  0.00    -0.237 OA
ATOM     93  O   UNL A   1      48.730  31.402  28.527  1.00  0.00    -0.744 OA
ENDBRANCH  86  90
ENDBRANCH  60  83
ENDBRANCH  34  35
ENDBRANCH  26  29
ENDBRANCH  24  25
ENDBRANCH   1  24
TORSDOF 15
ENDMDL
