MODEL 1
REMARK VINA RESULT:     -11.6      0.000      0.000
REMARK SMILES C/C=C/c1cncc(-c2ccc([C@@H](C)C(=O)NCCCCNC(=O)c3ccc(-c4c5nc(c(-c6cc(S(=O)(=O)[O-])ccc6F)c6ccc([nH]6)c(-c6cc(S(=O)(=O)[O-])ccc6F)c6nc(c(-c7cc(S(=O)(=O)[O-])ccc7F)c7ccc4[nH]7)C=C6)C=C5)cc3)cc2)c1
REMARK SMILES IDX 19 1 18 2 17 3 15 4 16 5 13 7 14 8 12 9 9 10 10 11 89 12
REMARK SMILES IDX 11 13 88 14 8 15 4 16 5 17 90 18 6 19 7 20 3 21 1 22 2 23
REMARK SMILES IDX 20 24 21 25 22 26 23 27 24 29 25 30 26 31 87 32 27 33 86 34
REMARK SMILES IDX 28 35 29 36 30 37 80 38 31 39 85 40 79 41 81 42 32 43 84 44
REMARK SMILES IDX 78 45 77 46 33 48 65 49 45 50 64 51 46 52 49 53 63 54 82 55
REMARK SMILES IDX 47 56 48 57 62 59 83 60 50 61 34 62 35 63 43 64 36 65 42 66
REMARK SMILES IDX 44 67 41 68 37 69 38 70 39 71 40 72 66 73 67 74 75 75 68 76
REMARK SMILES IDX 74 77 76 78 73 79 69 80 70 81 71 82 72 83 51 84 52 85 60 86
REMARK SMILES IDX 53 87 59 88 61 89 58 90 54 91 55 92 56 93 57 94
REMARK H PARENT 17 6 22 28 81 47 49 58
REMARK Flexibility Score: inf
ROOT
ATOM      1  C   UNL A   1      35.577  21.316  25.582  1.00  0.00     0.023 C 
ENDROOT
BRANCH   1   2
ATOM      2  C   UNL A   1      35.253  20.085  24.735  1.00  0.00     0.116 C 
BRANCH   2   3
ATOM      3  N   UNL A   1      34.284  19.221  25.375  1.00  0.00    -0.356 N 
ATOM      4  C   UNL A   1      32.970  18.989  25.106  1.00  0.00     0.227 C 
ATOM      5  O   UNL A   1      32.365  18.241  25.885  1.00  0.00    -0.274 OA
ATOM      6  H   UNL A   1      34.637  18.711  26.140  1.00  0.00     0.163 HD
BRANCH   4   7
ATOM      7  C   UNL A   1      32.227  19.588  23.900  1.00  0.00     0.105 C 
ATOM      8  C   UNL A   1      32.501  18.863  22.582  1.00  0.00     0.023 C 
BRANCH   7   9
ATOM      9  C   UNL A   1      32.268  21.108  23.856  1.00  0.00    -0.036 A 
ATOM     10  C   UNL A   1      32.484  23.964  23.921  1.00  0.00    -0.017 A 
ATOM     11  C   UNL A   1      32.777  23.223  22.763  1.00  0.00     0.009 A 
ATOM     12  C   UNL A   1      32.047  23.236  25.039  1.00  0.00     0.009 A 
ATOM     13  C   UNL A   1      32.639  21.830  22.720  1.00  0.00     0.005 A 
ATOM     14  C   UNL A   1      31.960  21.836  25.014  1.00  0.00     0.005 A 
BRANCH  10  15
ATOM     15  C   UNL A   1      32.633  25.437  23.951  1.00  0.00     0.001 A 
ATOM     16  C   UNL A   1      33.488  27.502  24.946  1.00  0.00    -0.007 A 
ATOM     17  C   UNL A   1      32.859  28.194  23.916  1.00  0.00     0.119 A 
ATOM     18  C   UNL A   1      33.363  26.106  24.950  1.00  0.00     0.020 A 
ATOM     19  N   UNL A   1      32.145  27.609  22.931  1.00  0.00    -0.263 NA
ATOM     20  C   UNL A   1      32.053  26.258  22.978  1.00  0.00     0.119 A 
BRANCH  16  21
ATOM     21  C   UNL A   1      34.176  28.250  26.004  1.00  0.00     0.005 C 
ATOM     22  C   UNL A   1      34.423  30.107  27.657  1.00  0.00     0.035 C 
ATOM     23  C   UNL A   1      33.708  29.375  26.565  1.00  0.00    -0.030 C 
ENDBRANCH  16  21
ENDBRANCH  10  15
ENDBRANCH   7   9
ENDBRANCH   4   7
ENDBRANCH   2   3
ENDBRANCH   1   2
BRANCH   1  24
ATOM     24  C   UNL A   1      35.845  22.593  24.789  1.00  0.00     0.023 C 
BRANCH  24  25
ATOM     25  C   UNL A   1      37.248  23.173  24.936  1.00  0.00     0.116 C 
BRANCH  25  26
ATOM     26  N   UNL A   1      38.211  22.252  25.520  1.00  0.00    -0.352 N 
ATOM     27  C   UNL A   1      39.274  22.541  26.349  1.00  0.00     0.251 C 
ATOM     28  H   UNL A   1      38.088  21.301  25.295  1.00  0.00     0.163 HD
ATOM     29  O   UNL A   1      40.045  21.656  26.692  1.00  0.00    -0.269 OA
BRANCH  27  30
ATOM     30  C   UNL A   1      39.496  23.944  26.768  1.00  0.00     0.039 A 
ATOM     31  C   UNL A   1      39.162  24.319  28.072  1.00  0.00     0.014 A 
ATOM     32  C   UNL A   1      40.087  24.862  25.899  1.00  0.00     0.014 A 
ATOM     33  C   UNL A   1      39.500  25.595  28.529  1.00  0.00     0.010 A 
ATOM     34  C   UNL A   1      40.493  26.102  26.380  1.00  0.00     0.010 A 
ATOM     35  C   UNL A   1      40.208  26.480  27.702  1.00  0.00    -0.014 A 
BRANCH  35  36
ATOM     36  C   UNL A   1      40.659  27.808  28.193  1.00  0.00     0.031 A 
ATOM     37  C   UNL A   1      42.128  28.110  28.295  1.00  0.00     0.074 A 
ATOM     38  C   UNL A   1      39.750  28.707  28.620  1.00  0.00     0.049 A 
ATOM     39  N   UNL A   1      42.726  29.169  28.779  1.00  0.00    -0.248 NA
ATOM     40  C   UNL A   1      43.046  27.063  27.825  1.00  0.00     0.031 C 
ATOM     41  C   UNL A   1      38.297  28.508  28.619  1.00  0.00     0.029 A 
ATOM     42  N   UNL A   1      39.909  29.964  29.145  1.00  0.00    -0.354 N 
ATOM     43  C   UNL A   1      44.089  28.907  28.689  1.00  0.00     0.074 A 
ATOM     44  C   UNL A   1      44.223  27.562  28.169  1.00  0.00     0.031 C 
ATOM     45  C   UNL A   1      37.701  29.615  29.093  1.00  0.00     0.029 A 
ATOM     46  C   UNL A   1      38.725  30.585  29.468  1.00  0.00     0.049 A 
ATOM     47  H   UNL A   1      40.790  30.384  29.277  1.00  0.00     0.167 HD
ATOM     48  C   UNL A   1      45.133  29.722  28.987  1.00  0.00     0.034 A 
ATOM     49  C   UNL A   1      38.492  31.797  30.011  1.00  0.00     0.034 A 
ATOM     50  C   UNL A   1      44.979  31.067  29.486  1.00  0.00     0.049 A 
ATOM     51  C   UNL A   1      39.665  32.684  30.338  1.00  0.00     0.074 A 
ATOM     52  C   UNL A   1      45.961  32.003  29.763  1.00  0.00     0.029 A 
ATOM     53  N   UNL A   1      43.763  31.668  29.787  1.00  0.00    -0.354 N 
ATOM     54  N   UNL A   1      40.949  32.445  30.195  1.00  0.00    -0.248 NA
ATOM     55  C   UNL A   1      39.357  34.010  30.888  1.00  0.00     0.031 C 
ATOM     56  C   UNL A   1      45.344  33.145  30.286  1.00  0.00     0.029 A 
ATOM     57  C   UNL A   1      43.971  32.950  30.271  1.00  0.00     0.049 A 
ATOM     58  H   UNL A   1      42.882  31.244  29.674  1.00  0.00     0.167 HD
ATOM     59  C   UNL A   1      41.599  33.603  30.609  1.00  0.00     0.074 A 
ATOM     60  C   UNL A   1      40.565  34.543  30.993  1.00  0.00     0.031 C 
ATOM     61  C   UNL A   1      42.929  33.871  30.660  1.00  0.00     0.034 A 
BRANCH  48  62
ATOM     62  C   UNL A   1      46.522  29.158  28.798  1.00  0.00     0.023 A 
ATOM     63  C   UNL A   1      47.109  29.058  27.524  1.00  0.00     0.031 A 
ATOM     64  C   UNL A   1      47.250  28.668  29.896  1.00  0.00     0.131 A 
ATOM     65  C   UNL A   1      48.336  28.397  27.366  1.00  0.00     0.055 A 
ATOM     66  C   UNL A   1      48.514  28.092  29.743  1.00  0.00     0.041 A 
ATOM     67  F   UNL A   1      46.736  28.718  31.135  1.00  0.00    -0.206 F 
ATOM     68  C   UNL A   1      49.055  27.935  28.471  1.00  0.00     0.022 A 
BRANCH  65  69
ATOM     69  S   UNL A   1      48.894  28.002  25.686  1.00  0.00     0.124 S 
ATOM     70  O   UNL A   1      47.765  28.465  24.885  1.00  0.00    -0.237 OA
ATOM     71  O   UNL A   1      50.122  28.779  25.572  1.00  0.00    -0.237 OA
ATOM     72  O   UNL A   1      49.074  26.551  25.717  1.00  0.00    -0.744 OA
ENDBRANCH  65  69
ENDBRANCH  48  62
BRANCH  49  73
ATOM     73  C   UNL A   1      37.098  32.252  30.275  1.00  0.00     0.023 A 
ATOM     74  C   UNL A   1      36.345  32.883  29.272  1.00  0.00     0.031 A 
ATOM     75  C   UNL A   1      36.512  32.101  31.544  1.00  0.00     0.131 A 
ATOM     76  C   UNL A   1      35.066  33.381  29.564  1.00  0.00     0.055 A 
ATOM     77  C   UNL A   1      35.220  32.557  31.817  1.00  0.00     0.041 A 
ATOM     78  F   UNL A   1      37.186  31.497  32.536  1.00  0.00    -0.206 F 
ATOM     79  C   UNL A   1      34.495  33.213  30.827  1.00  0.00     0.022 A 
BRANCH  76  80
ATOM     80  S   UNL A   1      34.189  34.324  28.287  1.00  0.00     0.124 S 
ATOM     81  O   UNL A   1      33.832  35.541  29.008  1.00  0.00    -0.237 OA
ATOM     82  O   UNL A   1      35.214  34.465  27.258  1.00  0.00    -0.237 OA
ATOM     83  O   UNL A   1      33.069  33.455  27.933  1.00  0.00    -0.744 OA
ENDBRANCH  76  80
ENDBRANCH  49  73
BRANCH  61  84
ATOM     84  C   UNL A   1      43.328  35.255  31.108  1.00  0.00     0.023 A 
ATOM     85  C   UNL A   1      43.514  36.304  30.191  1.00  0.00     0.031 A 
ATOM     86  C   UNL A   1      43.547  35.519  32.471  1.00  0.00     0.131 A 
ATOM     87  C   UNL A   1      43.963  37.554  30.643  1.00  0.00     0.055 A 
ATOM     88  C   UNL A   1      43.936  36.781  32.922  1.00  0.00     0.041 A 
ATOM     89  F   UNL A   1      43.384  34.552  33.389  1.00  0.00    -0.206 F 
ATOM     90  C   UNL A   1      44.159  37.803  32.004  1.00  0.00     0.022 A 
BRANCH  87  91
ATOM     91  S   UNL A   1      44.372  38.828  29.418  1.00  0.00     0.124 S 
ATOM     92  O   UNL A   1      44.451  38.050  28.186  1.00  0.00    -0.237 OA
ATOM     93  O   UNL A   1      43.239  39.740  29.524  1.00  0.00    -0.237 OA
ATOM     94  O   UNL A   1      45.645  39.365  29.895  1.00  0.00    -0.744 OA
ENDBRANCH  87  91
ENDBRANCH  61  84
ENDBRANCH  35  36
ENDBRANCH  27  30
ENDBRANCH  25  26
ENDBRANCH  24  25
ENDBRANCH   1  24
TORSDOF 17
ENDMDL
MODEL 2
REMARK VINA RESULT:     -11.4      1.866      2.404
REMARK SMILES C/C=C/c1cncc(-c2ccc([C@@H](C)C(=O)NCCCCNC(=O)c3ccc(-c4c5nc(c(-c6cc(S(=O)(=O)[O-])ccc6F)c6ccc([nH]6)c(-c6cc(S(=O)(=O)[O-])ccc6F)c6nc(c(-c7cc(S(=O)(=O)[O-])ccc7F)c7ccc4[nH]7)C=C6)C=C5)cc3)cc2)c1
REMARK SMILES IDX 19 1 18 2 17 3 15 4 16 5 13 7 14 8 12 9 9 10 10 11 89 12
REMARK SMILES IDX 11 13 88 14 8 15 4 16 5 17 90 18 6 19 7 20 3 21 1 22 2 23
REMARK SMILES IDX 20 24 21 25 22 26 23 27 24 29 25 30 26 31 87 32 27 33 86 34
REMARK SMILES IDX 28 35 29 36 30 37 80 38 31 39 85 40 79 41 81 42 32 43 84 44
REMARK SMILES IDX 78 45 77 46 33 48 65 49 45 50 64 51 46 52 49 53 63 54 82 55
REMARK SMILES IDX 47 56 48 57 62 59 83 60 50 61 34 62 35 63 43 64 36 65 42 66
REMARK SMILES IDX 44 67 41 68 37 69 38 70 39 71 40 72 66 73 67 74 75 75 68 76
REMARK SMILES IDX 74 77 76 78 73 79 69 80 70 81 71 82 72 83 51 84 52 85 60 86
REMARK SMILES IDX 53 87 59 88 61 89 58 90 54 91 55 92 56 93 57 94
REMARK H PARENT 17 6 22 28 81 47 49 58
REMARK Flexibility Score: inf
ROOT
ATOM      1  C   UNL A   1      35.306  20.781  25.270  1.00  0.00     0.023 C 
ENDROOT
BRANCH   1   2
ATOM      2  C   UNL A   1      35.165  19.384  24.665  1.00  0.00     0.116 C 
BRANCH   2   3
ATOM      3  N   UNL A   1      34.115  18.616  25.301  1.00  0.00    -0.356 N 
ATOM      4  C   UNL A   1      32.793  18.484  25.006  1.00  0.00     0.227 C 
ATOM      5  O   UNL A   1      32.114  17.805  25.788  1.00  0.00    -0.274 OA
ATOM      6  H   UNL A   1      34.410  18.098  26.085  1.00  0.00     0.163 HD
BRANCH   4   7
ATOM      7  C   UNL A   1      32.128  19.112  23.771  1.00  0.00     0.105 C 
ATOM      8  C   UNL A   1      32.433  18.379  22.463  1.00  0.00     0.023 C 
BRANCH   7   9
ATOM      9  C   UNL A   1      32.226  20.630  23.734  1.00  0.00    -0.036 A 
ATOM     10  C   UNL A   1      32.264  23.486  23.524  1.00  0.00    -0.017 A 
ATOM     11  C   UNL A   1      31.969  22.835  24.733  1.00  0.00     0.009 A 
ATOM     12  C   UNL A   1      32.573  22.666  22.427  1.00  0.00     0.009 A 
ATOM     13  C   UNL A   1      31.984  21.439  24.846  1.00  0.00     0.005 A 
ATOM     14  C   UNL A   1      32.535  21.267  22.524  1.00  0.00     0.005 A 
BRANCH  10  15
ATOM     15  C   UNL A   1      32.246  24.963  23.420  1.00  0.00     0.001 A 
ATOM     16  C   UNL A   1      33.009  27.186  24.100  1.00  0.00    -0.007 A 
ATOM     17  C   UNL A   1      32.145  27.714  23.147  1.00  0.00     0.119 A 
ATOM     18  C   UNL A   1      33.048  25.791  24.227  1.00  0.00     0.020 A 
ATOM     19  N   UNL A   1      31.351  26.973  22.345  1.00  0.00    -0.263 NA
ATOM     20  C   UNL A   1      31.424  25.629  22.505  1.00  0.00     0.119 A 
BRANCH  16  21
ATOM     21  C   UNL A   1      33.771  28.093  24.966  1.00  0.00     0.005 C 
ATOM     22  C   UNL A   1      34.594  28.951  27.163  1.00  0.00     0.035 C 
ATOM     23  C   UNL A   1      33.792  28.024  26.306  1.00  0.00    -0.030 C 
ENDBRANCH  16  21
ENDBRANCH  10  15
ENDBRANCH   7   9
ENDBRANCH   4   7
ENDBRANCH   2   3
ENDBRANCH   1   2
BRANCH   1  24
ATOM     24  C   UNL A   1      35.954  21.818  24.355  1.00  0.00     0.023 C 
BRANCH  24  25
ATOM     25  C   UNL A   1      37.399  22.174  24.691  1.00  0.00     0.116 C 
BRANCH  25  26
ATOM     26  N   UNL A   1      38.156  21.083  25.286  1.00  0.00    -0.352 N 
ATOM     27  C   UNL A   1      39.194  21.157  26.189  1.00  0.00     0.251 C 
ATOM     28  H   UNL A   1      37.892  20.175  25.008  1.00  0.00     0.163 HD
ATOM     29  O   UNL A   1      39.782  20.141  26.534  1.00  0.00    -0.269 OA
BRANCH  27  30
ATOM     30  C   UNL A   1      39.617  22.485  26.688  1.00  0.00     0.039 A 
ATOM     31  C   UNL A   1      40.672  22.558  27.601  1.00  0.00     0.014 A 
ATOM     32  C   UNL A   1      39.016  23.651  26.209  1.00  0.00     0.014 A 
ATOM     33  C   UNL A   1      41.180  23.806  27.967  1.00  0.00     0.010 A 
ATOM     34  C   UNL A   1      39.573  24.887  26.514  1.00  0.00     0.010 A 
ATOM     35  C   UNL A   1      40.664  24.979  27.394  1.00  0.00    -0.014 A 
BRANCH  35  36
ATOM     36  C   UNL A   1      41.245  26.312  27.697  1.00  0.00     0.031 A 
ATOM     37  C   UNL A   1      42.643  26.640  27.250  1.00  0.00     0.074 A 
ATOM     38  C   UNL A   1      40.546  27.192  28.441  1.00  0.00     0.049 A 
ATOM     39  N   UNL A   1      43.361  27.707  27.489  1.00  0.00    -0.248 NA
ATOM     40  C   UNL A   1      43.336  25.611  26.461  1.00  0.00     0.031 C 
ATOM     41  C   UNL A   1      39.201  26.967  28.977  1.00  0.00     0.029 A 
ATOM     42  N   UNL A   1      40.870  28.450  28.883  1.00  0.00    -0.354 N 
ATOM     43  C   UNL A   1      44.598  27.470  26.897  1.00  0.00     0.074 A 
ATOM     44  C   UNL A   1      44.549  26.130  26.349  1.00  0.00     0.031 C 
ATOM     45  C   UNL A   1      38.807  28.061  29.650  1.00  0.00     0.029 A 
ATOM     46  C   UNL A   1      39.881  29.048  29.630  1.00  0.00     0.049 A 
ATOM     47  H   UNL A   1      41.731  28.884  28.684  1.00  0.00     0.167 HD
ATOM     48  C   UNL A   1      45.665  28.302  26.796  1.00  0.00     0.034 A 
ATOM     49  C   UNL A   1      39.849  30.252  30.233  1.00  0.00     0.034 A 
ATOM     50  C   UNL A   1      45.688  29.641  27.330  1.00  0.00     0.049 A 
ATOM     51  C   UNL A   1      41.046  31.159  30.112  1.00  0.00     0.074 A 
ATOM     52  C   UNL A   1      46.688  30.594  27.233  1.00  0.00     0.029 A 
ATOM     53  N   UNL A   1      44.662  30.219  28.068  1.00  0.00    -0.354 N 
ATOM     54  N   UNL A   1      42.189  30.943  29.500  1.00  0.00    -0.248 NA
ATOM     55  C   UNL A   1      40.945  32.477  30.751  1.00  0.00     0.031 C 
ATOM     56  C   UNL A   1      46.292  31.722  27.961  1.00  0.00     0.029 A 
ATOM     57  C   UNL A   1      45.015  31.503  28.454  1.00  0.00     0.049 A 
ATOM     58  H   UNL A   1      43.808  29.780  28.285  1.00  0.00     0.167 HD
ATOM     59  C   UNL A   1      42.928  32.111  29.655  1.00  0.00     0.074 A 
ATOM     60  C   UNL A   1      42.098  33.031  30.406  1.00  0.00     0.031 C 
ATOM     61  C   UNL A   1      44.178  32.403  29.213  1.00  0.00     0.034 A 
BRANCH  48  62
ATOM     62  C   UNL A   1      46.893  27.764  26.098  1.00  0.00     0.023 A 
ATOM     63  C   UNL A   1      47.170  28.070  24.753  1.00  0.00     0.031 A 
ATOM     64  C   UNL A   1      47.773  26.896  26.767  1.00  0.00     0.131 A 
ATOM     65  C   UNL A   1      48.235  27.439  24.094  1.00  0.00     0.055 A 
ATOM     66  C   UNL A   1      48.885  26.340  26.130  1.00  0.00     0.041 A 
ATOM     67  F   UNL A   1      47.553  26.551  28.046  1.00  0.00    -0.206 F 
ATOM     68  C   UNL A   1      49.111  26.595  24.781  1.00  0.00     0.022 A 
BRANCH  65  69
ATOM     69  S   UNL A   1      48.356  27.605  22.292  1.00  0.00     0.124 S 
ATOM     70  O   UNL A   1      47.050  28.170  21.961  1.00  0.00    -0.237 OA
ATOM     71  O   UNL A   1      49.498  28.497  22.134  1.00  0.00    -0.237 OA
ATOM     72  O   UNL A   1      48.567  26.233  21.834  1.00  0.00    -0.744 OA
ENDBRANCH  65  69
ENDBRANCH  48  62
BRANCH  49  73
ATOM     73  C   UNL A   1      38.646  30.681  31.001  1.00  0.00     0.023 A 
ATOM     74  C   UNL A   1      37.576  31.326  30.360  1.00  0.00     0.031 A 
ATOM     75  C   UNL A   1      38.565  30.491  32.391  1.00  0.00     0.131 A 
ATOM     76  C   UNL A   1      36.490  31.798  31.113  1.00  0.00     0.055 A 
ATOM     77  C   UNL A   1      37.460  30.922  33.130  1.00  0.00     0.041 A 
ATOM     78  F   UNL A   1      39.557  29.873  33.052  1.00  0.00    -0.206 F 
ATOM     79  C   UNL A   1      36.420  31.591  32.492  1.00  0.00     0.022 A 
BRANCH  76  80
ATOM     80  S   UNL A   1      35.203  32.759  30.271  1.00  0.00     0.124 S 
ATOM     81  O   UNL A   1      35.953  33.922  29.810  1.00  0.00    -0.237 OA
ATOM     82  O   UNL A   1      34.761  31.830  29.237  1.00  0.00    -0.237 OA
ATOM     83  O   UNL A   1      34.229  33.022  31.328  1.00  0.00    -0.744 OA
ENDBRANCH  76  80
ENDBRANCH  49  73
BRANCH  61  84
ATOM     84  C   UNL A   1      44.695  33.791  29.495  1.00  0.00     0.023 A 
ATOM     85  C   UNL A   1      44.476  34.857  28.605  1.00  0.00     0.031 A 
ATOM     86  C   UNL A   1      45.435  34.044  30.664  1.00  0.00     0.131 A 
ATOM     87  C   UNL A   1      45.042  36.114  28.870  1.00  0.00     0.055 A 
ATOM     88  C   UNL A   1      45.946  35.310  30.950  1.00  0.00     0.041 A 
ATOM     89  F   UNL A   1      45.673  33.061  31.547  1.00  0.00    -0.206 F 
ATOM     90  C   UNL A   1      45.762  36.350  30.044  1.00  0.00     0.022 A 
BRANCH  87  91
ATOM     91  S   UNL A   1      44.901  37.414  27.613  1.00  0.00     0.124 S 
ATOM     92  O   UNL A   1      45.111  38.624  28.402  1.00  0.00    -0.237 OA
ATOM     93  O   UNL A   1      45.970  37.067  26.683  1.00  0.00    -0.237 OA
ATOM     94  O   UNL A   1      43.547  37.241  27.091  1.00  0.00    -0.744 OA
ENDBRANCH  87  91
ENDBRANCH  61  84
ENDBRANCH  35  36
ENDBRANCH  27  30
ENDBRANCH  25  26
ENDBRANCH  24  25
ENDBRANCH   1  24
TORSDOF 17
ENDMDL
MODEL 3
REMARK VINA RESULT:     -11.4      5.249     10.324
REMARK SMILES C/C=C/c1cncc(-c2ccc([C@@H](C)C(=O)NCCCCNC(=O)c3ccc(-c4c5nc(c(-c6cc(S(=O)(=O)[O-])ccc6F)c6ccc([nH]6)c(-c6cc(S(=O)(=O)[O-])ccc6F)c6nc(c(-c7cc(S(=O)(=O)[O-])ccc7F)c7ccc4[nH]7)C=C6)C=C5)cc3)cc2)c1
REMARK SMILES IDX 19 1 18 2 17 3 15 4 16 5 13 7 14 8 12 9 9 10 10 11 89 12
REMARK SMILES IDX 11 13 88 14 8 15 4 16 5 17 90 18 6 19 7 20 3 21 1 22 2 23
REMARK SMILES IDX 20 24 21 25 22 26 23 27 24 29 25 30 26 31 87 32 27 33 86 34
REMARK SMILES IDX 28 35 29 36 30 37 80 38 31 39 85 40 79 41 81 42 32 43 84 44
REMARK SMILES IDX 78 45 77 46 33 48 65 49 45 50 64 51 46 52 49 53 63 54 82 55
REMARK SMILES IDX 47 56 48 57 62 59 83 60 50 61 34 62 35 63 43 64 36 65 42 66
REMARK SMILES IDX 44 67 41 68 37 69 38 70 39 71 40 72 66 73 67 74 75 75 68 76
REMARK SMILES IDX 74 77 76 78 73 79 69 80 70 81 71 82 72 83 51 84 52 85 60 86
REMARK SMILES IDX 53 87 59 88 61 89 58 90 54 91 55 92 56 93 57 94
REMARK H PARENT 17 6 22 28 81 47 49 58
REMARK Flexibility Score: inf
ROOT
ATOM      1  C   UNL A   1      34.759  30.818  28.008  1.00  0.00     0.023 C 
ENDROOT
BRANCH   1   2
ATOM      2  C   UNL A   1      34.585  29.512  27.234  1.00  0.00     0.116 C 
BRANCH   2   3
ATOM      3  N   UNL A   1      33.923  29.715  25.962  1.00  0.00    -0.356 N 
ATOM      4  C   UNL A   1      32.883  29.061  25.375  1.00  0.00     0.227 C 
ATOM      5  O   UNL A   1      32.578  29.417  24.229  1.00  0.00    -0.274 OA
ATOM      6  H   UNL A   1      34.289  30.456  25.428  1.00  0.00     0.163 HD
BRANCH   4   7
ATOM      7  C   UNL A   1      32.084  27.941  26.060  1.00  0.00     0.105 C 
ATOM      8  C   UNL A   1      31.652  28.272  27.489  1.00  0.00     0.023 C 
BRANCH   7   9
ATOM      9  C   UNL A   1      32.668  26.554  25.835  1.00  0.00    -0.036 A 
ATOM     10  C   UNL A   1      33.935  24.006  25.507  1.00  0.00    -0.017 A 
ATOM     11  C   UNL A   1      32.736  24.152  26.225  1.00  0.00     0.009 A 
ATOM     12  C   UNL A   1      34.467  25.170  24.928  1.00  0.00     0.009 A 
ATOM     13  C   UNL A   1      32.098  25.391  26.357  1.00  0.00     0.005 A 
ATOM     14  C   UNL A   1      33.857  26.421  25.105  1.00  0.00     0.005 A 
BRANCH  10  15
ATOM     15  C   UNL A   1      34.598  22.689  25.374  1.00  0.00     0.001 A 
ATOM     16  C   UNL A   1      34.560  20.288  24.905  1.00  0.00    -0.007 A 
ATOM     17  C   UNL A   1      35.930  20.275  25.145  1.00  0.00     0.119 A 
ATOM     18  C   UNL A   1      33.900  21.519  25.026  1.00  0.00     0.020 A 
ATOM     19  N   UNL A   1      36.654  21.363  25.483  1.00  0.00    -0.263 NA
ATOM     20  C   UNL A   1      35.972  22.529  25.588  1.00  0.00     0.119 A 
BRANCH  16  21
ATOM     21  C   UNL A   1      33.865  19.029  24.615  1.00  0.00     0.005 C 
ATOM     22  C   UNL A   1      33.715  16.675  23.790  1.00  0.00     0.035 C 
ATOM     23  C   UNL A   1      34.443  17.954  24.057  1.00  0.00    -0.030 C 
ENDBRANCH  16  21
ENDBRANCH  10  15
ENDBRANCH   7   9
ENDBRANCH   4   7
ENDBRANCH   2   3
ENDBRANCH   1   2
BRANCH   1  24
ATOM     24  C   UNL A   1      33.599  31.804  27.882  1.00  0.00     0.023 C 
BRANCH  24  25
ATOM     25  C   UNL A   1      33.998  33.263  27.686  1.00  0.00     0.116 C 
BRANCH  25  26
ATOM     26  N   UNL A   1      33.287  34.192  28.552  1.00  0.00    -0.352 N 
ATOM     27  C   UNL A   1      33.554  34.509  29.866  1.00  0.00     0.251 C 
ATOM     28  H   UNL A   1      32.517  34.655  28.146  1.00  0.00     0.163 HD
ATOM     29  O   UNL A   1      32.807  35.255  30.483  1.00  0.00    -0.269 OA
BRANCH  27  30
ATOM     30  C   UNL A   1      34.723  33.889  30.530  1.00  0.00     0.039 A 
ATOM     31  C   UNL A   1      34.514  32.817  31.402  1.00  0.00     0.014 A 
ATOM     32  C   UNL A   1      36.019  34.322  30.242  1.00  0.00     0.014 A 
ATOM     33  C   UNL A   1      35.612  32.128  31.920  1.00  0.00     0.010 A 
ATOM     34  C   UNL A   1      37.107  33.586  30.696  1.00  0.00     0.010 A 
ATOM     35  C   UNL A   1      36.916  32.478  31.536  1.00  0.00    -0.014 A 
BRANCH  35  36
ATOM     36  C   UNL A   1      38.096  31.703  32.001  1.00  0.00     0.031 A 
ATOM     37  C   UNL A   1      38.744  32.041  33.315  1.00  0.00     0.074 A 
ATOM     38  C   UNL A   1      38.627  30.754  31.206  1.00  0.00     0.049 A 
ATOM     39  N   UNL A   1      39.828  31.548  33.856  1.00  0.00    -0.248 NA
ATOM     40  C   UNL A   1      38.107  33.105  34.105  1.00  0.00     0.031 C 
ATOM     41  C   UNL A   1      38.118  30.373  29.886  1.00  0.00     0.029 A 
ATOM     42  N   UNL A   1      39.718  29.941  31.386  1.00  0.00    -0.354 N 
ATOM     43  C   UNL A   1      40.014  32.253  35.041  1.00  0.00     0.074 A 
ATOM     44  C   UNL A   1      38.968  33.254  35.100  1.00  0.00     0.031 C 
ATOM     45  C   UNL A   1      38.879  29.382  29.390  1.00  0.00     0.029 A 
ATOM     46  C   UNL A   1      39.951  29.085  30.334  1.00  0.00     0.049 A 
ATOM     47  H   UNL A   1      40.282  29.968  32.193  1.00  0.00     0.167 HD
ATOM     48  C   UNL A   1      40.953  32.068  36.003  1.00  0.00     0.034 A 
ATOM     49  C   UNL A   1      40.923  28.169  30.151  1.00  0.00     0.034 A 
ATOM     50  C   UNL A   1      41.975  31.052  35.936  1.00  0.00     0.049 A 
ATOM     51  C   UNL A   1      41.957  27.981  31.230  1.00  0.00     0.074 A 
ATOM     52  C   UNL A   1      42.938  30.732  36.878  1.00  0.00     0.029 A 
ATOM     53  N   UNL A   1      42.171  30.192  34.862  1.00  0.00    -0.354 N 
ATOM     54  N   UNL A   1      42.087  28.618  32.371  1.00  0.00    -0.248 NA
ATOM     55  C   UNL A   1      42.969  26.942  31.001  1.00  0.00     0.031 C 
ATOM     56  C   UNL A   1      43.750  29.722  36.350  1.00  0.00     0.029 A 
ATOM     57  C   UNL A   1      43.254  29.362  35.107  1.00  0.00     0.049 A 
ATOM     58  H   UNL A   1      41.622  30.176  34.046  1.00  0.00     0.167 HD
ATOM     59  C   UNL A   1      43.177  28.033  33.010  1.00  0.00     0.074 A 
ATOM     60  C   UNL A   1      43.658  26.986  32.132  1.00  0.00     0.031 C 
ATOM     61  C   UNL A   1      43.727  28.329  34.215  1.00  0.00     0.034 A 
BRANCH  48  62
ATOM     62  C   UNL A   1      40.917  33.002  37.190  1.00  0.00     0.023 A 
ATOM     63  C   UNL A   1      40.212  32.677  38.363  1.00  0.00     0.031 A 
ATOM     64  C   UNL A   1      41.551  34.255  37.133  1.00  0.00     0.131 A 
ATOM     65  C   UNL A   1      40.077  33.626  39.387  1.00  0.00     0.055 A 
ATOM     66  C   UNL A   1      41.488  35.162  38.194  1.00  0.00     0.041 A 
ATOM     67  F   UNL A   1      42.224  34.632  36.034  1.00  0.00    -0.206 F 
ATOM     68  C   UNL A   1      40.731  34.858  39.321  1.00  0.00     0.022 A 
BRANCH  65  69
ATOM     69  S   UNL A   1      38.897  33.292  40.723  1.00  0.00     0.124 S 
ATOM     70  O   UNL A   1      39.346  31.984  41.192  1.00  0.00    -0.237 OA
ATOM     71  O   UNL A   1      39.123  34.410  41.630  1.00  0.00    -0.237 OA
ATOM     72  O   UNL A   1      37.601  33.290  40.045  1.00  0.00    -0.744 OA
ENDBRANCH  65  69
ENDBRANCH  48  62
BRANCH  49  73
ATOM     73  C   UNL A   1      40.966  27.352  28.906  1.00  0.00     0.023 A 
ATOM     74  C   UNL A   1      41.950  27.580  27.929  1.00  0.00     0.031 A 
ATOM     75  C   UNL A   1      40.004  26.359  28.653  1.00  0.00     0.131 A 
ATOM     76  C   UNL A   1      41.923  26.859  26.726  1.00  0.00     0.055 A 
ATOM     77  C   UNL A   1      40.009  25.611  27.473  1.00  0.00     0.041 A 
ATOM     78  F   UNL A   1      39.046  26.095  29.557  1.00  0.00    -0.206 F 
ATOM     79  C   UNL A   1      40.966  25.868  26.496  1.00  0.00     0.022 A 
BRANCH  76  80
ATOM     80  S   UNL A   1      43.116  27.290  25.429  1.00  0.00     0.124 S 
ATOM     81  O   UNL A   1      44.160  27.959  26.197  1.00  0.00    -0.237 OA
ATOM     82  O   UNL A   1      43.457  25.980  24.886  1.00  0.00    -0.237 OA
ATOM     83  O   UNL A   1      42.348  28.153  24.535  1.00  0.00    -0.744 OA
ENDBRANCH  76  80
ENDBRANCH  49  73
BRANCH  61  84
ATOM     84  C   UNL A   1      44.883  27.471  34.665  1.00  0.00     0.023 A 
ATOM     85  C   UNL A   1      44.687  26.184  35.194  1.00  0.00     0.031 A 
ATOM     86  C   UNL A   1      46.199  27.961  34.581  1.00  0.00     0.131 A 
ATOM     87  C   UNL A   1      45.785  25.452  35.673  1.00  0.00     0.055 A 
ATOM     88  C   UNL A   1      47.292  27.205  35.005  1.00  0.00     0.041 A 
ATOM     89  F   UNL A   1      46.441  29.184  34.084  1.00  0.00    -0.206 F 
ATOM     90  C   UNL A   1      47.087  25.948  35.567  1.00  0.00     0.022 A 
BRANCH  87  91
ATOM     91  S   UNL A   1      45.478  23.878  36.520  1.00  0.00     0.124 S 
ATOM     92  O   UNL A   1      45.284  24.309  37.902  1.00  0.00    -0.237 OA
ATOM     93  O   UNL A   1      44.290  23.380  35.835  1.00  0.00    -0.237 OA
ATOM     94  O   UNL A   1      46.700  23.114  36.276  1.00  0.00    -0.744 OA
ENDBRANCH  87  91
ENDBRANCH  61  84
ENDBRANCH  35  36
ENDBRANCH  27  30
ENDBRANCH  25  26
ENDBRANCH  24  25
ENDBRANCH   1  24
TORSDOF 17
ENDMDL
