MODEL 1
REMARK VINA RESULT:     -10.5      0.000      0.000
REMARK SMILES O=C(NCCCCNC(=O)c1ccc(-c2c3nc(c(-c4cc(S(=O)(=O)[O-])ccc4F)c4ccc([nH]4)c(-c4cc(S(=O)(=O)[O-])ccc4F)c4nc(c(-c5cc(S(=O)(=O)[O-])ccc5F)c5ccc2[nH]5)C=C4)C=C3)cc1)C(=O)N1CC[N@@H+]2CCC[C@H]2C1
REMARK SMILES IDX 6 1 5 2 4 3 3 4 1 5 2 6 74 8 75 9 76 10 77 11 84 12 78 13
REMARK SMILES IDX 83 14 79 15 82 16 80 17 81 19 7 20 8 21 9 22 10 24 11 25
REMARK SMILES IDX 12 26 73 27 13 28 72 29 14 30 15 31 16 32 66 33 17 34 71 35
REMARK SMILES IDX 65 36 67 37 18 38 70 39 64 40 63 41 19 43 51 44 31 45 50 46
REMARK SMILES IDX 32 47 35 48 49 49 68 50 33 51 34 52 48 54 69 55 36 56 20 57
REMARK SMILES IDX 21 58 29 59 22 60 28 61 30 62 27 63 23 64 24 65 25 66 26 67
REMARK SMILES IDX 52 68 53 69 61 70 54 71 60 72 62 73 59 74 55 75 56 76 57 77
REMARK SMILES IDX 58 78 37 79 38 80 46 81 39 82 45 83 47 84 44 85 40 86 41 87
REMARK SMILES IDX 42 88 43 89
REMARK H PARENT 3 7 79 18 8 23 67 42 35 53
REMARK Flexibility Score: inf
ROOT
ATOM      1  C   UNL A   1      34.405  34.630  27.794  1.00  0.00     0.023 C 
ENDROOT
BRANCH   1   2
ATOM      2  C   UNL A   1      34.091  35.980  28.413  1.00  0.00     0.023 C 
BRANCH   2   3
ATOM      3  C   UNL A   1      33.000  35.996  29.463  1.00  0.00     0.116 C 
BRANCH   3   4
ATOM      4  N   UNL A   1      32.970  37.076  30.414  1.00  0.00    -0.348 N 
ATOM      5  O   UNL A   1      33.611  37.864  32.460  1.00  0.00    -0.264 OA
ATOM      6  C   UNL A   1      33.248  36.923  31.766  1.00  0.00     0.309 C 
ATOM      7  H   UNL A   1      32.740  37.975  30.087  1.00  0.00     0.163 HD
BRANCH   6   8
ATOM      8  C   UNL A   1      32.971  35.550  32.406  1.00  0.00     0.312 C 
ATOM      9  O   UNL A   1      31.792  35.212  32.502  1.00  0.00    -0.263 OA
BRANCH   8  10
ATOM     10  N   UNL A   1      34.035  34.713  32.749  1.00  0.00    -0.323 N 
ATOM     11  C   UNL A   1      34.799  34.711  34.012  1.00  0.00     0.181 C 
ATOM     12  C   UNL A   1      34.637  33.904  31.681  1.00  0.00     0.185 C 
ATOM     13  C   UNL A   1      36.334  34.951  33.805  1.00  0.00     0.284 C 
ATOM     14  C   UNL A   1      36.030  34.479  31.425  1.00  0.00     0.204 C 
ATOM     15  N   UNL A   1      36.882  34.292  32.613  1.00  0.00    -0.330 N 
ATOM     16  C   UNL A   1      36.872  33.853  30.333  1.00  0.00     0.073 C 
ATOM     17  C   UNL A   1      38.193  34.766  32.180  1.00  0.00     0.262 C 
ATOM     18  H   UNL A   1      36.938  33.322  32.925  1.00  0.00     0.348 HD
ATOM     19  C   UNL A   1      38.312  34.140  30.788  1.00  0.00     0.068 C 
ENDBRANCH   8  10
ENDBRANCH   6   8
ENDBRANCH   3   4
ENDBRANCH   2   3
ENDBRANCH   1   2
BRANCH   1  20
ATOM     20  C   UNL A   1      33.774  33.417  28.468  1.00  0.00     0.116 C 
BRANCH  20  21
ATOM     21  N   UNL A   1      33.274  32.409  27.543  1.00  0.00    -0.352 N 
ATOM     22  C   UNL A   1      33.793  31.170  27.241  1.00  0.00     0.251 C 
ATOM     23  H   UNL A   1      32.448  32.649  27.065  1.00  0.00     0.163 HD
ATOM     24  O   UNL A   1      33.260  30.488  26.369  1.00  0.00    -0.269 OA
BRANCH  22  25
ATOM     25  C   UNL A   1      35.013  30.690  27.929  1.00  0.00     0.039 A 
ATOM     26  C   UNL A   1      36.216  31.374  27.736  1.00  0.00     0.014 A 
ATOM     27  C   UNL A   1      34.966  29.596  28.796  1.00  0.00     0.014 A 
ATOM     28  C   UNL A   1      37.347  31.010  28.473  1.00  0.00     0.010 A 
ATOM     29  C   UNL A   1      36.060  29.304  29.604  1.00  0.00     0.010 A 
ATOM     30  C   UNL A   1      37.269  29.999  29.445  1.00  0.00    -0.014 A 
BRANCH  30  31
ATOM     31  C   UNL A   1      38.449  29.615  30.266  1.00  0.00     0.031 A 
ATOM     32  C   UNL A   1      38.574  30.136  31.676  1.00  0.00     0.074 A 
ATOM     33  C   UNL A   1      39.427  28.849  29.740  1.00  0.00     0.049 A 
ATOM     34  N   UNL A   1      39.559  30.001  32.528  1.00  0.00    -0.248 NA
ATOM     35  C   UNL A   1      37.454  30.946  32.180  1.00  0.00     0.031 C 
ATOM     36  C   UNL A   1      39.449  28.321  28.373  1.00  0.00     0.029 A 
ATOM     37  N   UNL A   1      40.597  28.383  30.289  1.00  0.00    -0.354 N 
ATOM     38  C   UNL A   1      39.180  30.715  33.660  1.00  0.00     0.074 A 
ATOM     39  C   UNL A   1      37.917  31.350  33.352  1.00  0.00     0.031 C 
ATOM     40  C   UNL A   1      40.561  27.587  28.201  1.00  0.00     0.029 A 
ATOM     41  C   UNL A   1      41.353  27.622  29.427  1.00  0.00     0.049 A 
ATOM     42  H   UNL A   1      40.869  28.577  31.215  1.00  0.00     0.167 HD
ATOM     43  C   UNL A   1      39.804  30.804  34.860  1.00  0.00     0.034 A 
ATOM     44  C   UNL A   1      42.550  27.027  29.603  1.00  0.00     0.034 A 
ATOM     45  C   UNL A   1      41.053  30.152  35.163  1.00  0.00     0.049 A 
ATOM     46  C   UNL A   1      43.225  27.139  30.950  1.00  0.00     0.074 A 
ATOM     47  C   UNL A   1      41.774  30.170  36.344  1.00  0.00     0.029 A 
ATOM     48  N   UNL A   1      41.763  29.351  34.278  1.00  0.00    -0.354 N 
ATOM     49  N   UNL A   1      42.836  27.798  32.018  1.00  0.00    -0.248 NA
ATOM     50  C   UNL A   1      44.484  26.404  31.123  1.00  0.00     0.031 C 
ATOM     51  C   UNL A   1      42.940  29.418  36.161  1.00  0.00     0.029 A 
ATOM     52  C   UNL A   1      42.912  28.871  34.888  1.00  0.00     0.049 A 
ATOM     53  H   UNL A   1      41.491  29.153  33.353  1.00  0.00     0.167 HD
ATOM     54  C   UNL A   1      43.782  27.515  33.002  1.00  0.00     0.074 A 
ATOM     55  C   UNL A   1      44.744  26.612  32.404  1.00  0.00     0.031 C 
ATOM     56  C   UNL A   1      43.852  27.958  34.283  1.00  0.00     0.034 A 
BRANCH  43  57
ATOM     57  C   UNL A   1      39.134  31.637  35.927  1.00  0.00     0.023 A 
ATOM     58  C   UNL A   1      38.474  31.039  37.016  1.00  0.00     0.031 A 
ATOM     59  C   UNL A   1      39.128  33.041  35.846  1.00  0.00     0.131 A 
ATOM     60  C   UNL A   1      37.774  31.833  37.934  1.00  0.00     0.055 A 
ATOM     61  C   UNL A   1      38.501  33.830  36.813  1.00  0.00     0.041 A 
ATOM     62  F   UNL A   1      39.722  33.670  34.819  1.00  0.00    -0.206 F 
ATOM     63  C   UNL A   1      37.806  33.227  37.857  1.00  0.00     0.022 A 
BRANCH  60  64
ATOM     64  S   UNL A   1      36.707  31.012  39.150  1.00  0.00     0.124 S 
ATOM     65  O   UNL A   1      36.452  29.730  38.497  1.00  0.00    -0.237 OA
ATOM     66  O   UNL A   1      37.554  30.966  40.336  1.00  0.00    -0.237 OA
ATOM     67  O   UNL A   1      35.549  31.898  39.243  1.00  0.00    -0.744 OA
ENDBRANCH  60  64
ENDBRANCH  43  57
BRANCH  44  68
ATOM     68  C   UNL A   1      43.203  26.268  28.493  1.00  0.00     0.023 A 
ATOM     69  C   UNL A   1      44.250  26.833  27.747  1.00  0.00     0.031 A 
ATOM     70  C   UNL A   1      42.732  25.002  28.107  1.00  0.00     0.131 A 
ATOM     71  C   UNL A   1      44.738  26.171  26.609  1.00  0.00     0.055 A 
ATOM     72  C   UNL A   1      43.266  24.316  27.013  1.00  0.00     0.041 A 
ATOM     73  F   UNL A   1      41.738  24.409  28.788  1.00  0.00    -0.206 F 
ATOM     74  C   UNL A   1      44.262  24.911  26.244  1.00  0.00     0.022 A 
BRANCH  71  75
ATOM     75  S   UNL A   1      45.914  27.042  25.537  1.00  0.00     0.124 S 
ATOM     76  O   UNL A   1      46.188  26.036  24.518  1.00  0.00    -0.237 OA
ATOM     77  O   UNL A   1      45.131  28.195  25.105  1.00  0.00    -0.237 OA
ATOM     78  O   UNL A   1      47.029  27.347  26.431  1.00  0.00    -0.744 OA
ENDBRANCH  71  75
ENDBRANCH  44  68
BRANCH  56  79
ATOM     79  C   UNL A   1      44.963  27.405  35.142  1.00  0.00     0.023 A 
ATOM     80  C   UNL A   1      44.810  26.226  35.892  1.00  0.00     0.031 A 
ATOM     81  C   UNL A   1      46.187  28.092  35.236  1.00  0.00     0.131 A 
ATOM     82  C   UNL A   1      45.830  25.812  36.761  1.00  0.00     0.055 A 
ATOM     83  C   UNL A   1      47.226  27.638  36.049  1.00  0.00     0.041 A 
ATOM     84  F   UNL A   1      46.391  29.223  34.541  1.00  0.00    -0.206 F 
ATOM     85  C   UNL A   1      47.043  26.502  36.834  1.00  0.00     0.022 A 
BRANCH  82  86
ATOM     86  S   UNL A   1      45.503  24.431  37.891  1.00  0.00     0.124 S 
ATOM     87  O   UNL A   1      46.766  24.320  38.611  1.00  0.00    -0.237 OA
ATOM     88  O   UNL A   1      44.369  24.926  38.664  1.00  0.00    -0.237 OA
ATOM     89  O   UNL A   1      45.201  23.318  36.991  1.00  0.00    -0.744 OA
ENDBRANCH  82  86
ENDBRANCH  56  79
ENDBRANCH  30  31
ENDBRANCH  22  25
ENDBRANCH  20  21
ENDBRANCH   1  20
TORSDOF 15
ENDMDL
MODEL 2
REMARK VINA RESULT:     -10.5      3.856      6.315
REMARK SMILES O=C(NCCCCNC(=O)c1ccc(-c2c3nc(c(-c4cc(S(=O)(=O)[O-])ccc4F)c4ccc([nH]4)c(-c4cc(S(=O)(=O)[O-])ccc4F)c4nc(c(-c5cc(S(=O)(=O)[O-])ccc5F)c5ccc2[nH]5)C=C4)C=C3)cc1)C(=O)N1CC[N@@H+]2CCC[C@H]2C1
REMARK SMILES IDX 6 1 5 2 4 3 3 4 1 5 2 6 74 8 75 9 76 10 77 11 84 12 78 13
REMARK SMILES IDX 83 14 79 15 82 16 80 17 81 19 7 20 8 21 9 22 10 24 11 25
REMARK SMILES IDX 12 26 73 27 13 28 72 29 14 30 15 31 16 32 66 33 17 34 71 35
REMARK SMILES IDX 65 36 67 37 18 38 70 39 64 40 63 41 19 43 51 44 31 45 50 46
REMARK SMILES IDX 32 47 35 48 49 49 68 50 33 51 34 52 48 54 69 55 36 56 20 57
REMARK SMILES IDX 21 58 29 59 22 60 28 61 30 62 27 63 23 64 24 65 25 66 26 67
REMARK SMILES IDX 52 68 53 69 61 70 54 71 60 72 62 73 59 74 55 75 56 76 57 77
REMARK SMILES IDX 58 78 37 79 38 80 46 81 39 82 45 83 47 84 44 85 40 86 41 87
REMARK SMILES IDX 42 88 43 89
REMARK H PARENT 3 7 79 18 8 23 67 42 35 53
REMARK Flexibility Score: inf
ROOT
ATOM      1  C   UNL A   1      31.922  28.812  26.175  1.00  0.00     0.023 C 
ENDROOT
BRANCH   1   2
ATOM      2  C   UNL A   1      31.968  27.539  25.349  1.00  0.00     0.023 C 
BRANCH   2   3
ATOM      3  C   UNL A   1      32.058  26.242  26.125  1.00  0.00     0.116 C 
BRANCH   3   4
ATOM      4  N   UNL A   1      30.843  25.631  26.596  1.00  0.00    -0.348 N 
ATOM      5  O   UNL A   1      29.766  23.721  27.236  1.00  0.00    -0.264 OA
ATOM      6  C   UNL A   1      30.574  24.272  26.500  1.00  0.00     0.309 C 
ATOM      7  H   UNL A   1      30.164  26.210  27.011  1.00  0.00     0.163 HD
BRANCH   6   8
ATOM      8  C   UNL A   1      31.236  23.487  25.351  1.00  0.00     0.312 C 
ATOM      9  O   UNL A   1      30.757  23.642  24.228  1.00  0.00    -0.263 OA
BRANCH   8  10
ATOM     10  N   UNL A   1      32.387  22.734  25.594  1.00  0.00    -0.323 N 
ATOM     11  C   UNL A   1      33.039  22.496  26.897  1.00  0.00     0.181 C 
ATOM     12  C   UNL A   1      33.188  22.322  24.435  1.00  0.00     0.185 C 
ATOM     13  C   UNL A   1      34.530  22.979  26.936  1.00  0.00     0.284 C 
ATOM     14  C   UNL A   1      34.491  23.119  24.496  1.00  0.00     0.204 C 
ATOM     15  N   UNL A   1      35.266  22.735  25.689  1.00  0.00    -0.330 N 
ATOM     16  C   UNL A   1      35.504  22.918  23.387  1.00  0.00     0.073 C 
ATOM     17  C   UNL A   1      36.518  23.472  25.545  1.00  0.00     0.262 C 
ATOM     18  H   UNL A   1      35.447  21.733  25.753  1.00  0.00     0.348 HD
ATOM     19  C   UNL A   1      36.842  23.257  24.063  1.00  0.00     0.068 C 
ENDBRANCH   8  10
ENDBRANCH   6   8
ENDBRANCH   3   4
ENDBRANCH   2   3
ENDBRANCH   1   2
BRANCH   1  20
ATOM     20  C   UNL A   1      33.145  29.716  26.091  1.00  0.00     0.116 C 
BRANCH  20  21
ATOM     21  N   UNL A   1      32.949  31.045  26.653  1.00  0.00    -0.352 N 
ATOM     22  C   UNL A   1      33.750  31.749  27.524  1.00  0.00     0.251 C 
ATOM     23  H   UNL A   1      32.127  31.505  26.370  1.00  0.00     0.163 HD
ATOM     24  O   UNL A   1      33.372  32.840  27.945  1.00  0.00    -0.269 OA
BRANCH  22  25
ATOM     25  C   UNL A   1      35.032  31.169  27.986  1.00  0.00     0.039 A 
ATOM     26  C   UNL A   1      36.181  31.964  27.975  1.00  0.00     0.014 A 
ATOM     27  C   UNL A   1      35.095  29.860  28.469  1.00  0.00     0.014 A 
ATOM     28  C   UNL A   1      37.369  31.473  28.525  1.00  0.00     0.010 A 
ATOM     29  C   UNL A   1      36.247  29.413  29.109  1.00  0.00     0.010 A 
ATOM     30  C   UNL A   1      37.403  30.208  29.135  1.00  0.00    -0.014 A 
BRANCH  30  31
ATOM     31  C   UNL A   1      38.646  29.676  29.755  1.00  0.00     0.031 A 
ATOM     32  C   UNL A   1      39.091  30.202  31.097  1.00  0.00     0.074 A 
ATOM     33  C   UNL A   1      39.399  28.766  29.103  1.00  0.00     0.049 A 
ATOM     34  N   UNL A   1      40.184  29.945  31.770  1.00  0.00    -0.248 NA
ATOM     35  C   UNL A   1      38.202  31.176  31.750  1.00  0.00     0.031 C 
ATOM     36  C   UNL A   1      39.104  28.212  27.779  1.00  0.00     0.029 A 
ATOM     37  N   UNL A   1      40.572  28.148  29.462  1.00  0.00    -0.354 N 
ATOM     38  C   UNL A   1      40.115  30.729  32.916  1.00  0.00     0.074 A 
ATOM     39  C   UNL A   1      38.918  31.533  32.804  1.00  0.00     0.031 C 
ATOM     40  C   UNL A   1      40.055  27.322  27.450  1.00  0.00     0.029 A 
ATOM     41  C   UNL A   1      41.050  27.268  28.517  1.00  0.00     0.049 A 
ATOM     42  H   UNL A   1      41.030  28.319  30.317  1.00  0.00     0.167 HD
ATOM     43  C   UNL A   1      40.950  30.753  33.985  1.00  0.00     0.034 A 
ATOM     44  C   UNL A   1      42.165  26.510  28.511  1.00  0.00     0.034 A 
ATOM     45  C   UNL A   1      42.131  29.934  34.096  1.00  0.00     0.049 A 
ATOM     46  C   UNL A   1      43.078  26.552  29.713  1.00  0.00     0.074 A 
ATOM     47  C   UNL A   1      43.046  29.873  35.132  1.00  0.00     0.029 A 
ATOM     48  N   UNL A   1      42.554  29.021  33.139  1.00  0.00    -0.354 N 
ATOM     49  N   UNL A   1      42.982  27.282  30.801  1.00  0.00    -0.248 NA
ATOM     50  C   UNL A   1      44.235  25.647  29.699  1.00  0.00     0.031 C 
ATOM     51  C   UNL A   1      44.045  28.957  34.783  1.00  0.00     0.029 A 
ATOM     52  C   UNL A   1      43.716  28.393  33.561  1.00  0.00     0.049 A 
ATOM     53  H   UNL A   1      42.097  28.845  32.285  1.00  0.00     0.167 HD
ATOM     54  C   UNL A   1      44.040  26.887  31.617  1.00  0.00     0.074 A 
ATOM     55  C   UNL A   1      44.745  25.842  30.904  1.00  0.00     0.031 C 
ATOM     56  C   UNL A   1      44.398  27.342  32.845  1.00  0.00     0.034 A 
BRANCH  43  57
ATOM     57  C   UNL A   1      40.603  31.696  35.111  1.00  0.00     0.023 A 
ATOM     58  C   UNL A   1      39.595  31.384  36.043  1.00  0.00     0.031 A 
ATOM     59  C   UNL A   1      41.262  32.931  35.247  1.00  0.00     0.131 A 
ATOM     60  C   UNL A   1      39.224  32.322  37.015  1.00  0.00     0.055 A 
ATOM     61  C   UNL A   1      40.945  33.825  36.272  1.00  0.00     0.041 A 
ATOM     62  F   UNL A   1      42.217  33.295  34.376  1.00  0.00    -0.206 F 
ATOM     63  C   UNL A   1      39.911  33.530  37.155  1.00  0.00     0.022 A 
BRANCH  60  64
ATOM     64  S   UNL A   1      37.739  31.999  38.006  1.00  0.00     0.124 S 
ATOM     65  O   UNL A   1      36.824  33.021  37.504  1.00  0.00    -0.237 OA
ATOM     66  O   UNL A   1      37.414  30.622  37.651  1.00  0.00    -0.237 OA
ATOM     67  O   UNL A   1      38.194  32.199  39.380  1.00  0.00    -0.744 OA
ENDBRANCH  60  64
ENDBRANCH  43  57
BRANCH  44  68
ATOM     68  C   UNL A   1      42.498  25.643  27.340  1.00  0.00     0.023 A 
ATOM     69  C   UNL A   1      42.037  24.319  27.263  1.00  0.00     0.031 A 
ATOM     70  C   UNL A   1      43.352  26.098  26.321  1.00  0.00     0.131 A 
ATOM     71  C   UNL A   1      42.493  23.474  26.239  1.00  0.00     0.055 A 
ATOM     72  C   UNL A   1      43.751  25.274  25.266  1.00  0.00     0.041 A 
ATOM     73  F   UNL A   1      43.818  27.358  26.337  1.00  0.00    -0.206 F 
ATOM     74  C   UNL A   1      43.338  23.946  25.233  1.00  0.00     0.022 A 
BRANCH  71  75
ATOM     75  S   UNL A   1      42.070  21.711  26.315  1.00  0.00     0.124 S 
ATOM     76  O   UNL A   1      40.664  21.727  25.929  1.00  0.00    -0.237 OA
ATOM     77  O   UNL A   1      42.995  21.137  25.344  1.00  0.00    -0.237 OA
ATOM     78  O   UNL A   1      42.332  21.358  27.709  1.00  0.00    -0.744 OA
ENDBRANCH  71  75
ENDBRANCH  44  68
BRANCH  56  79
ATOM     79  C   UNL A   1      45.557  26.652  33.522  1.00  0.00     0.023 A 
ATOM     80  C   UNL A   1      45.378  25.526  34.343  1.00  0.00     0.031 A 
ATOM     81  C   UNL A   1      46.861  27.156  33.369  1.00  0.00     0.131 A 
ATOM     82  C   UNL A   1      46.471  24.988  35.040  1.00  0.00     0.055 A 
ATOM     83  C   UNL A   1      47.956  26.574  34.009  1.00  0.00     0.041 A 
ATOM     84  F   UNL A   1      47.092  28.229  32.595  1.00  0.00    -0.206 F 
ATOM     85  C   UNL A   1      47.760  25.495  34.867  1.00  0.00     0.022 A 
BRANCH  82  86
ATOM     86  S   UNL A   1      46.162  23.694  36.275  1.00  0.00     0.124 S 
ATOM     87  O   UNL A   1      44.897  23.131  35.817  1.00  0.00    -0.237 OA
ATOM     88  O   UNL A   1      47.333  22.838  36.125  1.00  0.00    -0.237 OA
ATOM     89  O   UNL A   1      46.092  24.434  37.535  1.00  0.00    -0.744 OA
ENDBRANCH  82  86
ENDBRANCH  56  79
ENDBRANCH  30  31
ENDBRANCH  22  25
ENDBRANCH  20  21
ENDBRANCH   1  20
TORSDOF 15
ENDMDL
MODEL 3
REMARK VINA RESULT:     -10.5      3.716      6.268
REMARK SMILES O=C(NCCCCNC(=O)c1ccc(-c2c3nc(c(-c4cc(S(=O)(=O)[O-])ccc4F)c4ccc([nH]4)c(-c4cc(S(=O)(=O)[O-])ccc4F)c4nc(c(-c5cc(S(=O)(=O)[O-])ccc5F)c5ccc2[nH]5)C=C4)C=C3)cc1)C(=O)N1CC[N@@H+]2CCC[C@H]2C1
REMARK SMILES IDX 6 1 5 2 4 3 3 4 1 5 2 6 74 8 75 9 76 10 77 11 84 12 78 13
REMARK SMILES IDX 83 14 79 15 82 16 80 17 81 19 7 20 8 21 9 22 10 24 11 25
REMARK SMILES IDX 12 26 73 27 13 28 72 29 14 30 15 31 16 32 66 33 17 34 71 35
REMARK SMILES IDX 65 36 67 37 18 38 70 39 64 40 63 41 19 43 51 44 31 45 50 46
REMARK SMILES IDX 32 47 35 48 49 49 68 50 33 51 34 52 48 54 69 55 36 56 20 57
REMARK SMILES IDX 21 58 29 59 22 60 28 61 30 62 27 63 23 64 24 65 25 66 26 67
REMARK SMILES IDX 52 68 53 69 61 70 54 71 60 72 62 73 59 74 55 75 56 76 57 77
REMARK SMILES IDX 58 78 37 79 38 80 46 81 39 82 45 83 47 84 44 85 40 86 41 87
REMARK SMILES IDX 42 88 43 89
REMARK H PARENT 3 7 79 18 8 23 67 42 35 53
REMARK Flexibility Score: inf
ROOT
ATOM      1  C   UNL A   1      32.707  29.491  25.270  1.00  0.00     0.023 C 
ENDROOT
BRANCH   1   2
ATOM      2  C   UNL A   1      33.810  28.533  24.858  1.00  0.00     0.023 C 
BRANCH   2   3
ATOM      3  C   UNL A   1      33.429  27.069  24.781  1.00  0.00     0.116 C 
BRANCH   3   4
ATOM      4  N   UNL A   1      33.737  26.335  23.583  1.00  0.00    -0.348 N 
ATOM      5  O   UNL A   1      33.446  26.112  21.328  1.00  0.00    -0.264 OA
ATOM      6  C   UNL A   1      32.976  26.395  22.423  1.00  0.00     0.309 C 
ATOM      7  H   UNL A   1      34.534  25.758  23.585  1.00  0.00     0.163 HD
BRANCH   6   8
ATOM      8  C   UNL A   1      31.476  26.717  22.562  1.00  0.00     0.312 C 
ATOM      9  O   UNL A   1      31.058  27.686  21.931  1.00  0.00    -0.263 OA
BRANCH   8  10
ATOM     10  N   UNL A   1      30.645  25.864  23.291  1.00  0.00    -0.323 N 
ATOM     11  C   UNL A   1      29.736  26.231  24.395  1.00  0.00     0.181 C 
ATOM     12  C   UNL A   1      30.846  24.418  23.133  1.00  0.00     0.185 C 
ATOM     13  C   UNL A   1      30.049  25.471  25.730  1.00  0.00     0.284 C 
ATOM     14  C   UNL A   1      31.427  23.908  24.451  1.00  0.00     0.204 C 
ATOM     15  N   UNL A   1      30.443  24.070  25.536  1.00  0.00    -0.330 N 
ATOM     16  C   UNL A   1      31.772  22.437  24.559  1.00  0.00     0.073 C 
ATOM     17  C   UNL A   1      31.081  23.433  26.685  1.00  0.00     0.262 C 
ATOM     18  H   UNL A   1      29.543  23.631  25.339  1.00  0.00     0.348 HD
ATOM     19  C   UNL A   1      31.643  22.151  26.063  1.00  0.00     0.068 C 
ENDBRANCH   8  10
ENDBRANCH   6   8
ENDBRANCH   3   4
ENDBRANCH   2   3
ENDBRANCH   1   2
BRANCH   1  20
ATOM     20  C   UNL A   1      32.668  29.882  26.742  1.00  0.00     0.116 C 
BRANCH  20  21
ATOM     21  N   UNL A   1      32.661  31.319  26.982  1.00  0.00    -0.352 N 
ATOM     22  C   UNL A   1      33.621  32.107  27.576  1.00  0.00     0.251 C 
ATOM     23  H   UNL A   1      31.855  31.793  26.676  1.00  0.00     0.163 HD
ATOM     24  O   UNL A   1      33.396  33.302  27.755  1.00  0.00    -0.269 OA
BRANCH  22  25
ATOM     25  C   UNL A   1      34.892  31.505  28.040  1.00  0.00     0.039 A 
ATOM     26  C   UNL A   1      36.062  32.267  27.993  1.00  0.00     0.014 A 
ATOM     27  C   UNL A   1      34.925  30.209  28.560  1.00  0.00     0.014 A 
ATOM     28  C   UNL A   1      37.243  31.759  28.543  1.00  0.00     0.010 A 
ATOM     29  C   UNL A   1      36.072  29.748  29.199  1.00  0.00     0.010 A 
ATOM     30  C   UNL A   1      37.250  30.511  29.189  1.00  0.00    -0.014 A 
BRANCH  30  31
ATOM     31  C   UNL A   1      38.485  29.962  29.810  1.00  0.00     0.031 A 
ATOM     32  C   UNL A   1      38.915  30.454  31.169  1.00  0.00     0.074 A 
ATOM     33  C   UNL A   1      39.245  29.068  29.144  1.00  0.00     0.049 A 
ATOM     34  N   UNL A   1      40.000  30.179  31.848  1.00  0.00    -0.248 NA
ATOM     35  C   UNL A   1      38.019  31.412  31.836  1.00  0.00     0.031 C 
ATOM     36  C   UNL A   1      38.965  28.548  27.802  1.00  0.00     0.029 A 
ATOM     37  N   UNL A   1      40.414  28.441  29.501  1.00  0.00    -0.354 N 
ATOM     38  C   UNL A   1      39.918  30.935  33.013  1.00  0.00     0.074 A 
ATOM     39  C   UNL A   1      38.723  31.742  32.907  1.00  0.00     0.031 C 
ATOM     40  C   UNL A   1      39.919  27.665  27.463  1.00  0.00     0.029 A 
ATOM     41  C   UNL A   1      40.902  27.584  28.540  1.00  0.00     0.049 A 
ATOM     42  H   UNL A   1      40.861  28.590  30.365  1.00  0.00     0.167 HD
ATOM     43  C   UNL A   1      40.740  30.930  34.092  1.00  0.00     0.034 A 
ATOM     44  C   UNL A   1      42.017  26.825  28.527  1.00  0.00     0.034 A 
ATOM     45  C   UNL A   1      41.919  30.108  34.196  1.00  0.00     0.049 A 
ATOM     46  C   UNL A   1      42.916  26.836  29.740  1.00  0.00     0.074 A 
ATOM     47  C   UNL A   1      42.823  30.020  35.240  1.00  0.00     0.029 A 
ATOM     48  N   UNL A   1      42.353  29.219  33.221  1.00  0.00    -0.354 N 
ATOM     49  N   UNL A   1      42.807  27.539  30.845  1.00  0.00    -0.248 NA
ATOM     50  C   UNL A   1      44.071  25.931  29.717  1.00  0.00     0.031 C 
ATOM     51  C   UNL A   1      43.825  29.112  34.880  1.00  0.00     0.029 A 
ATOM     52  C   UNL A   1      43.509  28.579  33.641  1.00  0.00     0.049 A 
ATOM     53  H   UNL A   1      41.906  29.065  32.358  1.00  0.00     0.167 HD
ATOM     54  C   UNL A   1      43.855  27.122  31.664  1.00  0.00     0.074 A 
ATOM     55  C   UNL A   1      44.568  26.096  30.932  1.00  0.00     0.031 C 
ATOM     56  C   UNL A   1      44.199  27.546  32.906  1.00  0.00     0.034 A 
BRANCH  43  57
ATOM     57  C   UNL A   1      40.381  31.845  35.238  1.00  0.00     0.023 A 
ATOM     58  C   UNL A   1      39.425  31.471  36.200  1.00  0.00     0.031 A 
ATOM     59  C   UNL A   1      40.974  33.114  35.360  1.00  0.00     0.131 A 
ATOM     60  C   UNL A   1      39.036  32.381  37.193  1.00  0.00     0.055 A 
ATOM     61  C   UNL A   1      40.644  33.982  36.404  1.00  0.00     0.041 A 
ATOM     62  F   UNL A   1      41.877  33.537  34.461  1.00  0.00    -0.206 F 
ATOM     63  C   UNL A   1      39.659  33.624  37.319  1.00  0.00     0.022 A 
BRANCH  60  64
ATOM     64  S   UNL A   1      37.608  31.968  38.232  1.00  0.00     0.124 S 
ATOM     65  O   UNL A   1      37.295  30.616  37.775  1.00  0.00    -0.237 OA
ATOM     66  O   UNL A   1      38.154  32.076  39.580  1.00  0.00    -0.237 OA
ATOM     67  O   UNL A   1      36.620  32.984  37.875  1.00  0.00    -0.744 OA
ENDBRANCH  60  64
ENDBRANCH  43  57
BRANCH  44  68
ATOM     68  C   UNL A   1      42.363  25.988  27.338  1.00  0.00     0.023 A 
ATOM     69  C   UNL A   1      41.970  24.642  27.261  1.00  0.00     0.031 A 
ATOM     70  C   UNL A   1      43.163  26.497  26.302  1.00  0.00     0.131 A 
ATOM     71  C   UNL A   1      42.441  23.832  26.216  1.00  0.00     0.055 A 
ATOM     72  C   UNL A   1      43.576  25.705  25.228  1.00  0.00     0.041 A 
ATOM     73  F   UNL A   1      43.562  27.780  26.318  1.00  0.00    -0.206 F 
ATOM     74  C   UNL A   1      43.232  24.357  25.192  1.00  0.00     0.022 A 
BRANCH  71  75
ATOM     75  S   UNL A   1      42.114  22.048  26.285  1.00  0.00     0.124 S 
ATOM     76  O   UNL A   1      42.539  21.721  27.641  1.00  0.00    -0.237 OA
ATOM     77  O   UNL A   1      40.677  21.996  26.033  1.00  0.00    -0.237 OA
ATOM     78  O   UNL A   1      42.953  21.507  25.219  1.00  0.00    -0.744 OA
ENDBRANCH  71  75
ENDBRANCH  44  68
BRANCH  56  79
ATOM     79  C   UNL A   1      45.350  26.838  33.579  1.00  0.00     0.023 A 
ATOM     80  C   UNL A   1      45.159  25.703  34.385  1.00  0.00     0.031 A 
ATOM     81  C   UNL A   1      46.659  27.333  33.438  1.00  0.00     0.131 A 
ATOM     82  C   UNL A   1      46.244  25.147  35.080  1.00  0.00     0.055 A 
ATOM     83  C   UNL A   1      47.746  26.735  34.075  1.00  0.00     0.041 A 
ATOM     84  F   UNL A   1      46.902  28.415  32.678  1.00  0.00    -0.206 F 
ATOM     85  C   UNL A   1      47.539  25.647  34.918  1.00  0.00     0.022 A 
BRANCH  82  86
ATOM     86  S   UNL A   1      45.920  23.841  36.297  1.00  0.00     0.124 S 
ATOM     87  O   UNL A   1      46.820  22.782  35.854  1.00  0.00    -0.237 OA
ATOM     88  O   UNL A   1      46.273  24.494  37.553  1.00  0.00    -0.237 OA
ATOM     89  O   UNL A   1      44.495  23.558  36.124  1.00  0.00    -0.744 OA
ENDBRANCH  82  86
ENDBRANCH  56  79
ENDBRANCH  30  31
ENDBRANCH  22  25
ENDBRANCH  20  21
ENDBRANCH   1  20
TORSDOF 15
ENDMDL
