MODEL 1
REMARK VINA RESULT:     -12.2      0.000      0.000
REMARK SMILES O=C(CC1(CN2CC3(CCCCC3)CC2=O)CCCCC1)NCCCCNC(=O)c1ccc(-c2c3nc(c(-c4cc(S(=O)(=O)[O-])ccc4F)c4ccc([nH]4)c(-c4cc(S(=O)(=O)[O-])ccc4F)c4nc(c(-c5cc(S(=O)(=O)[O-])ccc5F)c5ccc2[nH]5)C=C4)C=C3)cc1
REMARK SMILES IDX 24 1 23 2 22 3 1 4 2 5 3 7 4 8 17 9 21 10 18 11 20 12 19 13
REMARK SMILES IDX 5 14 6 15 7 16 15 17 8 18 14 19 16 20 9 21 13 22 10 23 12 24
REMARK SMILES IDX 11 25 25 26 26 27 27 28 28 29 29 31 30 32 31 33 92 34 32 35
REMARK SMILES IDX 91 36 33 37 34 38 35 39 85 40 36 41 90 42 84 43 86 44 37 45
REMARK SMILES IDX 89 46 83 47 82 48 38 50 70 51 50 52 69 53 51 54 54 55 68 56
REMARK SMILES IDX 87 57 52 58 53 59 67 61 88 62 55 63 39 64 40 65 48 66 41 67
REMARK SMILES IDX 47 68 49 69 46 70 42 71 43 72 44 73 45 74 71 75 72 76 80 77
REMARK SMILES IDX 73 78 79 79 81 80 78 81 74 82 75 83 76 84 77 85 56 86 57 87
REMARK SMILES IDX 65 88 58 89 64 90 66 91 63 92 59 93 60 94 61 95 62 96
REMARK H PARENT 22 6 27 30 86 49 54 60
REMARK Flexibility Score: inf
ROOT
ATOM      1  C   UNL A   1      31.392  27.928  25.330  1.00  0.00     0.023 C 
ENDROOT
BRANCH   1   2
ATOM      2  C   UNL A   1      32.144  26.895  26.166  1.00  0.00     0.116 C 
BRANCH   2   3
ATOM      3  N   UNL A   1      32.599  25.761  25.387  1.00  0.00    -0.356 N 
ATOM      4  O   UNL A   1      31.839  24.160  26.851  1.00  0.00    -0.275 OA
ATOM      5  C   UNL A   1      32.351  24.465  25.779  1.00  0.00     0.220 C 
ATOM      6  H   UNL A   1      33.098  25.923  24.554  1.00  0.00     0.163 HD
BRANCH   5   7
ATOM      7  C   UNL A   1      32.695  23.426  24.729  1.00  0.00     0.108 C 
BRANCH   7   8
ATOM      8  C   UNL A   1      34.162  22.882  24.793  1.00  0.00    -0.003 C 
ATOM      9  C   UNL A   1      34.975  23.565  23.634  1.00  0.00     0.009 C 
ATOM     10  C   UNL A   1      34.895  23.301  26.105  1.00  0.00     0.009 C 
ATOM     11  C   UNL A   1      36.480  23.258  23.653  1.00  0.00     0.001 C 
ATOM     12  C   UNL A   1      36.401  23.051  26.151  1.00  0.00     0.001 C 
ATOM     13  C   UNL A   1      37.119  23.677  24.969  1.00  0.00     0.000 C 
BRANCH   8  14
ATOM     14  C   UNL A   1      34.135  21.354  24.447  1.00  0.00     0.127 C 
BRANCH  14  15
ATOM     15  N   UNL A   1      32.944  20.519  24.625  1.00  0.00    -0.342 N 
ATOM     16  C   UNL A   1      32.838  19.448  25.576  1.00  0.00     0.127 C 
ATOM     17  C   UNL A   1      32.317  20.073  23.428  1.00  0.00     0.223 C 
ATOM     18  C   UNL A   1      32.926  18.165  24.734  1.00  0.00    -0.003 C 
ATOM     19  C   UNL A   1      31.972  18.593  23.595  1.00  0.00     0.109 C 
ATOM     20  O   UNL A   1      32.182  20.720  22.401  1.00  0.00    -0.275 OA
ATOM     21  C   UNL A   1      34.381  18.025  24.201  1.00  0.00     0.009 C 
ATOM     22  C   UNL A   1      32.425  16.988  25.595  1.00  0.00     0.009 C 
ATOM     23  C   UNL A   1      34.963  16.632  24.080  1.00  0.00     0.001 C 
ATOM     24  C   UNL A   1      33.150  15.655  25.424  1.00  0.00     0.001 C 
ATOM     25  C   UNL A   1      34.655  15.831  25.326  1.00  0.00     0.000 C 
ENDBRANCH  14  15
ENDBRANCH   8  14
ENDBRANCH   7   8
ENDBRANCH   5   7
ENDBRANCH   2   3
ENDBRANCH   1   2
BRANCH   1  26
ATOM     26  C   UNL A   1      32.071  29.296  25.211  1.00  0.00     0.023 C 
BRANCH  26  27
ATOM     27  C   UNL A   1      33.069  29.637  26.315  1.00  0.00     0.116 C 
BRANCH  27  28
ATOM     28  N   UNL A   1      32.996  31.029  26.728  1.00  0.00    -0.352 N 
ATOM     29  C   UNL A   1      33.798  31.739  27.590  1.00  0.00     0.251 C 
ATOM     30  H   UNL A   1      32.257  31.542  26.328  1.00  0.00     0.163 HD
ATOM     31  O   UNL A   1      33.455  32.866  27.936  1.00  0.00    -0.269 OA
BRANCH  29  32
ATOM     32  C   UNL A   1      35.051  31.151  28.123  1.00  0.00     0.039 A 
ATOM     33  C   UNL A   1      36.230  31.898  28.050  1.00  0.00     0.014 A 
ATOM     34  C   UNL A   1      35.078  29.864  28.665  1.00  0.00     0.014 A 
ATOM     35  C   UNL A   1      37.417  31.384  28.584  1.00  0.00     0.010 A 
ATOM     36  C   UNL A   1      36.246  29.380  29.257  1.00  0.00     0.010 A 
ATOM     37  C   UNL A   1      37.428  30.137  29.228  1.00  0.00    -0.014 A 
BRANCH  37  38
ATOM     38  C   UNL A   1      38.660  29.611  29.880  1.00  0.00     0.031 A 
ATOM     39  C   UNL A   1      39.103  30.148  31.214  1.00  0.00     0.074 A 
ATOM     40  C   UNL A   1      39.416  28.697  29.239  1.00  0.00     0.049 A 
ATOM     41  N   UNL A   1      40.193  29.888  31.891  1.00  0.00    -0.248 NA
ATOM     42  C   UNL A   1      38.217  31.130  31.854  1.00  0.00     0.031 C 
ATOM     43  C   UNL A   1      39.116  28.123  27.927  1.00  0.00     0.029 A 
ATOM     44  N   UNL A   1      40.599  28.100  29.599  1.00  0.00    -0.354 N 
ATOM     45  C   UNL A   1      40.131  30.681  33.033  1.00  0.00     0.074 A 
ATOM     46  C   UNL A   1      38.923  31.474  32.921  1.00  0.00     0.031 C 
ATOM     47  C   UNL A   1      40.081  27.249  27.598  1.00  0.00     0.029 A 
ATOM     48  C   UNL A   1      41.090  27.230  28.652  1.00  0.00     0.049 A 
ATOM     49  H   UNL A   1      41.054  28.278  30.454  1.00  0.00     0.167 HD
ATOM     50  C   UNL A   1      40.986  30.728  34.085  1.00  0.00     0.034 A 
ATOM     51  C   UNL A   1      42.230  26.511  28.626  1.00  0.00     0.034 A 
ATOM     52  C   UNL A   1      42.181  29.925  34.191  1.00  0.00     0.049 A 
ATOM     53  C   UNL A   1      43.176  26.593  29.795  1.00  0.00     0.074 A 
ATOM     54  C   UNL A   1      43.089  29.860  35.234  1.00  0.00     0.029 A 
ATOM     55  N   UNL A   1      42.639  29.047  33.216  1.00  0.00    -0.354 N 
ATOM     56  N   UNL A   1      43.082  27.321  30.884  1.00  0.00    -0.248 NA
ATOM     57  C   UNL A   1      44.377  25.749  29.736  1.00  0.00     0.031 C 
ATOM     58  C   UNL A   1      44.126  28.994  34.865  1.00  0.00     0.029 A 
ATOM     59  C   UNL A   1      43.830  28.460  33.621  1.00  0.00     0.049 A 
ATOM     60  H   UNL A   1      42.185  28.868  32.360  1.00  0.00     0.167 HD
ATOM     61  C   UNL A   1      44.199  27.000  31.651  1.00  0.00     0.074 A 
ATOM     62  C   UNL A   1      44.943  26.005  30.906  1.00  0.00     0.031 C 
ATOM     63  C   UNL A   1      44.572  27.480  32.865  1.00  0.00     0.034 A 
BRANCH  50  64
ATOM     64  C   UNL A   1      40.665  31.703  35.194  1.00  0.00     0.023 A 
ATOM     65  C   UNL A   1      39.606  31.476  36.091  1.00  0.00     0.031 A 
ATOM     66  C   UNL A   1      41.405  32.890  35.339  1.00  0.00     0.131 A 
ATOM     67  C   UNL A   1      39.264  32.456  37.034  1.00  0.00     0.055 A 
ATOM     68  C   UNL A   1      41.113  33.823  36.336  1.00  0.00     0.041 A 
ATOM     69  F   UNL A   1      42.415  33.173  34.502  1.00  0.00    -0.206 F 
ATOM     70  C   UNL A   1      40.025  33.617  37.180  1.00  0.00     0.022 A 
BRANCH  67  71
ATOM     71  S   UNL A   1      37.716  32.261  37.960  1.00  0.00     0.124 S 
ATOM     72  O   UNL A   1      36.812  33.128  37.207  1.00  0.00    -0.237 OA
ATOM     73  O   UNL A   1      37.465  30.829  37.855  1.00  0.00    -0.237 OA
ATOM     74  O   UNL A   1      38.055  32.740  39.299  1.00  0.00    -0.744 OA
ENDBRANCH  67  71
ENDBRANCH  50  64
BRANCH  51  75
ATOM     75  C   UNL A   1      42.555  25.661  27.445  1.00  0.00     0.023 A 
ATOM     76  C   UNL A   1      42.130  24.326  27.375  1.00  0.00     0.031 A 
ATOM     77  C   UNL A   1      43.325  26.167  26.383  1.00  0.00     0.131 A 
ATOM     78  C   UNL A   1      42.516  23.527  26.288  1.00  0.00     0.055 A 
ATOM     79  C   UNL A   1      43.666  25.381  25.280  1.00  0.00     0.041 A 
ATOM     80  F   UNL A   1      43.749  27.442  26.398  1.00  0.00    -0.206 F 
ATOM     81  C   UNL A   1      43.270  24.048  25.234  1.00  0.00     0.022 A 
BRANCH  78  82
ATOM     82  S   UNL A   1      42.076  21.766  26.306  1.00  0.00     0.124 S 
ATOM     83  O   UNL A   1      42.415  21.389  27.673  1.00  0.00    -0.237 OA
ATOM     84  O   UNL A   1      40.653  21.809  25.986  1.00  0.00    -0.237 OA
ATOM     85  O   UNL A   1      42.929  21.192  25.268  1.00  0.00    -0.744 OA
ENDBRANCH  78  82
ENDBRANCH  51  75
BRANCH  63  86
ATOM     86  C   UNL A   1      45.822  26.898  33.476  1.00  0.00     0.023 A 
ATOM     87  C   UNL A   1      45.786  25.749  34.285  1.00  0.00     0.031 A 
ATOM     88  C   UNL A   1      47.067  27.515  33.258  1.00  0.00     0.131 A 
ATOM     89  C   UNL A   1      46.964  25.282  34.889  1.00  0.00     0.055 A 
ATOM     90  C   UNL A   1      48.244  27.014  33.817  1.00  0.00     0.041 A 
ATOM     91  F   UNL A   1      47.159  28.616  32.495  1.00  0.00    -0.206 F 
ATOM     92  C   UNL A   1      48.194  25.899  34.648  1.00  0.00     0.022 A 
BRANCH  89  93
ATOM     93  S   UNL A   1      46.854  23.905  36.065  1.00  0.00     0.124 S 
ATOM     94  O   UNL A   1      45.536  23.356  35.767  1.00  0.00    -0.237 OA
ATOM     95  O   UNL A   1      47.992  23.076  35.681  1.00  0.00    -0.237 OA
ATOM     96  O   UNL A   1      46.975  24.556  37.368  1.00  0.00    -0.744 OA
ENDBRANCH  89  93
ENDBRANCH  63  86
ENDBRANCH  37  38
ENDBRANCH  29  32
ENDBRANCH  27  28
ENDBRANCH  26  27
ENDBRANCH   1  26
TORSDOF 17
ENDMDL
MODEL 2
REMARK VINA RESULT:     -12.2      5.641      8.317
REMARK SMILES O=C(CC1(CN2CC3(CCCCC3)CC2=O)CCCCC1)NCCCCNC(=O)c1ccc(-c2c3nc(c(-c4cc(S(=O)(=O)[O-])ccc4F)c4ccc([nH]4)c(-c4cc(S(=O)(=O)[O-])ccc4F)c4nc(c(-c5cc(S(=O)(=O)[O-])ccc5F)c5ccc2[nH]5)C=C4)C=C3)cc1
REMARK SMILES IDX 24 1 23 2 22 3 1 4 2 5 3 7 4 8 17 9 21 10 18 11 20 12 19 13
REMARK SMILES IDX 5 14 6 15 7 16 15 17 8 18 14 19 16 20 9 21 13 22 10 23 12 24
REMARK SMILES IDX 11 25 25 26 26 27 27 28 28 29 29 31 30 32 31 33 92 34 32 35
REMARK SMILES IDX 91 36 33 37 34 38 35 39 85 40 36 41 90 42 84 43 86 44 37 45
REMARK SMILES IDX 89 46 83 47 82 48 38 50 70 51 50 52 69 53 51 54 54 55 68 56
REMARK SMILES IDX 87 57 52 58 53 59 67 61 88 62 55 63 39 64 40 65 48 66 41 67
REMARK SMILES IDX 47 68 49 69 46 70 42 71 43 72 44 73 45 74 71 75 72 76 80 77
REMARK SMILES IDX 73 78 79 79 81 80 78 81 74 82 75 83 76 84 77 85 56 86 57 87
REMARK SMILES IDX 65 88 58 89 64 90 66 91 63 92 59 93 60 94 61 95 62 96
REMARK H PARENT 22 6 27 30 86 49 54 60
REMARK Flexibility Score: inf
ROOT
ATOM      1  C   UNL A   1      37.117  20.591  25.037  1.00  0.00     0.023 C 
ENDROOT
BRANCH   1   2
ATOM      2  C   UNL A   1      37.377  21.971  24.438  1.00  0.00     0.116 C 
BRANCH   2   3
ATOM      3  N   UNL A   1      36.302  22.909  24.694  1.00  0.00    -0.356 N 
ATOM      4  O   UNL A   1      35.665  23.130  22.496  1.00  0.00    -0.275 OA
ATOM      5  C   UNL A   1      35.488  23.372  23.686  1.00  0.00     0.220 C 
ATOM      6  H   UNL A   1      36.150  23.223  25.615  1.00  0.00     0.163 HD
BRANCH   5   7
ATOM      7  C   UNL A   1      34.284  24.156  24.175  1.00  0.00     0.108 C 
BRANCH   7   8
ATOM      8  C   UNL A   1      33.197  23.304  24.914  1.00  0.00    -0.003 C 
ATOM      9  C   UNL A   1      33.390  23.521  26.459  1.00  0.00     0.009 C 
ATOM     10  C   UNL A   1      31.748  23.800  24.613  1.00  0.00     0.009 C 
ATOM     11  C   UNL A   1      32.300  22.877  27.328  1.00  0.00     0.001 C 
ATOM     12  C   UNL A   1      30.637  23.215  25.481  1.00  0.00     0.001 C 
ATOM     13  C   UNL A   1      30.916  23.394  26.963  1.00  0.00     0.000 C 
BRANCH   8  14
ATOM     14  C   UNL A   1      33.502  21.789  24.658  1.00  0.00     0.127 C 
BRANCH  14  15
ATOM     15  N   UNL A   1      32.449  20.789  24.457  1.00  0.00    -0.342 N 
ATOM     16  C   UNL A   1      32.267  19.626  25.280  1.00  0.00     0.127 C 
ATOM     17  C   UNL A   1      32.230  20.383  23.111  1.00  0.00     0.223 C 
ATOM     18  C   UNL A   1      32.767  18.454  24.418  1.00  0.00    -0.003 C 
ATOM     19  C   UNL A   1      32.087  18.862  23.091  1.00  0.00     0.109 C 
ATOM     20  O   UNL A   1      32.267  21.105  22.126  1.00  0.00    -0.275 OA
ATOM     21  C   UNL A   1      34.315  18.563  24.292  1.00  0.00     0.009 C 
ATOM     22  C   UNL A   1      32.249  17.142  25.040  1.00  0.00     0.009 C 
ATOM     23  C   UNL A   1      35.115  17.278  24.250  1.00  0.00     0.001 C 
ATOM     24  C   UNL A   1      33.190  15.942  24.993  1.00  0.00     0.001 C 
ATOM     25  C   UNL A   1      34.624  16.325  25.317  1.00  0.00     0.000 C 
ENDBRANCH  14  15
ENDBRANCH   8  14
ENDBRANCH   7   8
ENDBRANCH   5   7
ENDBRANCH   2   3
ENDBRANCH   1   2
BRANCH   1  26
ATOM     26  C   UNL A   1      38.327  19.653  25.076  1.00  0.00     0.023 C 
BRANCH  26  27
ATOM     27  C   UNL A   1      39.561  20.195  25.794  1.00  0.00     0.116 C 
BRANCH  27  28
ATOM     28  N   UNL A   1      40.560  19.170  26.046  1.00  0.00    -0.352 N 
ATOM     29  C   UNL A   1      41.898  19.292  26.337  1.00  0.00     0.251 C 
ATOM     30  H   UNL A   1      40.225  18.245  26.002  1.00  0.00     0.163 HD
ATOM     31  O   UNL A   1      42.603  18.287  26.342  1.00  0.00    -0.269 OA
BRANCH  29  32
ATOM     32  C   UNL A   1      42.499  20.618  26.615  1.00  0.00     0.039 A 
ATOM     33  C   UNL A   1      43.021  21.358  25.550  1.00  0.00     0.014 A 
ATOM     34  C   UNL A   1      42.579  21.123  27.915  1.00  0.00     0.014 A 
ATOM     35  C   UNL A   1      43.556  22.631  25.779  1.00  0.00     0.010 A 
ATOM     36  C   UNL A   1      43.052  22.418  28.133  1.00  0.00     0.010 A 
ATOM     37  C   UNL A   1      43.541  23.190  27.067  1.00  0.00    -0.014 A 
BRANCH  37  38
ATOM     38  C   UNL A   1      44.024  24.576  27.317  1.00  0.00     0.031 A 
ATOM     39  C   UNL A   1      43.077  25.635  27.811  1.00  0.00     0.074 A 
ATOM     40  C   UNL A   1      45.303  24.898  27.034  1.00  0.00     0.049 A 
ATOM     41  N   UNL A   1      43.286  26.915  27.993  1.00  0.00    -0.248 NA
ATOM     42  C   UNL A   1      41.705  25.202  28.109  1.00  0.00     0.031 C 
ATOM     43  C   UNL A   1      46.313  23.973  26.516  1.00  0.00     0.029 A 
ATOM     44  N   UNL A   1      45.970  26.095  27.130  1.00  0.00    -0.354 N 
ATOM     45  C   UNL A   1      42.071  27.443  28.418  1.00  0.00     0.074 A 
ATOM     46  C   UNL A   1      41.118  26.352  28.406  1.00  0.00     0.031 C 
ATOM     47  C   UNL A   1      47.471  24.632  26.353  1.00  0.00     0.029 A 
ATOM     48  C   UNL A   1      47.279  26.034  26.711  1.00  0.00     0.049 A 
ATOM     49  H   UNL A   1      45.550  26.920  27.467  1.00  0.00     0.167 HD
ATOM     50  C   UNL A   1      41.782  28.711  28.803  1.00  0.00     0.034 A 
ATOM     51  C   UNL A   1      48.216  26.998  26.611  1.00  0.00     0.034 A 
ATOM     52  C   UNL A   1      42.743  29.789  28.822  1.00  0.00     0.049 A 
ATOM     53  C   UNL A   1      47.868  28.405  27.024  1.00  0.00     0.074 A 
ATOM     54  C   UNL A   1      42.566  31.097  29.239  1.00  0.00     0.029 A 
ATOM     55  N   UNL A   1      44.063  29.686  28.400  1.00  0.00    -0.354 N 
ATOM     56  N   UNL A   1      46.724  28.878  27.460  1.00  0.00    -0.248 NA
ATOM     57  C   UNL A   1      48.942  29.404  26.943  1.00  0.00     0.031 C 
ATOM     58  C   UNL A   1      43.757  31.798  29.012  1.00  0.00     0.029 A 
ATOM     59  C   UNL A   1      44.701  30.912  28.521  1.00  0.00     0.049 A 
ATOM     60  H   UNL A   1      44.484  28.861  28.064  1.00  0.00     0.167 HD
ATOM     61  C   UNL A   1      46.949  30.225  27.729  1.00  0.00     0.074 A 
ATOM     62  C   UNL A   1      48.341  30.483  27.421  1.00  0.00     0.031 C 
ATOM     63  C   UNL A   1      46.086  31.162  28.197  1.00  0.00     0.034 A 
BRANCH  50  64
ATOM     64  C   UNL A   1      40.357  29.002  29.213  1.00  0.00     0.023 A 
ATOM     65  C   UNL A   1      39.950  28.945  30.557  1.00  0.00     0.031 A 
ATOM     66  C   UNL A   1      39.383  29.308  28.245  1.00  0.00     0.131 A 
ATOM     67  C   UNL A   1      38.597  29.107  30.889  1.00  0.00     0.055 A 
ATOM     68  C   UNL A   1      38.052  29.552  28.591  1.00  0.00     0.041 A 
ATOM     69  F   UNL A   1      39.704  29.358  26.943  1.00  0.00    -0.206 F 
ATOM     70  C   UNL A   1      37.648  29.434  29.918  1.00  0.00     0.022 A 
BRANCH  67  71
ATOM     71  S   UNL A   1      38.070  28.726  32.582  1.00  0.00     0.124 S 
ATOM     72  O   UNL A   1      39.072  29.444  33.369  1.00  0.00    -0.237 OA
ATOM     73  O   UNL A   1      36.717  29.269  32.621  1.00  0.00    -0.237 OA
ATOM     74  O   UNL A   1      38.162  27.270  32.651  1.00  0.00    -0.744 OA
ENDBRANCH  67  71
ENDBRANCH  50  64
BRANCH  51  75
ATOM     75  C   UNL A   1      49.571  26.677  26.079  1.00  0.00     0.023 A 
ATOM     76  C   UNL A   1      49.959  27.084  24.794  1.00  0.00     0.031 A 
ATOM     77  C   UNL A   1      50.484  25.926  26.841  1.00  0.00     0.131 A 
ATOM     78  C   UNL A   1      51.212  26.701  24.290  1.00  0.00     0.055 A 
ATOM     79  C   UNL A   1      51.748  25.589  26.353  1.00  0.00     0.041 A 
ATOM     80  F   UNL A   1      50.163  25.520  28.080  1.00  0.00    -0.206 F 
ATOM     81  C   UNL A   1      52.114  25.967  25.064  1.00  0.00     0.022 A 
BRANCH  78  82
ATOM     82  S   UNL A   1      51.620  27.116  22.572  1.00  0.00     0.124 S 
ATOM     83  O   UNL A   1      50.358  26.843  21.893  1.00  0.00    -0.237 OA
ATOM     84  O   UNL A   1      51.997  28.522  22.683  1.00  0.00    -0.237 OA
ATOM     85  O   UNL A   1      52.714  26.202  22.251  1.00  0.00    -0.744 OA
ENDBRANCH  78  82
ENDBRANCH  51  75
BRANCH  63  86
ATOM     86  C   UNL A   1      46.640  32.544  28.440  1.00  0.00     0.023 A 
ATOM     87  C   UNL A   1      46.756  33.488  27.404  1.00  0.00     0.031 A 
ATOM     88  C   UNL A   1      47.074  32.915  29.725  1.00  0.00     0.131 A 
ATOM     89  C   UNL A   1      47.341  34.738  27.661  1.00  0.00     0.055 A 
ATOM     90  C   UNL A   1      47.604  34.179  29.986  1.00  0.00     0.041 A 
ATOM     91  F   UNL A   1      46.988  32.051  30.750  1.00  0.00    -0.206 F 
ATOM     92  C   UNL A   1      47.752  35.094  28.948  1.00  0.00     0.022 A 
BRANCH  89  93
ATOM     93  S   UNL A   1      47.636  35.865  26.270  1.00  0.00     0.124 S 
ATOM     94  O   UNL A   1      47.717  34.942  25.143  1.00  0.00    -0.237 OA
ATOM     95  O   UNL A   1      46.457  36.723  26.308  1.00  0.00    -0.237 OA
ATOM     96  O   UNL A   1      48.893  36.524  26.623  1.00  0.00    -0.744 OA
ENDBRANCH  89  93
ENDBRANCH  63  86
ENDBRANCH  37  38
ENDBRANCH  29  32
ENDBRANCH  27  28
ENDBRANCH  26  27
ENDBRANCH   1  26
TORSDOF 17
ENDMDL
MODEL 3
REMARK VINA RESULT:     -11.8      3.227      8.549
REMARK SMILES O=C(CC1(CN2CC3(CCCCC3)CC2=O)CCCCC1)NCCCCNC(=O)c1ccc(-c2c3nc(c(-c4cc(S(=O)(=O)[O-])ccc4F)c4ccc([nH]4)c(-c4cc(S(=O)(=O)[O-])ccc4F)c4nc(c(-c5cc(S(=O)(=O)[O-])ccc5F)c5ccc2[nH]5)C=C4)C=C3)cc1
REMARK SMILES IDX 24 1 23 2 22 3 1 4 2 5 3 7 4 8 17 9 21 10 18 11 20 12 19 13
REMARK SMILES IDX 5 14 6 15 7 16 15 17 8 18 14 19 16 20 9 21 13 22 10 23 12 24
REMARK SMILES IDX 11 25 25 26 26 27 27 28 28 29 29 31 30 32 31 33 92 34 32 35
REMARK SMILES IDX 91 36 33 37 34 38 35 39 85 40 36 41 90 42 84 43 86 44 37 45
REMARK SMILES IDX 89 46 83 47 82 48 38 50 70 51 50 52 69 53 51 54 54 55 68 56
REMARK SMILES IDX 87 57 52 58 53 59 67 61 88 62 55 63 39 64 40 65 48 66 41 67
REMARK SMILES IDX 47 68 49 69 46 70 42 71 43 72 44 73 45 74 71 75 72 76 80 77
REMARK SMILES IDX 73 78 79 79 81 80 78 81 74 82 75 83 76 84 77 85 56 86 57 87
REMARK SMILES IDX 65 88 58 89 64 90 66 91 63 92 59 93 60 94 61 95 62 96
REMARK H PARENT 22 6 27 30 86 49 54 60
REMARK Flexibility Score: inf
ROOT
ATOM      1  C   UNL A   1      34.528  30.801  27.979  1.00  0.00     0.023 C 
ENDROOT
BRANCH   1   2
ATOM      2  C   UNL A   1      34.712  29.638  27.008  1.00  0.00     0.116 C 
BRANCH   2   3
ATOM      3  N   UNL A   1      33.505  28.856  26.828  1.00  0.00    -0.356 N 
ATOM      4  O   UNL A   1      32.943  29.771  24.795  1.00  0.00    -0.275 OA
ATOM      5  C   UNL A   1      32.741  28.953  25.687  1.00  0.00     0.220 C 
ATOM      6  H   UNL A   1      33.225  28.237  27.541  1.00  0.00     0.163 HD
BRANCH   5   7
ATOM      7  C   UNL A   1      31.657  27.897  25.578  1.00  0.00     0.108 C 
BRANCH   7   8
ATOM      8  C   UNL A   1      31.945  26.758  24.544  1.00  0.00    -0.003 C 
ATOM      9  C   UNL A   1      30.736  26.708  23.540  1.00  0.00     0.009 C 
ATOM     10  C   UNL A   1      33.194  27.060  23.659  1.00  0.00     0.009 C 
ATOM     11  C   UNL A   1      30.934  25.745  22.361  1.00  0.00     0.001 C 
ATOM     12  C   UNL A   1      33.407  26.150  22.451  1.00  0.00     0.001 C 
ATOM     13  C   UNL A   1      32.180  26.090  21.559  1.00  0.00     0.000 C 
BRANCH   8  14
ATOM     14  C   UNL A   1      31.921  25.387  25.302  1.00  0.00     0.127 C 
BRANCH  14  15
ATOM     15  N   UNL A   1      32.975  24.976  26.234  1.00  0.00    -0.342 N 
ATOM     16  C   UNL A   1      34.381  25.157  25.999  1.00  0.00     0.127 C 
ATOM     17  C   UNL A   1      32.815  23.689  26.819  1.00  0.00     0.223 C 
ATOM     18  C   UNL A   1      34.906  23.751  25.661  1.00  0.00    -0.003 C 
ATOM     19  C   UNL A   1      34.166  22.975  26.775  1.00  0.00     0.109 C 
ATOM     20  O   UNL A   1      31.762  23.191  27.187  1.00  0.00    -0.275 OA
ATOM     21  C   UNL A   1      34.362  23.347  24.261  1.00  0.00     0.009 C 
ATOM     22  C   UNL A   1      36.443  23.767  25.789  1.00  0.00     0.009 C 
ATOM     23  C   UNL A   1      35.255  22.515  23.365  1.00  0.00     0.001 C 
ATOM     24  C   UNL A   1      37.225  22.939  24.773  1.00  0.00     0.001 C 
ATOM     25  C   UNL A   1      36.661  23.074  23.370  1.00  0.00     0.000 C 
ENDBRANCH  14  15
ENDBRANCH   8  14
ENDBRANCH   7   8
ENDBRANCH   5   7
ENDBRANCH   2   3
ENDBRANCH   1   2
BRANCH   1  26
ATOM     26  C   UNL A   1      33.222  31.585  27.824  1.00  0.00     0.023 C 
BRANCH  26  27
ATOM     27  C   UNL A   1      33.305  32.848  26.968  1.00  0.00     0.116 C 
BRANCH  27  28
ATOM     28  N   UNL A   1      32.816  34.029  27.660  1.00  0.00    -0.352 N 
ATOM     29  C   UNL A   1      33.205  34.574  28.861  1.00  0.00     0.251 C 
ATOM     30  H   UNL A   1      32.095  34.513  27.197  1.00  0.00     0.163 HD
ATOM     31  O   UNL A   1      32.539  35.482  29.350  1.00  0.00    -0.269 OA
BRANCH  29  32
ATOM     32  C   UNL A   1      34.397  34.062  29.580  1.00  0.00     0.039 A 
ATOM     33  C   UNL A   1      34.211  33.316  30.747  1.00  0.00     0.014 A 
ATOM     34  C   UNL A   1      35.691  34.335  29.131  1.00  0.00     0.014 A 
ATOM     35  C   UNL A   1      35.316  32.786  31.422  1.00  0.00     0.010 A 
ATOM     36  C   UNL A   1      36.788  33.751  29.766  1.00  0.00     0.010 A 
ATOM     37  C   UNL A   1      36.614  32.965  30.916  1.00  0.00    -0.014 A 
BRANCH  37  38
ATOM     38  C   UNL A   1      37.795  32.335  31.569  1.00  0.00     0.031 A 
ATOM     39  C   UNL A   1      38.510  31.189  30.907  1.00  0.00     0.074 A 
ATOM     40  C   UNL A   1      38.183  32.753  32.791  1.00  0.00     0.049 A 
ATOM     41  N   UNL A   1      39.491  30.451  31.361  1.00  0.00    -0.248 NA
ATOM     42  C   UNL A   1      38.036  30.803  29.570  1.00  0.00     0.031 C 
ATOM     43  C   UNL A   1      37.552  33.829  33.556  1.00  0.00     0.029 A 
ATOM     44  N   UNL A   1      39.193  32.312  33.611  1.00  0.00    -0.354 N 
ATOM     45  C   UNL A   1      39.748  29.507  30.372  1.00  0.00     0.074 A 
ATOM     46  C   UNL A   1      38.775  29.732  29.322  1.00  0.00     0.031 C 
ATOM     47  C   UNL A   1      38.196  33.974  34.725  1.00  0.00     0.029 A 
ATOM     48  C   UNL A   1      39.256  32.975  34.815  1.00  0.00     0.049 A 
ATOM     49  H   UNL A   1      39.813  31.589  33.361  1.00  0.00     0.167 HD
ATOM     50  C   UNL A   1      40.716  28.557  30.331  1.00  0.00     0.034 A 
ATOM     51  C   UNL A   1      40.064  32.792  35.878  1.00  0.00     0.034 A 
ATOM     52  C   UNL A   1      41.687  28.349  31.378  1.00  0.00     0.049 A 
ATOM     53  C   UNL A   1      41.119  31.718  35.821  1.00  0.00     0.074 A 
ATOM     54  C   UNL A   1      42.738  27.448  31.416  1.00  0.00     0.029 A 
ATOM     55  N   UNL A   1      41.726  29.048  32.578  1.00  0.00    -0.354 N 
ATOM     56  N   UNL A   1      41.371  30.859  34.861  1.00  0.00    -0.248 NA
ATOM     57  C   UNL A   1      42.005  31.596  36.987  1.00  0.00     0.031 C 
ATOM     58  C   UNL A   1      43.371  27.558  32.660  1.00  0.00     0.029 A 
ATOM     59  C   UNL A   1      42.763  28.578  33.373  1.00  0.00     0.049 A 
ATOM     60  H   UNL A   1      41.107  29.771  32.830  1.00  0.00     0.167 HD
ATOM     61  C   UNL A   1      42.463  30.113  35.298  1.00  0.00     0.074 A 
ATOM     62  C   UNL A   1      42.828  30.633  36.600  1.00  0.00     0.031 C 
ATOM     63  C   UNL A   1      43.110  29.095  34.675  1.00  0.00     0.034 A 
BRANCH  50  64
ATOM     64  C   UNL A   1      40.750  27.656  29.118  1.00  0.00     0.023 A 
ATOM     65  C   UNL A   1      41.688  27.843  28.088  1.00  0.00     0.031 A 
ATOM     66  C   UNL A   1      39.814  26.617  28.973  1.00  0.00     0.131 A 
ATOM     67  C   UNL A   1      41.618  27.062  26.925  1.00  0.00     0.055 A 
ATOM     68  C   UNL A   1      39.802  25.787  27.849  1.00  0.00     0.041 A 
ATOM     69  F   UNL A   1      38.880  26.400  29.912  1.00  0.00    -0.206 F 
ATOM     70  C   UNL A   1      40.697  26.019  26.808  1.00  0.00     0.022 A 
BRANCH  67  71
ATOM     71  S   UNL A   1      42.643  27.533  25.504  1.00  0.00     0.124 S 
ATOM     72  O   UNL A   1      41.873  28.641  24.942  1.00  0.00    -0.237 OA
ATOM     73  O   UNL A   1      43.909  27.888  26.134  1.00  0.00    -0.237 OA
ATOM     74  O   UNL A   1      42.670  26.324  24.685  1.00  0.00    -0.744 OA
ENDBRANCH  67  71
ENDBRANCH  50  64
BRANCH  51  75
ATOM     75  C   UNL A   1      39.900  33.630  37.100  1.00  0.00     0.023 A 
ATOM     76  C   UNL A   1      40.704  34.759  37.316  1.00  0.00     0.031 A 
ATOM     77  C   UNL A   1      38.957  33.291  38.086  1.00  0.00     0.131 A 
ATOM     78  C   UNL A   1      40.582  35.486  38.510  1.00  0.00     0.055 A 
ATOM     79  C   UNL A   1      38.805  34.045  39.251  1.00  0.00     0.041 A 
ATOM     80  F   UNL A   1      38.157  32.224  37.922  1.00  0.00    -0.206 F 
ATOM     81  C   UNL A   1      39.630  35.144  39.474  1.00  0.00     0.022 A 
BRANCH  78  82
ATOM     82  S   UNL A   1      41.739  36.848  38.822  1.00  0.00     0.124 S 
ATOM     83  O   UNL A   1      42.543  36.310  39.913  1.00  0.00    -0.237 OA
ATOM     84  O   UNL A   1      42.411  36.973  37.532  1.00  0.00    -0.237 OA
ATOM     85  O   UNL A   1      40.865  37.963  39.177  1.00  0.00    -0.744 OA
ENDBRANCH  78  82
ENDBRANCH  51  75
BRANCH  63  86
ATOM     86  C   UNL A   1      44.305  28.508  35.385  1.00  0.00     0.023 A 
ATOM     87  C   UNL A   1      44.173  27.471  36.325  1.00  0.00     0.031 A 
ATOM     88  C   UNL A   1      45.595  29.006  35.125  1.00  0.00     0.131 A 
ATOM     89  C   UNL A   1      45.304  27.002  37.011  1.00  0.00     0.055 A 
ATOM     90  C   UNL A   1      46.723  28.497  35.770  1.00  0.00     0.041 A 
ATOM     91  F   UNL A   1      45.778  29.997  34.237  1.00  0.00    -0.206 F 
ATOM     92  C   UNL A   1      46.580  27.498  36.728  1.00  0.00     0.022 A 
BRANCH  89  93
ATOM     93  S   UNL A   1      45.077  25.790  38.342  1.00  0.00     0.124 S 
ATOM     94  O   UNL A   1      44.017  26.404  39.134  1.00  0.00    -0.237 OA
ATOM     95  O   UNL A   1      44.708  24.585  37.606  1.00  0.00    -0.237 OA
ATOM     96  O   UNL A   1      46.386  25.742  38.990  1.00  0.00    -0.744 OA
ENDBRANCH  89  93
ENDBRANCH  63  86
ENDBRANCH  37  38
ENDBRANCH  29  32
ENDBRANCH  27  28
ENDBRANCH  26  27
ENDBRANCH   1  26
TORSDOF 17
ENDMDL
