MODEL 1
REMARK VINA RESULT:     -12.2      0.000      0.000
REMARK SMILES CNc1nc(C(=O)N2C[C@@H](C(=O)NCCCCNC(=O)c3ccc(-c4c5nc(c(-c6cc(S(=O)(=O)[O-])ccc6F)c6ccc([nH]6)c(-c6cc(S(=O)(=O)[O-])ccc6F)c6nc(c(-c7cc(S(=O)(=O)[O-])ccc7F)c7ccc4[nH]7)C=C6)C=C5)cc3)[C@H](c3ccccc3C)C2)cs1
REMARK SMILES IDX 15 1 14 2 13 3 11 4 12 5 10 7 8 8 9 9 92 10 84 11 6 12 7 13
REMARK SMILES IDX 5 14 3 15 4 16 94 17 93 18 2 19 1 20 85 22 86 23 90 24 87 25
REMARK SMILES IDX 89 26 91 27 88 28 16 29 17 30 18 31 19 32 20 34 21 35 22 36
REMARK SMILES IDX 83 37 23 38 82 39 24 40 25 41 26 42 76 43 27 44 81 45 75 46
REMARK SMILES IDX 77 47 28 48 80 49 74 50 73 51 29 53 61 54 41 55 60 56 42 57
REMARK SMILES IDX 45 58 59 59 78 60 43 61 44 62 58 64 79 65 46 66 30 67 31 68
REMARK SMILES IDX 39 69 32 70 38 71 40 72 37 73 33 74 34 75 35 76 36 77 62 78
REMARK SMILES IDX 63 79 71 80 64 81 70 82 72 83 69 84 65 85 66 86 67 87 68 88
REMARK SMILES IDX 47 89 48 90 56 91 49 92 55 93 57 94 54 95 50 96 51 97 52 98
REMARK SMILES IDX 53 99
REMARK H PARENT 13 6 2 21 18 33 77 52 45 63
REMARK Flexibility Score: inf
ROOT
ATOM      1  C   UNL A   1      32.009  29.412  26.843  1.00  0.00     0.023 C 
ENDROOT
BRANCH   1   2
ATOM      2  C   UNL A   1      33.309  28.655  26.590  1.00  0.00     0.116 C 
BRANCH   2   3
ATOM      3  N   UNL A   1      33.875  28.928  25.278  1.00  0.00    -0.356 N 
ATOM      4  C   UNL A   1      33.465  28.578  24.030  1.00  0.00     0.225 C 
ATOM      5  O   UNL A   1      33.644  29.439  23.161  1.00  0.00    -0.275 OA
ATOM      6  H   UNL A   1      34.701  29.462  25.298  1.00  0.00     0.163 HD
BRANCH   4   7
ATOM      7  C   UNL A   1      32.916  27.215  23.624  1.00  0.00     0.107 C 
ATOM      8  N   UNL A   1      33.160  25.180  22.561  1.00  0.00    -0.336 N 
ATOM      9  C   UNL A   1      33.946  26.199  23.202  1.00  0.00     0.134 C 
ATOM     10  C   UNL A   1      32.190  25.839  21.710  1.00  0.00     0.129 C 
ATOM     11  C   UNL A   1      31.881  27.194  22.446  1.00  0.00     0.053 C 
BRANCH   8  12
ATOM     12  C   UNL A   1      33.318  23.814  22.687  1.00  0.00     0.273 C 
ATOM     13  O   UNL A   1      33.409  23.069  21.716  1.00  0.00    -0.267 OA
BRANCH  12  14
ATOM     14  C   UNL A   1      33.341  23.296  24.065  1.00  0.00     0.141 A 
ATOM     15  C   UNL A   1      32.410  22.730  26.019  1.00  0.00     0.183 A 
ATOM     16  N   UNL A   1      32.174  23.228  24.831  1.00  0.00    -0.215 NA
ATOM     17  S   UNL A   1      34.057  22.314  26.301  1.00  0.00    -0.105 S 
ATOM     18  C   UNL A   1      34.459  22.801  24.706  1.00  0.00     0.102 A 
BRANCH  15  19
ATOM     19  N   UNL A   1      31.474  22.536  26.967  1.00  0.00    -0.365 N 
ATOM     20  C   UNL A   1      30.137  23.052  26.807  1.00  0.00     0.142 C 
ATOM     21  H   UNL A   1      31.707  22.034  27.781  1.00  0.00     0.162 HD
ENDBRANCH  15  19
ENDBRANCH  12  14
ENDBRANCH   8  12
BRANCH  11  22
ATOM     22  C   UNL A   1      30.422  27.376  22.897  1.00  0.00    -0.039 A 
ATOM     23  C   UNL A   1      29.751  26.348  23.596  1.00  0.00     0.004 A 
ATOM     24  C   UNL A   1      29.684  28.555  22.626  1.00  0.00    -0.048 A 
ATOM     25  C   UNL A   1      28.404  26.450  23.964  1.00  0.00     0.000 A 
ATOM     26  C   UNL A   1      28.340  28.659  23.050  1.00  0.00     0.004 A 
ATOM     27  C   UNL A   1      30.236  29.779  21.944  1.00  0.00     0.044 C 
ATOM     28  C   UNL A   1      27.697  27.609  23.694  1.00  0.00     0.000 A 
ENDBRANCH  11  22
ENDBRANCH   4   7
ENDBRANCH   2   3
ENDBRANCH   1   2
BRANCH   1  29
ATOM     29  C   UNL A   1      32.077  30.914  26.535  1.00  0.00     0.023 C 
BRANCH  29  30
ATOM     30  C   UNL A   1      33.116  31.709  27.329  1.00  0.00     0.116 C 
BRANCH  30  31
ATOM     31  N   UNL A   1      32.756  33.103  27.531  1.00  0.00    -0.352 N 
ATOM     32  C   UNL A   1      33.315  34.015  28.396  1.00  0.00     0.251 C 
ATOM     33  H   UNL A   1      32.016  33.439  26.975  1.00  0.00     0.163 HD
ATOM     34  O   UNL A   1      32.826  35.135  28.505  1.00  0.00    -0.269 OA
BRANCH  32  35
ATOM     35  C   UNL A   1      34.476  33.618  29.223  1.00  0.00     0.039 A 
ATOM     36  C   UNL A   1      34.264  32.785  30.324  1.00  0.00     0.014 A 
ATOM     37  C   UNL A   1      35.768  34.034  28.891  1.00  0.00     0.014 A 
ATOM     38  C   UNL A   1      35.358  32.307  31.051  1.00  0.00     0.010 A 
ATOM     39  C   UNL A   1      36.860  33.510  29.578  1.00  0.00     0.010 A 
ATOM     40  C   UNL A   1      36.666  32.634  30.659  1.00  0.00    -0.014 A 
BRANCH  40  41
ATOM     41  C   UNL A   1      37.846  32.066  31.360  1.00  0.00     0.031 A 
ATOM     42  C   UNL A   1      38.649  30.971  30.715  1.00  0.00     0.074 A 
ATOM     43  C   UNL A   1      38.144  32.483  32.606  1.00  0.00     0.049 A 
ATOM     44  N   UNL A   1      39.658  30.291  31.194  1.00  0.00    -0.248 NA
ATOM     45  C   UNL A   1      38.237  30.568  29.363  1.00  0.00     0.031 C 
ATOM     46  C   UNL A   1      37.414  33.509  33.351  1.00  0.00     0.029 A 
ATOM     47  N   UNL A   1      39.136  32.089  33.469  1.00  0.00    -0.354 N 
ATOM     48  C   UNL A   1      39.994  29.367  30.210  1.00  0.00     0.074 A 
ATOM     49  C   UNL A   1      39.037  29.538  29.135  1.00  0.00     0.031 C 
ATOM     50  C   UNL A   1      37.997  33.681  34.549  1.00  0.00     0.029 A 
ATOM     51  C   UNL A   1      39.115  32.752  34.674  1.00  0.00     0.049 A 
ATOM     52  H   UNL A   1      39.799  31.397  33.247  1.00  0.00     0.167 HD
ATOM     53  C   UNL A   1      41.016  28.475  30.195  1.00  0.00     0.034 A 
ATOM     54  C   UNL A   1      39.904  32.620  35.758  1.00  0.00     0.034 A 
ATOM     55  C   UNL A   1      41.967  28.328  31.270  1.00  0.00     0.049 A 
ATOM     56  C   UNL A   1      41.019  31.608  35.729  1.00  0.00     0.074 A 
ATOM     57  C   UNL A   1      43.080  27.506  31.335  1.00  0.00     0.029 A 
ATOM     58  N   UNL A   1      41.914  29.014  32.478  1.00  0.00    -0.354 N 
ATOM     59  N   UNL A   1      41.358  30.779  34.770  1.00  0.00    -0.248 NA
ATOM     60  C   UNL A   1      41.861  31.521  36.928  1.00  0.00     0.031 C 
ATOM     61  C   UNL A   1      43.662  27.651  32.601  1.00  0.00     0.029 A 
ATOM     62  C   UNL A   1      42.953  28.612  33.304  1.00  0.00     0.049 A 
ATOM     63  H   UNL A   1      41.235  29.688  32.713  1.00  0.00     0.167 HD
ATOM     64  C   UNL A   1      42.475  30.094  35.238  1.00  0.00     0.074 A 
ATOM     65  C   UNL A   1      42.754  30.613  36.562  1.00  0.00     0.031 C 
ATOM     66  C   UNL A   1      43.210  29.129  34.627  1.00  0.00     0.034 A 
BRANCH  53  67
ATOM     67  C   UNL A   1      41.128  27.575  28.987  1.00  0.00     0.023 A 
ATOM     68  C   UNL A   1      42.124  27.769  28.014  1.00  0.00     0.031 A 
ATOM     69  C   UNL A   1      40.193  26.547  28.772  1.00  0.00     0.131 A 
ATOM     70  C   UNL A   1      42.105  27.015  26.830  1.00  0.00     0.055 A 
ATOM     71  C   UNL A   1      40.234  25.740  27.633  1.00  0.00     0.041 A 
ATOM     72  F   UNL A   1      39.207  26.324  29.656  1.00  0.00    -0.206 F 
ATOM     73  C   UNL A   1      41.182  25.985  26.644  1.00  0.00     0.022 A 
BRANCH  70  74
ATOM     74  S   UNL A   1      43.195  27.518  25.469  1.00  0.00     0.124 S 
ATOM     75  O   UNL A   1      44.177  28.344  26.168  1.00  0.00    -0.237 OA
ATOM     76  O   UNL A   1      43.679  26.239  24.964  1.00  0.00    -0.237 OA
ATOM     77  O   UNL A   1      42.305  28.249  24.570  1.00  0.00    -0.744 OA
ENDBRANCH  70  74
ENDBRANCH  53  67
BRANCH  54  78
ATOM     78  C   UNL A   1      39.679  33.467  36.962  1.00  0.00     0.023 A 
ATOM     79  C   UNL A   1      38.988  32.962  38.074  1.00  0.00     0.031 A 
ATOM     80  C   UNL A   1      40.118  34.802  37.006  1.00  0.00     0.131 A 
ATOM     81  C   UNL A   1      38.721  33.797  39.170  1.00  0.00     0.055 A 
ATOM     82  C   UNL A   1      39.889  35.615  38.117  1.00  0.00     0.041 A 
ATOM     83  F   UNL A   1      40.791  35.329  35.971  1.00  0.00    -0.206 F 
ATOM     84  C   UNL A   1      39.176  35.117  39.203  1.00  0.00     0.022 A 
BRANCH  81  85
ATOM     85  S   UNL A   1      37.712  33.147  40.529  1.00  0.00     0.124 S 
ATOM     86  O   UNL A   1      37.721  34.264  41.467  1.00  0.00    -0.237 OA
ATOM     87  O   UNL A   1      36.442  32.880  39.862  1.00  0.00    -0.237 OA
ATOM     88  O   UNL A   1      38.448  31.961  40.962  1.00  0.00    -0.744 OA
ENDBRANCH  81  85
ENDBRANCH  54  78
BRANCH  66  89
ATOM     89  C   UNL A   1      44.411  28.613  35.377  1.00  0.00     0.023 A 
ATOM     90  C   UNL A   1      44.299  27.612  36.358  1.00  0.00     0.031 A 
ATOM     91  C   UNL A   1      45.686  29.148  35.119  1.00  0.00     0.131 A 
ATOM     92  C   UNL A   1      45.432  27.215  37.084  1.00  0.00     0.055 A 
ATOM     93  C   UNL A   1      46.819  28.709  35.805  1.00  0.00     0.041 A 
ATOM     94  F   UNL A   1      45.850  30.107  34.194  1.00  0.00    -0.206 F 
ATOM     95  C   UNL A   1      46.694  27.746  36.803  1.00  0.00     0.022 A 
BRANCH  92  96
ATOM     96  S   UNL A   1      45.223  26.052  38.460  1.00  0.00     0.124 S 
ATOM     97  O   UNL A   1      43.898  26.408  38.959  1.00  0.00    -0.237 OA
ATOM     98  O   UNL A   1      45.327  24.758  37.795  1.00  0.00    -0.237 OA
ATOM     99  O   UNL A   1      46.331  26.378  39.357  1.00  0.00    -0.744 OA
ENDBRANCH  92  96
ENDBRANCH  66  89
ENDBRANCH  40  41
ENDBRANCH  32  35
ENDBRANCH  30  31
ENDBRANCH  29  30
ENDBRANCH   1  29
TORSDOF 18
ENDMDL
MODEL 2
REMARK VINA RESULT:     -12.1      2.022      7.655
REMARK SMILES CNc1nc(C(=O)N2C[C@@H](C(=O)NCCCCNC(=O)c3ccc(-c4c5nc(c(-c6cc(S(=O)(=O)[O-])ccc6F)c6ccc([nH]6)c(-c6cc(S(=O)(=O)[O-])ccc6F)c6nc(c(-c7cc(S(=O)(=O)[O-])ccc7F)c7ccc4[nH]7)C=C6)C=C5)cc3)[C@H](c3ccccc3C)C2)cs1
REMARK SMILES IDX 15 1 14 2 13 3 11 4 12 5 10 7 8 8 9 9 92 10 84 11 6 12 7 13
REMARK SMILES IDX 5 14 3 15 4 16 94 17 93 18 2 19 1 20 85 22 86 23 90 24 87 25
REMARK SMILES IDX 89 26 91 27 88 28 16 29 17 30 18 31 19 32 20 34 21 35 22 36
REMARK SMILES IDX 83 37 23 38 82 39 24 40 25 41 26 42 76 43 27 44 81 45 75 46
REMARK SMILES IDX 77 47 28 48 80 49 74 50 73 51 29 53 61 54 41 55 60 56 42 57
REMARK SMILES IDX 45 58 59 59 78 60 43 61 44 62 58 64 79 65 46 66 30 67 31 68
REMARK SMILES IDX 39 69 32 70 38 71 40 72 37 73 33 74 34 75 35 76 36 77 62 78
REMARK SMILES IDX 63 79 71 80 64 81 70 82 72 83 69 84 65 85 66 86 67 87 68 88
REMARK SMILES IDX 47 89 48 90 56 91 49 92 55 93 57 94 54 95 50 96 51 97 52 98
REMARK SMILES IDX 53 99
REMARK H PARENT 13 6 2 21 18 33 77 52 45 63
REMARK Flexibility Score: inf
ROOT
ATOM      1  C   UNL A   1      31.075  30.856  25.413  1.00  0.00     0.023 C 
ENDROOT
BRANCH   1   2
ATOM      2  C   UNL A   1      31.908  29.624  25.752  1.00  0.00     0.116 C 
BRANCH   2   3
ATOM      3  N   UNL A   1      33.067  29.471  24.886  1.00  0.00    -0.356 N 
ATOM      4  C   UNL A   1      33.220  28.845  23.689  1.00  0.00     0.225 C 
ATOM      5  O   UNL A   1      33.975  29.416  22.893  1.00  0.00    -0.275 OA
ATOM      6  H   UNL A   1      33.885  29.898  25.226  1.00  0.00     0.163 HD
BRANCH   4   7
ATOM      7  C   UNL A   1      32.631  27.491  23.311  1.00  0.00     0.107 C 
ATOM      8  N   UNL A   1      32.790  25.451  22.242  1.00  0.00    -0.336 N 
ATOM      9  C   UNL A   1      33.622  26.458  22.843  1.00  0.00     0.134 C 
ATOM     10  C   UNL A   1      31.792  26.125  21.437  1.00  0.00     0.129 C 
ATOM     11  C   UNL A   1      31.541  27.485  22.184  1.00  0.00     0.053 C 
BRANCH   8  12
ATOM     12  C   UNL A   1      32.932  24.083  22.363  1.00  0.00     0.273 C 
ATOM     13  O   UNL A   1      33.430  23.391  21.479  1.00  0.00    -0.267 OA
BRANCH  12  14
ATOM     14  C   UNL A   1      32.421  23.494  23.612  1.00  0.00     0.141 A 
ATOM     15  C   UNL A   1      30.986  23.328  25.320  1.00  0.00     0.183 A 
ATOM     16  N   UNL A   1      31.275  23.998  24.233  1.00  0.00    -0.215 NA
ATOM     17  S   UNL A   1      32.078  22.047  25.677  1.00  0.00    -0.105 S 
ATOM     18  C   UNL A   1      32.967  22.399  24.252  1.00  0.00     0.102 A 
BRANCH  15  19
ATOM     19  N   UNL A   1      29.931  23.582  26.117  1.00  0.00    -0.365 N 
ATOM     20  C   UNL A   1      29.640  22.746  27.255  1.00  0.00     0.142 C 
ATOM     21  H   UNL A   1      29.349  24.351  25.919  1.00  0.00     0.162 HD
ENDBRANCH  15  19
ENDBRANCH  12  14
ENDBRANCH   8  12
BRANCH  11  22
ATOM     22  C   UNL A   1      30.108  27.691  22.704  1.00  0.00    -0.039 A 
ATOM     23  C   UNL A   1      29.461  26.683  23.452  1.00  0.00     0.004 A 
ATOM     24  C   UNL A   1      29.370  28.875  22.450  1.00  0.00    -0.048 A 
ATOM     25  C   UNL A   1      28.135  26.807  23.884  1.00  0.00     0.000 A 
ATOM     26  C   UNL A   1      28.050  29.002  22.938  1.00  0.00     0.004 A 
ATOM     27  C   UNL A   1      29.900  30.081  21.721  1.00  0.00     0.044 C 
ATOM     28  C   UNL A   1      27.429  27.969  23.631  1.00  0.00     0.000 A 
ENDBRANCH  11  22
ENDBRANCH   4   7
ENDBRANCH   2   3
ENDBRANCH   1   2
BRANCH   1  29
ATOM     29  C   UNL A   1      31.114  31.962  26.476  1.00  0.00     0.023 C 
BRANCH  29  30
ATOM     30  C   UNL A   1      32.508  32.411  26.920  1.00  0.00     0.116 C 
BRANCH  30  31
ATOM     31  N   UNL A   1      32.542  33.754  27.473  1.00  0.00    -0.352 N 
ATOM     32  C   UNL A   1      33.449  34.294  28.356  1.00  0.00     0.251 C 
ATOM     33  H   UNL A   1      31.822  34.358  27.177  1.00  0.00     0.163 HD
ATOM     34  O   UNL A   1      33.275  35.427  28.795  1.00  0.00    -0.269 OA
BRANCH  32  35
ATOM     35  C   UNL A   1      34.601  33.481  28.804  1.00  0.00     0.039 A 
ATOM     36  C   UNL A   1      35.883  34.029  28.722  1.00  0.00     0.014 A 
ATOM     37  C   UNL A   1      34.413  32.203  29.335  1.00  0.00     0.014 A 
ATOM     38  C   UNL A   1      36.971  33.325  29.243  1.00  0.00     0.010 A 
ATOM     39  C   UNL A   1      35.488  31.528  29.908  1.00  0.00     0.010 A 
ATOM     40  C   UNL A   1      36.776  32.086  29.876  1.00  0.00    -0.014 A 
BRANCH  40  41
ATOM     41  C   UNL A   1      37.903  31.361  30.517  1.00  0.00     0.031 A 
ATOM     42  C   UNL A   1      38.301  31.688  31.929  1.00  0.00     0.074 A 
ATOM     43  C   UNL A   1      38.612  30.467  29.801  1.00  0.00     0.049 A 
ATOM     44  N   UNL A   1      39.302  31.229  32.635  1.00  0.00    -0.248 NA
ATOM     45  C   UNL A   1      37.482  32.690  32.624  1.00  0.00     0.031 C 
ATOM     46  C   UNL A   1      38.346  30.097  28.410  1.00  0.00     0.029 A 
ATOM     47  N   UNL A   1      39.706  29.712  30.142  1.00  0.00    -0.354 N 
ATOM     48  C   UNL A   1      39.245  31.897  33.853  1.00  0.00     0.074 A 
ATOM     49  C   UNL A   1      38.146  32.837  33.761  1.00  0.00     0.031 C 
ATOM     50  C   UNL A   1      39.236  29.168  28.024  1.00  0.00     0.029 A 
ATOM     51  C   UNL A   1      40.160  28.907  29.124  1.00  0.00     0.049 A 
ATOM     52  H   UNL A   1      40.127  29.746  31.030  1.00  0.00     0.167 HD
ATOM     53  C   UNL A   1      40.022  31.728  34.953  1.00  0.00     0.034 A 
ATOM     54  C   UNL A   1      41.205  28.058  29.080  1.00  0.00     0.034 A 
ATOM     55  C   UNL A   1      41.104  30.777  35.031  1.00  0.00     0.049 A 
ATOM     56  C   UNL A   1      42.069  27.902  30.305  1.00  0.00     0.074 A 
ATOM     57  C   UNL A   1      41.912  30.473  36.114  1.00  0.00     0.029 A 
ATOM     58  N   UNL A   1      41.539  29.980  33.979  1.00  0.00    -0.354 N 
ATOM     59  N   UNL A   1      41.969  28.502  31.468  1.00  0.00    -0.248 NA
ATOM     60  C   UNL A   1      43.181  26.949  30.210  1.00  0.00     0.031 C 
ATOM     61  C   UNL A   1      42.871  29.539  35.700  1.00  0.00     0.029 A 
ATOM     62  C   UNL A   1      42.621  29.209  34.378  1.00  0.00     0.049 A 
ATOM     63  H   UNL A   1      41.136  29.964  33.081  1.00  0.00     0.167 HD
ATOM     64  C   UNL A   1      42.987  27.972  32.256  1.00  0.00     0.074 A 
ATOM     65  C   UNL A   1      43.683  27.001  31.435  1.00  0.00     0.031 C 
ATOM     66  C   UNL A   1      43.313  28.255  33.543  1.00  0.00     0.034 A 
BRANCH  53  67
ATOM     67  C   UNL A   1      39.736  32.617  36.141  1.00  0.00     0.023 A 
ATOM     68  C   UNL A   1      38.902  32.197  37.192  1.00  0.00     0.031 A 
ATOM     69  C   UNL A   1      40.258  33.922  36.199  1.00  0.00     0.131 A 
ATOM     70  C   UNL A   1      38.535  33.102  38.201  1.00  0.00     0.055 A 
ATOM     71  C   UNL A   1      39.961  34.788  37.253  1.00  0.00     0.041 A 
ATOM     72  F   UNL A   1      41.045  34.388  35.216  1.00  0.00    -0.206 F 
ATOM     73  C   UNL A   1      39.078  34.386  38.252  1.00  0.00     0.022 A 
BRANCH  70  74
ATOM     74  S   UNL A   1      37.207  32.628  39.343  1.00  0.00     0.124 S 
ATOM     75  O   UNL A   1      37.459  33.520  40.473  1.00  0.00    -0.237 OA
ATOM     76  O   UNL A   1      36.007  32.908  38.564  1.00  0.00    -0.237 OA
ATOM     77  O   UNL A   1      37.469  31.215  39.605  1.00  0.00    -0.744 OA
ENDBRANCH  70  74
ENDBRANCH  53  67
BRANCH  54  78
ATOM     78  C   UNL A   1      41.497  27.284  27.842  1.00  0.00     0.023 A 
ATOM     79  C   UNL A   1      41.244  25.904  27.784  1.00  0.00     0.031 A 
ATOM     80  C   UNL A   1      42.063  27.901  26.714  1.00  0.00     0.131 A 
ATOM     81  C   UNL A   1      41.592  25.178  26.635  1.00  0.00     0.055 A 
ATOM     82  C   UNL A   1      42.367  27.182  25.556  1.00  0.00     0.041 A 
ATOM     83  F   UNL A   1      42.316  29.220  26.717  1.00  0.00    -0.206 F 
ATOM     84  C   UNL A   1      42.143  25.810  25.517  1.00  0.00     0.022 A 
BRANCH  81  85
ATOM     85  S   UNL A   1      41.373  23.378  26.648  1.00  0.00     0.124 S 
ATOM     86  O   UNL A   1      41.852  23.029  27.980  1.00  0.00    -0.237 OA
ATOM     87  O   UNL A   1      39.937  23.247  26.427  1.00  0.00    -0.237 OA
ATOM     88  O   UNL A   1      42.215  22.925  25.543  1.00  0.00    -0.744 OA
ENDBRANCH  81  85
ENDBRANCH  54  78
BRANCH  66  89
ATOM     89  C   UNL A   1      44.447  27.466  34.146  1.00  0.00     0.023 A 
ATOM     90  C   UNL A   1      45.772  27.933  34.117  1.00  0.00     0.031 A 
ATOM     91  C   UNL A   1      44.196  26.217  34.742  1.00  0.00     0.131 A 
ATOM     92  C   UNL A   1      46.806  27.131  34.624  1.00  0.00     0.055 A 
ATOM     93  C   UNL A   1      45.222  25.449  35.295  1.00  0.00     0.041 A 
ATOM     94  F   UNL A   1      42.949  25.723  34.796  1.00  0.00    -0.206 F 
ATOM     95  C   UNL A   1      46.538  25.899  35.226  1.00  0.00     0.022 A 
BRANCH  92  96
ATOM     96  S   UNL A   1      48.522  27.683  34.411  1.00  0.00     0.124 S 
ATOM     97  O   UNL A   1      48.636  28.718  35.434  1.00  0.00    -0.237 OA
ATOM     98  O   UNL A   1      49.277  26.459  34.656  1.00  0.00    -0.237 OA
ATOM     99  O   UNL A   1      48.557  28.167  33.032  1.00  0.00    -0.744 OA
ENDBRANCH  92  96
ENDBRANCH  66  89
ENDBRANCH  40  41
ENDBRANCH  32  35
ENDBRANCH  30  31
ENDBRANCH  29  30
ENDBRANCH   1  29
TORSDOF 18
ENDMDL
MODEL 3
REMARK VINA RESULT:     -11.9      1.594      7.495
REMARK SMILES CNc1nc(C(=O)N2C[C@@H](C(=O)NCCCCNC(=O)c3ccc(-c4c5nc(c(-c6cc(S(=O)(=O)[O-])ccc6F)c6ccc([nH]6)c(-c6cc(S(=O)(=O)[O-])ccc6F)c6nc(c(-c7cc(S(=O)(=O)[O-])ccc7F)c7ccc4[nH]7)C=C6)C=C5)cc3)[C@H](c3ccccc3C)C2)cs1
REMARK SMILES IDX 15 1 14 2 13 3 11 4 12 5 10 7 8 8 9 9 92 10 84 11 6 12 7 13
REMARK SMILES IDX 5 14 3 15 4 16 94 17 93 18 2 19 1 20 85 22 86 23 90 24 87 25
REMARK SMILES IDX 89 26 91 27 88 28 16 29 17 30 18 31 19 32 20 34 21 35 22 36
REMARK SMILES IDX 83 37 23 38 82 39 24 40 25 41 26 42 76 43 27 44 81 45 75 46
REMARK SMILES IDX 77 47 28 48 80 49 74 50 73 51 29 53 61 54 41 55 60 56 42 57
REMARK SMILES IDX 45 58 59 59 78 60 43 61 44 62 58 64 79 65 46 66 30 67 31 68
REMARK SMILES IDX 39 69 32 70 38 71 40 72 37 73 33 74 34 75 35 76 36 77 62 78
REMARK SMILES IDX 63 79 71 80 64 81 70 82 72 83 69 84 65 85 66 86 67 87 68 88
REMARK SMILES IDX 47 89 48 90 56 91 49 92 55 93 57 94 54 95 50 96 51 97 52 98
REMARK SMILES IDX 53 99
REMARK H PARENT 13 6 2 21 18 33 77 52 45 63
REMARK Flexibility Score: inf
ROOT
ATOM      1  C   UNL A   1      32.449  30.637  27.164  1.00  0.00     0.023 C 
ENDROOT
BRANCH   1   2
ATOM      2  C   UNL A   1      32.001  29.799  25.971  1.00  0.00     0.116 C 
BRANCH   2   3
ATOM      3  N   UNL A   1      33.071  29.563  25.014  1.00  0.00    -0.356 N 
ATOM      4  C   UNL A   1      33.102  28.855  23.854  1.00  0.00     0.225 C 
ATOM      5  O   UNL A   1      33.789  29.355  22.956  1.00  0.00    -0.275 OA
ATOM      6  H   UNL A   1      33.924  29.993  25.248  1.00  0.00     0.163 HD
BRANCH   4   7
ATOM      7  C   UNL A   1      32.457  27.493  23.626  1.00  0.00     0.107 C 
ATOM      8  N   UNL A   1      32.562  25.317  22.862  1.00  0.00    -0.336 N 
ATOM      9  C   UNL A   1      33.413  26.355  23.376  1.00  0.00     0.134 C 
ATOM     10  C   UNL A   1      31.659  25.918  21.903  1.00  0.00     0.129 C 
ATOM     11  C   UNL A   1      31.443  27.382  22.436  1.00  0.00     0.053 C 
BRANCH   8  12
ATOM     12  C   UNL A   1      32.614  23.973  23.181  1.00  0.00     0.273 C 
ATOM     13  O   UNL A   1      33.055  23.129  22.406  1.00  0.00    -0.267 OA
BRANCH  12  14
ATOM     14  C   UNL A   1      32.079  23.607  24.503  1.00  0.00     0.141 A 
ATOM     15  C   UNL A   1      32.221  22.761  26.569  1.00  0.00     0.183 A 
ATOM     16  N   UNL A   1      32.885  22.992  25.463  1.00  0.00    -0.215 NA
ATOM     17  S   UNL A   1      30.575  23.263  26.526  1.00  0.00    -0.105 S 
ATOM     18  C   UNL A   1      30.792  23.862  24.933  1.00  0.00     0.102 A 
BRANCH  15  19
ATOM     19  N   UNL A   1      32.744  22.189  27.669  1.00  0.00    -0.365 N 
ATOM     20  C   UNL A   1      34.025  21.529  27.627  1.00  0.00     0.142 C 
ATOM     21  H   UNL A   1      32.243  22.223  28.516  1.00  0.00     0.162 HD
ENDBRANCH  15  19
ENDBRANCH  12  14
ENDBRANCH   8  12
BRANCH  11  22
ATOM     22  C   UNL A   1      29.995  27.731  22.820  1.00  0.00    -0.039 A 
ATOM     23  C   UNL A   1      29.208  26.825  23.566  1.00  0.00     0.004 A 
ATOM     24  C   UNL A   1      29.380  28.950  22.437  1.00  0.00    -0.048 A 
ATOM     25  C   UNL A   1      27.867  27.079  23.876  1.00  0.00     0.000 A 
ATOM     26  C   UNL A   1      28.040  29.210  22.803  1.00  0.00     0.004 A 
ATOM     27  C   UNL A   1      30.065  30.063  21.689  1.00  0.00     0.044 C 
ATOM     28  C   UNL A   1      27.282  28.275  23.497  1.00  0.00     0.000 A 
ENDBRANCH  11  22
ENDBRANCH   4   7
ENDBRANCH   2   3
ENDBRANCH   1   2
BRANCH   1  29
ATOM     29  C   UNL A   1      31.873  32.060  27.194  1.00  0.00     0.023 C 
BRANCH  29  30
ATOM     30  C   UNL A   1      32.889  33.193  27.033  1.00  0.00     0.116 C 
BRANCH  30  31
ATOM     31  N   UNL A   1      32.647  34.326  27.911  1.00  0.00    -0.352 N 
ATOM     32  C   UNL A   1      33.284  34.649  29.086  1.00  0.00     0.251 C 
ATOM     33  H   UNL A   1      31.933  34.942  27.627  1.00  0.00     0.163 HD
ATOM     34  O   UNL A   1      32.889  35.599  29.755  1.00  0.00    -0.269 OA
BRANCH  32  35
ATOM     35  C   UNL A   1      34.413  33.816  29.556  1.00  0.00     0.039 A 
ATOM     36  C   UNL A   1      35.714  34.190  29.212  1.00  0.00     0.014 A 
ATOM     37  C   UNL A   1      34.190  32.696  30.361  1.00  0.00     0.014 A 
ATOM     38  C   UNL A   1      36.799  33.484  29.738  1.00  0.00     0.010 A 
ATOM     39  C   UNL A   1      35.272  32.030  30.932  1.00  0.00     0.010 A 
ATOM     40  C   UNL A   1      36.587  32.423  30.633  1.00  0.00    -0.014 A 
BRANCH  40  41
ATOM     41  C   UNL A   1      37.724  31.715  31.275  1.00  0.00     0.031 A 
ATOM     42  C   UNL A   1      38.183  32.118  32.648  1.00  0.00     0.074 A 
ATOM     43  C   UNL A   1      38.390  30.766  30.589  1.00  0.00     0.049 A 
ATOM     44  N   UNL A   1      39.202  31.683  33.343  1.00  0.00    -0.248 NA
ATOM     45  C   UNL A   1      37.408  33.177  33.311  1.00  0.00     0.031 C 
ATOM     46  C   UNL A   1      38.064  30.317  29.234  1.00  0.00     0.029 A 
ATOM     47  N   UNL A   1      39.482  30.011  30.934  1.00  0.00    -0.354 N 
ATOM     48  C   UNL A   1      39.202  32.424  34.520  1.00  0.00     0.074 A 
ATOM     49  C   UNL A   1      38.117  33.378  34.411  1.00  0.00     0.031 C 
ATOM     50  C   UNL A   1      38.922  29.350  28.872  1.00  0.00     0.029 A 
ATOM     51  C   UNL A   1      39.883  29.137  29.950  1.00  0.00     0.049 A 
ATOM     52  H   UNL A   1      39.938  30.090  31.802  1.00  0.00     0.167 HD
ATOM     53  C   UNL A   1      40.018  32.306  35.598  1.00  0.00     0.034 A 
ATOM     54  C   UNL A   1      40.911  28.266  29.920  1.00  0.00     0.034 A 
ATOM     55  C   UNL A   1      41.086  31.341  35.694  1.00  0.00     0.049 A 
ATOM     56  C   UNL A   1      41.818  28.168  31.119  1.00  0.00     0.074 A 
ATOM     57  C   UNL A   1      41.929  31.087  36.762  1.00  0.00     0.029 A 
ATOM     58  N   UNL A   1      41.465  30.473  34.677  1.00  0.00    -0.354 N 
ATOM     59  N   UNL A   1      41.773  28.838  32.246  1.00  0.00    -0.248 NA
ATOM     60  C   UNL A   1      42.909  27.189  31.040  1.00  0.00     0.031 C 
ATOM     61  C   UNL A   1      42.855  30.110  36.370  1.00  0.00     0.029 A 
ATOM     62  C   UNL A   1      42.548  29.706  35.081  1.00  0.00     0.049 A 
ATOM     63  H   UNL A   1      41.028  30.411  33.796  1.00  0.00     0.167 HD
ATOM     64  C   UNL A   1      42.812  28.337  33.026  1.00  0.00     0.074 A 
ATOM     65  C   UNL A   1      43.459  27.305  32.240  1.00  0.00     0.031 C 
ATOM     66  C   UNL A   1      43.191  28.690  34.280  1.00  0.00     0.034 A 
BRANCH  53  67
ATOM     67  C   UNL A   1      39.794  33.271  36.740  1.00  0.00     0.023 A 
ATOM     68  C   UNL A   1      40.602  34.409  36.911  1.00  0.00     0.031 A 
ATOM     69  C   UNL A   1      38.799  33.021  37.702  1.00  0.00     0.131 A 
ATOM     70  C   UNL A   1      40.466  35.198  38.064  1.00  0.00     0.055 A 
ATOM     71  C   UNL A   1      38.610  33.861  38.801  1.00  0.00     0.041 A 
ATOM     72  F   UNL A   1      38.009  31.940  37.603  1.00  0.00    -0.206 F 
ATOM     73  C   UNL A   1      39.460  34.946  38.998  1.00  0.00     0.022 A 
BRANCH  70  74
ATOM     74  S   UNL A   1      41.735  36.449  38.407  1.00  0.00     0.124 S 
ATOM     75  O   UNL A   1      42.351  36.611  37.093  1.00  0.00    -0.237 OA
ATOM     76  O   UNL A   1      40.944  37.576  38.886  1.00  0.00    -0.237 OA
ATOM     77  O   UNL A   1      42.584  35.809  39.410  1.00  0.00    -0.744 OA
ENDBRANCH  70  74
ENDBRANCH  53  67
BRANCH  54  78
ATOM     78  C   UNL A   1      41.141  27.414  28.721  1.00  0.00     0.023 A 
ATOM     79  C   UNL A   1      42.142  27.739  27.792  1.00  0.00     0.031 A 
ATOM     80  C   UNL A   1      40.345  26.283  28.468  1.00  0.00     0.131 A 
ATOM     81  C   UNL A   1      42.297  26.966  26.632  1.00  0.00     0.055 A 
ATOM     82  C   UNL A   1      40.532  25.491  27.334  1.00  0.00     0.041 A 
ATOM     83  F   UNL A   1      39.381  25.925  29.330  1.00  0.00    -0.206 F 
ATOM     84  C   UNL A   1      41.505  25.838  26.401  1.00  0.00     0.022 A 
BRANCH  81  85
ATOM     85  S   UNL A   1      43.510  27.495  25.392  1.00  0.00     0.124 S 
ATOM     86  O   UNL A   1      44.340  26.302  25.261  1.00  0.00    -0.237 OA
ATOM     87  O   UNL A   1      42.659  27.812  24.251  1.00  0.00    -0.237 OA
ATOM     88  O   UNL A   1      44.160  28.643  26.021  1.00  0.00    -0.744 OA
ENDBRANCH  81  85
ENDBRANCH  54  78
BRANCH  66  89
ATOM     89  C   UNL A   1      44.333  27.916  34.888  1.00  0.00     0.023 A 
ATOM     90  C   UNL A   1      44.132  26.682  35.531  1.00  0.00     0.031 A 
ATOM     91  C   UNL A   1      45.640  28.435  34.841  1.00  0.00     0.131 A 
ATOM     92  C   UNL A   1      45.213  26.032  36.148  1.00  0.00     0.055 A 
ATOM     93  C   UNL A   1      46.719  27.757  35.409  1.00  0.00     0.041 A 
ATOM     94  F   UNL A   1      45.887  29.610  34.242  1.00  0.00    -0.206 F 
ATOM     95  C   UNL A   1      46.507  26.555  36.078  1.00  0.00     0.022 A 
BRANCH  92  96
ATOM     96  S   UNL A   1      44.889  24.534  37.118  1.00  0.00     0.124 S 
ATOM     97  O   UNL A   1      44.137  25.062  38.251  1.00  0.00    -0.237 OA
ATOM     98  O   UNL A   1      44.134  23.711  36.180  1.00  0.00    -0.237 OA
ATOM     99  O   UNL A   1      46.227  24.038  37.438  1.00  0.00    -0.744 OA
ENDBRANCH  92  96
ENDBRANCH  66  89
ENDBRANCH  40  41
ENDBRANCH  32  35
ENDBRANCH  30  31
ENDBRANCH  29  30
ENDBRANCH   1  29
TORSDOF 18
ENDMDL
