MODEL 1
REMARK VINA RESULT:     -10.2      0.000      0.000
REMARK SMILES CC(C)C[C@H](NC(=O)CNC(=O)[C@@H]([NH3+])C(C)C)C(=O)NCCCCNC(=O)c1ccc(-c2c3nc(c(-c4cc(S(=O)(=O)[O-])ccc4F)c4ccc([nH]4)c(-c4cc(S(=O)(=O)[O-])ccc4F)c4nc(c(-c5cc(S(=O)(=O)[O-])ccc5F)c5ccc2[nH]5)C=C4)C=C3)cc1
REMARK SMILES IDX 21 1 20 2 18 3 19 4 5 6 4 7 2 8 1 9 3 10 6 11 7 12 8 14 9 15
REMARK SMILES IDX 10 16 11 17 12 19 13 20 14 21 15 25 16 26 17 27 22 28 23 29
REMARK SMILES IDX 24 30 25 31 26 32 27 34 28 35 29 36 90 37 30 38 89 39 31 40
REMARK SMILES IDX 32 41 33 42 83 43 34 44 88 45 82 46 84 47 35 48 87 49 81 50
REMARK SMILES IDX 80 51 36 53 68 54 48 55 67 56 49 57 52 58 66 59 85 60 50 61
REMARK SMILES IDX 51 62 65 64 86 65 53 66 37 67 38 68 46 69 39 70 45 71 47 72
REMARK SMILES IDX 44 73 40 74 41 75 42 76 43 77 69 78 70 79 78 80 71 81 77 82
REMARK SMILES IDX 79 83 76 84 72 85 73 86 74 87 75 88 54 89 55 90 63 91 56 92
REMARK SMILES IDX 62 93 64 94 61 95 57 96 58 97 59 98 60 99
REMARK H PARENT 20 5 6 13 10 18 14 22 14 23 14 24 25 33 84 52 52 63
REMARK Flexibility Score: inf
ROOT
ATOM      1  C   UNL A   1      36.048  21.179  25.388  1.00  0.00     0.116 C 
ENDROOT
BRANCH   1   2
ATOM      2  N   UNL A   1      34.912  20.337  25.079  1.00  0.00    -0.354 N 
ATOM      3  C   UNL A   1      33.694  20.633  24.557  1.00  0.00     0.242 C 
ATOM      4  O   UNL A   1      33.018  19.677  24.155  1.00  0.00    -0.273 OA
ATOM      5  H   UNL A   1      35.045  19.384  25.284  1.00  0.00     0.163 HD
BRANCH   3   6
ATOM      6  C   UNL A   1      33.215  22.078  24.295  1.00  0.00     0.171 C 
BRANCH   6   7
ATOM      7  C   UNL A   1      31.779  22.257  24.823  1.00  0.00     0.038 C 
BRANCH   7   8
ATOM      8  C   UNL A   1      31.757  22.627  26.322  1.00  0.00    -0.015 C 
ATOM      9  C   UNL A   1      32.769  23.732  26.635  1.00  0.00     0.007 C 
ATOM     10  C   UNL A   1      30.358  23.082  26.739  1.00  0.00     0.007 C 
ENDBRANCH   7   8
ENDBRANCH   6   7
BRANCH   6  11
ATOM     11  N   UNL A   1      33.320  22.519  22.903  1.00  0.00    -0.343 N 
ATOM     12  C   UNL A   1      33.093  23.727  22.324  1.00  0.00     0.240 C 
ATOM     13  H   UNL A   1      33.606  21.816  22.276  1.00  0.00     0.164 HD
ATOM     14  O   UNL A   1      33.396  23.820  21.127  1.00  0.00    -0.273 OA
BRANCH  12  15
ATOM     15  C   UNL A   1      32.627  24.979  23.087  1.00  0.00     0.216 C 
BRANCH  15  16
ATOM     16  N   UNL A   1      31.675  25.855  22.426  1.00  0.00    -0.342 N 
ATOM     17  C   UNL A   1      31.404  27.175  22.642  1.00  0.00     0.278 C 
ATOM     18  H   UNL A   1      31.145  25.432  21.712  1.00  0.00     0.164 HD
ATOM     19  O   UNL A   1      30.525  27.694  21.947  1.00  0.00    -0.268 OA
BRANCH  17  20
ATOM     20  C   UNL A   1      32.187  28.016  23.681  1.00  0.00     0.273 C 
BRANCH  20  21
ATOM     21  N   UNL A   1      32.737  29.227  23.047  1.00  0.00    -0.347 N 
ATOM     22  H   UNL A   1      33.754  29.223  23.129  1.00  0.00     0.345 HD
ATOM     23  H   UNL A   1      32.361  30.055  23.511  1.00  0.00     0.345 HD
ATOM     24  H   UNL A   1      32.476  29.243  22.061  1.00  0.00     0.345 HD
ENDBRANCH  20  21
BRANCH  20  25
ATOM     25  C   UNL A   1      31.319  28.331  24.922  1.00  0.00     0.051 C 
ATOM     26  C   UNL A   1      31.225  27.103  25.837  1.00  0.00     0.014 C 
ATOM     27  C   UNL A   1      31.871  29.510  25.731  1.00  0.00     0.014 C 
ENDBRANCH  20  25
ENDBRANCH  17  20
ENDBRANCH  15  16
ENDBRANCH  12  15
ENDBRANCH   6  11
ENDBRANCH   3   6
ENDBRANCH   1   2
BRANCH   1  28
ATOM     28  C   UNL A   1      37.255  20.867  24.510  1.00  0.00     0.023 C 
BRANCH  28  29
ATOM     29  C   UNL A   1      38.064  19.633  24.925  1.00  0.00     0.023 C 
BRANCH  29  30
ATOM     30  C   UNL A   1      39.008  19.822  26.110  1.00  0.00     0.116 C 
BRANCH  30  31
ATOM     31  N   UNL A   1      40.247  19.073  25.977  1.00  0.00    -0.352 N 
ATOM     32  C   UNL A   1      41.543  19.520  26.074  1.00  0.00     0.251 C 
ATOM     33  H   UNL A   1      40.143  18.112  25.792  1.00  0.00     0.163 HD
ATOM     34  O   UNL A   1      42.469  18.754  25.822  1.00  0.00    -0.269 OA
BRANCH  32  35
ATOM     35  C   UNL A   1      41.809  20.928  26.436  1.00  0.00     0.039 A 
ATOM     36  C   UNL A   1      42.262  21.213  27.726  1.00  0.00     0.014 A 
ATOM     37  C   UNL A   1      41.641  21.954  25.504  1.00  0.00     0.014 A 
ATOM     38  C   UNL A   1      42.616  22.523  28.059  1.00  0.00     0.010 A 
ATOM     39  C   UNL A   1      42.057  23.246  25.816  1.00  0.00     0.010 A 
ATOM     40  C   UNL A   1      42.552  23.544  27.096  1.00  0.00    -0.014 A 
BRANCH  40  41
ATOM     41  C   UNL A   1      43.002  24.925  27.411  1.00  0.00     0.031 A 
ATOM     42  C   UNL A   1      42.051  25.898  28.053  1.00  0.00     0.074 A 
ATOM     43  C   UNL A   1      44.244  25.319  27.066  1.00  0.00     0.049 A 
ATOM     44  N   UNL A   1      42.224  27.163  28.336  1.00  0.00    -0.248 NA
ATOM     45  C   UNL A   1      40.716  25.383  28.395  1.00  0.00     0.031 C 
ATOM     46  C   UNL A   1      45.242  24.478  26.402  1.00  0.00     0.029 A 
ATOM     47  N   UNL A   1      44.877  26.527  27.216  1.00  0.00    -0.354 N 
ATOM     48  C   UNL A   1      41.021  27.599  28.880  1.00  0.00     0.074 A 
ATOM     49  C   UNL A   1      40.106  26.477  28.824  1.00  0.00     0.031 C 
ATOM     50  C   UNL A   1      46.366  25.190  26.220  1.00  0.00     0.029 A 
ATOM     51  C   UNL A   1      46.157  26.548  26.711  1.00  0.00     0.049 A 
ATOM     52  H   UNL A   1      44.456  27.307  27.644  1.00  0.00     0.167 HD
ATOM     53  C   UNL A   1      40.715  28.814  29.401  1.00  0.00     0.034 A 
ATOM     54  C   UNL A   1      47.056  27.551  26.638  1.00  0.00     0.034 A 
ATOM     55  C   UNL A   1      41.641  29.918  29.454  1.00  0.00     0.049 A 
ATOM     56  C   UNL A   1      46.685  28.900  27.201  1.00  0.00     0.074 A 
ATOM     57  C   UNL A   1      41.452  31.178  29.999  1.00  0.00     0.029 A 
ATOM     58  N   UNL A   1      42.933  29.901  28.940  1.00  0.00    -0.354 N 
ATOM     59  N   UNL A   1      45.557  29.284  27.755  1.00  0.00    -0.248 NA
ATOM     60  C   UNL A   1      47.713  29.947  27.142  1.00  0.00     0.031 C 
ATOM     61  C   UNL A   1      42.601  31.939  29.755  1.00  0.00     0.029 A 
ATOM     62  C   UNL A   1      43.539  31.133  29.129  1.00  0.00     0.049 A 
ATOM     63  H   UNL A   1      43.355  29.125  28.504  1.00  0.00     0.167 HD
ATOM     64  C   UNL A   1      45.753  30.608  28.135  1.00  0.00     0.074 A 
ATOM     65  C   UNL A   1      47.111  30.950  27.764  1.00  0.00     0.031 C 
ATOM     66  C   UNL A   1      44.891  31.464  28.742  1.00  0.00     0.034 A 
BRANCH  53  67
ATOM     67  C   UNL A   1      39.313  29.007  29.930  1.00  0.00     0.023 A 
ATOM     68  C   UNL A   1      38.285  29.524  29.121  1.00  0.00     0.031 A 
ATOM     69  C   UNL A   1      39.005  28.701  31.267  1.00  0.00     0.131 A 
ATOM     70  C   UNL A   1      37.025  29.794  29.675  1.00  0.00     0.055 A 
ATOM     71  C   UNL A   1      37.724  28.893  31.790  1.00  0.00     0.041 A 
ATOM     72  F   UNL A   1      39.949  28.225  32.095  1.00  0.00    -0.206 F 
ATOM     73  C   UNL A   1      36.729  29.458  30.998  1.00  0.00     0.022 A 
BRANCH  70  74
ATOM     74  S   UNL A   1      35.828  30.730  28.685  1.00  0.00     0.124 S 
ATOM     75  O   UNL A   1      36.706  31.452  27.767  1.00  0.00    -0.237 OA
ATOM     76  O   UNL A   1      35.014  29.675  28.092  1.00  0.00    -0.237 OA
ATOM     77  O   UNL A   1      35.146  31.567  29.671  1.00  0.00    -0.744 OA
ENDBRANCH  70  74
ENDBRANCH  53  67
BRANCH  54  78
ATOM     78  C   UNL A   1      48.385  27.331  25.998  1.00  0.00     0.023 A 
ATOM     79  C   UNL A   1      48.562  27.509  24.616  1.00  0.00     0.031 A 
ATOM     80  C   UNL A   1      49.489  26.897  26.753  1.00  0.00     0.131 A 
ATOM     81  C   UNL A   1      49.799  27.208  24.026  1.00  0.00     0.055 A 
ATOM     82  C   UNL A   1      50.732  26.651  26.170  1.00  0.00     0.041 A 
ATOM     83  F   UNL A   1      49.375  26.716  28.079  1.00  0.00    -0.206 F 
ATOM     84  C   UNL A   1      50.889  26.793  24.794  1.00  0.00     0.022 A 
BRANCH  81  85
ATOM     85  S   UNL A   1      49.939  27.283  22.218  1.00  0.00     0.124 S 
ATOM     86  O   UNL A   1      49.699  28.698  21.960  1.00  0.00    -0.237 OA
ATOM     87  O   UNL A   1      51.303  26.813  22.001  1.00  0.00    -0.237 OA
ATOM     88  O   UNL A   1      48.888  26.377  21.759  1.00  0.00    -0.744 OA
ENDBRANCH  81  85
ENDBRANCH  54  78
BRANCH  66  89
ATOM     89  C   UNL A   1      45.414  32.838  29.081  1.00  0.00     0.023 A 
ATOM     90  C   UNL A   1      46.030  33.114  30.315  1.00  0.00     0.031 A 
ATOM     91  C   UNL A   1      45.285  33.891  28.156  1.00  0.00     0.131 A 
ATOM     92  C   UNL A   1      46.442  34.422  30.612  1.00  0.00     0.055 A 
ATOM     93  C   UNL A   1      45.752  35.175  28.434  1.00  0.00     0.041 A 
ATOM     94  F   UNL A   1      44.703  33.684  26.964  1.00  0.00    -0.206 F 
ATOM     95  C   UNL A   1      46.323  35.450  29.673  1.00  0.00     0.022 A 
BRANCH  92  96
ATOM     96  S   UNL A   1      47.055  34.783  32.281  1.00  0.00     0.124 S 
ATOM     97  O   UNL A   1      46.437  36.076  32.557  1.00  0.00    -0.237 OA
ATOM     98  O   UNL A   1      46.544  33.653  33.052  1.00  0.00    -0.237 OA
ATOM     99  O   UNL A   1      48.507  34.812  32.115  1.00  0.00    -0.744 OA
ENDBRANCH  92  96
ENDBRANCH  66  89
ENDBRANCH  40  41
ENDBRANCH  32  35
ENDBRANCH  30  31
ENDBRANCH  29  30
ENDBRANCH  28  29
ENDBRANCH   1  28
TORSDOF 22
ENDMDL
MODEL 2
REMARK VINA RESULT:     -10.1      2.615      4.206
REMARK SMILES CC(C)C[C@H](NC(=O)CNC(=O)[C@@H]([NH3+])C(C)C)C(=O)NCCCCNC(=O)c1ccc(-c2c3nc(c(-c4cc(S(=O)(=O)[O-])ccc4F)c4ccc([nH]4)c(-c4cc(S(=O)(=O)[O-])ccc4F)c4nc(c(-c5cc(S(=O)(=O)[O-])ccc5F)c5ccc2[nH]5)C=C4)C=C3)cc1
REMARK SMILES IDX 21 1 20 2 18 3 19 4 5 6 4 7 2 8 1 9 3 10 6 11 7 12 8 14 9 15
REMARK SMILES IDX 10 16 11 17 12 19 13 20 14 21 15 25 16 26 17 27 22 28 23 29
REMARK SMILES IDX 24 30 25 31 26 32 27 34 28 35 29 36 90 37 30 38 89 39 31 40
REMARK SMILES IDX 32 41 33 42 83 43 34 44 88 45 82 46 84 47 35 48 87 49 81 50
REMARK SMILES IDX 80 51 36 53 68 54 48 55 67 56 49 57 52 58 66 59 85 60 50 61
REMARK SMILES IDX 51 62 65 64 86 65 53 66 37 67 38 68 46 69 39 70 45 71 47 72
REMARK SMILES IDX 44 73 40 74 41 75 42 76 43 77 69 78 70 79 78 80 71 81 77 82
REMARK SMILES IDX 79 83 76 84 72 85 73 86 74 87 75 88 54 89 55 90 63 91 56 92
REMARK SMILES IDX 62 93 64 94 61 95 57 96 58 97 59 98 60 99
REMARK H PARENT 20 5 6 13 10 18 14 22 14 23 14 24 25 33 84 52 52 63
REMARK Flexibility Score: inf
ROOT
ATOM      1  C   UNL A   1      37.098  23.216  25.043  1.00  0.00     0.116 C 
ENDROOT
BRANCH   1   2
ATOM      2  N   UNL A   1      36.364  23.146  26.287  1.00  0.00    -0.354 N 
ATOM      3  C   UNL A   1      35.031  23.163  26.542  1.00  0.00     0.242 C 
ATOM      4  O   UNL A   1      34.681  22.822  27.680  1.00  0.00    -0.273 OA
ATOM      5  H   UNL A   1      36.930  23.075  27.089  1.00  0.00     0.163 HD
BRANCH   3   6
ATOM      6  C   UNL A   1      33.964  23.413  25.452  1.00  0.00     0.171 C 
BRANCH   6   7
ATOM      7  C   UNL A   1      33.596  24.908  25.412  1.00  0.00     0.038 C 
BRANCH   7   8
ATOM      8  C   UNL A   1      33.339  25.401  23.971  1.00  0.00    -0.015 C 
ATOM      9  C   UNL A   1      34.048  24.512  22.946  1.00  0.00     0.007 C 
ATOM     10  C   UNL A   1      31.840  25.426  23.675  1.00  0.00     0.007 C 
ENDBRANCH   7   8
ENDBRANCH   6   7
BRANCH   6  11
ATOM     11  N   UNL A   1      32.765  22.581  25.562  1.00  0.00    -0.343 N 
ATOM     12  C   UNL A   1      32.376  21.472  24.880  1.00  0.00     0.240 C 
ATOM     13  H   UNL A   1      32.129  22.876  26.253  1.00  0.00     0.164 HD
ATOM     14  O   UNL A   1      31.353  20.911  25.294  1.00  0.00    -0.273 OA
BRANCH  12  15
ATOM     15  C   UNL A   1      33.188  20.823  23.746  1.00  0.00     0.216 C 
BRANCH  15  16
ATOM     16  N   UNL A   1      32.533  19.802  22.947  1.00  0.00    -0.342 N 
ATOM     17  C   UNL A   1      32.426  18.458  23.161  1.00  0.00     0.278 C 
ATOM     18  H   UNL A   1      32.100  20.130  22.125  1.00  0.00     0.164 HD
ATOM     19  O   UNL A   1      31.823  17.796  22.310  1.00  0.00    -0.268 OA
BRANCH  17  20
ATOM     20  C   UNL A   1      32.992  17.781  24.433  1.00  0.00     0.273 C 
BRANCH  20  21
ATOM     21  N   UNL A   1      32.020  16.810  24.969  1.00  0.00    -0.347 N 
ATOM     22  H   UNL A   1      32.501  16.146  25.576  1.00  0.00     0.345 HD
ATOM     23  H   UNL A   1      31.579  16.309  24.197  1.00  0.00     0.345 HD
ATOM     24  H   UNL A   1      31.306  17.305  25.505  1.00  0.00     0.345 HD
ENDBRANCH  20  21
BRANCH  20  25
ATOM     25  C   UNL A   1      34.381  17.153  24.169  1.00  0.00     0.051 C 
ATOM     26  C   UNL A   1      35.495  18.127  24.575  1.00  0.00     0.014 C 
ATOM     27  C   UNL A   1      34.574  15.834  24.926  1.00  0.00     0.014 C 
ENDBRANCH  20  25
ENDBRANCH  17  20
ENDBRANCH  15  16
ENDBRANCH  12  15
ENDBRANCH   6  11
ENDBRANCH   3   6
ENDBRANCH   1   2
BRANCH   1  28
ATOM     28  C   UNL A   1      37.213  21.856  24.361  1.00  0.00     0.023 C 
BRANCH  28  29
ATOM     29  C   UNL A   1      37.802  20.738  25.227  1.00  0.00     0.023 C 
BRANCH  29  30
ATOM     30  C   UNL A   1      39.115  21.063  25.935  1.00  0.00     0.116 C 
BRANCH  30  31
ATOM     31  N   UNL A   1      40.045  19.947  25.953  1.00  0.00    -0.352 N 
ATOM     32  C   UNL A   1      41.411  19.960  26.109  1.00  0.00     0.251 C 
ATOM     33  H   UNL A   1      39.642  19.057  25.836  1.00  0.00     0.163 HD
ATOM     34  O   UNL A   1      42.046  18.916  25.987  1.00  0.00    -0.269 OA
BRANCH  32  35
ATOM     35  C   UNL A   1      42.106  21.237  26.379  1.00  0.00     0.039 A 
ATOM     36  C   UNL A   1      42.232  22.163  25.341  1.00  0.00     0.014 A 
ATOM     37  C   UNL A   1      42.604  21.529  27.651  1.00  0.00     0.014 A 
ATOM     38  C   UNL A   1      42.795  23.415  25.599  1.00  0.00     0.010 A 
ATOM     39  C   UNL A   1      43.103  22.801  27.921  1.00  0.00     0.010 A 
ATOM     40  C   UNL A   1      43.201  23.759  26.899  1.00  0.00    -0.014 A 
BRANCH  40  41
ATOM     41  C   UNL A   1      43.727  25.115  27.205  1.00  0.00     0.031 A 
ATOM     42  C   UNL A   1      42.820  26.156  27.802  1.00  0.00     0.074 A 
ATOM     43  C   UNL A   1      45.001  25.424  26.892  1.00  0.00     0.049 A 
ATOM     44  N   UNL A   1      43.064  27.413  28.069  1.00  0.00    -0.248 NA
ATOM     45  C   UNL A   1      41.446  25.732  28.110  1.00  0.00     0.031 C 
ATOM     46  C   UNL A   1      45.964  24.510  26.273  1.00  0.00     0.029 A 
ATOM     47  N   UNL A   1      45.704  26.593  27.042  1.00  0.00    -0.354 N 
ATOM     48  C   UNL A   1      41.875  27.933  28.569  1.00  0.00     0.074 A 
ATOM     49  C   UNL A   1      40.894  26.870  28.503  1.00  0.00     0.031 C 
ATOM     50  C   UNL A   1      47.135  25.148  26.114  1.00  0.00     0.029 A 
ATOM     51  C   UNL A   1      46.997  26.525  26.576  1.00  0.00     0.049 A 
ATOM     52  H   UNL A   1      45.320  27.405  27.444  1.00  0.00     0.167 HD
ATOM     53  C   UNL A   1      41.631  29.174  29.060  1.00  0.00     0.034 A 
ATOM     54  C   UNL A   1      47.959  27.469  26.516  1.00  0.00     0.034 A 
ATOM     55  C   UNL A   1      42.623  30.219  29.125  1.00  0.00     0.049 A 
ATOM     56  C   UNL A   1      47.658  28.847  27.046  1.00  0.00     0.074 A 
ATOM     57  C   UNL A   1      42.498  31.497  29.643  1.00  0.00     0.029 A 
ATOM     58  N   UNL A   1      43.925  30.112  28.651  1.00  0.00    -0.354 N 
ATOM     59  N   UNL A   1      46.540  29.311  27.557  1.00  0.00    -0.248 NA
ATOM     60  C   UNL A   1      48.751  29.827  27.001  1.00  0.00     0.031 C 
ATOM     61  C   UNL A   1      43.699  32.181  29.423  1.00  0.00     0.029 A 
ATOM     62  C   UNL A   1      44.602  31.307  28.839  1.00  0.00     0.049 A 
ATOM     63  H   UNL A   1      44.311  29.304  28.241  1.00  0.00     0.167 HD
ATOM     64  C   UNL A   1      46.807  30.627  27.923  1.00  0.00     0.074 A 
ATOM     65  C   UNL A   1      48.195  30.877  27.588  1.00  0.00     0.031 C 
ATOM     66  C   UNL A   1      45.983  31.546  28.489  1.00  0.00     0.034 A 
BRANCH  53  67
ATOM     67  C   UNL A   1      40.229  29.464  29.543  1.00  0.00     0.023 A 
ATOM     68  C   UNL A   1      39.920  29.525  30.914  1.00  0.00     0.031 A 
ATOM     69  C   UNL A   1      39.181  29.652  28.625  1.00  0.00     0.131 A 
ATOM     70  C   UNL A   1      38.588  29.685  31.326  1.00  0.00     0.055 A 
ATOM     71  C   UNL A   1      37.871  29.897  29.042  1.00  0.00     0.041 A 
ATOM     72  F   UNL A   1      39.409  29.585  27.304  1.00  0.00    -0.206 F 
ATOM     73  C   UNL A   1      37.564  29.897  30.400  1.00  0.00     0.022 A 
BRANCH  70  74
ATOM     74  S   UNL A   1      38.193  29.460  33.081  1.00  0.00     0.124 S 
ATOM     75  O   UNL A   1      37.324  28.287  33.039  1.00  0.00    -0.237 OA
ATOM     76  O   UNL A   1      39.509  29.259  33.678  1.00  0.00    -0.237 OA
ATOM     77  O   UNL A   1      37.525  30.708  33.446  1.00  0.00    -0.744 OA
ENDBRANCH  70  74
ENDBRANCH  53  67
BRANCH  54  78
ATOM     78  C   UNL A   1      49.290  27.154  25.921  1.00  0.00     0.023 A 
ATOM     79  C   UNL A   1      49.620  27.571  24.621  1.00  0.00     0.031 A 
ATOM     80  C   UNL A   1      50.238  26.394  26.629  1.00  0.00     0.131 A 
ATOM     81  C   UNL A   1      50.843  27.185  24.052  1.00  0.00     0.055 A 
ATOM     82  C   UNL A   1      51.475  26.058  26.078  1.00  0.00     0.041 A 
ATOM     83  F   UNL A   1      49.976  25.974  27.877  1.00  0.00    -0.206 F 
ATOM     84  C   UNL A   1      51.778  26.442  24.776  1.00  0.00     0.022 A 
BRANCH  81  85
ATOM     85  S   UNL A   1      51.159  27.594  22.312  1.00  0.00     0.124 S 
ATOM     86  O   UNL A   1      50.308  26.631  21.622  1.00  0.00    -0.237 OA
ATOM     87  O   UNL A   1      50.734  28.988  22.247  1.00  0.00    -0.237 OA
ATOM     88  O   UNL A   1      52.597  27.374  22.167  1.00  0.00    -0.744 OA
ENDBRANCH  81  85
ENDBRANCH  54  78
BRANCH  66  89
ATOM     89  C   UNL A   1      46.582  32.891  28.821  1.00  0.00     0.023 A 
ATOM     90  C   UNL A   1      46.669  33.920  27.867  1.00  0.00     0.031 A 
ATOM     91  C   UNL A   1      47.081  33.141  30.113  1.00  0.00     0.131 A 
ATOM     92  C   UNL A   1      47.293  35.131  28.202  1.00  0.00     0.055 A 
ATOM     93  C   UNL A   1      47.645  34.370  30.456  1.00  0.00     0.041 A 
ATOM     94  F   UNL A   1      47.026  32.194  31.062  1.00  0.00    -0.206 F 
ATOM     95  C   UNL A   1      47.766  35.369  29.495  1.00  0.00     0.022 A 
BRANCH  92  96
ATOM     96  S   UNL A   1      47.561  36.362  26.897  1.00  0.00     0.124 S 
ATOM     97  O   UNL A   1      48.838  36.948  27.291  1.00  0.00    -0.237 OA
ATOM     98  O   UNL A   1      47.580  35.540  25.691  1.00  0.00    -0.237 OA
ATOM     99  O   UNL A   1      46.406  37.251  27.021  1.00  0.00    -0.744 OA
ENDBRANCH  92  96
ENDBRANCH  66  89
ENDBRANCH  40  41
ENDBRANCH  32  35
ENDBRANCH  30  31
ENDBRANCH  29  30
ENDBRANCH  28  29
ENDBRANCH   1  28
TORSDOF 22
ENDMDL
MODEL 3
REMARK VINA RESULT:     -10.0      4.974     10.367
REMARK SMILES CC(C)C[C@H](NC(=O)CNC(=O)[C@@H]([NH3+])C(C)C)C(=O)NCCCCNC(=O)c1ccc(-c2c3nc(c(-c4cc(S(=O)(=O)[O-])ccc4F)c4ccc([nH]4)c(-c4cc(S(=O)(=O)[O-])ccc4F)c4nc(c(-c5cc(S(=O)(=O)[O-])ccc5F)c5ccc2[nH]5)C=C4)C=C3)cc1
REMARK SMILES IDX 21 1 20 2 18 3 19 4 5 6 4 7 2 8 1 9 3 10 6 11 7 12 8 14 9 15
REMARK SMILES IDX 10 16 11 17 12 19 13 20 14 21 15 25 16 26 17 27 22 28 23 29
REMARK SMILES IDX 24 30 25 31 26 32 27 34 28 35 29 36 90 37 30 38 89 39 31 40
REMARK SMILES IDX 32 41 33 42 83 43 34 44 88 45 82 46 84 47 35 48 87 49 81 50
REMARK SMILES IDX 80 51 36 53 68 54 48 55 67 56 49 57 52 58 66 59 85 60 50 61
REMARK SMILES IDX 51 62 65 64 86 65 53 66 37 67 38 68 46 69 39 70 45 71 47 72
REMARK SMILES IDX 44 73 40 74 41 75 42 76 43 77 69 78 70 79 78 80 71 81 77 82
REMARK SMILES IDX 79 83 76 84 72 85 73 86 74 87 75 88 54 89 55 90 63 91 56 92
REMARK SMILES IDX 62 93 64 94 61 95 57 96 58 97 59 98 60 99
REMARK H PARENT 20 5 6 13 10 18 14 22 14 23 14 24 25 33 84 52 52 63
REMARK Flexibility Score: inf
ROOT
ATOM      1  C   UNL A   1      30.330  26.016  25.647  1.00  0.00     0.116 C 
ENDROOT
BRANCH   1   2
ATOM      2  N   UNL A   1      29.961  24.908  26.502  1.00  0.00    -0.354 N 
ATOM      3  C   UNL A   1      30.372  23.615  26.518  1.00  0.00     0.242 C 
ATOM      4  O   UNL A   1      30.087  22.956  27.527  1.00  0.00    -0.273 OA
ATOM      5  H   UNL A   1      29.296  25.132  27.192  1.00  0.00     0.163 HD
BRANCH   3   6
ATOM      6  C   UNL A   1      31.299  23.008  25.441  1.00  0.00     0.171 C 
BRANCH   6   7
ATOM      7  C   UNL A   1      30.896  23.529  24.049  1.00  0.00     0.038 C 
BRANCH   7   8
ATOM      8  C   UNL A   1      32.118  24.005  23.234  1.00  0.00    -0.015 C 
ATOM      9  C   UNL A   1      33.228  24.524  24.152  1.00  0.00     0.007 C 
ATOM     10  C   UNL A   1      32.659  22.868  22.369  1.00  0.00     0.007 C 
ENDBRANCH   7   8
ENDBRANCH   6   7
BRANCH   6  11
ATOM     11  N   UNL A   1      31.380  21.547  25.450  1.00  0.00    -0.343 N 
ATOM     12  C   UNL A   1      32.432  20.705  25.277  1.00  0.00     0.240 C 
ATOM     13  H   UNL A   1      30.520  21.094  25.610  1.00  0.00     0.164 HD
ATOM     14  O   UNL A   1      32.203  19.503  25.470  1.00  0.00    -0.273 OA
BRANCH  12  15
ATOM     15  C   UNL A   1      33.874  21.166  25.001  1.00  0.00     0.216 C 
BRANCH  15  16
ATOM     16  N   UNL A   1      34.899  20.142  24.892  1.00  0.00    -0.342 N 
ATOM     17  C   UNL A   1      36.252  20.238  25.049  1.00  0.00     0.278 C 
ATOM     18  H   UNL A   1      34.567  19.242  24.672  1.00  0.00     0.164 HD
ATOM     19  O   UNL A   1      36.915  19.209  24.885  1.00  0.00    -0.268 OA
BRANCH  17  20
ATOM     20  C   UNL A   1      36.940  21.564  25.460  1.00  0.00     0.273 C 
BRANCH  20  21
ATOM     21  N   UNL A   1      38.388  21.491  25.192  1.00  0.00    -0.347 N 
ATOM     22  H   UNL A   1      38.889  21.348  26.069  1.00  0.00     0.345 HD
ATOM     23  H   UNL A   1      38.698  22.361  24.760  1.00  0.00     0.345 HD
ATOM     24  H   UNL A   1      38.578  20.712  24.561  1.00  0.00     0.345 HD
ENDBRANCH  20  21
BRANCH  20  25
ATOM     25  C   UNL A   1      36.266  22.782  24.785  1.00  0.00     0.051 C 
ATOM     26  C   UNL A   1      36.652  24.078  25.511  1.00  0.00     0.014 C 
ATOM     27  C   UNL A   1      36.650  22.910  23.306  1.00  0.00     0.014 C 
ENDBRANCH  20  25
ENDBRANCH  17  20
ENDBRANCH  15  16
ENDBRANCH  12  15
ENDBRANCH   6  11
ENDBRANCH   3   6
ENDBRANCH   1   2
BRANCH   1  28
ATOM     28  C   UNL A   1      31.563  26.755  26.158  1.00  0.00     0.023 C 
BRANCH  28  29
ATOM     29  C   UNL A   1      31.402  28.271  26.307  1.00  0.00     0.023 C 
BRANCH  29  30
ATOM     30  C   UNL A   1      32.684  29.057  26.568  1.00  0.00     0.116 C 
BRANCH  30  31
ATOM     31  N   UNL A   1      32.473  30.494  26.622  1.00  0.00    -0.352 N 
ATOM     32  C   UNL A   1      33.248  31.460  27.216  1.00  0.00     0.251 C 
ATOM     33  H   UNL A   1      31.662  30.820  26.170  1.00  0.00     0.163 HD
ATOM     34  O   UNL A   1      32.848  32.622  27.251  1.00  0.00    -0.269 OA
BRANCH  32  35
ATOM     35  C   UNL A   1      34.532  31.088  27.846  1.00  0.00     0.039 A 
ATOM     36  C   UNL A   1      35.506  32.074  28.014  1.00  0.00     0.014 A 
ATOM     37  C   UNL A   1      34.762  29.785  28.293  1.00  0.00     0.014 A 
ATOM     38  C   UNL A   1      36.686  31.769  28.697  1.00  0.00     0.010 A 
ATOM     39  C   UNL A   1      35.908  29.501  29.032  1.00  0.00     0.010 A 
ATOM     40  C   UNL A   1      36.882  30.491  29.245  1.00  0.00    -0.014 A 
BRANCH  40  41
ATOM     41  C   UNL A   1      38.094  30.175  30.043  1.00  0.00     0.031 A 
ATOM     42  C   UNL A   1      39.134  29.237  29.492  1.00  0.00     0.074 A 
ATOM     43  C   UNL A   1      38.230  30.685  31.283  1.00  0.00     0.049 A 
ATOM     44  N   UNL A   1      40.218  28.776  30.060  1.00  0.00    -0.248 NA
ATOM     45  C   UNL A   1      38.904  28.727  28.132  1.00  0.00     0.031 C 
ATOM     46  C   UNL A   1      37.269  31.574  31.940  1.00  0.00     0.029 A 
ATOM     47  N   UNL A   1      39.223  30.524  32.217  1.00  0.00    -0.354 N 
ATOM     48  C   UNL A   1      40.797  27.916  29.132  1.00  0.00     0.074 A 
ATOM     49  C   UNL A   1      39.905  27.871  27.992  1.00  0.00     0.031 C 
ATOM     50  C   UNL A   1      37.730  31.893  33.161  1.00  0.00     0.029 A 
ATOM     51  C   UNL A   1      38.992  31.200  33.393  1.00  0.00     0.049 A 
ATOM     52  H   UNL A   1      40.025  29.976  32.061  1.00  0.00     0.167 HD
ATOM     53  C   UNL A   1      41.974  27.248  29.214  1.00  0.00     0.034 A 
ATOM     54  C   UNL A   1      39.709  31.245  34.535  1.00  0.00     0.034 A 
ATOM     55  C   UNL A   1      42.854  27.310  30.355  1.00  0.00     0.049 A 
ATOM     56  C   UNL A   1      41.002  30.474  34.611  1.00  0.00     0.074 A 
ATOM     57  C   UNL A   1      44.090  26.709  30.526  1.00  0.00     0.029 A 
ATOM     58  N   UNL A   1      42.591  28.011  31.526  1.00  0.00    -0.354 N 
ATOM     59  N   UNL A   1      41.559  29.701  33.706  1.00  0.00    -0.248 NA
ATOM     60  C   UNL A   1      41.770  30.591  35.857  1.00  0.00     0.031 C 
ATOM     61  C   UNL A   1      44.541  26.992  31.820  1.00  0.00     0.029 A 
ATOM     62  C   UNL A   1      43.626  27.835  32.431  1.00  0.00     0.049 A 
ATOM     63  H   UNL A   1      41.786  28.554  31.688  1.00  0.00     0.167 HD
ATOM     64  C   UNL A   1      42.756  29.265  34.265  1.00  0.00     0.074 A 
ATOM     65  C   UNL A   1      42.849  29.875  35.576  1.00  0.00     0.031 C 
ATOM     66  C   UNL A   1      43.699  28.440  33.741  1.00  0.00     0.034 A 
BRANCH  53  67
ATOM     67  C   UNL A   1      42.358  26.376  28.040  1.00  0.00     0.023 A 
ATOM     68  C   UNL A   1      41.967  25.027  27.966  1.00  0.00     0.031 A 
ATOM     69  C   UNL A   1      43.148  26.889  26.996  1.00  0.00     0.131 A 
ATOM     70  C   UNL A   1      42.433  24.219  26.919  1.00  0.00     0.055 A 
ATOM     71  C   UNL A   1      43.537  26.100  25.912  1.00  0.00     0.041 A 
ATOM     72  F   UNL A   1      43.569  28.163  27.021  1.00  0.00    -0.206 F 
ATOM     73  C   UNL A   1      43.195  24.751  25.876  1.00  0.00     0.022 A 
BRANCH  70  74
ATOM     74  S   UNL A   1      42.156  22.429  27.019  1.00  0.00     0.124 S 
ATOM     75  O   UNL A   1      43.418  21.907  26.498  1.00  0.00    -0.237 OA
ATOM     76  O   UNL A   1      41.920  22.224  28.443  1.00  0.00    -0.237 OA
ATOM     77  O   UNL A   1      40.997  22.211  26.155  1.00  0.00    -0.744 OA
ENDBRANCH  70  74
ENDBRANCH  53  67
BRANCH  54  78
ATOM     78  C   UNL A   1      39.220  32.032  35.704  1.00  0.00     0.023 A 
ATOM     79  C   UNL A   1      38.517  31.414  36.751  1.00  0.00     0.031 A 
ATOM     80  C   UNL A   1      39.412  33.423  35.771  1.00  0.00     0.131 A 
ATOM     81  C   UNL A   1      37.990  32.191  37.794  1.00  0.00     0.055 A 
ATOM     82  C   UNL A   1      38.932  34.184  36.837  1.00  0.00     0.041 A 
ATOM     83  F   UNL A   1      40.081  34.064  34.798  1.00  0.00    -0.206 F 
ATOM     84  C   UNL A   1      38.203  33.569  37.851  1.00  0.00     0.022 A 
BRANCH  81  85
ATOM     85  S   UNL A   1      36.941  31.382  39.034  1.00  0.00     0.124 S 
ATOM     86  O   UNL A   1      35.793  32.280  39.083  1.00  0.00    -0.237 OA
ATOM     87  O   UNL A   1      36.709  30.075  38.429  1.00  0.00    -0.237 OA
ATOM     88  O   UNL A   1      37.779  31.373  40.232  1.00  0.00    -0.744 OA
ENDBRANCH  81  85
ENDBRANCH  54  78
BRANCH  66  89
ATOM     89  C   UNL A   1      44.932  28.190  34.575  1.00  0.00     0.023 A 
ATOM     90  C   UNL A   1      45.009  27.116  35.480  1.00  0.00     0.031 A 
ATOM     91  C   UNL A   1      46.042  29.047  34.468  1.00  0.00     0.131 A 
ATOM     92  C   UNL A   1      46.149  26.962  36.283  1.00  0.00     0.055 A 
ATOM     93  C   UNL A   1      47.197  28.851  35.225  1.00  0.00     0.041 A 
ATOM     94  F   UNL A   1      46.022  30.089  33.621  1.00  0.00    -0.206 F 
ATOM     95  C   UNL A   1      47.250  27.812  36.148  1.00  0.00     0.022 A 
BRANCH  92  96
ATOM     96  S   UNL A   1      46.140  25.686  37.572  1.00  0.00     0.124 S 
ATOM     97  O   UNL A   1      47.565  25.486  37.811  1.00  0.00    -0.237 OA
ATOM     98  O   UNL A   1      45.397  26.336  38.649  1.00  0.00    -0.237 OA
ATOM     99  O   UNL A   1      45.452  24.562  36.939  1.00  0.00    -0.744 OA
ENDBRANCH  92  96
ENDBRANCH  66  89
ENDBRANCH  40  41
ENDBRANCH  32  35
ENDBRANCH  30  31
ENDBRANCH  29  30
ENDBRANCH  28  29
ENDBRANCH   1  28
TORSDOF 22
ENDMDL
