MODEL 1
REMARK VINA RESULT:     -11.5      0.000      0.000
REMARK SMILES O=C(CCC(=O)N1CCN(S(=O)(=O)c2cccs2)CC1)NCCCCNC(=O)c1ccc(-c2c3nc(c(-c4cc(S(=O)(=O)[O-])ccc4F)c4ccc([nH]4)c(-c4cc(S(=O)(=O)[O-])ccc4F)c4nc(c(-c5cc(S(=O)(=O)[O-])ccc5F)c5ccc2[nH]5)C=C4)C=C3)cc1
REMARK SMILES IDX 23 1 22 2 21 3 1 4 2 5 3 7 4 8 5 9 6 10 7 11 8 12 20 13 9 14
REMARK SMILES IDX 19 15 10 16 11 17 12 18 13 19 14 20 15 21 18 22 16 23 17 24
REMARK SMILES IDX 24 25 25 26 26 27 27 28 28 30 29 31 30 32 91 33 31 34 90 35
REMARK SMILES IDX 32 36 33 37 34 38 84 39 35 40 89 41 83 42 85 43 36 44 88 45
REMARK SMILES IDX 82 46 81 47 37 49 69 50 49 51 68 52 50 53 53 54 67 55 86 56
REMARK SMILES IDX 51 57 52 58 66 60 87 61 54 62 38 63 39 64 47 65 40 66 46 67
REMARK SMILES IDX 48 68 45 69 41 70 42 71 43 72 44 73 70 74 71 75 79 76 72 77
REMARK SMILES IDX 78 78 80 79 77 80 73 81 74 82 75 83 76 84 55 85 56 86 64 87
REMARK SMILES IDX 57 88 63 89 65 90 62 91 58 92 59 93 60 94 61 95
REMARK H PARENT 21 6 26 29 85 48 53 59
REMARK Flexibility Score: inf
ROOT
ATOM      1  C   UNL A   1      30.255  32.421  25.038  1.00  0.00     0.023 C 
ENDROOT
BRANCH   1   2
ATOM      2  C   UNL A   1      29.379  32.258  23.800  1.00  0.00     0.116 C 
BRANCH   2   3
ATOM      3  N   UNL A   1      29.163  30.888  23.384  1.00  0.00    -0.356 N 
ATOM      4  O   UNL A   1      26.915  30.915  23.826  1.00  0.00    -0.275 OA
ATOM      5  C   UNL A   1      27.902  30.337  23.379  1.00  0.00     0.220 C 
ATOM      6  H   UNL A   1      29.932  30.341  23.100  1.00  0.00     0.163 HD
BRANCH   5   7
ATOM      7  C   UNL A   1      27.809  28.984  22.710  1.00  0.00     0.110 C 
BRANCH   7   8
ATOM      8  C   UNL A   1      28.755  27.987  23.373  1.00  0.00     0.110 C 
BRANCH   8   9
ATOM      9  C   UNL A   1      30.122  27.977  22.709  1.00  0.00     0.223 C 
ATOM     10  O   UNL A   1      30.268  28.583  21.645  1.00  0.00    -0.275 OA
ATOM     11  N   UNL A   1      31.172  27.305  23.317  1.00  0.00    -0.340 N 
ATOM     12  C   UNL A   1      32.497  27.367  22.672  1.00  0.00     0.136 C 
ATOM     13  C   UNL A   1      31.011  26.251  24.321  1.00  0.00     0.136 C 
ATOM     14  C   UNL A   1      33.681  27.176  23.649  1.00  0.00     0.124 C 
ATOM     15  C   UNL A   1      32.190  26.160  25.286  1.00  0.00     0.124 C 
ATOM     16  N   UNL A   1      33.476  26.003  24.579  1.00  0.00    -0.194 NA
BRANCH  16  17
ATOM     17  S   UNL A   1      33.913  24.519  23.861  1.00  0.00     0.252 S 
ATOM     18  O   UNL A   1      32.929  23.549  24.288  1.00  0.00    -0.206 OA
ATOM     19  O   UNL A   1      34.122  24.807  22.458  1.00  0.00    -0.206 OA
BRANCH  17  20
ATOM     20  C   UNL A   1      35.434  23.829  24.497  1.00  0.00     0.135 A 
ATOM     21  C   UNL A   1      35.996  23.758  25.763  1.00  0.00     0.033 A 
ATOM     22  S   UNL A   1      36.322  22.856  23.393  1.00  0.00    -0.131 S 
ATOM     23  C   UNL A   1      37.113  22.874  25.830  1.00  0.00     0.013 A 
ATOM     24  C   UNL A   1      37.380  22.297  24.612  1.00  0.00     0.066 A 
ENDBRANCH  17  20
ENDBRANCH  16  17
ENDBRANCH   8   9
ENDBRANCH   7   8
ENDBRANCH   5   7
ENDBRANCH   2   3
ENDBRANCH   1   2
BRANCH   1  25
ATOM     25  C   UNL A   1      30.986  31.168  25.525  1.00  0.00     0.023 C 
BRANCH  25  26
ATOM     26  C   UNL A   1      32.014  31.366  26.637  1.00  0.00     0.116 C 
BRANCH  26  27
ATOM     27  N   UNL A   1      32.115  32.746  27.077  1.00  0.00    -0.352 N 
ATOM     28  C   UNL A   1      33.111  33.385  27.783  1.00  0.00     0.251 C 
ATOM     29  H   UNL A   1      31.351  33.316  26.832  1.00  0.00     0.163 HD
ATOM     30  O   UNL A   1      32.923  34.548  28.136  1.00  0.00    -0.269 OA
BRANCH  28  31
ATOM     31  C   UNL A   1      34.361  32.687  28.188  1.00  0.00     0.039 A 
ATOM     32  C   UNL A   1      35.557  33.416  28.161  1.00  0.00     0.014 A 
ATOM     33  C   UNL A   1      34.392  31.347  28.587  1.00  0.00     0.014 A 
ATOM     34  C   UNL A   1      36.744  32.847  28.634  1.00  0.00     0.010 A 
ATOM     35  C   UNL A   1      35.565  30.791  29.106  1.00  0.00     0.010 A 
ATOM     36  C   UNL A   1      36.744  31.547  29.166  1.00  0.00    -0.014 A 
BRANCH  36  37
ATOM     37  C   UNL A   1      37.930  31.028  29.898  1.00  0.00     0.031 A 
ATOM     38  C   UNL A   1      38.838  29.993  29.298  1.00  0.00     0.074 A 
ATOM     39  C   UNL A   1      38.141  31.452  31.160  1.00  0.00     0.049 A 
ATOM     40  N   UNL A   1      39.892  29.420  29.821  1.00  0.00    -0.248 NA
ATOM     41  C   UNL A   1      38.508  29.531  27.943  1.00  0.00     0.031 C 
ATOM     42  C   UNL A   1      37.299  32.416  31.876  1.00  0.00     0.029 A 
ATOM     43  N   UNL A   1      39.112  31.121  32.071  1.00  0.00    -0.354 N 
ATOM     44  C   UNL A   1      40.357  28.527  28.862  1.00  0.00     0.074 A 
ATOM     45  C   UNL A   1      39.442  28.611  27.739  1.00  0.00     0.031 C 
ATOM     46  C   UNL A   1      37.794  32.600  33.110  1.00  0.00     0.029 A 
ATOM     47  C   UNL A   1      38.966  31.750  33.285  1.00  0.00     0.049 A 
ATOM     48  H   UNL A   1      39.843  30.492  31.874  1.00  0.00     0.167 HD
ATOM     49  C   UNL A   1      41.449  27.722  28.911  1.00  0.00     0.034 A 
ATOM     50  C   UNL A   1      39.686  31.651  34.418  1.00  0.00     0.034 A 
ATOM     51  C   UNL A   1      42.353  27.643  30.034  1.00  0.00     0.049 A 
ATOM     52  C   UNL A   1      40.884  30.744  34.452  1.00  0.00     0.074 A 
ATOM     53  C   UNL A   1      43.528  26.918  30.148  1.00  0.00     0.029 A 
ATOM     54  N   UNL A   1      42.176  28.297  31.247  1.00  0.00    -0.354 N 
ATOM     55  N   UNL A   1      41.348  29.957  33.510  1.00  0.00    -0.248 NA
ATOM     56  C   UNL A   1      41.661  30.722  35.698  1.00  0.00     0.031 C 
ATOM     57  C   UNL A   1      44.032  27.090  31.445  1.00  0.00     0.029 A 
ATOM     58  C   UNL A   1      43.201  27.966  32.124  1.00  0.00     0.049 A 
ATOM     59  H   UNL A   1      41.432  28.905  31.455  1.00  0.00     0.167 HD
ATOM     60  C   UNL A   1      42.486  29.362  34.044  1.00  0.00     0.074 A 
ATOM     61  C   UNL A   1      42.640  29.885  35.386  1.00  0.00     0.031 C 
ATOM     62  C   UNL A   1      43.332  28.471  33.469  1.00  0.00     0.034 A 
BRANCH  49  63
ATOM     63  C   UNL A   1      41.709  26.837  27.717  1.00  0.00     0.023 A 
ATOM     64  C   UNL A   1      41.459  25.454  27.756  1.00  0.00     0.031 A 
ATOM     65  C   UNL A   1      42.221  27.384  26.528  1.00  0.00     0.131 A 
ATOM     66  C   UNL A   1      41.773  24.656  26.646  1.00  0.00     0.055 A 
ATOM     67  C   UNL A   1      42.475  26.593  25.405  1.00  0.00     0.041 A 
ATOM     68  F   UNL A   1      42.492  28.695  26.439  1.00  0.00    -0.206 F 
ATOM     69  C   UNL A   1      42.263  25.219  25.464  1.00  0.00     0.022 A 
BRANCH  66  70
ATOM     70  S   UNL A   1      41.636  22.855  26.804  1.00  0.00     0.124 S 
ATOM     71  O   UNL A   1      41.903  22.415  25.436  1.00  0.00    -0.237 OA
ATOM     72  O   UNL A   1      42.666  22.544  27.787  1.00  0.00    -0.237 OA
ATOM     73  O   UNL A   1      40.260  22.654  27.258  1.00  0.00    -0.744 OA
ENDBRANCH  66  70
ENDBRANCH  49  63
BRANCH  50  74
ATOM     74  C   UNL A   1      39.286  32.424  35.623  1.00  0.00     0.023 A 
ATOM     75  C   UNL A   1      39.750  33.731  35.828  1.00  0.00     0.031 A 
ATOM     76  C   UNL A   1      38.444  31.854  36.593  1.00  0.00     0.131 A 
ATOM     77  C   UNL A   1      39.390  34.421  36.995  1.00  0.00     0.055 A 
ATOM     78  C   UNL A   1      38.063  32.556  37.737  1.00  0.00     0.041 A 
ATOM     79  F   UNL A   1      37.967  30.610  36.431  1.00  0.00    -0.206 F 
ATOM     80  C   UNL A   1      38.543  33.845  37.947  1.00  0.00     0.022 A 
BRANCH  77  81
ATOM     81  S   UNL A   1      40.085  36.072  37.278  1.00  0.00     0.124 S 
ATOM     82  O   UNL A   1      39.750  36.755  36.032  1.00  0.00    -0.237 OA
ATOM     83  O   UNL A   1      39.355  36.507  38.464  1.00  0.00    -0.237 OA
ATOM     84  O   UNL A   1      41.507  35.812  37.485  1.00  0.00    -0.744 OA
ENDBRANCH  77  81
ENDBRANCH  50  74
BRANCH  62  85
ATOM     85  C   UNL A   1      44.516  28.040  34.294  1.00  0.00     0.023 A 
ATOM     86  C   UNL A   1      44.455  26.920  35.139  1.00  0.00     0.031 A 
ATOM     87  C   UNL A   1      45.707  28.787  34.260  1.00  0.00     0.131 A 
ATOM     88  C   UNL A   1      45.550  26.605  35.958  1.00  0.00     0.055 A 
ATOM     89  C   UNL A   1      46.809  28.442  35.045  1.00  0.00     0.041 A 
ATOM     90  F   UNL A   1      45.814  29.868  33.473  1.00  0.00    -0.206 F 
ATOM     91  C   UNL A   1      46.730  27.353  35.909  1.00  0.00     0.022 A 
BRANCH  88  92
ATOM     92  S   UNL A   1      45.387  25.246  37.150  1.00  0.00     0.124 S 
ATOM     93  O   UNL A   1      44.020  25.424  37.630  1.00  0.00    -0.237 OA
ATOM     94  O   UNL A   1      45.623  24.070  36.318  1.00  0.00    -0.237 OA
ATOM     95  O   UNL A   1      46.431  25.525  38.134  1.00  0.00    -0.744 OA
ENDBRANCH  88  92
ENDBRANCH  62  85
ENDBRANCH  36  37
ENDBRANCH  28  31
ENDBRANCH  26  27
ENDBRANCH  25  26
ENDBRANCH   1  25
TORSDOF 18
ENDMDL
MODEL 2
REMARK VINA RESULT:     -11.4      1.748      2.139
REMARK SMILES O=C(CCC(=O)N1CCN(S(=O)(=O)c2cccs2)CC1)NCCCCNC(=O)c1ccc(-c2c3nc(c(-c4cc(S(=O)(=O)[O-])ccc4F)c4ccc([nH]4)c(-c4cc(S(=O)(=O)[O-])ccc4F)c4nc(c(-c5cc(S(=O)(=O)[O-])ccc5F)c5ccc2[nH]5)C=C4)C=C3)cc1
REMARK SMILES IDX 23 1 22 2 21 3 1 4 2 5 3 7 4 8 5 9 6 10 7 11 8 12 20 13 9 14
REMARK SMILES IDX 19 15 10 16 11 17 12 18 13 19 14 20 15 21 18 22 16 23 17 24
REMARK SMILES IDX 24 25 25 26 26 27 27 28 28 30 29 31 30 32 91 33 31 34 90 35
REMARK SMILES IDX 32 36 33 37 34 38 84 39 35 40 89 41 83 42 85 43 36 44 88 45
REMARK SMILES IDX 82 46 81 47 37 49 69 50 49 51 68 52 50 53 53 54 67 55 86 56
REMARK SMILES IDX 51 57 52 58 66 60 87 61 54 62 38 63 39 64 47 65 40 66 46 67
REMARK SMILES IDX 48 68 45 69 41 70 42 71 43 72 44 73 70 74 71 75 79 76 72 77
REMARK SMILES IDX 78 78 80 79 77 80 73 81 74 82 75 83 76 84 55 85 56 86 64 87
REMARK SMILES IDX 57 88 63 89 65 90 62 91 58 92 59 93 60 94 61 95
REMARK H PARENT 21 6 26 29 85 48 53 59
REMARK Flexibility Score: inf
ROOT
ATOM      1  C   UNL A   1      30.165  32.269  24.742  1.00  0.00     0.023 C 
ENDROOT
BRANCH   1   2
ATOM      2  C   UNL A   1      29.386  31.295  23.866  1.00  0.00     0.116 C 
BRANCH   2   3
ATOM      3  N   UNL A   1      29.946  29.962  23.793  1.00  0.00    -0.356 N 
ATOM      4  O   UNL A   1      29.377  29.644  21.596  1.00  0.00    -0.275 OA
ATOM      5  C   UNL A   1      29.944  29.254  22.613  1.00  0.00     0.220 C 
ATOM      6  H   UNL A   1      30.336  29.555  24.601  1.00  0.00     0.163 HD
BRANCH   5   7
ATOM      7  C   UNL A   1      30.760  27.980  22.641  1.00  0.00     0.110 C 
BRANCH   7   8
ATOM      8  C   UNL A   1      30.430  27.154  23.880  1.00  0.00     0.110 C 
BRANCH   8   9
ATOM      9  C   UNL A   1      31.684  26.701  24.609  1.00  0.00     0.223 C 
ATOM     10  O   UNL A   1      32.523  27.548  24.926  1.00  0.00    -0.275 OA
ATOM     11  N   UNL A   1      31.851  25.359  24.914  1.00  0.00    -0.340 N 
ATOM     12  C   UNL A   1      33.053  24.967  25.674  1.00  0.00     0.136 C 
ATOM     13  C   UNL A   1      31.146  24.263  24.244  1.00  0.00     0.136 C 
ATOM     14  C   UNL A   1      32.879  23.670  26.498  1.00  0.00     0.124 C 
ATOM     15  C   UNL A   1      30.960  23.038  25.136  1.00  0.00     0.124 C 
ATOM     16  N   UNL A   1      32.239  22.560  25.696  1.00  0.00    -0.194 NA
BRANCH  16  17
ATOM     17  S   UNL A   1      33.367  21.721  24.730  1.00  0.00     0.252 S 
ATOM     18  O   UNL A   1      33.476  22.457  23.490  1.00  0.00    -0.206 OA
ATOM     19  O   UNL A   1      34.521  21.500  25.575  1.00  0.00    -0.206 OA
BRANCH  17  20
ATOM     20  C   UNL A   1      32.795  20.120  24.177  1.00  0.00     0.135 A 
ATOM     21  C   UNL A   1      32.449  19.604  22.937  1.00  0.00     0.033 A 
ATOM     22  S   UNL A   1      32.874  18.864  25.347  1.00  0.00    -0.131 S 
ATOM     23  C   UNL A   1      32.299  18.186  22.944  1.00  0.00     0.013 A 
ATOM     24  C   UNL A   1      32.529  17.655  24.191  1.00  0.00     0.066 A 
ENDBRANCH  17  20
ENDBRANCH  16  17
ENDBRANCH   8   9
ENDBRANCH   7   8
ENDBRANCH   5   7
ENDBRANCH   2   3
ENDBRANCH   1   2
BRANCH   1  25
ATOM     25  C   UNL A   1      30.645  31.737  26.095  1.00  0.00     0.023 C 
BRANCH  25  26
ATOM     26  C   UNL A   1      32.062  32.120  26.515  1.00  0.00     0.116 C 
BRANCH  26  27
ATOM     27  N   UNL A   1      32.137  33.432  27.130  1.00  0.00    -0.352 N 
ATOM     28  C   UNL A   1      33.078  33.963  27.985  1.00  0.00     0.251 C 
ATOM     29  H   UNL A   1      31.398  34.041  26.898  1.00  0.00     0.163 HD
ATOM     30  O   UNL A   1      32.869  35.077  28.464  1.00  0.00    -0.269 OA
BRANCH  28  31
ATOM     31  C   UNL A   1      34.287  33.201  28.397  1.00  0.00     0.039 A 
ATOM     32  C   UNL A   1      35.526  33.851  28.333  1.00  0.00     0.014 A 
ATOM     33  C   UNL A   1      34.239  31.874  28.838  1.00  0.00     0.014 A 
ATOM     34  C   UNL A   1      36.681  33.222  28.810  1.00  0.00     0.010 A 
ATOM     35  C   UNL A   1      35.382  31.261  29.360  1.00  0.00     0.010 A 
ATOM     36  C   UNL A   1      36.607  31.942  29.382  1.00  0.00    -0.014 A 
BRANCH  36  37
ATOM     37  C   UNL A   1      37.768  31.372  30.116  1.00  0.00     0.031 A 
ATOM     38  C   UNL A   1      38.634  30.303  29.514  1.00  0.00     0.074 A 
ATOM     39  C   UNL A   1      37.992  31.783  31.380  1.00  0.00     0.049 A 
ATOM     40  N   UNL A   1      39.662  29.684  30.038  1.00  0.00    -0.248 NA
ATOM     41  C   UNL A   1      38.290  29.860  28.157  1.00  0.00     0.031 C 
ATOM     42  C   UNL A   1      37.188  32.777  32.097  1.00  0.00     0.029 A 
ATOM     43  N   UNL A   1      38.945  31.408  32.293  1.00  0.00    -0.354 N 
ATOM     44  C   UNL A   1      40.093  28.777  29.078  1.00  0.00     0.074 A 
ATOM     45  C   UNL A   1      39.186  28.903  27.953  1.00  0.00     0.031 C 
ATOM     46  C   UNL A   1      37.686  32.936  33.333  1.00  0.00     0.029 A 
ATOM     47  C   UNL A   1      38.822  32.038  33.508  1.00  0.00     0.049 A 
ATOM     48  H   UNL A   1      39.651  30.750  32.096  1.00  0.00     0.167 HD
ATOM     49  C   UNL A   1      41.150  27.927  29.127  1.00  0.00     0.034 A 
ATOM     50  C   UNL A   1      39.533  31.905  34.644  1.00  0.00     0.034 A 
ATOM     51  C   UNL A   1      42.047  27.807  30.253  1.00  0.00     0.049 A 
ATOM     52  C   UNL A   1      40.693  30.950  34.678  1.00  0.00     0.074 A 
ATOM     53  C   UNL A   1      43.191  27.033  30.368  1.00  0.00     0.029 A 
ATOM     54  N   UNL A   1      41.893  28.462  31.468  1.00  0.00    -0.354 N 
ATOM     55  N   UNL A   1      41.127  30.147  33.735  1.00  0.00    -0.248 NA
ATOM     56  C   UNL A   1      41.464  30.891  35.926  1.00  0.00     0.031 C 
ATOM     57  C   UNL A   1      43.697  27.180  31.667  1.00  0.00     0.029 A 
ATOM     58  C   UNL A   1      42.900  28.087  32.347  1.00  0.00     0.049 A 
ATOM     59  H   UNL A   1      41.174  29.101  31.676  1.00  0.00     0.167 HD
ATOM     60  C   UNL A   1      42.238  29.504  34.270  1.00  0.00     0.074 A 
ATOM     61  C   UNL A   1      42.409  30.015  35.614  1.00  0.00     0.031 C 
ATOM     62  C   UNL A   1      43.048  28.581  33.694  1.00  0.00     0.034 A 
BRANCH  49  63
ATOM     63  C   UNL A   1      41.378  27.037  27.931  1.00  0.00     0.023 A 
ATOM     64  C   UNL A   1      41.007  25.681  27.940  1.00  0.00     0.031 A 
ATOM     65  C   UNL A   1      41.980  27.550  26.769  1.00  0.00     0.131 A 
ATOM     66  C   UNL A   1      41.292  24.870  26.831  1.00  0.00     0.055 A 
ATOM     67  C   UNL A   1      42.206  26.753  25.645  1.00  0.00     0.041 A 
ATOM     68  F   UNL A   1      42.367  28.834  26.710  1.00  0.00    -0.206 F 
ATOM     69  C   UNL A   1      41.873  25.402  25.676  1.00  0.00     0.022 A 
BRANCH  66  70
ATOM     70  S   UNL A   1      40.993  23.086  26.957  1.00  0.00     0.124 S 
ATOM     71  O   UNL A   1      39.535  23.024  26.884  1.00  0.00    -0.237 OA
ATOM     72  O   UNL A   1      41.714  22.563  25.803  1.00  0.00    -0.237 OA
ATOM     73  O   UNL A   1      41.560  22.734  28.259  1.00  0.00    -0.744 OA
ENDBRANCH  66  70
ENDBRANCH  49  63
BRANCH  50  74
ATOM     74  C   UNL A   1      39.162  32.690  35.851  1.00  0.00     0.023 A 
ATOM     75  C   UNL A   1      39.651  33.989  36.045  1.00  0.00     0.031 A 
ATOM     76  C   UNL A   1      38.321  32.138  36.833  1.00  0.00     0.131 A 
ATOM     77  C   UNL A   1      39.318  34.689  37.214  1.00  0.00     0.055 A 
ATOM     78  C   UNL A   1      37.966  32.852  37.978  1.00  0.00     0.041 A 
ATOM     79  F   UNL A   1      37.820  30.903  36.681  1.00  0.00    -0.206 F 
ATOM     80  C   UNL A   1      38.472  34.133  38.178  1.00  0.00     0.022 A 
BRANCH  77  81
ATOM     81  S   UNL A   1      40.046  36.329  37.481  1.00  0.00     0.124 S 
ATOM     82  O   UNL A   1      41.371  35.989  37.987  1.00  0.00    -0.237 OA
ATOM     83  O   UNL A   1      39.998  36.902  36.141  1.00  0.00    -0.237 OA
ATOM     84  O   UNL A   1      39.146  36.946  38.452  1.00  0.00    -0.744 OA
ENDBRANCH  77  81
ENDBRANCH  50  74
BRANCH  62  85
ATOM     85  C   UNL A   1      44.211  28.098  34.521  1.00  0.00     0.023 A 
ATOM     86  C   UNL A   1      44.046  27.134  35.529  1.00  0.00     0.031 A 
ATOM     87  C   UNL A   1      45.491  28.643  34.321  1.00  0.00     0.131 A 
ATOM     88  C   UNL A   1      45.137  26.777  36.337  1.00  0.00     0.055 A 
ATOM     89  C   UNL A   1      46.582  28.252  35.098  1.00  0.00     0.041 A 
ATOM     90  F   UNL A   1      45.699  29.570  33.373  1.00  0.00    -0.206 F 
ATOM     91  C   UNL A   1      46.406  27.322  36.121  1.00  0.00     0.022 A 
BRANCH  88  92
ATOM     92  S   UNL A   1      44.861  25.645  37.727  1.00  0.00     0.124 S 
ATOM     93  O   UNL A   1      44.194  24.521  37.076  1.00  0.00    -0.237 OA
ATOM     94  O   UNL A   1      46.219  25.393  38.200  1.00  0.00    -0.237 OA
ATOM     95  O   UNL A   1      44.022  26.418  38.640  1.00  0.00    -0.744 OA
ENDBRANCH  88  92
ENDBRANCH  62  85
ENDBRANCH  36  37
ENDBRANCH  28  31
ENDBRANCH  26  27
ENDBRANCH  25  26
ENDBRANCH   1  25
TORSDOF 18
ENDMDL
MODEL 3
REMARK VINA RESULT:     -11.4      2.396      3.102
REMARK SMILES O=C(CCC(=O)N1CCN(S(=O)(=O)c2cccs2)CC1)NCCCCNC(=O)c1ccc(-c2c3nc(c(-c4cc(S(=O)(=O)[O-])ccc4F)c4ccc([nH]4)c(-c4cc(S(=O)(=O)[O-])ccc4F)c4nc(c(-c5cc(S(=O)(=O)[O-])ccc5F)c5ccc2[nH]5)C=C4)C=C3)cc1
REMARK SMILES IDX 23 1 22 2 21 3 1 4 2 5 3 7 4 8 5 9 6 10 7 11 8 12 20 13 9 14
REMARK SMILES IDX 19 15 10 16 11 17 12 18 13 19 14 20 15 21 18 22 16 23 17 24
REMARK SMILES IDX 24 25 25 26 26 27 27 28 28 30 29 31 30 32 91 33 31 34 90 35
REMARK SMILES IDX 32 36 33 37 34 38 84 39 35 40 89 41 83 42 85 43 36 44 88 45
REMARK SMILES IDX 82 46 81 47 37 49 69 50 49 51 68 52 50 53 53 54 67 55 86 56
REMARK SMILES IDX 51 57 52 58 66 60 87 61 54 62 38 63 39 64 47 65 40 66 46 67
REMARK SMILES IDX 48 68 45 69 41 70 42 71 43 72 44 73 70 74 71 75 79 76 72 77
REMARK SMILES IDX 78 78 80 79 77 80 73 81 74 82 75 83 76 84 55 85 56 86 64 87
REMARK SMILES IDX 57 88 63 89 65 90 62 91 58 92 59 93 60 94 61 95
REMARK H PARENT 21 6 26 29 85 48 53 59
REMARK Flexibility Score: inf
ROOT
ATOM      1  C   UNL A   1      31.009  31.516  25.885  1.00  0.00     0.023 C 
ENDROOT
BRANCH   1   2
ATOM      2  C   UNL A   1      30.557  30.621  24.736  1.00  0.00     0.116 C 
BRANCH   2   3
ATOM      3  N   UNL A   1      31.565  29.705  24.246  1.00  0.00    -0.356 N 
ATOM      4  O   UNL A   1      30.056  28.247  23.326  1.00  0.00    -0.275 OA
ATOM      5  C   UNL A   1      31.219  28.594  23.512  1.00  0.00     0.220 C 
ATOM      6  H   UNL A   1      32.515  29.879  24.442  1.00  0.00     0.163 HD
BRANCH   5   7
ATOM      7  C   UNL A   1      32.387  27.865  22.885  1.00  0.00     0.110 C 
BRANCH   7   8
ATOM      8  C   UNL A   1      32.930  26.799  23.832  1.00  0.00     0.110 C 
BRANCH   8   9
ATOM      9  C   UNL A   1      33.527  25.623  23.077  1.00  0.00     0.223 C 
ATOM     10  O   UNL A   1      33.931  25.802  21.925  1.00  0.00    -0.275 OA
ATOM     11  N   UNL A   1      33.618  24.386  23.699  1.00  0.00    -0.340 N 
ATOM     12  C   UNL A   1      34.257  23.284  22.955  1.00  0.00     0.136 C 
ATOM     13  C   UNL A   1      32.822  23.982  24.860  1.00  0.00     0.136 C 
ATOM     14  C   UNL A   1      34.882  22.196  23.859  1.00  0.00     0.124 C 
ATOM     15  C   UNL A   1      33.526  22.950  25.737  1.00  0.00     0.124 C 
ATOM     16  N   UNL A   1      33.951  21.764  24.969  1.00  0.00    -0.194 NA
BRANCH  16  17
ATOM     17  S   UNL A   1      32.821  20.596  24.451  1.00  0.00     0.252 S 
ATOM     18  O   UNL A   1      31.797  20.534  25.471  1.00  0.00    -0.206 OA
ATOM     19  O   UNL A   1      32.497  20.940  23.084  1.00  0.00    -0.206 OA
BRANCH  17  20
ATOM     20  C   UNL A   1      33.460  18.926  24.446  1.00  0.00     0.135 A 
ATOM     21  C   UNL A   1      34.737  18.391  24.371  1.00  0.00     0.033 A 
ATOM     22  S   UNL A   1      32.318  17.698  24.823  1.00  0.00    -0.131 S 
ATOM     23  C   UNL A   1      34.777  16.997  24.667  1.00  0.00     0.013 A 
ATOM     24  C   UNL A   1      33.529  16.501  24.958  1.00  0.00     0.066 A 
ENDBRANCH  17  20
ENDBRANCH  16  17
ENDBRANCH   8   9
ENDBRANCH   7   8
ENDBRANCH   5   7
ENDBRANCH   2   3
ENDBRANCH   1   2
BRANCH   1  25
ATOM     25  C   UNL A   1      32.043  30.922  26.845  1.00  0.00     0.023 C 
BRANCH  25  26
ATOM     26  C   UNL A   1      33.216  31.823  27.226  1.00  0.00     0.116 C 
BRANCH  26  27
ATOM     27  N   UNL A   1      32.811  33.181  27.540  1.00  0.00    -0.352 N 
ATOM     28  C   UNL A   1      33.324  34.074  28.456  1.00  0.00     0.251 C 
ATOM     29  H   UNL A   1      32.050  33.518  27.015  1.00  0.00     0.163 HD
ATOM     30  O   UNL A   1      32.740  35.143  28.619  1.00  0.00    -0.269 OA
BRANCH  28  31
ATOM     31  C   UNL A   1      34.509  33.748  29.295  1.00  0.00     0.039 A 
ATOM     32  C   UNL A   1      34.306  32.970  30.442  1.00  0.00     0.014 A 
ATOM     33  C   UNL A   1      35.802  34.186  28.991  1.00  0.00     0.014 A 
ATOM     34  C   UNL A   1      35.396  32.541  31.208  1.00  0.00     0.010 A 
ATOM     35  C   UNL A   1      36.897  33.720  29.726  1.00  0.00     0.010 A 
ATOM     36  C   UNL A   1      36.706  32.865  30.821  1.00  0.00    -0.014 A 
BRANCH  36  37
ATOM     37  C   UNL A   1      37.872  32.212  31.473  1.00  0.00     0.031 A 
ATOM     38  C   UNL A   1      38.617  31.087  30.814  1.00  0.00     0.074 A 
ATOM     39  C   UNL A   1      38.212  32.601  32.718  1.00  0.00     0.049 A 
ATOM     40  N   UNL A   1      39.633  30.395  31.266  1.00  0.00    -0.248 NA
ATOM     41  C   UNL A   1      38.149  30.674  29.485  1.00  0.00     0.031 C 
ATOM     42  C   UNL A   1      37.532  33.648  33.488  1.00  0.00     0.029 A 
ATOM     43  N   UNL A   1      39.198  32.158  33.563  1.00  0.00    -0.354 N 
ATOM     44  C   UNL A   1      39.930  29.463  30.280  1.00  0.00     0.074 A 
ATOM     45  C   UNL A   1      38.958  29.657  29.220  1.00  0.00     0.031 C 
ATOM     46  C   UNL A   1      38.125  33.767  34.686  1.00  0.00     0.029 A 
ATOM     47  C   UNL A   1      39.204  32.790  34.783  1.00  0.00     0.049 A 
ATOM     48  H   UNL A   1      39.840  31.452  33.318  1.00  0.00     0.167 HD
ATOM     49  C   UNL A   1      40.926  28.541  30.256  1.00  0.00     0.034 A 
ATOM     50  C   UNL A   1      39.982  32.603  35.867  1.00  0.00     0.034 A 
ATOM     51  C   UNL A   1      41.888  28.354  31.317  1.00  0.00     0.049 A 
ATOM     52  C   UNL A   1      41.070  31.569  35.821  1.00  0.00     0.074 A 
ATOM     53  C   UNL A   1      42.980  27.501  31.353  1.00  0.00     0.029 A 
ATOM     54  N   UNL A   1      41.866  29.014  32.538  1.00  0.00    -0.354 N 
ATOM     55  N   UNL A   1      41.380  30.741  34.851  1.00  0.00    -0.248 NA
ATOM     56  C   UNL A   1      41.920  31.451  37.013  1.00  0.00     0.031 C 
ATOM     57  C   UNL A   1      43.584  27.607  32.613  1.00  0.00     0.029 A 
ATOM     58  C   UNL A   1      42.903  28.565  33.345  1.00  0.00     0.049 A 
ATOM     59  H   UNL A   1      41.210  29.701  32.795  1.00  0.00     0.167 HD
ATOM     60  C   UNL A   1      42.477  30.019  35.308  1.00  0.00     0.074 A 
ATOM     61  C   UNL A   1      42.777  30.512  36.636  1.00  0.00     0.031 C 
ATOM     62  C   UNL A   1      43.178  29.043  34.679  1.00  0.00     0.034 A 
BRANCH  49  63
ATOM     63  C   UNL A   1      41.006  27.641  29.048  1.00  0.00     0.023 A 
ATOM     64  C   UNL A   1      41.989  27.821  28.059  1.00  0.00     0.031 A 
ATOM     65  C   UNL A   1      40.082  26.595  28.880  1.00  0.00     0.131 A 
ATOM     66  C   UNL A   1      41.992  27.003  26.919  1.00  0.00     0.055 A 
ATOM     67  C   UNL A   1      40.127  25.746  27.772  1.00  0.00     0.041 A 
ATOM     68  F   UNL A   1      39.113  26.387  29.785  1.00  0.00    -0.206 F 
ATOM     69  C   UNL A   1      41.078  25.955  26.777  1.00  0.00     0.022 A 
BRANCH  66  70
ATOM     70  S   UNL A   1      43.138  27.396  25.570  1.00  0.00     0.124 S 
ATOM     71  O   UNL A   1      44.166  28.165  26.268  1.00  0.00    -0.237 OA
ATOM     72  O   UNL A   1      43.537  26.075  25.100  1.00  0.00    -0.237 OA
ATOM     73  O   UNL A   1      42.318  28.169  24.637  1.00  0.00    -0.744 OA
ENDBRANCH  66  70
ENDBRANCH  49  63
BRANCH  50  74
ATOM     74  C   UNL A   1      39.751  33.408  37.095  1.00  0.00     0.023 A 
ATOM     75  C   UNL A   1      40.498  34.567  37.349  1.00  0.00     0.031 A 
ATOM     76  C   UNL A   1      38.786  33.014  38.038  1.00  0.00     0.131 A 
ATOM     77  C   UNL A   1      40.288  35.282  38.537  1.00  0.00     0.055 A 
ATOM     78  C   UNL A   1      38.559  33.748  39.203  1.00  0.00     0.041 A 
ATOM     79  F   UNL A   1      38.040  31.919  37.829  1.00  0.00    -0.206 F 
ATOM     80  C   UNL A   1      39.319  34.885  39.462  1.00  0.00     0.022 A 
BRANCH  77  81
ATOM     81  S   UNL A   1      41.338  36.720  38.882  1.00  0.00     0.124 S 
ATOM     82  O   UNL A   1      40.349  37.742  39.206  1.00  0.00    -0.237 OA
ATOM     83  O   UNL A   1      42.152  36.239  39.993  1.00  0.00    -0.237 OA
ATOM     84  O   UNL A   1      42.059  36.924  37.628  1.00  0.00    -0.744 OA
ENDBRANCH  77  81
ENDBRANCH  50  74
BRANCH  62  85
ATOM     85  C   UNL A   1      44.359  28.477  35.423  1.00  0.00     0.023 A 
ATOM     86  C   UNL A   1      44.206  27.459  36.380  1.00  0.00     0.031 A 
ATOM     87  C   UNL A   1      45.647  28.993  35.198  1.00  0.00     0.131 A 
ATOM     88  C   UNL A   1      45.318  27.023  37.116  1.00  0.00     0.055 A 
ATOM     89  C   UNL A   1      46.757  28.523  35.901  1.00  0.00     0.041 A 
ATOM     90  F   UNL A   1      45.844  29.969  34.297  1.00  0.00    -0.206 F 
ATOM     91  C   UNL A   1      46.594  27.541  36.875  1.00  0.00     0.022 A 
BRANCH  88  92
ATOM     92  S   UNL A   1      45.065  25.818  38.449  1.00  0.00     0.124 S 
ATOM     93  O   UNL A   1      46.436  25.463  38.802  1.00  0.00    -0.237 OA
ATOM     94  O   UNL A   1      44.333  26.598  39.441  1.00  0.00    -0.237 OA
ATOM     95  O   UNL A   1      44.295  24.754  37.808  1.00  0.00    -0.744 OA
ENDBRANCH  88  92
ENDBRANCH  62  85
ENDBRANCH  36  37
ENDBRANCH  28  31
ENDBRANCH  26  27
ENDBRANCH  25  26
ENDBRANCH   1  25
TORSDOF 18
ENDMDL
