MODEL 1
REMARK VINA RESULT:     -11.6      0.000      0.000
REMARK SMILES CC[C@H](Oc1ccccc1/C=C1\SC(N)=[NH+]C1=O)C(=O)NCCCCNC(=O)c1ccc(-c2c3nc(c(-c4cc(S(=O)(=O)[O-])ccc4F)c4ccc([nH]4)c(-c4cc(S(=O)(=O)[O-])ccc4F)c4nc(c(-c5cc(S(=O)(=O)[O-])ccc5F)c5ccc2[nH]5)C=C4)C=C3)cc1
REMARK SMILES IDX 23 1 22 2 21 3 19 4 20 5 3 7 2 8 1 9 4 10 5 11 6 12 10 13
REMARK SMILES IDX 7 14 9 15 8 16 11 17 12 18 13 19 17 20 14 21 16 22 18 23
REMARK SMILES IDX 15 24 24 28 25 29 26 30 27 31 28 33 29 34 30 35 91 36 31 37
REMARK SMILES IDX 90 38 32 39 33 40 34 41 84 42 35 43 89 44 83 45 85 46 36 47
REMARK SMILES IDX 88 48 82 49 81 50 37 52 69 53 49 54 68 55 50 56 53 57 67 58
REMARK SMILES IDX 86 59 51 60 52 61 66 63 87 64 54 65 38 66 39 67 47 68 40 69
REMARK SMILES IDX 46 70 48 71 45 72 41 73 42 74 43 75 44 76 70 77 71 78 79 79
REMARK SMILES IDX 72 80 78 81 80 82 77 83 73 84 74 85 75 86 76 87 55 88 56 89
REMARK SMILES IDX 64 90 57 91 63 92 65 93 62 94 58 95 59 96 60 97 61 98
REMARK H PARENT 21 6 16 25 15 26 15 27 26 32 85 51 53 62
REMARK Flexibility Score: inf
ROOT
ATOM      1  C   UNL A   1      39.430  23.055  26.409  1.00  0.00     0.023 C 
ENDROOT
BRANCH   1   2
ATOM      2  C   UNL A   1      38.014  23.498  26.044  1.00  0.00     0.116 C 
BRANCH   2   3
ATOM      3  N   UNL A   1      37.709  23.388  24.637  1.00  0.00    -0.353 N 
ATOM      4  C   UNL A   1      36.566  23.020  23.999  1.00  0.00     0.261 C 
ATOM      5  O   UNL A   1      36.609  23.025  22.761  1.00  0.00    -0.271 OA
ATOM      6  H   UNL A   1      38.455  23.619  24.036  1.00  0.00     0.163 HD
BRANCH   4   7
ATOM      7  C   UNL A   1      35.239  22.675  24.729  1.00  0.00     0.261 C 
BRANCH   7   8
ATOM      8  C   UNL A   1      34.579  21.399  24.138  1.00  0.00     0.052 C 
ATOM      9  C   UNL A   1      34.210  20.228  25.045  1.00  0.00     0.008 C 
ENDBRANCH   7   8
BRANCH   7  10
ATOM     10  O   UNL A   1      34.482  23.708  25.383  1.00  0.00    -0.480 OA
BRANCH  10  11
ATOM     11  C   UNL A   1      33.147  23.599  25.612  1.00  0.00     0.127 A 
ATOM     12  C   UNL A   1      32.671  23.265  26.885  1.00  0.00     0.047 A 
ATOM     13  C   UNL A   1      32.217  23.963  24.623  1.00  0.00     0.018 A 
ATOM     14  C   UNL A   1      31.313  23.061  27.131  1.00  0.00     0.004 A 
ATOM     15  C   UNL A   1      30.844  23.738  24.882  1.00  0.00     0.012 A 
ATOM     16  C   UNL A   1      30.397  23.257  26.112  1.00  0.00     0.001 A 
BRANCH  13  17
ATOM     17  C   UNL A   1      32.455  24.725  23.376  1.00  0.00     0.036 C 
ATOM     18  C   UNL A   1      32.535  26.029  23.081  1.00  0.00     0.110 C 
ATOM     19  S   UNL A   1      32.309  27.405  24.055  1.00  0.00     0.006 SA
ATOM     20  C   UNL A   1      33.103  26.474  21.762  1.00  0.00     0.346 C 
ATOM     21  C   UNL A   1      33.268  28.336  22.947  1.00  0.00     0.314 C 
ATOM     22  N   UNL A   1      33.575  27.771  21.833  1.00  0.00    -0.200 N 
ATOM     23  O   UNL A   1      33.195  25.746  20.787  1.00  0.00    -0.240 OA
ATOM     24  N   UNL A   1      33.651  29.564  23.351  1.00  0.00    -0.281 N 
ATOM     25  H   UNL A   1      34.085  28.210  21.115  1.00  0.00     0.316 HD
ATOM     26  H   UNL A   1      33.361  29.907  24.226  1.00  0.00     0.302 HD
ATOM     27  H   UNL A   1      34.222  30.117  22.769  1.00  0.00     0.302 HD
ENDBRANCH  13  17
ENDBRANCH  10  11
ENDBRANCH   7  10
ENDBRANCH   4   7
ENDBRANCH   2   3
ENDBRANCH   1   2
BRANCH   1  28
ATOM     28  C   UNL A   1      39.557  21.604  26.867  1.00  0.00     0.023 C 
BRANCH  28  29
ATOM     29  C   UNL A   1      39.472  20.587  25.736  1.00  0.00     0.116 C 
BRANCH  29  30
ATOM     30  N   UNL A   1      40.406  19.486  25.925  1.00  0.00    -0.352 N 
ATOM     31  C   UNL A   1      41.768  19.513  26.100  1.00  0.00     0.251 C 
ATOM     32  H   UNL A   1      40.002  18.589  25.930  1.00  0.00     0.163 HD
ATOM     33  O   UNL A   1      42.414  18.475  25.999  1.00  0.00    -0.269 OA
BRANCH  31  34
ATOM     34  C   UNL A   1      42.443  20.795  26.387  1.00  0.00     0.039 A 
ATOM     35  C   UNL A   1      42.808  21.627  25.325  1.00  0.00     0.014 A 
ATOM     36  C   UNL A   1      42.706  21.178  27.704  1.00  0.00     0.014 A 
ATOM     37  C   UNL A   1      43.365  22.880  25.592  1.00  0.00     0.010 A 
ATOM     38  C   UNL A   1      43.182  22.457  27.970  1.00  0.00     0.010 A 
ATOM     39  C   UNL A   1      43.514  23.323  26.916  1.00  0.00    -0.014 A 
BRANCH  39  40
ATOM     40  C   UNL A   1      44.006  24.690  27.226  1.00  0.00     0.031 A 
ATOM     41  C   UNL A   1      43.053  25.728  27.758  1.00  0.00     0.074 A 
ATOM     42  C   UNL A   1      45.285  25.015  26.954  1.00  0.00     0.049 A 
ATOM     43  N   UNL A   1      43.261  26.998  27.991  1.00  0.00    -0.248 NA
ATOM     44  C   UNL A   1      41.677  25.285  28.029  1.00  0.00     0.031 C 
ATOM     45  C   UNL A   1      46.288  24.105  26.391  1.00  0.00     0.029 A 
ATOM     46  N   UNL A   1      45.962  26.200  27.096  1.00  0.00    -0.354 N 
ATOM     47  C   UNL A   1      42.040  27.509  28.418  1.00  0.00     0.074 A 
ATOM     48  C   UNL A   1      41.086  26.424  28.357  1.00  0.00     0.031 C 
ATOM     49  C   UNL A   1      47.452  24.759  26.260  1.00  0.00     0.029 A 
ATOM     50  C   UNL A   1      47.272  26.144  26.678  1.00  0.00     0.049 A 
ATOM     51  H   UNL A   1      45.549  27.014  27.463  1.00  0.00     0.167 HD
ATOM     52  C   UNL A   1      41.749  28.764  28.843  1.00  0.00     0.034 A 
ATOM     53  C   UNL A   1      48.216  27.105  26.623  1.00  0.00     0.034 A 
ATOM     54  C   UNL A   1      42.720  29.827  28.920  1.00  0.00     0.049 A 
ATOM     55  C   UNL A   1      47.864  28.494  27.095  1.00  0.00     0.074 A 
ATOM     56  C   UNL A   1      42.550  31.115  29.401  1.00  0.00     0.029 A 
ATOM     57  N   UNL A   1      44.042  29.730  28.505  1.00  0.00    -0.354 N 
ATOM     58  N   UNL A   1      46.718  28.945  27.553  1.00  0.00    -0.248 NA
ATOM     59  C   UNL A   1      48.934  29.498  27.056  1.00  0.00     0.031 C 
ATOM     60  C   UNL A   1      43.749  31.814  29.215  1.00  0.00     0.029 A 
ATOM     61  C   UNL A   1      44.689  30.943  28.688  1.00  0.00     0.049 A 
ATOM     62  H   UNL A   1      44.458  28.918  28.133  1.00  0.00     0.167 HD
ATOM     63  C   UNL A   1      46.941  30.278  27.883  1.00  0.00     0.074 A 
ATOM     64  C   UNL A   1      48.334  30.551  27.590  1.00  0.00     0.031 C 
ATOM     65  C   UNL A   1      46.076  31.197  28.383  1.00  0.00     0.034 A 
BRANCH  52  66
ATOM     66  C   UNL A   1      40.321  29.056  29.235  1.00  0.00     0.023 A 
ATOM     67  C   UNL A   1      39.900  29.024  30.576  1.00  0.00     0.031 A 
ATOM     68  C   UNL A   1      39.363  29.365  28.252  1.00  0.00     0.131 A 
ATOM     69  C   UNL A   1      38.549  29.232  30.892  1.00  0.00     0.055 A 
ATOM     70  C   UNL A   1      38.036  29.647  28.581  1.00  0.00     0.041 A 
ATOM     71  F   UNL A   1      39.701  29.391  26.954  1.00  0.00    -0.206 F 
ATOM     72  C   UNL A   1      37.619  29.569  29.906  1.00  0.00     0.022 A 
BRANCH  69  73
ATOM     73  S   UNL A   1      38.002  28.935  32.595  1.00  0.00     0.124 S 
ATOM     74  O   UNL A   1      38.171  27.488  32.710  1.00  0.00    -0.237 OA
ATOM     75  O   UNL A   1      38.929  29.749  33.372  1.00  0.00    -0.237 OA
ATOM     76  O   UNL A   1      36.615  29.395  32.595  1.00  0.00    -0.744 OA
ENDBRANCH  69  73
ENDBRANCH  52  66
BRANCH  53  77
ATOM     77  C   UNL A   1      49.578  26.806  26.092  1.00  0.00     0.023 A 
ATOM     78  C   UNL A   1      49.961  27.229  24.809  1.00  0.00     0.031 A 
ATOM     79  C   UNL A   1      50.497  26.045  26.835  1.00  0.00     0.131 A 
ATOM     80  C   UNL A   1      51.203  26.840  24.285  1.00  0.00     0.055 A 
ATOM     81  C   UNL A   1      51.755  25.709  26.332  1.00  0.00     0.041 A 
ATOM     82  F   UNL A   1      50.186  25.621  28.072  1.00  0.00    -0.206 F 
ATOM     83  C   UNL A   1      52.108  26.093  25.043  1.00  0.00     0.022 A 
BRANCH  80  84
ATOM     84  S   UNL A   1      51.576  27.238  22.555  1.00  0.00     0.124 S 
ATOM     85  O   UNL A   1      51.823  28.673  22.627  1.00  0.00    -0.237 OA
ATOM     86  O   UNL A   1      52.739  26.397  22.297  1.00  0.00    -0.237 OA
ATOM     87  O   UNL A   1      50.358  26.848  21.847  1.00  0.00    -0.744 OA
ENDBRANCH  80  84
ENDBRANCH  53  77
BRANCH  65  88
ATOM     88  C   UNL A   1      46.634  32.566  28.684  1.00  0.00     0.023 A 
ATOM     89  C   UNL A   1      46.595  33.603  27.735  1.00  0.00     0.031 A 
ATOM     90  C   UNL A   1      47.224  32.831  29.932  1.00  0.00     0.131 A 
ATOM     91  C   UNL A   1      47.189  34.839  28.029  1.00  0.00     0.055 A 
ATOM     92  C   UNL A   1      47.760  34.081  30.240  1.00  0.00     0.041 A 
ATOM     93  F   UNL A   1      47.288  31.875  30.874  1.00  0.00    -0.206 F 
ATOM     94  C   UNL A   1      47.757  35.090  29.281  1.00  0.00     0.022 A 
BRANCH  91  95
ATOM     95  S   UNL A   1      47.294  36.087  26.717  1.00  0.00     0.124 S 
ATOM     96  O   UNL A   1      46.166  35.727  25.865  1.00  0.00    -0.237 OA
ATOM     97  O   UNL A   1      47.156  37.334  27.462  1.00  0.00    -0.237 OA
ATOM     98  O   UNL A   1      48.613  35.859  26.131  1.00  0.00    -0.744 OA
ENDBRANCH  91  95
ENDBRANCH  65  88
ENDBRANCH  39  40
ENDBRANCH  31  34
ENDBRANCH  29  30
ENDBRANCH  28  29
ENDBRANCH   1  28
TORSDOF 18
ENDMDL
MODEL 2
REMARK VINA RESULT:     -11.6      5.907     11.738
REMARK SMILES CC[C@H](Oc1ccccc1/C=C1\SC(N)=[NH+]C1=O)C(=O)NCCCCNC(=O)c1ccc(-c2c3nc(c(-c4cc(S(=O)(=O)[O-])ccc4F)c4ccc([nH]4)c(-c4cc(S(=O)(=O)[O-])ccc4F)c4nc(c(-c5cc(S(=O)(=O)[O-])ccc5F)c5ccc2[nH]5)C=C4)C=C3)cc1
REMARK SMILES IDX 23 1 22 2 21 3 19 4 20 5 3 7 2 8 1 9 4 10 5 11 6 12 10 13
REMARK SMILES IDX 7 14 9 15 8 16 11 17 12 18 13 19 17 20 14 21 16 22 18 23
REMARK SMILES IDX 15 24 24 28 25 29 26 30 27 31 28 33 29 34 30 35 91 36 31 37
REMARK SMILES IDX 90 38 32 39 33 40 34 41 84 42 35 43 89 44 83 45 85 46 36 47
REMARK SMILES IDX 88 48 82 49 81 50 37 52 69 53 49 54 68 55 50 56 53 57 67 58
REMARK SMILES IDX 86 59 51 60 52 61 66 63 87 64 54 65 38 66 39 67 47 68 40 69
REMARK SMILES IDX 46 70 48 71 45 72 41 73 42 74 43 75 44 76 70 77 71 78 79 79
REMARK SMILES IDX 72 80 78 81 80 82 77 83 73 84 74 85 75 86 76 87 55 88 56 89
REMARK SMILES IDX 64 90 57 91 63 92 65 93 62 94 58 95 59 96 60 97 61 98
REMARK H PARENT 21 6 16 25 15 26 15 27 26 32 85 51 53 62
REMARK Flexibility Score: inf
ROOT
ATOM      1  C   UNL A   1      34.958  30.742  28.199  1.00  0.00     0.023 C 
ENDROOT
BRANCH   1   2
ATOM      2  C   UNL A   1      34.852  29.369  27.538  1.00  0.00     0.116 C 
BRANCH   2   3
ATOM      3  N   UNL A   1      34.757  29.417  26.097  1.00  0.00    -0.353 N 
ATOM      4  C   UNL A   1      34.130  28.592  25.218  1.00  0.00     0.261 C 
ATOM      5  O   UNL A   1      34.225  28.900  24.021  1.00  0.00    -0.271 OA
ATOM      6  H   UNL A   1      35.226  30.177  25.681  1.00  0.00     0.163 HD
BRANCH   4   7
ATOM      7  C   UNL A   1      33.272  27.366  25.638  1.00  0.00     0.261 C 
BRANCH   7   8
ATOM      8  C   UNL A   1      33.809  26.053  25.008  1.00  0.00     0.052 C 
ATOM      9  C   UNL A   1      34.108  24.840  25.885  1.00  0.00     0.008 C 
ENDBRANCH   7   8
BRANCH   7  10
ATOM     10  O   UNL A   1      31.895  27.542  26.014  1.00  0.00    -0.480 OA
BRANCH  10  11
ATOM     11  C   UNL A   1      30.882  27.492  25.110  1.00  0.00     0.127 A 
ATOM     12  C   UNL A   1      30.814  28.426  24.069  1.00  0.00     0.047 A 
ATOM     13  C   UNL A   1      29.972  26.421  25.108  1.00  0.00     0.018 A 
ATOM     14  C   UNL A   1      29.743  28.454  23.177  1.00  0.00     0.004 A 
ATOM     15  C   UNL A   1      28.883  26.471  24.207  1.00  0.00     0.012 A 
ATOM     16  C   UNL A   1      28.748  27.496  23.273  1.00  0.00     0.001 A 
BRANCH  13  17
ATOM     17  C   UNL A   1      30.078  25.126  25.820  1.00  0.00     0.036 C 
ATOM     18  C   UNL A   1      30.543  23.916  25.487  1.00  0.00     0.110 C 
ATOM     19  S   UNL A   1      31.159  23.328  24.014  1.00  0.00     0.006 SA
ATOM     20  C   UNL A   1      30.798  22.883  26.549  1.00  0.00     0.346 C 
ATOM     21  C   UNL A   1      32.003  22.078  24.876  1.00  0.00     0.314 C 
ATOM     22  N   UNL A   1      31.716  21.942  26.122  1.00  0.00    -0.200 N 
ATOM     23  O   UNL A   1      30.305  22.927  27.664  1.00  0.00    -0.240 OA
ATOM     24  N   UNL A   1      32.921  21.371  24.187  1.00  0.00    -0.281 N 
ATOM     25  H   UNL A   1      32.104  21.249  26.704  1.00  0.00     0.316 HD
ATOM     26  H   UNL A   1      33.065  21.553  23.231  1.00  0.00     0.302 HD
ATOM     27  H   UNL A   1      33.446  20.673  24.641  1.00  0.00     0.302 HD
ENDBRANCH  13  17
ENDBRANCH  10  11
ENDBRANCH   7  10
ENDBRANCH   4   7
ENDBRANCH   2   3
ENDBRANCH   1   2
BRANCH   1  28
ATOM     28  C   UNL A   1      34.405  31.903  27.376  1.00  0.00     0.023 C 
BRANCH  28  29
ATOM     29  C   UNL A   1      32.986  32.310  27.751  1.00  0.00     0.116 C 
BRANCH  29  30
ATOM     30  N   UNL A   1      32.844  33.756  27.850  1.00  0.00    -0.352 N 
ATOM     31  C   UNL A   1      33.445  34.638  28.714  1.00  0.00     0.251 C 
ATOM     32  H   UNL A   1      32.226  34.162  27.200  1.00  0.00     0.163 HD
ATOM     33  O   UNL A   1      33.018  35.785  28.805  1.00  0.00    -0.269 OA
BRANCH  31  34
ATOM     34  C   UNL A   1      34.586  34.191  29.539  1.00  0.00     0.039 A 
ATOM     35  C   UNL A   1      34.340  33.473  30.712  1.00  0.00     0.014 A 
ATOM     36  C   UNL A   1      35.896  34.474  29.147  1.00  0.00     0.014 A 
ATOM     37  C   UNL A   1      35.414  32.971  31.449  1.00  0.00     0.010 A 
ATOM     38  C   UNL A   1      36.961  33.902  29.835  1.00  0.00     0.010 A 
ATOM     39  C   UNL A   1      36.731  33.142  30.993  1.00  0.00    -0.014 A 
BRANCH  39  40
ATOM     40  C   UNL A   1      37.885  32.529  31.700  1.00  0.00     0.031 A 
ATOM     41  C   UNL A   1      38.639  31.393  31.063  1.00  0.00     0.074 A 
ATOM     42  C   UNL A   1      38.197  32.942  32.945  1.00  0.00     0.049 A 
ATOM     43  N   UNL A   1      39.602  30.660  31.558  1.00  0.00    -0.248 NA
ATOM     44  C   UNL A   1      38.232  31.010  29.702  1.00  0.00     0.031 C 
ATOM     45  C   UNL A   1      37.505  34.003  33.683  1.00  0.00     0.029 A 
ATOM     46  N   UNL A   1      39.165  32.513  33.818  1.00  0.00    -0.354 N 
ATOM     47  C   UNL A   1      39.904  29.719  30.579  1.00  0.00     0.074 A 
ATOM     48  C   UNL A   1      38.982  29.941  29.486  1.00  0.00     0.031 C 
ATOM     49  C   UNL A   1      38.084  34.155  34.884  1.00  0.00     0.029 A 
ATOM     50  C   UNL A   1      39.155  33.174  35.025  1.00  0.00     0.049 A 
ATOM     51  H   UNL A   1      39.807  31.800  33.601  1.00  0.00     0.167 HD
ATOM     52  C   UNL A   1      40.874  28.772  30.585  1.00  0.00     0.034 A 
ATOM     53  C   UNL A   1      39.912  32.999  36.126  1.00  0.00     0.034 A 
ATOM     54  C   UNL A   1      41.800  28.582  31.674  1.00  0.00     0.049 A 
ATOM     55  C   UNL A   1      40.980  31.934  36.109  1.00  0.00     0.074 A 
ATOM     56  C   UNL A   1      42.865  27.701  31.756  1.00  0.00     0.029 A 
ATOM     57  N   UNL A   1      41.772  29.281  32.875  1.00  0.00    -0.354 N 
ATOM     58  N   UNL A   1      41.290  31.091  35.150  1.00  0.00    -0.248 NA
ATOM     59  C   UNL A   1      41.807  31.805  37.315  1.00  0.00     0.031 C 
ATOM     60  C   UNL A   1      43.438  27.821  33.027  1.00  0.00     0.029 A 
ATOM     61  C   UNL A   1      42.779  28.829  33.713  1.00  0.00     0.049 A 
ATOM     62  H   UNL A   1      41.128  29.993  33.097  1.00  0.00     0.167 HD
ATOM     63  C   UNL A   1      42.369  30.354  35.629  1.00  0.00     0.074 A 
ATOM     64  C   UNL A   1      42.666  30.864  36.952  1.00  0.00     0.031 C 
ATOM     65  C   UNL A   1      43.055  29.346  35.032  1.00  0.00     0.034 A 
BRANCH  52  66
ATOM     66  C   UNL A   1      40.969  27.860  29.386  1.00  0.00     0.023 A 
ATOM     67  C   UNL A   1      41.954  28.035  28.399  1.00  0.00     0.031 A 
ATOM     68  C   UNL A   1      40.055  26.802  29.224  1.00  0.00     0.131 A 
ATOM     69  C   UNL A   1      41.963  27.209  27.264  1.00  0.00     0.055 A 
ATOM     70  C   UNL A   1      40.119  25.936  28.132  1.00  0.00     0.041 A 
ATOM     71  F   UNL A   1      39.080  26.598  30.123  1.00  0.00    -0.206 F 
ATOM     72  C   UNL A   1      41.069  26.144  27.137  1.00  0.00     0.022 A 
BRANCH  69  73
ATOM     73  S   UNL A   1      43.085  27.623  25.901  1.00  0.00     0.124 S 
ATOM     74  O   UNL A   1      42.311  27.186  24.741  1.00  0.00    -0.237 OA
ATOM     75  O   UNL A   1      43.249  29.064  26.052  1.00  0.00    -0.237 OA
ATOM     76  O   UNL A   1      44.276  26.826  26.183  1.00  0.00    -0.744 OA
ENDBRANCH  69  73
ENDBRANCH  52  66
BRANCH  53  77
ATOM     77  C   UNL A   1      39.689  33.829  37.345  1.00  0.00     0.023 A 
ATOM     78  C   UNL A   1      38.967  33.326  38.440  1.00  0.00     0.031 A 
ATOM     79  C   UNL A   1      40.143  35.158  37.413  1.00  0.00     0.131 A 
ATOM     80  C   UNL A   1      38.671  34.161  39.528  1.00  0.00     0.055 A 
ATOM     81  C   UNL A   1      39.895  35.968  38.523  1.00  0.00     0.041 A 
ATOM     82  F   UNL A   1      40.845  35.689  36.397  1.00  0.00    -0.206 F 
ATOM     83  C   UNL A   1      39.141  35.475  39.582  1.00  0.00     0.022 A 
BRANCH  80  84
ATOM     84  S   UNL A   1      37.571  33.534  40.826  1.00  0.00     0.124 S 
ATOM     85  O   UNL A   1      36.488  32.951  40.042  1.00  0.00    -0.237 OA
ATOM     86  O   UNL A   1      38.437  32.593  41.526  1.00  0.00    -0.237 OA
ATOM     87  O   UNL A   1      37.218  34.735  41.582  1.00  0.00    -0.744 OA
ENDBRANCH  80  84
ENDBRANCH  53  77
BRANCH  65  88
ATOM     88  C   UNL A   1      44.219  28.766  35.796  1.00  0.00     0.023 A 
ATOM     89  C   UNL A   1      44.057  27.686  36.681  1.00  0.00     0.031 A 
ATOM     90  C   UNL A   1      45.505  29.313  35.647  1.00  0.00     0.131 A 
ATOM     91  C   UNL A   1      45.151  27.225  37.426  1.00  0.00     0.055 A 
ATOM     92  C   UNL A   1      46.602  28.811  36.346  1.00  0.00     0.041 A 
ATOM     93  F   UNL A   1      45.716  30.347  34.815  1.00  0.00    -0.206 F 
ATOM     94  C   UNL A   1      46.427  27.770  37.253  1.00  0.00     0.022 A 
BRANCH  91  95
ATOM     95  S   UNL A   1      44.868  25.963  38.698  1.00  0.00     0.124 S 
ATOM     96  O   UNL A   1      44.180  24.921  37.943  1.00  0.00    -0.237 OA
ATOM     97  O   UNL A   1      46.225  25.646  39.130  1.00  0.00    -0.237 OA
ATOM     98  O   UNL A   1      44.048  26.654  39.691  1.00  0.00    -0.744 OA
ENDBRANCH  91  95
ENDBRANCH  65  88
ENDBRANCH  39  40
ENDBRANCH  31  34
ENDBRANCH  29  30
ENDBRANCH  28  29
ENDBRANCH   1  28
TORSDOF 18
ENDMDL
MODEL 3
REMARK VINA RESULT:     -11.4      5.826     10.073
REMARK SMILES CC[C@H](Oc1ccccc1/C=C1\SC(N)=[NH+]C1=O)C(=O)NCCCCNC(=O)c1ccc(-c2c3nc(c(-c4cc(S(=O)(=O)[O-])ccc4F)c4ccc([nH]4)c(-c4cc(S(=O)(=O)[O-])ccc4F)c4nc(c(-c5cc(S(=O)(=O)[O-])ccc5F)c5ccc2[nH]5)C=C4)C=C3)cc1
REMARK SMILES IDX 23 1 22 2 21 3 19 4 20 5 3 7 2 8 1 9 4 10 5 11 6 12 10 13
REMARK SMILES IDX 7 14 9 15 8 16 11 17 12 18 13 19 17 20 14 21 16 22 18 23
REMARK SMILES IDX 15 24 24 28 25 29 26 30 27 31 28 33 29 34 30 35 91 36 31 37
REMARK SMILES IDX 90 38 32 39 33 40 34 41 84 42 35 43 89 44 83 45 85 46 36 47
REMARK SMILES IDX 88 48 82 49 81 50 37 52 69 53 49 54 68 55 50 56 53 57 67 58
REMARK SMILES IDX 86 59 51 60 52 61 66 63 87 64 54 65 38 66 39 67 47 68 40 69
REMARK SMILES IDX 46 70 48 71 45 72 41 73 42 74 43 75 44 76 70 77 71 78 79 79
REMARK SMILES IDX 72 80 78 81 80 82 77 83 73 84 74 85 75 86 76 87 55 88 56 89
REMARK SMILES IDX 64 90 57 91 63 92 65 93 62 94 58 95 59 96 60 97 61 98
REMARK H PARENT 21 6 16 25 15 26 15 27 26 32 85 51 53 62
REMARK Flexibility Score: inf
ROOT
ATOM      1  C   UNL A   1      34.782  31.306  28.055  1.00  0.00     0.023 C 
ENDROOT
BRANCH   1   2
ATOM      2  C   UNL A   1      34.594  29.962  27.354  1.00  0.00     0.116 C 
BRANCH   2   3
ATOM      3  N   UNL A   1      33.491  29.183  27.864  1.00  0.00    -0.353 N 
ATOM      4  C   UNL A   1      32.553  28.438  27.221  1.00  0.00     0.261 C 
ATOM      5  O   UNL A   1      31.721  27.871  27.942  1.00  0.00    -0.271 OA
ATOM      6  H   UNL A   1      33.403  29.191  28.846  1.00  0.00     0.163 HD
BRANCH   4   7
ATOM      7  C   UNL A   1      32.524  28.221  25.683  1.00  0.00     0.261 C 
BRANCH   7   8
ATOM      8  C   UNL A   1      31.077  28.286  25.125  1.00  0.00     0.052 C 
ATOM      9  C   UNL A   1      30.677  29.379  24.138  1.00  0.00     0.008 C 
ENDBRANCH   7   8
BRANCH   7  10
ATOM     10  O   UNL A   1      33.572  27.476  25.038  1.00  0.00    -0.480 OA
BRANCH  10  11
ATOM     11  C   UNL A   1      33.410  26.900  23.817  1.00  0.00     0.127 A 
ATOM     12  C   UNL A   1      33.632  27.638  22.649  1.00  0.00     0.047 A 
ATOM     13  C   UNL A   1      33.164  25.521  23.701  1.00  0.00     0.018 A 
ATOM     14  C   UNL A   1      33.392  27.102  21.384  1.00  0.00     0.004 A 
ATOM     15  C   UNL A   1      32.908  24.994  22.413  1.00  0.00     0.012 A 
ATOM     16  C   UNL A   1      32.986  25.784  21.267  1.00  0.00     0.001 A 
BRANCH  13  17
ATOM     17  C   UNL A   1      33.300  24.474  24.740  1.00  0.00     0.036 C 
ATOM     18  C   UNL A   1      32.485  23.986  25.683  1.00  0.00     0.110 C 
ATOM     19  S   UNL A   1      30.913  24.448  26.142  1.00  0.00     0.006 SA
ATOM     20  C   UNL A   1      32.820  22.697  26.381  1.00  0.00     0.346 C 
ATOM     21  C   UNL A   1      30.656  22.869  26.819  1.00  0.00     0.314 C 
ATOM     22  N   UNL A   1      31.687  22.104  26.907  1.00  0.00    -0.200 N 
ATOM     23  O   UNL A   1      33.940  22.216  26.408  1.00  0.00    -0.240 OA
ATOM     24  N   UNL A   1      29.394  22.550  27.165  1.00  0.00    -0.281 N 
ATOM     25  H   UNL A   1      31.671  21.203  27.302  1.00  0.00     0.316 HD
ATOM     26  H   UNL A   1      28.672  23.210  27.058  1.00  0.00     0.302 HD
ATOM     27  H   UNL A   1      29.194  21.655  27.524  1.00  0.00     0.302 HD
ENDBRANCH  13  17
ENDBRANCH  10  11
ENDBRANCH   7  10
ENDBRANCH   4   7
ENDBRANCH   2   3
ENDBRANCH   1   2
BRANCH   1  28
ATOM     28  C   UNL A   1      33.594  32.260  27.957  1.00  0.00     0.023 C 
BRANCH  28  29
ATOM     29  C   UNL A   1      33.985  33.720  27.766  1.00  0.00     0.116 C 
BRANCH  29  30
ATOM     30  N   UNL A   1      33.338  34.587  28.741  1.00  0.00    -0.352 N 
ATOM     31  C   UNL A   1      33.524  34.669  30.099  1.00  0.00     0.251 C 
ATOM     32  H   UNL A   1      32.668  35.207  28.372  1.00  0.00     0.163 HD
ATOM     33  O   UNL A   1      32.717  35.287  30.786  1.00  0.00    -0.269 OA
BRANCH  31  34
ATOM     34  C   UNL A   1      34.683  33.997  30.721  1.00  0.00     0.039 A 
ATOM     35  C   UNL A   1      34.465  32.917  31.580  1.00  0.00     0.014 A 
ATOM     36  C   UNL A   1      35.983  34.427  30.445  1.00  0.00     0.014 A 
ATOM     37  C   UNL A   1      35.559  32.220  32.100  1.00  0.00     0.010 A 
ATOM     38  C   UNL A   1      37.067  33.682  30.896  1.00  0.00     0.010 A 
ATOM     39  C   UNL A   1      36.867  32.568  31.726  1.00  0.00    -0.014 A 
BRANCH  39  40
ATOM     40  C   UNL A   1      38.040  31.779  32.180  1.00  0.00     0.031 A 
ATOM     41  C   UNL A   1      38.722  32.126  33.477  1.00  0.00     0.074 A 
ATOM     42  C   UNL A   1      38.536  30.808  31.387  1.00  0.00     0.049 A 
ATOM     43  N   UNL A   1      39.815  31.629  33.994  1.00  0.00    -0.248 NA
ATOM     44  C   UNL A   1      38.111  33.197  34.279  1.00  0.00     0.031 C 
ATOM     45  C   UNL A   1      37.987  30.416  30.086  1.00  0.00     0.029 A 
ATOM     46  N   UNL A   1      39.620  29.983  31.547  1.00  0.00    -0.354 N 
ATOM     47  C   UNL A   1      40.034  32.337  35.171  1.00  0.00     0.074 A 
ATOM     48  C   UNL A   1      38.990  33.335  35.260  1.00  0.00     0.031 C 
ATOM     49  C   UNL A   1      38.723  29.414  29.580  1.00  0.00     0.029 A 
ATOM     50  C   UNL A   1      39.824  29.123  30.492  1.00  0.00     0.049 A 
ATOM     51  H   UNL A   1      40.198  30.003  32.343  1.00  0.00     0.167 HD
ATOM     52  C   UNL A   1      41.004  32.156  36.101  1.00  0.00     0.034 A 
ATOM     53  C   UNL A   1      40.796  28.216  30.276  1.00  0.00     0.034 A 
ATOM     54  C   UNL A   1      42.022  31.139  36.007  1.00  0.00     0.049 A 
ATOM     55  C   UNL A   1      41.867  28.039  31.324  1.00  0.00     0.074 A 
ATOM     56  C   UNL A   1      43.010  30.822  36.924  1.00  0.00     0.029 A 
ATOM     57  N   UNL A   1      42.188  30.275  34.932  1.00  0.00    -0.354 N 
ATOM     58  N   UNL A   1      42.024  28.678  32.461  1.00  0.00    -0.248 NA
ATOM     59  C   UNL A   1      42.883  27.011  31.066  1.00  0.00     0.031 C 
ATOM     60  C   UNL A   1      43.810  29.814  36.376  1.00  0.00     0.029 A 
ATOM     61  C   UNL A   1      43.279  29.448  35.149  1.00  0.00     0.049 A 
ATOM     62  H   UNL A   1      41.614  30.254  34.132  1.00  0.00     0.167 HD
ATOM     63  C   UNL A   1      43.139  28.107  33.065  1.00  0.00     0.074 A 
ATOM     64  C   UNL A   1      43.603  27.060  32.176  1.00  0.00     0.031 C 
ATOM     65  C   UNL A   1      43.730  28.415  34.248  1.00  0.00     0.034 A 
BRANCH  52  66
ATOM     66  C   UNL A   1      41.019  33.090  37.287  1.00  0.00     0.023 A 
ATOM     67  C   UNL A   1      40.361  32.772  38.488  1.00  0.00     0.031 A 
ATOM     68  C   UNL A   1      41.696  34.321  37.214  1.00  0.00     0.131 A 
ATOM     69  C   UNL A   1      40.340  33.698  39.542  1.00  0.00     0.055 A 
ATOM     70  C   UNL A   1      41.736  35.204  38.294  1.00  0.00     0.041 A 
ATOM     71  F   UNL A   1      42.325  34.688  36.086  1.00  0.00    -0.206 F 
ATOM     72  C   UNL A   1      41.045  34.901  39.462  1.00  0.00     0.022 A 
BRANCH  69  73
ATOM     73  S   UNL A   1      39.276  33.359  40.970  1.00  0.00     0.124 S 
ATOM     74  O   UNL A   1      37.993  33.888  40.513  1.00  0.00    -0.237 OA
ATOM     75  O   UNL A   1      39.363  31.909  41.093  1.00  0.00    -0.237 OA
ATOM     76  O   UNL A   1      39.904  34.117  42.052  1.00  0.00    -0.744 OA
ENDBRANCH  69  73
ENDBRANCH  52  66
BRANCH  53  77
ATOM     77  C   UNL A   1      40.824  27.412  29.020  1.00  0.00     0.023 A 
ATOM     78  C   UNL A   1      41.759  27.684  28.009  1.00  0.00     0.031 A 
ATOM     79  C   UNL A   1      39.879  26.396  28.785  1.00  0.00     0.131 A 
ATOM     80  C   UNL A   1      41.695  26.993  26.789  1.00  0.00     0.055 A 
ATOM     81  C   UNL A   1      39.856  25.672  27.592  1.00  0.00     0.041 A 
ATOM     82  F   UNL A   1      38.966  26.089  29.721  1.00  0.00    -0.206 F 
ATOM     83  C   UNL A   1      40.757  25.979  26.579  1.00  0.00     0.022 A 
BRANCH  80  84
ATOM     84  S   UNL A   1      42.791  27.511  25.441  1.00  0.00     0.124 S 
ATOM     85  O   UNL A   1      43.989  27.911  26.170  1.00  0.00    -0.237 OA
ATOM     86  O   UNL A   1      42.896  26.289  24.652  1.00  0.00    -0.237 OA
ATOM     87  O   UNL A   1      42.054  28.601  24.804  1.00  0.00    -0.744 OA
ENDBRANCH  80  84
ENDBRANCH  53  77
BRANCH  65  88
ATOM     88  C   UNL A   1      44.914  27.576  34.659  1.00  0.00     0.023 A 
ATOM     89  C   UNL A   1      44.759  26.397  35.408  1.00  0.00     0.031 A 
ATOM     90  C   UNL A   1      46.217  27.972  34.307  1.00  0.00     0.131 A 
ATOM     91  C   UNL A   1      45.891  25.686  35.831  1.00  0.00     0.055 A 
ATOM     92  C   UNL A   1      47.336  27.228  34.680  1.00  0.00     0.041 A 
ATOM     93  F   UNL A   1      46.422  29.091  33.593  1.00  0.00    -0.206 F 
ATOM     94  C   UNL A   1      47.178  26.084  35.458  1.00  0.00     0.022 A 
BRANCH  91  95
ATOM     95  S   UNL A   1      45.665  24.282  36.957  1.00  0.00     0.124 S 
ATOM     96  O   UNL A   1      47.027  24.045  37.423  1.00  0.00    -0.237 OA
ATOM     97  O   UNL A   1      44.738  24.821  37.947  1.00  0.00    -0.237 OA
ATOM     98  O   UNL A   1      45.113  23.237  36.096  1.00  0.00    -0.744 OA
ENDBRANCH  91  95
ENDBRANCH  65  88
ENDBRANCH  39  40
ENDBRANCH  31  34
ENDBRANCH  29  30
ENDBRANCH  28  29
ENDBRANCH   1  28
TORSDOF 18
ENDMDL
