MODEL 1
REMARK VINA RESULT:     -13.6      0.000      0.000
REMARK SMILES Cc1ccc(C(=O)NCCCCNC(=O)c2ccc(-c3c4nc(c(-c5cc(S(=O)(=O)[O-])ccc5F)c5ccc([nH]5)c(-c5cc(S(=O)(=O)[O-])ccc5F)c5nc(c(-c6cc(S(=O)(=O)[O-])ccc6F)c6ccc3[nH]6)C=C5)C=C4)cc2)cc1N[C@H]1CCCc2cccnc21
REMARK SMILES IDX 11 1 10 2 9 3 8 4 6 5 7 6 5 8 1 9 2 10 3 11 80 12 4 13 79 14
REMARK SMILES IDX 81 15 82 17 83 18 91 19 84 20 86 21 90 22 85 23 87 24 89 25
REMARK SMILES IDX 88 26 12 27 13 28 14 29 15 31 16 32 17 33 78 34 18 35 77 36
REMARK SMILES IDX 19 37 20 38 21 39 71 40 22 41 76 42 70 43 72 44 23 45 75 46
REMARK SMILES IDX 69 47 68 48 24 50 56 51 36 52 55 53 37 54 40 55 54 56 73 57
REMARK SMILES IDX 38 58 39 59 53 61 74 62 41 63 25 64 26 65 34 66 27 67 33 68
REMARK SMILES IDX 35 69 32 70 28 71 29 72 30 73 31 74 57 75 58 76 66 77 59 78
REMARK SMILES IDX 65 79 67 80 64 81 60 82 61 83 62 84 63 85 42 86 43 87 51 88
REMARK SMILES IDX 44 89 50 90 52 91 49 92 45 93 46 94 47 95 48 96
REMARK H PARENT 8 7 81 16 13 30 72 49 40 60
REMARK Flexibility Score: inf
ROOT
ATOM      1  C   UNL A   1      32.960  30.318  26.910  1.00  0.00     0.023 C 
ENDROOT
BRANCH   1   2
ATOM      2  C   UNL A   1      32.511  29.777  25.552  1.00  0.00     0.023 C 
BRANCH   2   3
ATOM      3  C   UNL A   1      31.016  29.990  25.240  1.00  0.00     0.116 C 
BRANCH   3   4
ATOM      4  N   UNL A   1      30.753  30.113  23.808  1.00  0.00    -0.352 N 
ATOM      5  C   UNL A   1      30.528  29.190  22.810  1.00  0.00     0.251 C 
ATOM      6  O   UNL A   1      30.224  29.621  21.695  1.00  0.00    -0.269 OA
ATOM      7  H   UNL A   1      30.733  31.045  23.491  1.00  0.00     0.163 HD
BRANCH   5   8
ATOM      8  C   UNL A   1      30.606  27.713  23.004  1.00  0.00     0.041 A 
ATOM      9  C   UNL A   1      30.719  23.441  23.722  1.00  0.00     0.046 C 
ATOM     10  C   UNL A   1      30.737  24.922  23.464  1.00  0.00    -0.028 A 
ATOM     11  C   UNL A   1      29.569  25.656  23.755  1.00  0.00     0.006 A 
ATOM     12  C   UNL A   1      31.850  25.588  22.934  1.00  0.00     0.038 A 
ATOM     13  C   UNL A   1      29.516  27.041  23.558  1.00  0.00     0.014 A 
ATOM     14  C   UNL A   1      31.714  26.954  22.646  1.00  0.00     0.039 A 
BRANCH  12  15
ATOM     15  N   UNL A   1      33.097  24.991  22.839  1.00  0.00    -0.376 N 
ATOM     16  H   UNL A   1      33.266  24.368  22.095  1.00  0.00     0.161 HD
BRANCH  15  17
ATOM     17  C   UNL A   1      34.188  25.249  23.806  1.00  0.00     0.128 C 
ATOM     18  C   UNL A   1      33.626  25.799  25.135  1.00  0.00     0.032 C 
ATOM     19  C   UNL A   1      35.045  24.002  24.000  1.00  0.00     0.066 A 
ATOM     20  C   UNL A   1      33.121  24.684  26.035  1.00  0.00     0.007 C 
ATOM     21  C   UNL A   1      35.100  23.347  25.237  1.00  0.00    -0.024 A 
ATOM     22  N   UNL A   1      35.799  23.616  22.929  1.00  0.00    -0.259 NA
ATOM     23  C   UNL A   1      34.281  23.778  26.422  1.00  0.00     0.037 C 
ATOM     24  C   UNL A   1      36.045  22.330  25.397  1.00  0.00     0.007 A 
ATOM     25  C   UNL A   1      36.714  22.647  23.141  1.00  0.00     0.111 A 
ATOM     26  C   UNL A   1      36.878  21.985  24.343  1.00  0.00     0.020 A 
ENDBRANCH  15  17
ENDBRANCH  12  15
ENDBRANCH   5   8
ENDBRANCH   3   4
ENDBRANCH   2   3
ENDBRANCH   1   2
BRANCH   1  27
ATOM     27  C   UNL A   1      34.429  30.051  27.200  1.00  0.00     0.116 C 
BRANCH  27  28
ATOM     28  N   UNL A   1      35.215  31.209  27.594  1.00  0.00    -0.352 N 
ATOM     29  C   UNL A   1      36.462  31.247  28.212  1.00  0.00     0.251 C 
ATOM     30  H   UNL A   1      34.811  32.085  27.397  1.00  0.00     0.163 HD
ATOM     31  O   UNL A   1      36.913  32.290  28.637  1.00  0.00    -0.269 OA
BRANCH  29  32
ATOM     32  C   UNL A   1      37.282  30.005  28.259  1.00  0.00     0.039 A 
ATOM     33  C   UNL A   1      37.302  29.275  29.455  1.00  0.00     0.014 A 
ATOM     34  C   UNL A   1      38.163  29.681  27.232  1.00  0.00     0.014 A 
ATOM     35  C   UNL A   1      38.353  28.395  29.704  1.00  0.00     0.010 A 
ATOM     36  C   UNL A   1      39.267  28.910  27.522  1.00  0.00     0.010 A 
ATOM     37  C   UNL A   1      39.388  28.310  28.780  1.00  0.00    -0.014 A 
BRANCH  37  38
ATOM     38  C   UNL A   1      40.687  27.707  29.047  1.00  0.00     0.031 A 
ATOM     39  C   UNL A   1      40.919  26.285  28.727  1.00  0.00     0.074 A 
ATOM     40  C   UNL A   1      41.711  28.504  29.424  1.00  0.00     0.049 A 
ATOM     41  N   UNL A   1      41.970  25.624  29.073  1.00  0.00    -0.248 NA
ATOM     42  C   UNL A   1      39.927  25.456  28.041  1.00  0.00     0.031 C 
ATOM     43  C   UNL A   1      43.142  28.217  29.361  1.00  0.00     0.029 A 
ATOM     44  N   UNL A   1      41.622  29.649  30.213  1.00  0.00    -0.354 N 
ATOM     45  C   UNL A   1      41.948  24.430  28.394  1.00  0.00     0.074 A 
ATOM     46  C   UNL A   1      40.603  24.312  27.897  1.00  0.00     0.031 C 
ATOM     47  C   UNL A   1      43.779  28.987  30.259  1.00  0.00     0.029 A 
ATOM     48  C   UNL A   1      42.756  29.651  31.046  1.00  0.00     0.049 A 
ATOM     49  H   UNL A   1      40.906  30.323  30.192  1.00  0.00     0.167 HD
ATOM     50  C   UNL A   1      43.123  23.773  28.200  1.00  0.00     0.034 A 
ATOM     51  C   UNL A   1      42.622  29.529  32.400  1.00  0.00     0.034 A 
ATOM     52  C   UNL A   1      44.151  24.267  29.121  1.00  0.00     0.049 A 
ATOM     53  C   UNL A   1      43.318  28.316  32.973  1.00  0.00     0.074 A 
ATOM     54  C   UNL A   1      45.292  25.033  28.963  1.00  0.00     0.029 A 
ATOM     55  N   UNL A   1      43.913  24.196  30.494  1.00  0.00    -0.354 N 
ATOM     56  N   UNL A   1      43.669  27.269  32.276  1.00  0.00    -0.248 NA
ATOM     57  C   UNL A   1      43.672  28.194  34.383  1.00  0.00     0.031 C 
ATOM     58  C   UNL A   1      45.663  25.525  30.249  1.00  0.00     0.029 A 
ATOM     59  C   UNL A   1      44.786  25.008  31.189  1.00  0.00     0.049 A 
ATOM     60  H   UNL A   1      43.216  23.640  30.911  1.00  0.00     0.167 HD
ATOM     61  C   UNL A   1      44.261  26.346  33.101  1.00  0.00     0.074 A 
ATOM     62  C   UNL A   1      44.262  26.988  34.405  1.00  0.00     0.031 C 
ATOM     63  C   UNL A   1      44.691  25.131  32.642  1.00  0.00     0.034 A 
BRANCH  50  64
ATOM     64  C   UNL A   1      43.417  22.842  27.034  1.00  0.00     0.023 A 
ATOM     65  C   UNL A   1      42.804  21.568  27.010  1.00  0.00     0.031 A 
ATOM     66  C   UNL A   1      44.378  23.057  26.017  1.00  0.00     0.131 A 
ATOM     67  C   UNL A   1      43.158  20.598  26.047  1.00  0.00     0.055 A 
ATOM     68  C   UNL A   1      44.683  22.113  25.027  1.00  0.00     0.041 A 
ATOM     69  F   UNL A   1      45.134  24.156  25.950  1.00  0.00    -0.206 F 
ATOM     70  C   UNL A   1      44.080  20.872  25.043  1.00  0.00     0.022 A 
BRANCH  67  71
ATOM     71  S   UNL A   1      42.461  18.927  26.168  1.00  0.00     0.124 S 
ATOM     72  O   UNL A   1      42.582  18.648  27.595  1.00  0.00    -0.237 OA
ATOM     73  O   UNL A   1      41.110  19.115  25.654  1.00  0.00    -0.237 OA
ATOM     74  O   UNL A   1      43.340  18.131  25.311  1.00  0.00    -0.744 OA
ENDBRANCH  67  71
ENDBRANCH  50  64
BRANCH  51  75
ATOM     75  C   UNL A   1      41.353  30.121  32.916  1.00  0.00     0.023 A 
ATOM     76  C   UNL A   1      41.297  31.527  33.004  1.00  0.00     0.031 A 
ATOM     77  C   UNL A   1      40.142  29.417  32.903  1.00  0.00     0.131 A 
ATOM     78  C   UNL A   1      40.070  32.192  32.877  1.00  0.00     0.055 A 
ATOM     79  C   UNL A   1      38.911  30.088  32.864  1.00  0.00     0.041 A 
ATOM     80  F   UNL A   1      40.129  28.081  32.797  1.00  0.00    -0.206 F 
ATOM     81  C   UNL A   1      38.873  31.482  32.801  1.00  0.00     0.022 A 
BRANCH  78  82
ATOM     82  S   UNL A   1      40.114  33.978  32.563  1.00  0.00     0.124 S 
ATOM     83  O   UNL A   1      38.691  34.298  32.517  1.00  0.00    -0.237 OA
ATOM     84  O   UNL A   1      40.848  34.475  33.728  1.00  0.00    -0.237 OA
ATOM     85  O   UNL A   1      40.828  34.090  31.295  1.00  0.00    -0.744 OA
ENDBRANCH  78  82
ENDBRANCH  51  75
BRANCH  63  86
ATOM     86  C   UNL A   1      45.132  23.970  33.515  1.00  0.00     0.023 A 
ATOM     87  C   UNL A   1      46.424  23.852  34.052  1.00  0.00     0.031 A 
ATOM     88  C   UNL A   1      44.219  22.960  33.905  1.00  0.00     0.131 A 
ATOM     89  C   UNL A   1      46.796  22.739  34.829  1.00  0.00     0.055 A 
ATOM     90  C   UNL A   1      44.566  21.900  34.750  1.00  0.00     0.041 A 
ATOM     91  F   UNL A   1      42.943  22.963  33.492  1.00  0.00    -0.206 F 
ATOM     92  C   UNL A   1      45.870  21.772  35.202  1.00  0.00     0.022 A 
BRANCH  89  93
ATOM     93  S   UNL A   1      48.543  22.554  35.278  1.00  0.00     0.124 S 
ATOM     94  O   UNL A   1      48.643  21.112  35.499  1.00  0.00    -0.237 OA
ATOM     95  O   UNL A   1      49.228  23.059  34.093  1.00  0.00    -0.237 OA
ATOM     96  O   UNL A   1      48.682  23.376  36.477  1.00  0.00    -0.744 OA
ENDBRANCH  89  93
ENDBRANCH  63  86
ENDBRANCH  37  38
ENDBRANCH  29  32
ENDBRANCH  27  28
ENDBRANCH   1  27
TORSDOF 16
ENDMDL
MODEL 2
REMARK VINA RESULT:     -13.3      4.199     10.595
REMARK SMILES Cc1ccc(C(=O)NCCCCNC(=O)c2ccc(-c3c4nc(c(-c5cc(S(=O)(=O)[O-])ccc5F)c5ccc([nH]5)c(-c5cc(S(=O)(=O)[O-])ccc5F)c5nc(c(-c6cc(S(=O)(=O)[O-])ccc6F)c6ccc3[nH]6)C=C5)C=C4)cc2)cc1N[C@H]1CCCc2cccnc21
REMARK SMILES IDX 11 1 10 2 9 3 8 4 6 5 7 6 5 8 1 9 2 10 3 11 80 12 4 13 79 14
REMARK SMILES IDX 81 15 82 17 83 18 91 19 84 20 86 21 90 22 85 23 87 24 89 25
REMARK SMILES IDX 88 26 12 27 13 28 14 29 15 31 16 32 17 33 78 34 18 35 77 36
REMARK SMILES IDX 19 37 20 38 21 39 71 40 22 41 76 42 70 43 72 44 23 45 75 46
REMARK SMILES IDX 69 47 68 48 24 50 56 51 36 52 55 53 37 54 40 55 54 56 73 57
REMARK SMILES IDX 38 58 39 59 53 61 74 62 41 63 25 64 26 65 34 66 27 67 33 68
REMARK SMILES IDX 35 69 32 70 28 71 29 72 30 73 31 74 57 75 58 76 66 77 59 78
REMARK SMILES IDX 65 79 67 80 64 81 60 82 61 83 62 84 63 85 42 86 43 87 51 88
REMARK SMILES IDX 44 89 50 90 52 91 49 92 45 93 46 94 47 95 48 96
REMARK H PARENT 8 7 81 16 13 30 72 49 40 60
REMARK Flexibility Score: inf
ROOT
ATOM      1  C   UNL A   1      37.542  21.865  25.333  1.00  0.00     0.023 C 
ENDROOT
BRANCH   1   2
ATOM      2  C   UNL A   1      36.125  21.537  25.803  1.00  0.00     0.023 C 
BRANCH   2   3
ATOM      3  C   UNL A   1      35.425  20.421  25.001  1.00  0.00     0.116 C 
BRANCH   3   4
ATOM      4  N   UNL A   1      34.015  20.275  25.353  1.00  0.00    -0.352 N 
ATOM      5  C   UNL A   1      32.878  20.961  24.986  1.00  0.00     0.251 C 
ATOM      6  O   UNL A   1      31.796  20.519  25.380  1.00  0.00    -0.269 OA
ATOM      7  H   UNL A   1      33.842  19.538  25.982  1.00  0.00     0.163 HD
BRANCH   5   8
ATOM      8  C   UNL A   1      32.877  22.180  24.127  1.00  0.00     0.041 A 
ATOM      9  C   UNL A   1      32.976  25.626  21.501  1.00  0.00     0.046 C 
ATOM     10  C   UNL A   1      32.956  24.465  22.456  1.00  0.00    -0.028 A 
ATOM     11  C   UNL A   1      32.873  23.166  21.914  1.00  0.00     0.006 A 
ATOM     12  C   UNL A   1      32.996  24.625  23.848  1.00  0.00     0.038 A 
ATOM     13  C   UNL A   1      32.867  22.036  22.740  1.00  0.00     0.014 A 
ATOM     14  C   UNL A   1      32.872  23.473  24.638  1.00  0.00     0.039 A 
BRANCH  12  15
ATOM     15  N   UNL A   1      33.307  25.835  24.448  1.00  0.00    -0.376 N 
ATOM     16  H   UNL A   1      34.189  26.236  24.269  1.00  0.00     0.161 HD
BRANCH  15  17
ATOM     17  C   UNL A   1      32.373  26.553  25.344  1.00  0.00     0.128 C 
ATOM     18  C   UNL A   1      33.136  27.235  26.500  1.00  0.00     0.032 C 
ATOM     19  C   UNL A   1      31.507  27.528  24.553  1.00  0.00     0.066 A 
ATOM     20  C   UNL A   1      33.721  28.571  26.074  1.00  0.00     0.007 C 
ATOM     21  C   UNL A   1      31.601  28.910  24.758  1.00  0.00    -0.024 A 
ATOM     22  N   UNL A   1      30.595  26.971  23.702  1.00  0.00    -0.259 NA
ATOM     23  C   UNL A   1      32.595  29.525  25.705  1.00  0.00     0.037 C 
ATOM     24  C   UNL A   1      30.652  29.729  24.141  1.00  0.00     0.007 A 
ATOM     25  C   UNL A   1      29.684  27.800  23.151  1.00  0.00     0.111 A 
ATOM     26  C   UNL A   1      29.667  29.169  23.342  1.00  0.00     0.020 A 
ENDBRANCH  15  17
ENDBRANCH  12  15
ENDBRANCH   5   8
ENDBRANCH   3   4
ENDBRANCH   2   3
ENDBRANCH   1   2
BRANCH   1  27
ATOM     27  C   UNL A   1      38.146  23.060  26.054  1.00  0.00     0.116 C 
BRANCH  27  28
ATOM     28  N   UNL A   1      39.429  22.826  26.699  1.00  0.00    -0.352 N 
ATOM     29  C   UNL A   1      40.325  23.755  27.219  1.00  0.00     0.251 C 
ATOM     30  H   UNL A   1      39.699  21.883  26.777  1.00  0.00     0.163 HD
ATOM     31  O   UNL A   1      41.437  23.418  27.569  1.00  0.00    -0.269 OA
BRANCH  29  32
ATOM     32  C   UNL A   1      39.869  25.157  27.432  1.00  0.00     0.039 A 
ATOM     33  C   UNL A   1      40.375  26.149  26.581  1.00  0.00     0.014 A 
ATOM     34  C   UNL A   1      39.133  25.514  28.558  1.00  0.00     0.014 A 
ATOM     35  C   UNL A   1      40.346  27.482  26.989  1.00  0.00     0.010 A 
ATOM     36  C   UNL A   1      39.213  26.809  29.020  1.00  0.00     0.010 A 
ATOM     37  C   UNL A   1      39.869  27.783  28.260  1.00  0.00    -0.014 A 
BRANCH  37  38
ATOM     38  C   UNL A   1      40.081  29.052  28.943  1.00  0.00     0.031 A 
ATOM     39  C   UNL A   1      39.066  30.119  28.850  1.00  0.00     0.074 A 
ATOM     40  C   UNL A   1      41.125  29.167  29.792  1.00  0.00     0.049 A 
ATOM     41  N   UNL A   1      39.234  31.322  29.278  1.00  0.00    -0.248 NA
ATOM     42  C   UNL A   1      37.778  29.929  28.181  1.00  0.00     0.031 C 
ATOM     43  C   UNL A   1      41.313  30.151  30.856  1.00  0.00     0.029 A 
ATOM     44  N   UNL A   1      42.373  28.561  29.659  1.00  0.00    -0.354 N 
ATOM     45  C   UNL A   1      38.010  31.944  29.251  1.00  0.00     0.074 A 
ATOM     46  C   UNL A   1      37.185  31.101  28.428  1.00  0.00     0.031 C 
ATOM     47  C   UNL A   1      42.626  30.268  31.114  1.00  0.00     0.029 A 
ATOM     48  C   UNL A   1      43.325  29.500  30.099  1.00  0.00     0.049 A 
ATOM     49  H   UNL A   1      42.553  27.655  29.322  1.00  0.00     0.167 HD
ATOM     50  C   UNL A   1      37.807  33.012  30.069  1.00  0.00     0.034 A 
ATOM     51  C   UNL A   1      44.239  30.021  29.228  1.00  0.00     0.034 A 
ATOM     52  C   UNL A   1      39.085  33.559  30.533  1.00  0.00     0.049 A 
ATOM     53  C   UNL A   1      44.153  31.524  29.084  1.00  0.00     0.074 A 
ATOM     54  C   UNL A   1      39.740  33.563  31.752  1.00  0.00     0.029 A 
ATOM     55  N   UNL A   1      40.015  33.992  29.587  1.00  0.00    -0.354 N 
ATOM     56  N   UNL A   1      43.107  32.236  29.405  1.00  0.00    -0.248 NA
ATOM     57  C   UNL A   1      45.247  32.336  28.565  1.00  0.00     0.031 C 
ATOM     58  C   UNL A   1      41.108  33.883  31.506  1.00  0.00     0.029 A 
ATOM     59  C   UNL A   1      41.266  34.132  30.152  1.00  0.00     0.049 A 
ATOM     60  H   UNL A   1      39.805  34.174  28.642  1.00  0.00     0.167 HD
ATOM     61  C   UNL A   1      43.353  33.559  29.134  1.00  0.00     0.074 A 
ATOM     62  C   UNL A   1      44.718  33.569  28.636  1.00  0.00     0.031 C 
ATOM     63  C   UNL A   1      42.410  34.530  29.335  1.00  0.00     0.034 A 
BRANCH  50  64
ATOM     64  C   UNL A   1      36.459  33.432  30.632  1.00  0.00     0.023 A 
ATOM     65  C   UNL A   1      35.539  34.086  29.780  1.00  0.00     0.031 A 
ATOM     66  C   UNL A   1      36.068  33.373  31.992  1.00  0.00     0.131 A 
ATOM     67  C   UNL A   1      34.342  34.645  30.277  1.00  0.00     0.055 A 
ATOM     68  C   UNL A   1      34.852  33.877  32.471  1.00  0.00     0.041 A 
ATOM     69  F   UNL A   1      36.858  32.893  32.956  1.00  0.00    -0.206 F 
ATOM     70  C   UNL A   1      33.984  34.526  31.616  1.00  0.00     0.022 A 
BRANCH  67  71
ATOM     71  S   UNL A   1      33.283  35.615  29.168  1.00  0.00     0.124 S 
ATOM     72  O   UNL A   1      34.263  36.351  28.376  1.00  0.00    -0.237 OA
ATOM     73  O   UNL A   1      32.528  34.579  28.473  1.00  0.00    -0.237 OA
ATOM     74  O   UNL A   1      32.495  36.437  30.087  1.00  0.00    -0.744 OA
ENDBRANCH  67  71
ENDBRANCH  50  64
BRANCH  51  75
ATOM     75  C   UNL A   1      44.620  29.070  28.144  1.00  0.00     0.023 A 
ATOM     76  C   UNL A   1      45.456  27.993  28.507  1.00  0.00     0.031 A 
ATOM     77  C   UNL A   1      43.883  28.955  26.959  1.00  0.00     0.131 A 
ATOM     78  C   UNL A   1      45.385  26.781  27.808  1.00  0.00     0.055 A 
ATOM     79  C   UNL A   1      43.884  27.766  26.214  1.00  0.00     0.041 A 
ATOM     80  F   UNL A   1      43.052  29.933  26.572  1.00  0.00    -0.206 F 
ATOM     81  C   UNL A   1      44.599  26.655  26.665  1.00  0.00     0.022 A 
BRANCH  78  82
ATOM     82  S   UNL A   1      46.145  25.325  28.579  1.00  0.00     0.124 S 
ATOM     83  O   UNL A   1      44.968  24.581  29.014  1.00  0.00    -0.237 OA
ATOM     84  O   UNL A   1      46.896  24.746  27.464  1.00  0.00    -0.237 OA
ATOM     85  O   UNL A   1      46.968  25.887  29.645  1.00  0.00    -0.744 OA
ENDBRANCH  78  82
ENDBRANCH  51  75
BRANCH  63  86
ATOM     86  C   UNL A   1      42.511  35.963  28.847  1.00  0.00     0.023 A 
ATOM     87  C   UNL A   1      43.220  36.967  29.527  1.00  0.00     0.031 A 
ATOM     88  C   UNL A   1      41.943  36.356  27.609  1.00  0.00     0.131 A 
ATOM     89  C   UNL A   1      43.255  38.290  29.051  1.00  0.00     0.055 A 
ATOM     90  C   UNL A   1      42.055  37.652  27.094  1.00  0.00     0.041 A 
ATOM     91  F   UNL A   1      41.264  35.494  26.838  1.00  0.00    -0.206 F 
ATOM     92  C   UNL A   1      42.696  38.637  27.827  1.00  0.00     0.022 A 
BRANCH  89  93
ATOM     93  S   UNL A   1      43.990  39.562  30.114  1.00  0.00     0.124 S 
ATOM     94  O   UNL A   1      45.259  39.821  29.437  1.00  0.00    -0.237 OA
ATOM     95  O   UNL A   1      43.006  40.638  30.045  1.00  0.00    -0.237 OA
ATOM     96  O   UNL A   1      44.104  38.904  31.413  1.00  0.00    -0.744 OA
ENDBRANCH  89  93
ENDBRANCH  63  86
ENDBRANCH  37  38
ENDBRANCH  29  32
ENDBRANCH  27  28
ENDBRANCH   1  27
TORSDOF 16
ENDMDL
MODEL 3
REMARK VINA RESULT:     -13.2      4.055     10.669
REMARK SMILES Cc1ccc(C(=O)NCCCCNC(=O)c2ccc(-c3c4nc(c(-c5cc(S(=O)(=O)[O-])ccc5F)c5ccc([nH]5)c(-c5cc(S(=O)(=O)[O-])ccc5F)c5nc(c(-c6cc(S(=O)(=O)[O-])ccc6F)c6ccc3[nH]6)C=C5)C=C4)cc2)cc1N[C@H]1CCCc2cccnc21
REMARK SMILES IDX 11 1 10 2 9 3 8 4 6 5 7 6 5 8 1 9 2 10 3 11 80 12 4 13 79 14
REMARK SMILES IDX 81 15 82 17 83 18 91 19 84 20 86 21 90 22 85 23 87 24 89 25
REMARK SMILES IDX 88 26 12 27 13 28 14 29 15 31 16 32 17 33 78 34 18 35 77 36
REMARK SMILES IDX 19 37 20 38 21 39 71 40 22 41 76 42 70 43 72 44 23 45 75 46
REMARK SMILES IDX 69 47 68 48 24 50 56 51 36 52 55 53 37 54 40 55 54 56 73 57
REMARK SMILES IDX 38 58 39 59 53 61 74 62 41 63 25 64 26 65 34 66 27 67 33 68
REMARK SMILES IDX 35 69 32 70 28 71 29 72 30 73 31 74 57 75 58 76 66 77 59 78
REMARK SMILES IDX 65 79 67 80 64 81 60 82 61 83 62 84 63 85 42 86 43 87 51 88
REMARK SMILES IDX 44 89 50 90 52 91 49 92 45 93 46 94 47 95 48 96
REMARK H PARENT 8 7 81 16 13 30 72 49 40 60
REMARK Flexibility Score: inf
ROOT
ATOM      1  C   UNL A   1      37.990  21.675  25.585  1.00  0.00     0.023 C 
ENDROOT
BRANCH   1   2
ATOM      2  C   UNL A   1      36.626  21.921  24.939  1.00  0.00     0.023 C 
BRANCH   2   3
ATOM      3  C   UNL A   1      36.628  22.984  23.822  1.00  0.00     0.116 C 
BRANCH   3   4
ATOM      4  N   UNL A   1      35.487  22.851  22.919  1.00  0.00    -0.352 N 
ATOM      5  C   UNL A   1      34.347  23.601  22.728  1.00  0.00     0.251 C 
ATOM      6  O   UNL A   1      33.608  23.283  21.793  1.00  0.00    -0.269 OA
ATOM      7  H   UNL A   1      35.543  22.066  22.328  1.00  0.00     0.163 HD
BRANCH   5   8
ATOM      8  C   UNL A   1      33.971  24.779  23.561  1.00  0.00     0.041 A 
ATOM      9  C   UNL A   1      32.854  28.084  26.132  1.00  0.00     0.046 C 
ATOM     10  C   UNL A   1      33.208  26.960  25.199  1.00  0.00    -0.028 A 
ATOM     11  C   UNL A   1      33.914  25.861  25.728  1.00  0.00     0.006 A 
ATOM     12  C   UNL A   1      32.883  26.972  23.836  1.00  0.00     0.038 A 
ATOM     13  C   UNL A   1      34.262  24.768  24.925  1.00  0.00     0.014 A 
ATOM     14  C   UNL A   1      33.351  25.912  23.046  1.00  0.00     0.039 A 
BRANCH  12  15
ATOM     15  N   UNL A   1      32.001  27.892  23.291  1.00  0.00    -0.376 N 
ATOM     16  H   UNL A   1      32.171  28.851  23.437  1.00  0.00     0.161 HD
BRANCH  15  17
ATOM     17  C   UNL A   1      30.816  27.497  22.497  1.00  0.00     0.128 C 
ATOM     18  C   UNL A   1      30.247  26.150  22.993  1.00  0.00     0.032 C 
ATOM     19  C   UNL A   1      29.773  28.610  22.491  1.00  0.00     0.066 A 
ATOM     20  C   UNL A   1      29.349  26.332  24.204  1.00  0.00     0.007 C 
ATOM     21  C   UNL A   1      28.518  28.430  23.086  1.00  0.00    -0.024 A 
ATOM     22  N   UNL A   1      30.110  29.749  21.815  1.00  0.00    -0.259 NA
ATOM     23  C   UNL A   1      28.140  27.172  23.820  1.00  0.00     0.037 C 
ATOM     24  C   UNL A   1      27.549  29.415  22.881  1.00  0.00     0.007 A 
ATOM     25  C   UNL A   1      29.133  30.658  21.622  1.00  0.00     0.111 A 
ATOM     26  C   UNL A   1      27.850  30.537  22.123  1.00  0.00     0.020 A 
ENDBRANCH  15  17
ENDBRANCH  12  15
ENDBRANCH   5   8
ENDBRANCH   3   4
ENDBRANCH   2   3
ENDBRANCH   1   2
BRANCH   1  27
ATOM     27  C   UNL A   1      38.638  22.947  26.109  1.00  0.00     0.116 C 
BRANCH  27  28
ATOM     28  N   UNL A   1      39.911  22.771  26.792  1.00  0.00    -0.352 N 
ATOM     29  C   UNL A   1      40.731  23.737  27.367  1.00  0.00     0.251 C 
ATOM     30  H   UNL A   1      40.235  21.844  26.856  1.00  0.00     0.163 HD
ATOM     31  O   UNL A   1      41.849  23.457  27.747  1.00  0.00    -0.269 OA
BRANCH  29  32
ATOM     32  C   UNL A   1      40.184  25.103  27.601  1.00  0.00     0.039 A 
ATOM     33  C   UNL A   1      40.555  26.120  26.711  1.00  0.00     0.014 A 
ATOM     34  C   UNL A   1      39.498  25.416  28.770  1.00  0.00     0.014 A 
ATOM     35  C   UNL A   1      40.451  27.451  27.110  1.00  0.00     0.010 A 
ATOM     36  C   UNL A   1      39.510  26.720  29.217  1.00  0.00     0.010 A 
ATOM     37  C   UNL A   1      40.038  27.731  28.408  1.00  0.00    -0.014 A 
BRANCH  37  38
ATOM     38  C   UNL A   1      40.197  29.020  29.067  1.00  0.00     0.031 A 
ATOM     39  C   UNL A   1      39.157  30.058  28.919  1.00  0.00     0.074 A 
ATOM     40  C   UNL A   1      41.213  29.183  29.942  1.00  0.00     0.049 A 
ATOM     41  N   UNL A   1      39.281  31.274  29.323  1.00  0.00    -0.248 NA
ATOM     42  C   UNL A   1      37.895  29.817  28.219  1.00  0.00     0.031 C 
ATOM     43  C   UNL A   1      41.344  30.196  30.988  1.00  0.00     0.029 A 
ATOM     44  N   UNL A   1      42.479  28.608  29.859  1.00  0.00    -0.354 N 
ATOM     45  C   UNL A   1      38.043  31.863  29.247  1.00  0.00     0.074 A 
ATOM     46  C   UNL A   1      37.264  30.979  28.421  1.00  0.00     0.031 C 
ATOM     47  C   UNL A   1      42.645  30.354  31.279  1.00  0.00     0.029 A 
ATOM     48  C   UNL A   1      43.393  29.582  30.303  1.00  0.00     0.049 A 
ATOM     49  H   UNL A   1      42.692  27.699  29.548  1.00  0.00     0.167 HD
ATOM     50  C   UNL A   1      37.788  32.943  30.033  1.00  0.00     0.034 A 
ATOM     51  C   UNL A   1      44.318  30.107  29.446  1.00  0.00     0.034 A 
ATOM     52  C   UNL A   1      39.038  33.535  30.520  1.00  0.00     0.049 A 
ATOM     53  C   UNL A   1      44.197  31.603  29.264  1.00  0.00     0.074 A 
ATOM     54  C   UNL A   1      39.657  33.585  31.757  1.00  0.00     0.029 A 
ATOM     55  N   UNL A   1      39.983  33.971  29.591  1.00  0.00    -0.354 N 
ATOM     56  N   UNL A   1      43.124  32.294  29.538  1.00  0.00    -0.248 NA
ATOM     57  C   UNL A   1      45.284  32.433  28.757  1.00  0.00     0.031 C 
ATOM     58  C   UNL A   1      41.022  33.935  31.542  1.00  0.00     0.029 A 
ATOM     59  C   UNL A   1      41.213  34.157  30.188  1.00  0.00     0.049 A 
ATOM     60  H   UNL A   1      39.796  34.125  28.637  1.00  0.00     0.167 HD
ATOM     61  C   UNL A   1      43.343  33.617  29.244  1.00  0.00     0.074 A 
ATOM     62  C   UNL A   1      44.721  33.652  28.784  1.00  0.00     0.031 C 
ATOM     63  C   UNL A   1      42.369  34.567  29.394  1.00  0.00     0.034 A 
BRANCH  50  64
ATOM     64  C   UNL A   1      36.414  33.340  30.548  1.00  0.00     0.023 A 
ATOM     65  C   UNL A   1      35.540  34.040  29.685  1.00  0.00     0.031 A 
ATOM     66  C   UNL A   1      35.954  33.213  31.881  1.00  0.00     0.131 A 
ATOM     67  C   UNL A   1      34.320  34.579  30.149  1.00  0.00     0.055 A 
ATOM     68  C   UNL A   1      34.716  33.697  32.323  1.00  0.00     0.041 A 
ATOM     69  F   UNL A   1      36.693  32.681  32.858  1.00  0.00    -0.206 F 
ATOM     70  C   UNL A   1      33.894  34.393  31.460  1.00  0.00     0.022 A 
BRANCH  67  71
ATOM     71  S   UNL A   1      33.321  35.608  29.038  1.00  0.00     0.124 S 
ATOM     72  O   UNL A   1      32.567  36.430  29.980  1.00  0.00    -0.237 OA
ATOM     73  O   UNL A   1      34.337  36.291  28.247  1.00  0.00    -0.237 OA
ATOM     74  O   UNL A   1      32.520  34.631  28.300  1.00  0.00    -0.744 OA
ENDBRANCH  67  71
ENDBRANCH  50  64
BRANCH  51  75
ATOM     75  C   UNL A   1      44.755  29.141  28.396  1.00  0.00     0.023 A 
ATOM     76  C   UNL A   1      45.662  28.137  28.794  1.00  0.00     0.031 A 
ATOM     77  C   UNL A   1      44.020  28.933  27.222  1.00  0.00     0.131 A 
ATOM     78  C   UNL A   1      45.667  26.896  28.142  1.00  0.00     0.055 A 
ATOM     79  C   UNL A   1      44.096  27.719  26.523  1.00  0.00     0.041 A 
ATOM     80  F   UNL A   1      43.125  29.839  26.805  1.00  0.00    -0.206 F 
ATOM     81  C   UNL A   1      44.885  26.675  27.010  1.00  0.00     0.022 A 
BRANCH  78  82
ATOM     82  S   UNL A   1      46.525  25.524  28.962  1.00  0.00     0.124 S 
ATOM     83  O   UNL A   1      45.986  24.376  28.242  1.00  0.00    -0.237 OA
ATOM     84  O   UNL A   1      47.930  25.844  28.703  1.00  0.00    -0.237 OA
ATOM     85  O   UNL A   1      46.117  25.644  30.358  1.00  0.00    -0.744 OA
ENDBRANCH  78  82
ENDBRANCH  51  75
BRANCH  63  86
ATOM     86  C   UNL A   1      42.447  35.991  28.875  1.00  0.00     0.023 A 
ATOM     87  C   UNL A   1      43.100  37.030  29.556  1.00  0.00     0.031 A 
ATOM     88  C   UNL A   1      41.915  36.337  27.608  1.00  0.00     0.131 A 
ATOM     89  C   UNL A   1      43.115  38.343  29.050  1.00  0.00     0.055 A 
ATOM     90  C   UNL A   1      42.008  37.623  27.066  1.00  0.00     0.041 A 
ATOM     91  F   UNL A   1      41.291  35.437  26.834  1.00  0.00    -0.206 F 
ATOM     92  C   UNL A   1      42.593  38.644  27.798  1.00  0.00     0.022 A 
BRANCH  89  93
ATOM     93  S   UNL A   1      43.772  39.661  30.108  1.00  0.00     0.124 S 
ATOM     94  O   UNL A   1      42.788  40.723  29.906  1.00  0.00    -0.237 OA
ATOM     95  O   UNL A   1      43.766  39.038  31.428  1.00  0.00    -0.237 OA
ATOM     96  O   UNL A   1      45.095  39.927  29.550  1.00  0.00    -0.744 OA
ENDBRANCH  89  93
ENDBRANCH  63  86
ENDBRANCH  37  38
ENDBRANCH  29  32
ENDBRANCH  27  28
ENDBRANCH   1  27
TORSDOF 16
ENDMDL
