MODEL 1
REMARK VINA RESULT:     -13.0      0.000      0.000
REMARK SMILES Nc1c(Cl)ccc2c1C=C(C(=O)NCCCCNC(=O)c1ccc(-c3c4nc(c(-c5cc(S(=O)(=O)[O-])ccc5F)c5ccc([nH]5)c(-c5cc(S(=O)(=O)[O-])ccc5F)c5nc(c(-c6cc(S(=O)(=O)[O-])ccc6F)c6ccc3[nH]6)C=C5)C=C4)cc1)[C@@H](C(F)(F)F)O2
REMARK SMILES IDX 16 1 15 2 14 3 13 4 11 5 12 6 10 8 2 9 3 10 8 11 4 12 5 13
REMARK SMILES IDX 7 14 9 15 6 16 89 17 84 18 1 19 85 22 86 23 87 24 88 25
REMARK SMILES IDX 17 26 18 27 19 28 20 30 21 31 22 32 83 33 23 34 82 35 24 36
REMARK SMILES IDX 25 37 26 38 76 39 27 40 81 41 75 42 77 43 28 44 80 45 74 46
REMARK SMILES IDX 73 47 29 49 61 50 41 51 60 52 42 53 45 54 59 55 78 56 43 57
REMARK SMILES IDX 44 58 58 60 79 61 46 62 30 63 31 64 39 65 32 66 38 67 40 68
REMARK SMILES IDX 37 69 33 70 34 71 35 72 36 73 62 74 63 75 71 76 64 77 70 78
REMARK SMILES IDX 72 79 69 80 65 81 66 82 67 83 68 84 47 85 48 86 56 87 49 88
REMARK SMILES IDX 55 89 57 90 54 91 50 92 51 93 52 94 53 95
REMARK H PARENT 13 7 1 20 1 21 18 29 77 48 45 59
REMARK Flexibility Score: inf
ROOT
ATOM      1  C   UNL A   1      33.081  29.285  24.591  1.00  0.00     0.023 C 
ENDROOT
BRANCH   1   2
ATOM      2  C   UNL A   1      34.075  28.284  23.996  1.00  0.00     0.023 C 
BRANCH   2   3
ATOM      3  C   UNL A   1      33.952  26.873  24.563  1.00  0.00     0.116 C 
BRANCH   3   4
ATOM      4  N   UNL A   1      33.516  25.923  23.557  1.00  0.00    -0.352 N 
ATOM      5  C   UNL A   1      32.361  25.614  22.923  1.00  0.00     0.251 C 
ATOM      6  O   UNL A   1      32.438  24.691  22.106  1.00  0.00    -0.270 OA
ATOM      7  H   UNL A   1      34.258  25.350  23.255  1.00  0.00     0.163 HD
BRANCH   5   8
ATOM      8  C   UNL A   1      31.049  26.297  23.133  1.00  0.00     0.067 C 
ATOM      9  C   UNL A   1      29.519  29.563  22.162  1.00  0.00     0.061 A 
ATOM     10  C   UNL A   1      28.284  30.217  22.381  1.00  0.00     0.064 A 
ATOM     11  C   UNL A   1      29.664  28.241  22.640  1.00  0.00     0.042 A 
ATOM     12  Cl  UNL A   1      28.042  31.851  21.853  1.00  0.00    -0.082 Cl
ATOM     13  C   UNL A   1      27.217  29.576  23.012  1.00  0.00     0.026 A 
ATOM     14  C   UNL A   1      28.587  27.617  23.286  1.00  0.00     0.130 A 
ATOM     15  C   UNL A   1      30.889  27.454  22.464  1.00  0.00     0.027 C 
ATOM     16  C   UNL A   1      27.367  28.268  23.459  1.00  0.00     0.049 A 
ATOM     17  O   UNL A   1      28.641  26.332  23.750  1.00  0.00    -0.475 OA
ATOM     18  C   UNL A   1      29.966  25.808  24.046  1.00  0.00     0.314 C 
BRANCH   9  19
ATOM     19  N   UNL A   1      30.581  30.262  21.582  1.00  0.00    -0.397 N 
ATOM     20  H   UNL A   1      30.426  31.144  21.173  1.00  0.00     0.156 HD
ATOM     21  H   UNL A   1      31.485  29.872  21.583  1.00  0.00     0.156 HD
ENDBRANCH   9  19
BRANCH  18  22
ATOM     22  C   UNL A   1      30.286  26.040  25.534  1.00  0.00     0.429 C 
ATOM     23  F   UNL A   1      31.312  25.241  25.926  1.00  0.00    -0.167 F 
ATOM     24  F   UNL A   1      30.670  27.311  25.794  1.00  0.00    -0.167 F 
ATOM     25  F   UNL A   1      29.235  25.770  26.342  1.00  0.00    -0.167 F 
ENDBRANCH  18  22
ENDBRANCH   5   8
ENDBRANCH   3   4
ENDBRANCH   2   3
ENDBRANCH   1   2
BRANCH   1  26
ATOM     26  C   UNL A   1      33.138  29.443  26.109  1.00  0.00     0.116 C 
BRANCH  26  27
ATOM     27  N   UNL A   1      32.798  30.784  26.570  1.00  0.00    -0.352 N 
ATOM     28  C   UNL A   1      33.556  31.609  27.366  1.00  0.00     0.251 C 
ATOM     29  H   UNL A   1      31.927  31.138  26.279  1.00  0.00     0.163 HD
ATOM     30  O   UNL A   1      33.137  32.701  27.733  1.00  0.00    -0.269 OA
BRANCH  28  31
ATOM     31  C   UNL A   1      34.875  31.120  27.797  1.00  0.00     0.039 A 
ATOM     32  C   UNL A   1      35.930  32.029  27.891  1.00  0.00     0.014 A 
ATOM     33  C   UNL A   1      35.014  29.797  28.228  1.00  0.00     0.014 A 
ATOM     34  C   UNL A   1      37.123  31.622  28.486  1.00  0.00     0.010 A 
ATOM     35  C   UNL A   1      36.188  29.410  28.864  1.00  0.00     0.010 A 
ATOM     36  C   UNL A   1      37.247  30.321  29.002  1.00  0.00    -0.014 A 
BRANCH  36  37
ATOM     37  C   UNL A   1      38.480  29.910  29.708  1.00  0.00     0.031 A 
ATOM     38  C   UNL A   1      38.774  30.446  31.076  1.00  0.00     0.074 A 
ATOM     39  C   UNL A   1      39.357  29.097  29.090  1.00  0.00     0.049 A 
ATOM     40  N   UNL A   1      39.768  30.159  31.873  1.00  0.00    -0.248 NA
ATOM     41  C   UNL A   1      37.842  31.451  31.611  1.00  0.00     0.031 C 
ATOM     42  C   UNL A   1      39.208  28.580  27.728  1.00  0.00     0.029 A 
ATOM     43  N   UNL A   1      40.545  28.564  29.521  1.00  0.00    -0.354 N 
ATOM     44  C   UNL A   1      39.588  30.950  32.998  1.00  0.00     0.074 A 
ATOM     45  C   UNL A   1      38.419  31.767  32.761  1.00  0.00     0.031 C 
ATOM     46  C   UNL A   1      40.253  27.785  27.445  1.00  0.00     0.029 A 
ATOM     47  C   UNL A   1      41.148  27.741  28.600  1.00  0.00     0.049 A 
ATOM     48  H   UNL A   1      40.931  28.755  30.407  1.00  0.00     0.167 HD
ATOM     49  C   UNL A   1      40.317  30.972  34.138  1.00  0.00     0.034 A 
ATOM     50  C   UNL A   1      42.278  27.011  28.687  1.00  0.00     0.034 A 
ATOM     51  C   UNL A   1      41.463  30.136  34.369  1.00  0.00     0.049 A 
ATOM     52  C   UNL A   1      43.042  27.005  29.985  1.00  0.00     0.074 A 
ATOM     53  C   UNL A   1      42.223  30.023  35.518  1.00  0.00     0.029 A 
ATOM     54  N   UNL A   1      42.012  29.269  33.435  1.00  0.00    -0.354 N 
ATOM     55  N   UNL A   1      42.783  27.656  31.095  1.00  0.00    -0.248 NA
ATOM     56  C   UNL A   1      44.235  26.148  30.058  1.00  0.00     0.031 C 
ATOM     57  C   UNL A   1      43.251  29.110  35.271  1.00  0.00     0.029 A 
ATOM     58  C   UNL A   1      43.109  28.625  33.979  1.00  0.00     0.049 A 
ATOM     59  H   UNL A   1      41.671  29.132  32.522  1.00  0.00     0.167 HD
ATOM     60  C   UNL A   1      43.757  27.261  32.007  1.00  0.00     0.074 A 
ATOM     61  C   UNL A   1      44.607  26.310  31.323  1.00  0.00     0.031 C 
ATOM     62  C   UNL A   1      43.928  27.652  33.295  1.00  0.00     0.034 A 
BRANCH  49  63
ATOM     63  C   UNL A   1      39.882  31.905  35.234  1.00  0.00     0.023 A 
ATOM     64  C   UNL A   1      39.007  31.457  36.240  1.00  0.00     0.031 A 
ATOM     65  C   UNL A   1      40.282  33.253  35.243  1.00  0.00     0.131 A 
ATOM     66  C   UNL A   1      38.555  32.356  37.212  1.00  0.00     0.055 A 
ATOM     67  C   UNL A   1      39.850  34.137  36.230  1.00  0.00     0.041 A 
ATOM     68  F   UNL A   1      41.122  33.720  34.305  1.00  0.00    -0.206 F 
ATOM     69  C   UNL A   1      38.978  33.691  37.218  1.00  0.00     0.022 A 
BRANCH  66  70
ATOM     70  S   UNL A   1      37.394  31.836  38.502  1.00  0.00     0.124 S 
ATOM     71  O   UNL A   1      37.110  30.456  38.115  1.00  0.00    -0.237 OA
ATOM     72  O   UNL A   1      38.194  31.992  39.713  1.00  0.00    -0.237 OA
ATOM     73  O   UNL A   1      36.274  32.761  38.361  1.00  0.00    -0.744 OA
ENDBRANCH  66  70
ENDBRANCH  49  63
BRANCH  50  74
ATOM     74  C   UNL A   1      42.668  26.142  27.543  1.00  0.00     0.023 A 
ATOM     75  C   UNL A   1      42.163  24.837  27.411  1.00  0.00     0.031 A 
ATOM     76  C   UNL A   1      43.638  26.576  26.623  1.00  0.00     0.131 A 
ATOM     77  C   UNL A   1      42.666  23.997  26.407  1.00  0.00     0.055 A 
ATOM     78  C   UNL A   1      44.097  25.755  25.593  1.00  0.00     0.041 A 
ATOM     79  F   UNL A   1      44.158  27.809  26.724  1.00  0.00    -0.206 F 
ATOM     80  C   UNL A   1      43.618  24.453  25.487  1.00  0.00     0.022 A 
BRANCH  77  81
ATOM     81  S   UNL A   1      42.158  22.259  26.308  1.00  0.00     0.124 S 
ATOM     82  O   UNL A   1      42.851  21.801  25.106  1.00  0.00    -0.237 OA
ATOM     83  O   UNL A   1      42.670  21.732  27.570  1.00  0.00    -0.237 OA
ATOM     84  O   UNL A   1      40.705  22.331  26.203  1.00  0.00    -0.744 OA
ENDBRANCH  77  81
ENDBRANCH  50  74
BRANCH  62  85
ATOM     85  C   UNL A   1      45.057  27.048  34.088  1.00  0.00     0.023 A 
ATOM     86  C   UNL A   1      44.801  25.973  34.960  1.00  0.00     0.031 A 
ATOM     87  C   UNL A   1      46.334  27.631  34.099  1.00  0.00     0.131 A 
ATOM     88  C   UNL A   1      45.801  25.537  35.835  1.00  0.00     0.055 A 
ATOM     89  C   UNL A   1      47.339  27.170  34.949  1.00  0.00     0.041 A 
ATOM     90  F   UNL A   1      46.618  28.665  33.290  1.00  0.00    -0.206 F 
ATOM     91  C   UNL A   1      47.071  26.126  35.831  1.00  0.00     0.022 A 
BRANCH  88  92
ATOM     92  S   UNL A   1      45.472  24.241  37.061  1.00  0.00     0.124 S 
ATOM     93  O   UNL A   1      46.704  24.249  37.847  1.00  0.00    -0.237 OA
ATOM     94  O   UNL A   1      44.291  24.759  37.746  1.00  0.00    -0.237 OA
ATOM     95  O   UNL A   1      45.258  23.042  36.258  1.00  0.00    -0.744 OA
ENDBRANCH  88  92
ENDBRANCH  62  85
ENDBRANCH  36  37
ENDBRANCH  28  31
ENDBRANCH  26  27
ENDBRANCH   1  26
TORSDOF 16
ENDMDL
MODEL 2
REMARK VINA RESULT:     -12.9      5.796     10.579
REMARK SMILES Nc1c(Cl)ccc2c1C=C(C(=O)NCCCCNC(=O)c1ccc(-c3c4nc(c(-c5cc(S(=O)(=O)[O-])ccc5F)c5ccc([nH]5)c(-c5cc(S(=O)(=O)[O-])ccc5F)c5nc(c(-c6cc(S(=O)(=O)[O-])ccc6F)c6ccc3[nH]6)C=C5)C=C4)cc1)[C@@H](C(F)(F)F)O2
REMARK SMILES IDX 16 1 15 2 14 3 13 4 11 5 12 6 10 8 2 9 3 10 8 11 4 12 5 13
REMARK SMILES IDX 7 14 9 15 6 16 89 17 84 18 1 19 85 22 86 23 87 24 88 25
REMARK SMILES IDX 17 26 18 27 19 28 20 30 21 31 22 32 83 33 23 34 82 35 24 36
REMARK SMILES IDX 25 37 26 38 76 39 27 40 81 41 75 42 77 43 28 44 80 45 74 46
REMARK SMILES IDX 73 47 29 49 61 50 41 51 60 52 42 53 45 54 59 55 78 56 43 57
REMARK SMILES IDX 44 58 58 60 79 61 46 62 30 63 31 64 39 65 32 66 38 67 40 68
REMARK SMILES IDX 37 69 33 70 34 71 35 72 36 73 62 74 63 75 71 76 64 77 70 78
REMARK SMILES IDX 72 79 69 80 65 81 66 82 67 83 68 84 47 85 48 86 56 87 49 88
REMARK SMILES IDX 55 89 57 90 54 91 50 92 51 93 52 94 53 95
REMARK H PARENT 13 7 1 20 1 21 18 29 77 48 45 59
REMARK Flexibility Score: inf
ROOT
ATOM      1  C   UNL A   1      35.275  21.816  26.372  1.00  0.00     0.023 C 
ENDROOT
BRANCH   1   2
ATOM      2  C   UNL A   1      34.534  22.906  27.151  1.00  0.00     0.023 C 
BRANCH   2   3
ATOM      3  C   UNL A   1      34.065  24.076  26.292  1.00  0.00     0.116 C 
BRANCH   3   4
ATOM      4  N   UNL A   1      32.620  24.118  26.178  1.00  0.00    -0.352 N 
ATOM      5  C   UNL A   1      31.660  23.431  25.517  1.00  0.00     0.251 C 
ATOM      6  O   UNL A   1      30.503  23.820  25.710  1.00  0.00    -0.270 OA
ATOM      7  H   UNL A   1      32.234  24.838  26.728  1.00  0.00     0.163 HD
BRANCH   5   8
ATOM      8  C   UNL A   1      31.898  22.268  24.609  1.00  0.00     0.067 C 
ATOM      9  C   UNL A   1      32.717  18.647  25.016  1.00  0.00     0.061 A 
ATOM     10  C   UNL A   1      32.963  17.553  24.154  1.00  0.00     0.064 A 
ATOM     11  C   UNL A   1      32.331  19.876  24.435  1.00  0.00     0.042 A 
ATOM     12  Cl  UNL A   1      33.472  16.022  24.790  1.00  0.00    -0.082 Cl
ATOM     13  C   UNL A   1      32.796  17.657  22.772  1.00  0.00     0.026 A 
ATOM     14  C   UNL A   1      32.182  19.967  23.043  1.00  0.00     0.130 A 
ATOM     15  C   UNL A   1      32.036  21.078  25.222  1.00  0.00     0.027 C 
ATOM     16  C   UNL A   1      32.396  18.866  22.216  1.00  0.00     0.049 A 
ATOM     17  O   UNL A   1      31.785  21.113  22.411  1.00  0.00    -0.475 OA
ATOM     18  C   UNL A   1      32.032  22.360  23.119  1.00  0.00     0.314 C 
BRANCH   9  19
ATOM     19  N   UNL A   1      32.957  18.518  26.387  1.00  0.00    -0.397 N 
ATOM     20  H   UNL A   1      33.880  18.524  26.728  1.00  0.00     0.156 HD
ATOM     21  H   UNL A   1      32.201  18.421  27.011  1.00  0.00     0.156 HD
ENDBRANCH   9  19
BRANCH  18  22
ATOM     22  C   UNL A   1      33.386  22.941  22.674  1.00  0.00     0.429 C 
ATOM     23  F   UNL A   1      33.499  22.891  21.322  1.00  0.00    -0.167 F 
ATOM     24  F   UNL A   1      33.539  24.238  23.024  1.00  0.00    -0.167 F 
ATOM     25  F   UNL A   1      34.438  22.264  23.190  1.00  0.00    -0.167 F 
ENDBRANCH  18  22
ENDBRANCH   5   8
ENDBRANCH   3   4
ENDBRANCH   2   3
ENDBRANCH   1   2
BRANCH   1  26
ATOM     26  C   UNL A   1      36.557  22.264  25.675  1.00  0.00     0.116 C 
BRANCH  26  27
ATOM     27  N   UNL A   1      37.561  21.211  25.565  1.00  0.00    -0.352 N 
ATOM     28  C   UNL A   1      38.881  21.275  25.943  1.00  0.00     0.251 C 
ATOM     29  H   UNL A   1      37.259  20.359  25.177  1.00  0.00     0.163 HD
ATOM     30  O   UNL A   1      39.644  20.336  25.751  1.00  0.00    -0.269 OA
BRANCH  28  31
ATOM     31  C   UNL A   1      39.357  22.528  26.552  1.00  0.00     0.039 A 
ATOM     32  C   UNL A   1      40.373  22.466  27.507  1.00  0.00     0.014 A 
ATOM     33  C   UNL A   1      38.885  23.753  26.070  1.00  0.00     0.014 A 
ATOM     34  C   UNL A   1      40.968  23.649  27.940  1.00  0.00     0.010 A 
ATOM     35  C   UNL A   1      39.514  24.927  26.469  1.00  0.00     0.010 A 
ATOM     36  C   UNL A   1      40.563  24.882  27.401  1.00  0.00    -0.014 A 
BRANCH  36  37
ATOM     37  C   UNL A   1      41.248  26.132  27.795  1.00  0.00     0.031 A 
ATOM     38  C   UNL A   1      42.645  26.401  27.326  1.00  0.00     0.074 A 
ATOM     39  C   UNL A   1      40.625  26.996  28.619  1.00  0.00     0.049 A 
ATOM     40  N   UNL A   1      43.384  27.460  27.518  1.00  0.00    -0.248 NA
ATOM     41  C   UNL A   1      43.306  25.333  26.561  1.00  0.00     0.031 C 
ATOM     42  C   UNL A   1      39.295  26.796  29.198  1.00  0.00     0.029 A 
ATOM     43  N   UNL A   1      41.025  28.211  29.115  1.00  0.00    -0.354 N 
ATOM     44  C   UNL A   1      44.598  27.186  26.905  1.00  0.00     0.074 A 
ATOM     45  C   UNL A   1      44.516  25.842  26.380  1.00  0.00     0.031 C 
ATOM     46  C   UNL A   1      38.980  27.863  29.950  1.00  0.00     0.029 A 
ATOM     47  C   UNL A   1      40.085  28.819  29.913  1.00  0.00     0.049 A 
ATOM     48  H   UNL A   1      41.904  28.610  28.918  1.00  0.00     0.167 HD
ATOM     49  C   UNL A   1      45.675  27.995  26.769  1.00  0.00     0.034 A 
ATOM     50  C   UNL A   1      40.102  30.021  30.523  1.00  0.00     0.034 A 
ATOM     51  C   UNL A   1      45.733  29.339  27.276  1.00  0.00     0.049 A 
ATOM     52  C   UNL A   1      41.285  30.929  30.309  1.00  0.00     0.074 A 
ATOM     53  C   UNL A   1      46.744  30.269  27.122  1.00  0.00     0.029 A 
ATOM     54  N   UNL A   1      44.738  29.945  28.030  1.00  0.00    -0.354 N 
ATOM     55  N   UNL A   1      42.374  30.711  29.610  1.00  0.00    -0.248 NA
ATOM     56  C   UNL A   1      41.235  32.255  30.941  1.00  0.00     0.031 C 
ATOM     57  C   UNL A   1      46.375  31.428  27.809  1.00  0.00     0.029 A 
ATOM     58  C   UNL A   1      45.117  31.234  28.360  1.00  0.00     0.049 A 
ATOM     59  H   UNL A   1      43.889  29.520  28.291  1.00  0.00     0.167 HD
ATOM     60  C   UNL A   1      43.121  31.881  29.688  1.00  0.00     0.074 A 
ATOM     61  C   UNL A   1      42.358  32.809  30.497  1.00  0.00     0.031 C 
ATOM     62  C   UNL A   1      44.330  32.160  29.138  1.00  0.00     0.034 A 
BRANCH  49  63
ATOM     63  C   UNL A   1      46.864  27.463  26.019  1.00  0.00     0.023 A 
ATOM     64  C   UNL A   1      47.053  27.792  24.665  1.00  0.00     0.031 A 
ATOM     65  C   UNL A   1      47.772  26.580  26.629  1.00  0.00     0.131 A 
ATOM     66  C   UNL A   1      48.125  27.232  23.962  1.00  0.00     0.055 A 
ATOM     67  C   UNL A   1      48.855  26.047  25.930  1.00  0.00     0.041 A 
ATOM     68  F   UNL A   1      47.634  26.245  27.922  1.00  0.00    -0.206 F 
ATOM     69  C   UNL A   1      49.032  26.368  24.588  1.00  0.00     0.022 A 
BRANCH  66  70
ATOM     70  S   UNL A   1      48.384  27.592  22.205  1.00  0.00     0.124 S 
ATOM     71  O   UNL A   1      47.120  28.226  21.836  1.00  0.00    -0.237 OA
ATOM     72  O   UNL A   1      49.540  28.482  22.243  1.00  0.00    -0.237 OA
ATOM     73  O   UNL A   1      48.615  26.281  21.608  1.00  0.00    -0.744 OA
ENDBRANCH  66  70
ENDBRANCH  49  63
BRANCH  50  74
ATOM     74  C   UNL A   1      38.901  30.462  31.284  1.00  0.00     0.023 A 
ATOM     75  C   UNL A   1      37.833  31.120  30.648  1.00  0.00     0.031 A 
ATOM     76  C   UNL A   1      38.859  30.322  32.682  1.00  0.00     0.131 A 
ATOM     77  C   UNL A   1      36.791  31.653  31.420  1.00  0.00     0.055 A 
ATOM     78  C   UNL A   1      37.793  30.808  33.440  1.00  0.00     0.041 A 
ATOM     79  F   UNL A   1      39.867  29.716  33.328  1.00  0.00    -0.206 F 
ATOM     80  C   UNL A   1      36.755  31.487  32.809  1.00  0.00     0.022 A 
BRANCH  77  81
ATOM     81  S   UNL A   1      35.481  32.647  30.653  1.00  0.00     0.124 S 
ATOM     82  O   UNL A   1      34.375  32.481  31.592  1.00  0.00    -0.237 OA
ATOM     83  O   UNL A   1      36.095  33.972  30.630  1.00  0.00    -0.237 OA
ATOM     84  O   UNL A   1      35.294  32.021  29.349  1.00  0.00    -0.744 OA
ENDBRANCH  77  81
ENDBRANCH  50  74
BRANCH  62  85
ATOM     85  C   UNL A   1      44.919  33.529  29.352  1.00  0.00     0.023 A 
ATOM     86  C   UNL A   1      44.782  34.512  28.354  1.00  0.00     0.031 A 
ATOM     87  C   UNL A   1      45.741  33.806  30.456  1.00  0.00     0.131 A 
ATOM     88  C   UNL A   1      45.488  35.715  28.463  1.00  0.00     0.055 A 
ATOM     89  C   UNL A   1      46.415  35.021  30.578  1.00  0.00     0.041 A 
ATOM     90  F   UNL A   1      45.908  32.892  31.427  1.00  0.00    -0.206 F 
ATOM     91  C   UNL A   1      46.300  35.977  29.572  1.00  0.00     0.022 A 
BRANCH  88  92
ATOM     92  S   UNL A   1      45.437  36.953  27.139  1.00  0.00     0.124 S 
ATOM     93  O   UNL A   1      46.168  38.068  27.738  1.00  0.00    -0.237 OA
ATOM     94  O   UNL A   1      46.129  36.268  26.050  1.00  0.00    -0.237 OA
ATOM     95  O   UNL A   1      44.013  37.188  26.929  1.00  0.00    -0.744 OA
ENDBRANCH  88  92
ENDBRANCH  62  85
ENDBRANCH  36  37
ENDBRANCH  28  31
ENDBRANCH  26  27
ENDBRANCH   1  26
TORSDOF 16
ENDMDL
MODEL 3
REMARK VINA RESULT:     -12.6      5.684     10.438
REMARK SMILES Nc1c(Cl)ccc2c1C=C(C(=O)NCCCCNC(=O)c1ccc(-c3c4nc(c(-c5cc(S(=O)(=O)[O-])ccc5F)c5ccc([nH]5)c(-c5cc(S(=O)(=O)[O-])ccc5F)c5nc(c(-c6cc(S(=O)(=O)[O-])ccc6F)c6ccc3[nH]6)C=C5)C=C4)cc1)[C@@H](C(F)(F)F)O2
REMARK SMILES IDX 16 1 15 2 14 3 13 4 11 5 12 6 10 8 2 9 3 10 8 11 4 12 5 13
REMARK SMILES IDX 7 14 9 15 6 16 89 17 84 18 1 19 85 22 86 23 87 24 88 25
REMARK SMILES IDX 17 26 18 27 19 28 20 30 21 31 22 32 83 33 23 34 82 35 24 36
REMARK SMILES IDX 25 37 26 38 76 39 27 40 81 41 75 42 77 43 28 44 80 45 74 46
REMARK SMILES IDX 73 47 29 49 61 50 41 51 60 52 42 53 45 54 59 55 78 56 43 57
REMARK SMILES IDX 44 58 58 60 79 61 46 62 30 63 31 64 39 65 32 66 38 67 40 68
REMARK SMILES IDX 37 69 33 70 34 71 35 72 36 73 62 74 63 75 71 76 64 77 70 78
REMARK SMILES IDX 72 79 69 80 65 81 66 82 67 83 68 84 47 85 48 86 56 87 49 88
REMARK SMILES IDX 55 89 57 90 54 91 50 92 51 93 52 94 53 95
REMARK H PARENT 13 7 1 20 1 21 18 29 77 48 45 59
REMARK Flexibility Score: inf
ROOT
ATOM      1  C   UNL A   1      35.507  21.885  26.021  1.00  0.00     0.023 C 
ENDROOT
BRANCH   1   2
ATOM      2  C   UNL A   1      34.843  22.957  26.890  1.00  0.00     0.023 C 
BRANCH   2   3
ATOM      3  C   UNL A   1      34.281  24.137  26.103  1.00  0.00     0.116 C 
BRANCH   3   4
ATOM      4  N   UNL A   1      32.830  24.157  26.122  1.00  0.00    -0.352 N 
ATOM      5  C   UNL A   1      31.824  23.456  25.549  1.00  0.00     0.251 C 
ATOM      6  O   UNL A   1      30.685  23.828  25.848  1.00  0.00    -0.270 OA
ATOM      7  H   UNL A   1      32.486  24.870  26.707  1.00  0.00     0.163 HD
BRANCH   5   8
ATOM      8  C   UNL A   1      31.995  22.300  24.619  1.00  0.00     0.067 C 
ATOM      9  C   UNL A   1      32.748  18.656  24.950  1.00  0.00     0.061 A 
ATOM     10  C   UNL A   1      32.931  17.568  24.066  1.00  0.00     0.064 A 
ATOM     11  C   UNL A   1      32.366  19.901  24.400  1.00  0.00     0.042 A 
ATOM     12  Cl  UNL A   1      33.432  16.018  24.662  1.00  0.00    -0.082 Cl
ATOM     13  C   UNL A   1      32.705  17.692  22.694  1.00  0.00     0.026 A 
ATOM     14  C   UNL A   1      32.158  20.011  23.017  1.00  0.00     0.130 A 
ATOM     15  C   UNL A   1      32.133  21.100  25.212  1.00  0.00     0.027 C 
ATOM     16  C   UNL A   1      32.309  18.916  22.169  1.00  0.00     0.049 A 
ATOM     17  O   UNL A   1      31.760  21.173  22.415  1.00  0.00    -0.475 OA
ATOM     18  C   UNL A   1      32.066  22.406  23.125  1.00  0.00     0.314 C 
BRANCH   9  19
ATOM     19  N   UNL A   1      33.044  18.506  26.307  1.00  0.00    -0.397 N 
ATOM     20  H   UNL A   1      33.213  17.610  26.678  1.00  0.00     0.156 HD
ATOM     21  H   UNL A   1      33.085  19.296  26.892  1.00  0.00     0.156 HD
ENDBRANCH   9  19
BRANCH  18  22
ATOM     22  C   UNL A   1      33.412  22.961  22.627  1.00  0.00     0.429 C 
ATOM     23  F   UNL A   1      33.468  22.918  21.271  1.00  0.00    -0.167 F 
ATOM     24  F   UNL A   1      33.607  24.253  22.978  1.00  0.00    -0.167 F 
ATOM     25  F   UNL A   1      34.470  22.260  23.095  1.00  0.00    -0.167 F 
ENDBRANCH  18  22
ENDBRANCH   5   8
ENDBRANCH   3   4
ENDBRANCH   2   3
ENDBRANCH   1   2
BRANCH   1  26
ATOM     26  C   UNL A   1      36.881  22.251  25.464  1.00  0.00     0.116 C 
BRANCH  26  27
ATOM     27  N   UNL A   1      37.855  21.170  25.556  1.00  0.00    -0.352 N 
ATOM     28  C   UNL A   1      39.122  21.232  26.085  1.00  0.00     0.251 C 
ATOM     29  H   UNL A   1      37.573  20.296  25.200  1.00  0.00     0.163 HD
ATOM     30  O   UNL A   1      39.872  20.263  26.058  1.00  0.00    -0.269 OA
BRANCH  28  31
ATOM     31  C   UNL A   1      39.564  22.517  26.650  1.00  0.00     0.039 A 
ATOM     32  C   UNL A   1      40.590  22.517  27.597  1.00  0.00     0.014 A 
ATOM     33  C   UNL A   1      39.050  23.711  26.136  1.00  0.00     0.014 A 
ATOM     34  C   UNL A   1      41.150  23.731  27.987  1.00  0.00     0.010 A 
ATOM     35  C   UNL A   1      39.644  24.917  26.492  1.00  0.00     0.010 A 
ATOM     36  C   UNL A   1      40.702  24.933  27.414  1.00  0.00    -0.014 A 
BRANCH  36  37
ATOM     37  C   UNL A   1      41.350  26.216  27.763  1.00  0.00     0.031 A 
ATOM     38  C   UNL A   1      42.729  26.520  27.262  1.00  0.00     0.074 A 
ATOM     39  C   UNL A   1      40.713  27.081  28.575  1.00  0.00     0.049 A 
ATOM     40  N   UNL A   1      43.435  27.608  27.413  1.00  0.00    -0.248 NA
ATOM     41  C   UNL A   1      43.414  25.454  26.514  1.00  0.00     0.031 C 
ATOM     42  C   UNL A   1      39.400  26.851  29.183  1.00  0.00     0.029 A 
ATOM     43  N   UNL A   1      41.079  28.321  29.031  1.00  0.00    -0.354 N 
ATOM     44  C   UNL A   1      44.647  27.359  26.786  1.00  0.00     0.074 A 
ATOM     45  C   UNL A   1      44.602  25.998  26.298  1.00  0.00     0.031 C 
ATOM     46  C   UNL A   1      39.062  27.927  29.912  1.00  0.00     0.029 A 
ATOM     47  C   UNL A   1      40.133  28.918  29.830  1.00  0.00     0.049 A 
ATOM     48  H   UNL A   1      41.940  28.744  28.808  1.00  0.00     0.167 HD
ATOM     49  C   UNL A   1      45.693  28.200  26.609  1.00  0.00     0.034 A 
ATOM     50  C   UNL A   1      40.118  30.137  30.407  1.00  0.00     0.034 A 
ATOM     51  C   UNL A   1      45.713  29.558  27.079  1.00  0.00     0.049 A 
ATOM     52  C   UNL A   1      41.266  31.078  30.148  1.00  0.00     0.074 A 
ATOM     53  C   UNL A   1      46.689  30.517  26.883  1.00  0.00     0.029 A 
ATOM     54  N   UNL A   1      44.712  30.150  27.835  1.00  0.00    -0.354 N 
ATOM     55  N   UNL A   1      42.350  30.878  29.437  1.00  0.00    -0.248 NA
ATOM     56  C   UNL A   1      41.181  32.418  30.746  1.00  0.00     0.031 C 
ATOM     57  C   UNL A   1      46.293  31.681  27.546  1.00  0.00     0.029 A 
ATOM     58  C   UNL A   1      45.052  31.459  28.124  1.00  0.00     0.049 A 
ATOM     59  H   UNL A   1      43.883  29.704  28.122  1.00  0.00     0.167 HD
ATOM     60  C   UNL A   1      43.058  32.074  29.470  1.00  0.00     0.074 A 
ATOM     61  C   UNL A   1      42.277  32.997  30.268  1.00  0.00     0.031 C 
ATOM     62  C   UNL A   1      44.247  32.379  28.891  1.00  0.00     0.034 A 
BRANCH  49  63
ATOM     63  C   UNL A   1      46.887  27.688  25.853  1.00  0.00     0.023 A 
ATOM     64  C   UNL A   1      47.024  27.958  24.480  1.00  0.00     0.031 A 
ATOM     65  C   UNL A   1      47.852  26.880  26.478  1.00  0.00     0.131 A 
ATOM     66  C   UNL A   1      48.104  27.416  23.774  1.00  0.00     0.055 A 
ATOM     67  C   UNL A   1      48.941  26.364  25.776  1.00  0.00     0.041 A 
ATOM     68  F   UNL A   1      47.763  26.603  27.789  1.00  0.00    -0.206 F 
ATOM     69  C   UNL A   1      49.067  26.627  24.415  1.00  0.00     0.022 A 
BRANCH  66  70
ATOM     70  S   UNL A   1      48.299  27.701  21.995  1.00  0.00     0.124 S 
ATOM     71  O   UNL A   1      47.009  28.284  21.639  1.00  0.00    -0.237 OA
ATOM     72  O   UNL A   1      49.432  28.620  21.956  1.00  0.00    -0.237 OA
ATOM     73  O   UNL A   1      48.547  26.369  21.451  1.00  0.00    -0.744 OA
ENDBRANCH  66  70
ENDBRANCH  49  63
BRANCH  50  74
ATOM     74  C   UNL A   1      38.916  30.558  31.178  1.00  0.00     0.023 A 
ATOM     75  C   UNL A   1      37.821  31.173  30.547  1.00  0.00     0.031 A 
ATOM     76  C   UNL A   1      38.898  30.442  32.579  1.00  0.00     0.131 A 
ATOM     77  C   UNL A   1      36.775  31.690  31.323  1.00  0.00     0.055 A 
ATOM     78  C   UNL A   1      37.830  30.911  33.343  1.00  0.00     0.041 A 
ATOM     79  F   UNL A   1      39.932  29.876  33.221  1.00  0.00    -0.206 F 
ATOM     80  C   UNL A   1      36.764  31.549  32.716  1.00  0.00     0.022 A 
BRANCH  77  81
ATOM     81  S   UNL A   1      35.426  32.632  30.558  1.00  0.00     0.124 S 
ATOM     82  O   UNL A   1      35.238  31.931  29.291  1.00  0.00    -0.237 OA
ATOM     83  O   UNL A   1      34.358  32.461  31.538  1.00  0.00    -0.237 OA
ATOM     84  O   UNL A   1      35.968  33.982  30.451  1.00  0.00    -0.744 OA
ENDBRANCH  77  81
ENDBRANCH  50  74
BRANCH  62  85
ATOM     85  C   UNL A   1      44.793  33.773  29.058  1.00  0.00     0.023 A 
ATOM     86  C   UNL A   1      45.552  34.093  30.200  1.00  0.00     0.031 A 
ATOM     87  C   UNL A   1      44.432  34.808  28.181  1.00  0.00     0.131 A 
ATOM     88  C   UNL A   1      45.895  35.426  30.452  1.00  0.00     0.055 A 
ATOM     89  C   UNL A   1      44.808  36.129  28.419  1.00  0.00     0.041 A 
ATOM     90  F   UNL A   1      43.700  34.547  27.085  1.00  0.00    -0.206 F 
ATOM     91  C   UNL A   1      45.532  36.445  29.565  1.00  0.00     0.022 A 
BRANCH  88  92
ATOM     92  S   UNL A   1      46.762  35.895  31.974  1.00  0.00     0.124 S 
ATOM     93  O   UNL A   1      46.446  34.777  32.860  1.00  0.00    -0.237 OA
ATOM     94  O   UNL A   1      48.151  35.965  31.529  1.00  0.00    -0.237 OA
ATOM     95  O   UNL A   1      46.158  37.170  32.346  1.00  0.00    -0.744 OA
ENDBRANCH  88  92
ENDBRANCH  62  85
ENDBRANCH  36  37
ENDBRANCH  28  31
ENDBRANCH  26  27
ENDBRANCH   1  26
TORSDOF 16
ENDMDL
