MODEL 1
REMARK VINA RESULT:     -11.2      0.000      0.000
REMARK SMILES C[C@@H]1CCC[C@](C#N)([C@H](O)C(=O)NCCCCNC(=O)c2ccc(-c3c4nc(c(-c5cc(S(=O)(=O)[O-])ccc5F)c5ccc([nH]5)c(-c5cc(S(=O)(=O)[O-])ccc5F)c5nc(c(-c6cc(S(=O)(=O)[O-])ccc6F)c6ccc3[nH]6)C=C5)C=C4)cc2)C1
REMARK SMILES IDX 16 1 15 2 14 3 13 4 11 5 12 6 9 8 6 9 1 10 2 11 3 12 84 13
REMARK SMILES IDX 4 14 5 15 7 16 8 17 10 18 17 20 18 21 19 22 20 24 21 25
REMARK SMILES IDX 22 26 83 27 23 28 82 29 24 30 25 31 26 32 76 33 27 34 81 35
REMARK SMILES IDX 75 36 77 37 28 38 80 39 74 40 73 41 29 43 61 44 41 45 60 46
REMARK SMILES IDX 42 47 45 48 59 49 78 50 43 51 44 52 58 54 79 55 46 56 30 57
REMARK SMILES IDX 31 58 39 59 32 60 38 61 40 62 37 63 33 64 34 65 35 66 36 67
REMARK SMILES IDX 62 68 63 69 71 70 64 71 70 72 72 73 69 74 65 75 66 76 67 77
REMARK SMILES IDX 68 78 47 79 48 80 56 81 49 82 55 83 57 84 54 85 50 86 51 87
REMARK SMILES IDX 52 88 53 89
REMARK H PARENT 13 7 10 19 18 23 77 42 45 53
REMARK Flexibility Score: inf
ROOT
ATOM      1  C   UNL A   1      30.977  31.998  26.221  1.00  0.00     0.023 C 
ENDROOT
BRANCH   1   2
ATOM      2  C   UNL A   1      31.094  30.722  25.409  1.00  0.00     0.023 C 
BRANCH   2   3
ATOM      3  C   UNL A   1      32.298  29.850  25.751  1.00  0.00     0.116 C 
BRANCH   3   4
ATOM      4  N   UNL A   1      33.169  29.531  24.637  1.00  0.00    -0.354 N 
ATOM      5  C   UNL A   1      33.084  28.853  23.464  1.00  0.00     0.250 C 
ATOM      6  O   UNL A   1      34.016  29.127  22.687  1.00  0.00    -0.272 OA
ATOM      7  H   UNL A   1      34.067  29.910  24.765  1.00  0.00     0.163 HD
BRANCH   5   8
ATOM      8  C   UNL A   1      32.087  27.704  23.028  1.00  0.00     0.223 C 
BRANCH   8   9
ATOM      9  C   UNL A   1      32.432  26.175  23.013  1.00  0.00     0.092 C 
ATOM     10  C   UNL A   1      30.685  26.405  25.799  1.00  0.00     0.008 C 
ATOM     11  C   UNL A   1      31.147  25.143  25.055  1.00  0.00    -0.013 C 
ATOM     12  C   UNL A   1      32.453  24.664  25.685  1.00  0.00     0.003 C 
ATOM     13  C   UNL A   1      31.381  25.183  23.525  1.00  0.00     0.029 C 
ATOM     14  C   UNL A   1      33.610  25.595  25.315  1.00  0.00     0.002 C 
ATOM     15  C   UNL A   1      33.752  25.852  23.804  1.00  0.00     0.025 C 
BRANCH   9  16
ATOM     16  C   UNL A   1      32.694  25.831  21.585  1.00  0.00     0.072 C 
ATOM     17  N   UNL A   1      32.905  25.536  20.480  1.00  0.00    -0.198 NA
ENDBRANCH   9  16
ENDBRANCH   8   9
BRANCH   8  18
ATOM     18  O   UNL A   1      31.172  28.067  21.990  1.00  0.00    -0.382 OA
ATOM     19  H   UNL A   1      30.595  28.782  22.303  1.00  0.00     0.211 HD
ENDBRANCH   8  18
ENDBRANCH   5   8
ENDBRANCH   3   4
ENDBRANCH   2   3
ENDBRANCH   1   2
BRANCH   1  20
ATOM     20  C   UNL A   1      32.281  32.492  26.831  1.00  0.00     0.116 C 
BRANCH  20  21
ATOM     21  N   UNL A   1      32.218  33.824  27.427  1.00  0.00    -0.352 N 
ATOM     22  C   UNL A   1      33.135  34.394  28.289  1.00  0.00     0.251 C 
ATOM     23  H   UNL A   1      31.436  34.374  27.190  1.00  0.00     0.163 HD
ATOM     24  O   UNL A   1      32.937  35.498  28.785  1.00  0.00    -0.269 OA
BRANCH  22  25
ATOM     25  C   UNL A   1      34.334  33.602  28.632  1.00  0.00     0.039 A 
ATOM     26  C   UNL A   1      35.595  34.191  28.524  1.00  0.00     0.014 A 
ATOM     27  C   UNL A   1      34.173  32.360  29.249  1.00  0.00     0.014 A 
ATOM     28  C   UNL A   1      36.687  33.567  29.129  1.00  0.00     0.010 A 
ATOM     29  C   UNL A   1      35.232  31.819  29.961  1.00  0.00     0.010 A 
ATOM     30  C   UNL A   1      36.505  32.407  29.903  1.00  0.00    -0.014 A 
BRANCH  30  31
ATOM     31  C   UNL A   1      37.632  31.773  30.636  1.00  0.00     0.031 A 
ATOM     32  C   UNL A   1      38.465  30.725  29.947  1.00  0.00     0.074 A 
ATOM     33  C   UNL A   1      37.869  32.086  31.926  1.00  0.00     0.049 A 
ATOM     34  N   UNL A   1      39.449  30.005  30.419  1.00  0.00    -0.248 NA
ATOM     35  C   UNL A   1      38.110  30.416  28.555  1.00  0.00     0.031 C 
ATOM     36  C   UNL A   1      37.104  33.051  32.719  1.00  0.00     0.029 A 
ATOM     37  N   UNL A   1      38.826  31.628  32.798  1.00  0.00    -0.354 N 
ATOM     38  C   UNL A   1      39.817  29.150  29.385  1.00  0.00     0.074 A 
ATOM     39  C   UNL A   1      38.881  29.373  28.305  1.00  0.00     0.031 C 
ATOM     40  C   UNL A   1      37.658  33.155  33.938  1.00  0.00     0.029 A 
ATOM     41  C   UNL A   1      38.777  32.225  34.038  1.00  0.00     0.049 A 
ATOM     42  H   UNL A   1      39.485  30.937  32.559  1.00  0.00     0.167 HD
ATOM     43  C   UNL A   1      40.861  28.288  29.323  1.00  0.00     0.034 A 
ATOM     44  C   UNL A   1      39.546  32.040  35.129  1.00  0.00     0.034 A 
ATOM     45  C   UNL A   1      41.784  28.084  30.409  1.00  0.00     0.049 A 
ATOM     46  C   UNL A   1      40.668  31.034  35.064  1.00  0.00     0.074 A 
ATOM     47  C   UNL A   1      42.905  27.275  30.448  1.00  0.00     0.029 A 
ATOM     48  N   UNL A   1      41.683  28.680  31.662  1.00  0.00    -0.354 N 
ATOM     49  N   UNL A   1      41.041  30.272  34.060  1.00  0.00    -0.248 NA
ATOM     50  C   UNL A   1      41.476  30.866  36.279  1.00  0.00     0.031 C 
ATOM     51  C   UNL A   1      43.423  27.309  31.746  1.00  0.00     0.029 A 
ATOM     52  C   UNL A   1      42.693  28.220  32.492  1.00  0.00     0.049 A 
ATOM     53  H   UNL A   1      40.994  29.335  31.920  1.00  0.00     0.167 HD
ATOM     54  C   UNL A   1      42.151  29.563  34.513  1.00  0.00     0.074 A 
ATOM     55  C   UNL A   1      42.390  29.995  35.875  1.00  0.00     0.031 C 
ATOM     56  C   UNL A   1      42.910  28.646  33.856  1.00  0.00     0.034 A 
BRANCH  43  57
ATOM     57  C   UNL A   1      41.018  27.489  28.048  1.00  0.00     0.023 A 
ATOM     58  C   UNL A   1      40.644  26.133  27.976  1.00  0.00     0.031 A 
ATOM     59  C   UNL A   1      41.625  28.060  26.916  1.00  0.00     0.131 A 
ATOM     60  C   UNL A   1      40.993  25.368  26.853  1.00  0.00     0.055 A 
ATOM     61  C   UNL A   1      41.865  27.319  25.756  1.00  0.00     0.041 A 
ATOM     62  F   UNL A   1      42.026  29.340  26.928  1.00  0.00    -0.206 F 
ATOM     63  C   UNL A   1      41.573  25.958  25.729  1.00  0.00     0.022 A 
BRANCH  60  64
ATOM     64  S   UNL A   1      40.881  23.560  26.976  1.00  0.00     0.124 S 
ATOM     65  O   UNL A   1      41.834  23.136  25.953  1.00  0.00    -0.237 OA
ATOM     66  O   UNL A   1      41.274  23.313  28.358  1.00  0.00    -0.237 OA
ATOM     67  O   UNL A   1      39.481  23.283  26.664  1.00  0.00    -0.744 OA
ENDBRANCH  60  64
ENDBRANCH  43  57
BRANCH  44  68
ATOM     68  C   UNL A   1      39.298  32.831  36.369  1.00  0.00     0.023 A 
ATOM     69  C   UNL A   1      38.444  32.348  37.374  1.00  0.00     0.031 A 
ATOM     70  C   UNL A   1      39.895  34.090  36.562  1.00  0.00     0.131 A 
ATOM     71  C   UNL A   1      38.184  33.132  38.509  1.00  0.00     0.055 A 
ATOM     72  C   UNL A   1      39.677  34.841  37.718  1.00  0.00     0.041 A 
ATOM     73  F   UNL A   1      40.720  34.600  35.633  1.00  0.00    -0.206 F 
ATOM     74  C   UNL A   1      38.809  34.366  38.696  1.00  0.00     0.022 A 
BRANCH  71  75
ATOM     75  S   UNL A   1      36.959  32.544  39.711  1.00  0.00     0.124 S 
ATOM     76  O   UNL A   1      35.718  32.679  38.959  1.00  0.00    -0.237 OA
ATOM     77  O   UNL A   1      37.412  31.179  39.964  1.00  0.00    -0.237 OA
ATOM     78  O   UNL A   1      37.114  33.466  40.833  1.00  0.00    -0.744 OA
ENDBRANCH  71  75
ENDBRANCH  44  68
BRANCH  56  79
ATOM     79  C   UNL A   1      44.103  28.083  34.592  1.00  0.00     0.023 A 
ATOM     80  C   UNL A   1      44.020  26.911  35.363  1.00  0.00     0.031 A 
ATOM     81  C   UNL A   1      45.348  28.736  34.517  1.00  0.00     0.131 A 
ATOM     82  C   UNL A   1      45.142  26.462  36.076  1.00  0.00     0.055 A 
ATOM     83  C   UNL A   1      46.480  28.241  35.165  1.00  0.00     0.041 A 
ATOM     84  F   UNL A   1      45.488  29.864  33.802  1.00  0.00    -0.206 F 
ATOM     85  C   UNL A   1      46.378  27.106  35.962  1.00  0.00     0.022 A 
BRANCH  82  86
ATOM     86  S   UNL A   1      44.939  25.091  37.244  1.00  0.00     0.124 S 
ATOM     87  O   UNL A   1      45.770  24.055  36.641  1.00  0.00    -0.237 OA
ATOM     88  O   UNL A   1      45.438  25.665  38.490  1.00  0.00    -0.237 OA
ATOM     89  O   UNL A   1      43.501  24.828  37.216  1.00  0.00    -0.744 OA
ENDBRANCH  82  86
ENDBRANCH  56  79
ENDBRANCH  30  31
ENDBRANCH  22  25
ENDBRANCH  20  21
ENDBRANCH   1  20
TORSDOF 17
ENDMDL
MODEL 2
REMARK VINA RESULT:     -11.2      5.477     10.817
REMARK SMILES C[C@@H]1CCC[C@](C#N)([C@H](O)C(=O)NCCCCNC(=O)c2ccc(-c3c4nc(c(-c5cc(S(=O)(=O)[O-])ccc5F)c5ccc([nH]5)c(-c5cc(S(=O)(=O)[O-])ccc5F)c5nc(c(-c6cc(S(=O)(=O)[O-])ccc6F)c6ccc3[nH]6)C=C5)C=C4)cc2)C1
REMARK SMILES IDX 16 1 15 2 14 3 13 4 11 5 12 6 9 8 6 9 1 10 2 11 3 12 84 13
REMARK SMILES IDX 4 14 5 15 7 16 8 17 10 18 17 20 18 21 19 22 20 24 21 25
REMARK SMILES IDX 22 26 83 27 23 28 82 29 24 30 25 31 26 32 76 33 27 34 81 35
REMARK SMILES IDX 75 36 77 37 28 38 80 39 74 40 73 41 29 43 61 44 41 45 60 46
REMARK SMILES IDX 42 47 45 48 59 49 78 50 43 51 44 52 58 54 79 55 46 56 30 57
REMARK SMILES IDX 31 58 39 59 32 60 38 61 40 62 37 63 33 64 34 65 35 66 36 67
REMARK SMILES IDX 62 68 63 69 71 70 64 71 70 72 72 73 69 74 65 75 66 76 67 77
REMARK SMILES IDX 68 78 47 79 48 80 56 81 49 82 55 83 57 84 54 85 50 86 51 87
REMARK SMILES IDX 52 88 53 89
REMARK H PARENT 13 7 10 19 18 23 77 42 45 53
REMARK Flexibility Score: inf
ROOT
ATOM      1  C   UNL A   1      36.513  22.453  23.777  1.00  0.00     0.023 C 
ENDROOT
BRANCH   1   2
ATOM      2  C   UNL A   1      35.480  23.558  23.657  1.00  0.00     0.023 C 
BRANCH   2   3
ATOM      3  C   UNL A   1      34.059  23.081  23.373  1.00  0.00     0.116 C 
BRANCH   3   4
ATOM      4  N   UNL A   1      33.196  24.055  22.733  1.00  0.00    -0.354 N 
ATOM      5  C   UNL A   1      32.259  24.960  23.109  1.00  0.00     0.250 C 
ATOM      6  O   UNL A   1      32.019  25.796  22.220  1.00  0.00    -0.272 OA
ATOM      7  H   UNL A   1      33.326  24.061  21.757  1.00  0.00     0.163 HD
BRANCH   5   8
ATOM      8  C   UNL A   1      31.364  25.009  24.413  1.00  0.00     0.223 C 
BRANCH   8   9
ATOM      9  C   UNL A   1      31.863  25.467  25.827  1.00  0.00     0.092 C 
ATOM     10  C   UNL A   1      31.187  28.371  24.420  1.00  0.00     0.008 C 
ATOM     11  C   UNL A   1      31.508  28.066  25.891  1.00  0.00    -0.013 C 
ATOM     12  C   UNL A   1      32.999  28.303  26.118  1.00  0.00     0.003 C 
ATOM     13  C   UNL A   1      31.185  26.674  26.486  1.00  0.00     0.029 C 
ATOM     14  C   UNL A   1      33.832  27.201  25.459  1.00  0.00     0.002 C 
ATOM     15  C   UNL A   1      33.404  25.774  25.846  1.00  0.00     0.025 C 
BRANCH   9  16
ATOM     16  C   UNL A   1      31.647  24.300  26.732  1.00  0.00     0.072 C 
ATOM     17  N   UNL A   1      31.507  23.394  27.447  1.00  0.00    -0.198 NA
ENDBRANCH   9  16
ENDBRANCH   8   9
BRANCH   8  18
ATOM     18  O   UNL A   1      30.364  23.989  24.492  1.00  0.00    -0.382 OA
ATOM     19  H   UNL A   1      29.485  24.390  24.391  1.00  0.00     0.211 HD
ENDBRANCH   8  18
ENDBRANCH   5   8
ENDBRANCH   3   4
ENDBRANCH   2   3
ENDBRANCH   1   2
BRANCH   1  20
ATOM     20  C   UNL A   1      36.817  22.011  25.201  1.00  0.00     0.116 C 
BRANCH  20  21
ATOM     21  N   UNL A   1      37.735  20.881  25.314  1.00  0.00    -0.352 N 
ATOM     22  C   UNL A   1      38.981  20.877  25.914  1.00  0.00     0.251 C 
ATOM     23  H   UNL A   1      37.435  20.030  24.920  1.00  0.00     0.163 HD
ATOM     24  O   UNL A   1      39.695  19.882  25.882  1.00  0.00    -0.269 OA
BRANCH  22  25
ATOM     25  C   UNL A   1      39.438  22.132  26.544  1.00  0.00     0.039 A 
ATOM     26  C   UNL A   1      40.547  22.107  27.390  1.00  0.00     0.014 A 
ATOM     27  C   UNL A   1      38.885  23.343  26.124  1.00  0.00     0.014 A 
ATOM     28  C   UNL A   1      41.164  23.310  27.737  1.00  0.00     0.010 A 
ATOM     29  C   UNL A   1      39.580  24.520  26.360  1.00  0.00     0.010 A 
ATOM     30  C   UNL A   1      40.721  24.522  27.177  1.00  0.00    -0.014 A 
BRANCH  30  31
ATOM     31  C   UNL A   1      41.414  25.808  27.452  1.00  0.00     0.031 A 
ATOM     32  C   UNL A   1      40.722  26.857  28.280  1.00  0.00     0.074 A 
ATOM     33  C   UNL A   1      42.625  26.060  26.915  1.00  0.00     0.049 A 
ATOM     34  N   UNL A   1      41.117  28.065  28.588  1.00  0.00    -0.248 NA
ATOM     35  C   UNL A   1      39.387  26.515  28.791  1.00  0.00     0.031 C 
ATOM     36  C   UNL A   1      43.379  25.143  26.058  1.00  0.00     0.029 A 
ATOM     37  N   UNL A   1      43.438  27.161  27.014  1.00  0.00    -0.354 N 
ATOM     38  C   UNL A   1      40.071  28.628  29.313  1.00  0.00     0.074 A 
ATOM     39  C   UNL A   1      38.992  27.665  29.305  1.00  0.00     0.031 C 
ATOM     40  C   UNL A   1      44.566  25.695  25.760  1.00  0.00     0.029 A 
ATOM     41  C   UNL A   1      44.637  27.027  26.351  1.00  0.00     0.049 A 
ATOM     42  H   UNL A   1      43.187  27.972  27.513  1.00  0.00     0.167 HD
ATOM     43  C   UNL A   1      40.026  29.817  29.960  1.00  0.00     0.034 A 
ATOM     44  C   UNL A   1      45.673  27.882  26.233  1.00  0.00     0.034 A 
ATOM     45  C   UNL A   1      41.115  30.760  29.958  1.00  0.00     0.049 A 
ATOM     46  C   UNL A   1      45.584  29.227  26.910  1.00  0.00     0.074 A 
ATOM     47  C   UNL A   1      41.205  31.974  30.615  1.00  0.00     0.029 A 
ATOM     48  N   UNL A   1      42.300  30.606  29.247  1.00  0.00    -0.354 N 
ATOM     49  N   UNL A   1      44.612  29.724  27.641  1.00  0.00    -0.248 NA
ATOM     50  C   UNL A   1      46.736  30.124  26.751  1.00  0.00     0.031 C 
ATOM     51  C   UNL A   1      42.398  32.593  30.227  1.00  0.00     0.029 A 
ATOM     52  C   UNL A   1      43.105  31.722  29.412  1.00  0.00     0.049 A 
ATOM     53  H   UNL A   1      42.533  29.816  28.706  1.00  0.00     0.167 HD
ATOM     54  C   UNL A   1      45.053  30.977  28.059  1.00  0.00     0.074 A 
ATOM     55  C   UNL A   1      46.380  31.154  27.505  1.00  0.00     0.031 C 
ATOM     56  C   UNL A   1      44.421  31.894  28.839  1.00  0.00     0.034 A 
BRANCH  43  57
ATOM     57  C   UNL A   1      38.742  30.159  30.684  1.00  0.00     0.023 A 
ATOM     58  C   UNL A   1      37.705  30.872  30.051  1.00  0.00     0.031 A 
ATOM     59  C   UNL A   1      38.583  29.846  32.044  1.00  0.00     0.131 A 
ATOM     60  C   UNL A   1      36.624  31.353  30.803  1.00  0.00     0.055 A 
ATOM     61  C   UNL A   1      37.447  30.230  32.761  1.00  0.00     0.041 A 
ATOM     62  F   UNL A   1      39.544  29.191  32.713  1.00  0.00    -0.206 F 
ATOM     63  C   UNL A   1      36.471  31.010  32.148  1.00  0.00     0.022 A 
BRANCH  60  64
ATOM     64  S   UNL A   1      35.548  32.609  30.055  1.00  0.00     0.124 S 
ATOM     65  O   UNL A   1      35.362  32.072  28.708  1.00  0.00    -0.237 OA
ATOM     66  O   UNL A   1      34.376  32.578  30.922  1.00  0.00    -0.237 OA
ATOM     67  O   UNL A   1      36.348  33.829  30.125  1.00  0.00    -0.744 OA
ENDBRANCH  60  64
ENDBRANCH  43  57
BRANCH  44  68
ATOM     68  C   UNL A   1      46.887  27.492  25.460  1.00  0.00     0.023 A 
ATOM     69  C   UNL A   1      47.040  27.875  24.117  1.00  0.00     0.031 A 
ATOM     70  C   UNL A   1      47.905  26.717  26.044  1.00  0.00     0.131 A 
ATOM     71  C   UNL A   1      48.167  27.454  23.393  1.00  0.00     0.055 A 
ATOM     72  C   UNL A   1      49.050  26.348  25.336  1.00  0.00     0.041 A 
ATOM     73  F   UNL A   1      47.810  26.324  27.324  1.00  0.00    -0.206 F 
ATOM     74  C   UNL A   1      49.181  26.709  23.998  1.00  0.00     0.022 A 
BRANCH  71  75
ATOM     75  S   UNL A   1      48.257  27.836  21.622  1.00  0.00     0.124 S 
ATOM     76  O   UNL A   1      49.348  28.802  21.583  1.00  0.00    -0.237 OA
ATOM     77  O   UNL A   1      48.537  26.526  21.042  1.00  0.00    -0.237 OA
ATOM     78  O   UNL A   1      46.933  28.376  21.323  1.00  0.00    -0.744 OA
ENDBRANCH  71  75
ENDBRANCH  44  68
BRANCH  56  79
ATOM     79  C   UNL A   1      45.182  33.154  29.180  1.00  0.00     0.023 A 
ATOM     80  C   UNL A   1      45.092  34.316  28.394  1.00  0.00     0.031 A 
ATOM     81  C   UNL A   1      46.014  33.188  30.315  1.00  0.00     0.131 A 
ATOM     82  C   UNL A   1      45.865  35.441  28.719  1.00  0.00     0.055 A 
ATOM     83  C   UNL A   1      46.720  34.336  30.676  1.00  0.00     0.041 A 
ATOM     84  F   UNL A   1      46.147  32.106  31.099  1.00  0.00    -0.206 F 
ATOM     85  C   UNL A   1      46.660  35.466  29.868  1.00  0.00     0.022 A 
BRANCH  82  86
ATOM     86  S   UNL A   1      45.907  36.831  27.556  1.00  0.00     0.124 S 
ATOM     87  O   UNL A   1      46.764  36.312  26.496  1.00  0.00    -0.237 OA
ATOM     88  O   UNL A   1      44.498  36.996  27.215  1.00  0.00    -0.237 OA
ATOM     89  O   UNL A   1      46.485  37.919  28.344  1.00  0.00    -0.744 OA
ENDBRANCH  82  86
ENDBRANCH  56  79
ENDBRANCH  30  31
ENDBRANCH  22  25
ENDBRANCH  20  21
ENDBRANCH   1  20
TORSDOF 17
ENDMDL
MODEL 3
REMARK VINA RESULT:     -11.1      2.215      8.143
REMARK SMILES C[C@@H]1CCC[C@](C#N)([C@H](O)C(=O)NCCCCNC(=O)c2ccc(-c3c4nc(c(-c5cc(S(=O)(=O)[O-])ccc5F)c5ccc([nH]5)c(-c5cc(S(=O)(=O)[O-])ccc5F)c5nc(c(-c6cc(S(=O)(=O)[O-])ccc6F)c6ccc3[nH]6)C=C5)C=C4)cc2)C1
REMARK SMILES IDX 16 1 15 2 14 3 13 4 11 5 12 6 9 8 6 9 1 10 2 11 3 12 84 13
REMARK SMILES IDX 4 14 5 15 7 16 8 17 10 18 17 20 18 21 19 22 20 24 21 25
REMARK SMILES IDX 22 26 83 27 23 28 82 29 24 30 25 31 26 32 76 33 27 34 81 35
REMARK SMILES IDX 75 36 77 37 28 38 80 39 74 40 73 41 29 43 61 44 41 45 60 46
REMARK SMILES IDX 42 47 45 48 59 49 78 50 43 51 44 52 58 54 79 55 46 56 30 57
REMARK SMILES IDX 31 58 39 59 32 60 38 61 40 62 37 63 33 64 34 65 35 66 36 67
REMARK SMILES IDX 62 68 63 69 71 70 64 71 70 72 72 73 69 74 65 75 66 76 67 77
REMARK SMILES IDX 68 78 47 79 48 80 56 81 49 82 55 83 57 84 54 85 50 86 51 87
REMARK SMILES IDX 52 88 53 89
REMARK H PARENT 13 7 10 19 18 23 77 42 45 53
REMARK Flexibility Score: inf
ROOT
ATOM      1  C   UNL A   1      31.645  28.731  26.034  1.00  0.00     0.023 C 
ENDROOT
BRANCH   1   2
ATOM      2  C   UNL A   1      31.604  27.894  24.769  1.00  0.00     0.023 C 
BRANCH   2   3
ATOM      3  C   UNL A   1      30.402  26.961  24.654  1.00  0.00     0.116 C 
BRANCH   3   4
ATOM      4  N   UNL A   1      30.570  25.656  25.264  1.00  0.00    -0.354 N 
ATOM      5  C   UNL A   1      31.340  24.556  25.075  1.00  0.00     0.250 C 
ATOM      6  O   UNL A   1      31.341  23.799  26.062  1.00  0.00    -0.272 OA
ATOM      7  H   UNL A   1      29.957  25.536  26.025  1.00  0.00     0.163 HD
BRANCH   5   8
ATOM      8  C   UNL A   1      32.088  24.056  23.773  1.00  0.00     0.223 C 
BRANCH   8   9
ATOM      9  C   UNL A   1      33.557  24.438  23.380  1.00  0.00     0.092 C 
ATOM     10  C   UNL A   1      34.045  21.587  24.960  1.00  0.00     0.008 C 
ATOM     11  C   UNL A   1      35.036  22.400  24.114  1.00  0.00    -0.013 C 
ATOM     12  C   UNL A   1      35.856  23.283  25.052  1.00  0.00     0.003 C 
ATOM     13  C   UNL A   1      34.522  23.317  22.979  1.00  0.00     0.029 C 
ATOM     14  C   UNL A   1      35.008  24.434  25.597  1.00  0.00     0.002 C 
ATOM     15  C   UNL A   1      34.286  25.252  24.511  1.00  0.00     0.025 C 
BRANCH   9  16
ATOM     16  C   UNL A   1      33.439  25.351  22.204  1.00  0.00     0.072 C 
ATOM     17  N   UNL A   1      33.319  26.065  21.295  1.00  0.00    -0.198 NA
ENDBRANCH   9  16
ENDBRANCH   8   9
BRANCH   8  18
ATOM     18  O   UNL A   1      31.248  23.876  22.631  1.00  0.00    -0.382 OA
ATOM     19  H   UNL A   1      30.330  23.752  22.921  1.00  0.00     0.211 HD
ENDBRANCH   8  18
ENDBRANCH   5   8
ENDBRANCH   3   4
ENDBRANCH   2   3
ENDBRANCH   1   2
BRANCH   1  20
ATOM     20  C   UNL A   1      32.841  29.666  26.145  1.00  0.00     0.116 C 
BRANCH  20  21
ATOM     21  N   UNL A   1      32.526  31.021  26.588  1.00  0.00    -0.352 N 
ATOM     22  C   UNL A   1      33.331  31.862  27.332  1.00  0.00     0.251 C 
ATOM     23  H   UNL A   1      31.643  31.373  26.330  1.00  0.00     0.163 HD
ATOM     24  O   UNL A   1      32.927  32.956  27.709  1.00  0.00    -0.269 OA
BRANCH  22  25
ATOM     25  C   UNL A   1      34.674  31.371  27.701  1.00  0.00     0.039 A 
ATOM     26  C   UNL A   1      35.697  32.290  27.937  1.00  0.00     0.014 A 
ATOM     27  C   UNL A   1      34.841  30.019  28.008  1.00  0.00     0.014 A 
ATOM     28  C   UNL A   1      36.861  31.860  28.576  1.00  0.00     0.010 A 
ATOM     29  C   UNL A   1      35.938  29.629  28.762  1.00  0.00     0.010 A 
ATOM     30  C   UNL A   1      36.967  30.540  29.047  1.00  0.00    -0.014 A 
BRANCH  30  31
ATOM     31  C   UNL A   1      38.153  30.076  29.813  1.00  0.00     0.031 A 
ATOM     32  C   UNL A   1      38.361  30.563  31.221  1.00  0.00     0.074 A 
ATOM     33  C   UNL A   1      39.070  29.275  29.232  1.00  0.00     0.049 A 
ATOM     34  N   UNL A   1      39.353  30.335  32.041  1.00  0.00    -0.248 NA
ATOM     35  C   UNL A   1      37.334  31.467  31.760  1.00  0.00     0.031 C 
ATOM     36  C   UNL A   1      39.007  28.771  27.858  1.00  0.00     0.029 A 
ATOM     37  N   UNL A   1      40.233  28.739  29.726  1.00  0.00    -0.354 N 
ATOM     38  C   UNL A   1      39.074  31.079  33.184  1.00  0.00     0.074 A 
ATOM     39  C   UNL A   1      37.878  31.842  32.904  1.00  0.00     0.031 C 
ATOM     40  C   UNL A   1      40.051  27.954  27.642  1.00  0.00     0.029 A 
ATOM     41  C   UNL A   1      40.890  27.921  28.835  1.00  0.00     0.049 A 
ATOM     42  H   UNL A   1      40.567  28.923  30.634  1.00  0.00     0.167 HD
ATOM     43  C   UNL A   1      39.729  31.096  34.370  1.00  0.00     0.034 A 
ATOM     44  C   UNL A   1      42.038  27.227  28.965  1.00  0.00     0.034 A 
ATOM     45  C   UNL A   1      40.918  30.325  34.629  1.00  0.00     0.049 A 
ATOM     46  C   UNL A   1      42.787  27.302  30.272  1.00  0.00     0.074 A 
ATOM     47  C   UNL A   1      41.641  30.223  35.803  1.00  0.00     0.029 A 
ATOM     48  N   UNL A   1      41.573  29.535  33.690  1.00  0.00    -0.354 N 
ATOM     49  N   UNL A   1      42.482  27.966  31.364  1.00  0.00    -0.248 NA
ATOM     50  C   UNL A   1      44.033  26.531  30.364  1.00  0.00     0.031 C 
ATOM     51  C   UNL A   1      42.779  29.452  35.549  1.00  0.00     0.029 A 
ATOM     52  C   UNL A   1      42.716  28.982  34.247  1.00  0.00     0.049 A 
ATOM     53  H   UNL A   1      41.268  29.389  32.765  1.00  0.00     0.167 HD
ATOM     54  C   UNL A   1      43.480  27.659  32.286  1.00  0.00     0.074 A 
ATOM     55  C   UNL A   1      44.389  26.747  31.622  1.00  0.00     0.031 C 
ATOM     56  C   UNL A   1      43.625  28.086  33.568  1.00  0.00     0.034 A 
BRANCH  43  57
ATOM     57  C   UNL A   1      39.180  32.007  35.446  1.00  0.00     0.023 A 
ATOM     58  C   UNL A   1      39.565  33.358  35.536  1.00  0.00     0.031 A 
ATOM     59  C   UNL A   1      38.328  31.503  36.443  1.00  0.00     0.131 A 
ATOM     60  C   UNL A   1      39.204  34.117  36.660  1.00  0.00     0.055 A 
ATOM     61  C   UNL A   1      37.879  32.299  37.500  1.00  0.00     0.041 A 
ATOM     62  F   UNL A   1      37.943  30.218  36.429  1.00  0.00    -0.206 F 
ATOM     63  C   UNL A   1      38.338  33.606  37.627  1.00  0.00     0.022 A 
BRANCH  60  64
ATOM     64  S   UNL A   1      40.062  35.691  36.945  1.00  0.00     0.124 S 
ATOM     65  O   UNL A   1      39.649  36.467  35.777  1.00  0.00    -0.237 OA
ATOM     66  O   UNL A   1      39.513  36.122  38.225  1.00  0.00    -0.237 OA
ATOM     67  O   UNL A   1      41.473  35.313  36.963  1.00  0.00    -0.744 OA
ENDBRANCH  60  64
ENDBRANCH  43  57
BRANCH  44  68
ATOM     68  C   UNL A   1      42.544  26.388  27.839  1.00  0.00     0.023 A 
ATOM     69  C   UNL A   1      42.071  25.080  27.646  1.00  0.00     0.031 A 
ATOM     70  C   UNL A   1      43.519  26.874  26.949  1.00  0.00     0.131 A 
ATOM     71  C   UNL A   1      42.597  24.291  26.611  1.00  0.00     0.055 A 
ATOM     72  C   UNL A   1      43.998  26.105  25.888  1.00  0.00     0.041 A 
ATOM     73  F   UNL A   1      44.005  28.118  27.088  1.00  0.00    -0.206 F 
ATOM     74  C   UNL A   1      43.544  24.801  25.720  1.00  0.00     0.022 A 
BRANCH  71  75
ATOM     75  S   UNL A   1      42.076  22.558  26.487  1.00  0.00     0.124 S 
ATOM     76  O   UNL A   1      42.605  22.183  25.181  1.00  0.00    -0.237 OA
ATOM     77  O   UNL A   1      42.735  21.959  27.644  1.00  0.00    -0.237 OA
ATOM     78  O   UNL A   1      40.620  22.633  26.574  1.00  0.00    -0.744 OA
ENDBRANCH  71  75
ENDBRANCH  44  68
BRANCH  56  79
ATOM     79  C   UNL A   1      44.789  27.530  34.355  1.00  0.00     0.023 A 
ATOM     80  C   UNL A   1      44.704  26.313  35.052  1.00  0.00     0.031 A 
ATOM     81  C   UNL A   1      46.007  28.234  34.404  1.00  0.00     0.131 A 
ATOM     82  C   UNL A   1      45.794  25.868  35.817  1.00  0.00     0.055 A 
ATOM     83  C   UNL A   1      47.112  27.748  35.103  1.00  0.00     0.041 A 
ATOM     84  F   UNL A   1      46.145  29.407  33.765  1.00  0.00    -0.206 F 
ATOM     85  C   UNL A   1      47.004  26.565  35.827  1.00  0.00     0.022 A 
BRANCH  82  86
ATOM     86  S   UNL A   1      45.570  24.424  36.891  1.00  0.00     0.124 S 
ATOM     87  O   UNL A   1      44.841  24.996  38.018  1.00  0.00    -0.237 OA
ATOM     88  O   UNL A   1      44.814  23.514  36.037  1.00  0.00    -0.237 OA
ATOM     89  O   UNL A   1      46.938  24.003  37.188  1.00  0.00    -0.744 OA
ENDBRANCH  82  86
ENDBRANCH  56  79
ENDBRANCH  30  31
ENDBRANCH  22  25
ENDBRANCH  20  21
ENDBRANCH   1  20
TORSDOF 17
ENDMDL
