MODEL 1
REMARK VINA RESULT:     -12.2      0.000      0.000
REMARK SMILES N#C[C@H]1CN(c2cc(C(=O)NCCCCNC(=O)c3ccc(-c4c5nc(c(-c6cc(S(=O)(=O)[O-])ccc6F)c6ccc([nH]6)c(-c6cc(S(=O)(=O)[O-])ccc6F)c6nc(c(-c7cc(S(=O)(=O)[O-])ccc7F)c7ccc4[nH]7)C=C6)C=C5)cc3)c(N)cc2F)CCO1
REMARK SMILES IDX 14 1 13 2 12 3 11 4 9 5 10 6 8 8 6 9 7 10 85 11 84 12 86 13
REMARK SMILES IDX 82 14 5 15 3 16 4 17 89 18 88 19 87 20 2 21 1 22 83 23 15 26
REMARK SMILES IDX 16 27 17 28 18 30 19 31 20 32 81 33 21 34 80 35 22 36 23 37
REMARK SMILES IDX 24 38 74 39 25 40 79 41 73 42 75 43 26 44 78 45 72 46 71 47
REMARK SMILES IDX 27 49 59 50 39 51 58 52 40 53 43 54 57 55 76 56 41 57 42 58
REMARK SMILES IDX 56 60 77 61 44 62 28 63 29 64 37 65 30 66 36 67 38 68 35 69
REMARK SMILES IDX 31 70 32 71 33 72 34 73 60 74 61 75 69 76 62 77 68 78 70 79
REMARK SMILES IDX 67 80 63 81 64 82 65 83 66 84 45 85 46 86 54 87 47 88 53 89
REMARK SMILES IDX 55 90 52 91 48 92 49 93 50 94 51 95
REMARK H PARENT 11 7 83 24 83 25 16 29 75 48 43 59
REMARK Flexibility Score: inf
ROOT
ATOM      1  C   UNL A   1      31.464  31.779  26.659  1.00  0.00     0.023 C 
ENDROOT
BRANCH   1   2
ATOM      2  C   UNL A   1      31.640  30.491  25.861  1.00  0.00     0.023 C 
BRANCH   2   3
ATOM      3  C   UNL A   1      33.011  29.835  25.932  1.00  0.00     0.116 C 
BRANCH   3   4
ATOM      4  N   UNL A   1      33.665  29.573  24.665  1.00  0.00    -0.352 N 
ATOM      5  C   UNL A   1      33.169  28.974  23.524  1.00  0.00     0.253 C 
ATOM      6  O   UNL A   1      33.906  28.911  22.540  1.00  0.00    -0.269 OA
ATOM      7  H   UNL A   1      34.604  29.866  24.609  1.00  0.00     0.163 HD
BRANCH   5   8
ATOM      8  C   UNL A   1      31.815  28.330  23.453  1.00  0.00     0.065 A 
ATOM      9  C   UNL A   1      30.487  26.382  24.155  1.00  0.00     0.074 A 
ATOM     10  C   UNL A   1      31.691  27.097  24.141  1.00  0.00     0.045 A 
ATOM     11  C   UNL A   1      29.366  27.024  23.615  1.00  0.00     0.148 A 
ATOM     12  C   UNL A   1      29.468  28.218  22.918  1.00  0.00     0.067 A 
ATOM     13  F   UNL A   1      28.157  26.447  23.706  1.00  0.00    -0.205 F 
ATOM     14  C   UNL A   1      30.715  28.812  22.718  1.00  0.00     0.047 A 
BRANCH   9  15
ATOM     15  N   UNL A   1      30.435  25.072  24.580  1.00  0.00    -0.363 N 
ATOM     16  C   UNL A   1      31.935  23.133  24.354  1.00  0.00     0.240 C 
ATOM     17  C   UNL A   1      30.752  23.920  23.730  1.00  0.00     0.164 C 
ATOM     18  O   UNL A   1      31.673  22.799  25.744  1.00  0.00    -0.360 OA
ATOM     19  C   UNL A   1      31.464  23.988  26.524  1.00  0.00     0.183 C 
ATOM     20  C   UNL A   1      30.258  24.780  26.009  1.00  0.00     0.145 C 
BRANCH  16  21
ATOM     21  C   UNL A   1      32.177  21.895  23.587  1.00  0.00     0.096 C 
ATOM     22  N   UNL A   1      32.379  20.925  22.987  1.00  0.00    -0.195 NA
ENDBRANCH  16  21
ENDBRANCH   9  15
BRANCH  14  23
ATOM     23  N   UNL A   1      30.788  29.817  21.763  1.00  0.00    -0.398 N 
ATOM     24  H   UNL A   1      30.298  29.725  20.914  1.00  0.00     0.156 HD
ATOM     25  H   UNL A   1      31.328  30.622  21.935  1.00  0.00     0.156 HD
ENDBRANCH  14  23
ENDBRANCH   5   8
ENDBRANCH   3   4
ENDBRANCH   2   3
ENDBRANCH   1   2
BRANCH   1  26
ATOM     26  C   UNL A   1      32.740  32.418  27.197  1.00  0.00     0.116 C 
BRANCH  26  27
ATOM     27  N   UNL A   1      32.584  33.820  27.565  1.00  0.00    -0.352 N 
ATOM     28  C   UNL A   1      33.254  34.558  28.518  1.00  0.00     0.251 C 
ATOM     29  H   UNL A   1      31.898  34.313  27.059  1.00  0.00     0.163 HD
ATOM     30  O   UNL A   1      32.891  35.703  28.769  1.00  0.00    -0.269 OA
BRANCH  28  31
ATOM     31  C   UNL A   1      34.379  33.947  29.258  1.00  0.00     0.039 A 
ATOM     32  C   UNL A   1      34.112  33.044  30.290  1.00  0.00     0.014 A 
ATOM     33  C   UNL A   1      35.698  34.226  28.895  1.00  0.00     0.014 A 
ATOM     34  C   UNL A   1      35.167  32.346  30.886  1.00  0.00     0.010 A 
ATOM     35  C   UNL A   1      36.733  33.455  29.414  1.00  0.00     0.010 A 
ATOM     36  C   UNL A   1      36.482  32.504  30.417  1.00  0.00    -0.014 A 
BRANCH  36  37
ATOM     37  C   UNL A   1      37.616  31.712  30.967  1.00  0.00     0.031 A 
ATOM     38  C   UNL A   1      38.115  31.998  32.359  1.00  0.00     0.074 A 
ATOM     39  C   UNL A   1      38.236  30.787  30.204  1.00  0.00     0.049 A 
ATOM     40  N   UNL A   1      39.161  31.514  32.980  1.00  0.00    -0.248 NA
ATOM     41  C   UNL A   1      37.354  32.980  33.147  1.00  0.00     0.031 C 
ATOM     42  C   UNL A   1      37.863  30.431  28.832  1.00  0.00     0.029 A 
ATOM     43  N   UNL A   1      39.318  29.982  30.466  1.00  0.00    -0.354 N 
ATOM     44  C   UNL A   1      39.184  32.136  34.223  1.00  0.00     0.074 A 
ATOM     45  C   UNL A   1      38.093  33.085  34.240  1.00  0.00     0.031 C 
ATOM     46  C   UNL A   1      38.683  29.463  28.388  1.00  0.00     0.029 A 
ATOM     47  C   UNL A   1      39.681  29.171  29.413  1.00  0.00     0.049 A 
ATOM     48  H   UNL A   1      39.792  29.983  31.330  1.00  0.00     0.167 HD
ATOM     49  C   UNL A   1      40.016  31.913  35.269  1.00  0.00     0.034 A 
ATOM     50  C   UNL A   1      40.711  28.310  29.279  1.00  0.00     0.034 A 
ATOM     51  C   UNL A   1      41.093  30.957  35.246  1.00  0.00     0.049 A 
ATOM     52  C   UNL A   1      41.669  28.135  30.437  1.00  0.00     0.074 A 
ATOM     53  C   UNL A   1      41.980  30.638  36.260  1.00  0.00     0.029 A 
ATOM     54  N   UNL A   1      41.434  30.165  34.157  1.00  0.00    -0.354 N 
ATOM     55  N   UNL A   1      41.657  28.713  31.616  1.00  0.00    -0.248 NA
ATOM     56  C   UNL A   1      42.773  27.183  30.251  1.00  0.00     0.031 C 
ATOM     57  C   UNL A   1      42.902  29.716  35.761  1.00  0.00     0.029 A 
ATOM     58  C   UNL A   1      42.532  29.381  34.469  1.00  0.00     0.049 A 
ATOM     59  H   UNL A   1      40.964  30.163  33.292  1.00  0.00     0.167 HD
ATOM     60  C   UNL A   1      42.716  28.152  32.325  1.00  0.00     0.074 A 
ATOM     61  C   UNL A   1      43.340  27.187  31.448  1.00  0.00     0.031 C 
ATOM     62  C   UNL A   1      43.133  28.407  33.591  1.00  0.00     0.034 A 
BRANCH  49  63
ATOM     63  C   UNL A   1      39.799  32.723  36.523  1.00  0.00     0.023 A 
ATOM     64  C   UNL A   1      38.902  32.306  37.521  1.00  0.00     0.031 A 
ATOM     65  C   UNL A   1      40.507  33.920  36.731  1.00  0.00     0.131 A 
ATOM     66  C   UNL A   1      38.694  33.106  38.654  1.00  0.00     0.055 A 
ATOM     67  C   UNL A   1      40.359  34.668  37.899  1.00  0.00     0.041 A 
ATOM     68  F   UNL A   1      41.358  34.382  35.800  1.00  0.00    -0.206 F 
ATOM     69  C   UNL A   1      39.440  34.268  38.865  1.00  0.00     0.022 A 
BRANCH  66  70
ATOM     70  S   UNL A   1      37.346  32.670  39.783  1.00  0.00     0.124 S 
ATOM     71  O   UNL A   1      37.391  33.777  40.736  1.00  0.00    -0.237 OA
ATOM     72  O   UNL A   1      36.188  32.636  38.897  1.00  0.00    -0.237 OA
ATOM     73  O   UNL A   1      37.756  31.376  40.323  1.00  0.00    -0.744 OA
ENDBRANCH  66  70
ENDBRANCH  49  63
BRANCH  50  74
ATOM     74  C   UNL A   1      40.931  27.559  28.005  1.00  0.00     0.023 A 
ATOM     75  C   UNL A   1      40.647  26.186  27.918  1.00  0.00     0.031 A 
ATOM     76  C   UNL A   1      41.526  28.174  26.889  1.00  0.00     0.131 A 
ATOM     77  C   UNL A   1      41.041  25.458  26.783  1.00  0.00     0.055 A 
ATOM     78  C   UNL A   1      41.840  27.461  25.729  1.00  0.00     0.041 A 
ATOM     79  F   UNL A   1      41.826  29.483  26.911  1.00  0.00    -0.206 F 
ATOM     80  C   UNL A   1      41.618  26.089  25.681  1.00  0.00     0.022 A 
BRANCH  77  81
ATOM     81  S   UNL A   1      40.937  23.647  26.840  1.00  0.00     0.124 S 
ATOM     82  O   UNL A   1      41.893  23.267  25.806  1.00  0.00    -0.237 OA
ATOM     83  O   UNL A   1      41.332  23.364  28.215  1.00  0.00    -0.237 OA
ATOM     84  O   UNL A   1      39.536  23.378  26.526  1.00  0.00    -0.744 OA
ENDBRANCH  77  81
ENDBRANCH  50  74
BRANCH  62  85
ATOM     85  C   UNL A   1      44.263  27.568  34.138  1.00  0.00     0.023 A 
ATOM     86  C   UNL A   1      44.048  26.309  34.725  1.00  0.00     0.031 A 
ATOM     87  C   UNL A   1      45.587  28.040  34.055  1.00  0.00     0.131 A 
ATOM     88  C   UNL A   1      45.132  25.591  35.253  1.00  0.00     0.055 A 
ATOM     89  C   UNL A   1      46.668  27.289  34.516  1.00  0.00     0.041 A 
ATOM     90  F   UNL A   1      45.852  29.239  33.509  1.00  0.00    -0.206 F 
ATOM     91  C   UNL A   1      46.443  26.062  35.131  1.00  0.00     0.022 A 
BRANCH  88  92
ATOM     92  S   UNL A   1      44.800  24.075  36.190  1.00  0.00     0.124 S 
ATOM     93  O   UNL A   1      43.643  23.531  35.487  1.00  0.00    -0.237 OA
ATOM     94  O   UNL A   1      46.047  23.332  36.035  1.00  0.00    -0.237 OA
ATOM     95  O   UNL A   1      44.532  24.559  37.543  1.00  0.00    -0.744 OA
ENDBRANCH  88  92
ENDBRANCH  62  85
ENDBRANCH  36  37
ENDBRANCH  28  31
ENDBRANCH  26  27
ENDBRANCH   1  26
TORSDOF 17
ENDMDL
MODEL 2
REMARK VINA RESULT:     -12.1      1.384      7.695
REMARK SMILES N#C[C@H]1CN(c2cc(C(=O)NCCCCNC(=O)c3ccc(-c4c5nc(c(-c6cc(S(=O)(=O)[O-])ccc6F)c6ccc([nH]6)c(-c6cc(S(=O)(=O)[O-])ccc6F)c6nc(c(-c7cc(S(=O)(=O)[O-])ccc7F)c7ccc4[nH]7)C=C6)C=C5)cc3)c(N)cc2F)CCO1
REMARK SMILES IDX 14 1 13 2 12 3 11 4 9 5 10 6 8 8 6 9 7 10 85 11 84 12 86 13
REMARK SMILES IDX 82 14 5 15 3 16 4 17 89 18 88 19 87 20 2 21 1 22 83 23 15 26
REMARK SMILES IDX 16 27 17 28 18 30 19 31 20 32 81 33 21 34 80 35 22 36 23 37
REMARK SMILES IDX 24 38 74 39 25 40 79 41 73 42 75 43 26 44 78 45 72 46 71 47
REMARK SMILES IDX 27 49 59 50 39 51 58 52 40 53 43 54 57 55 76 56 41 57 42 58
REMARK SMILES IDX 56 60 77 61 44 62 28 63 29 64 37 65 30 66 36 67 38 68 35 69
REMARK SMILES IDX 31 70 32 71 33 72 34 73 60 74 61 75 69 76 62 77 68 78 70 79
REMARK SMILES IDX 67 80 63 81 64 82 65 83 66 84 45 85 46 86 54 87 47 88 53 89
REMARK SMILES IDX 55 90 52 91 48 92 49 93 50 94 51 95
REMARK H PARENT 11 7 83 24 83 25 16 29 75 48 43 59
REMARK Flexibility Score: inf
ROOT
ATOM      1  C   UNL A   1      31.403  32.262  26.826  1.00  0.00     0.023 C 
ENDROOT
BRANCH   1   2
ATOM      2  C   UNL A   1      31.442  31.017  25.946  1.00  0.00     0.023 C 
BRANCH   2   3
ATOM      3  C   UNL A   1      32.635  30.093  26.135  1.00  0.00     0.116 C 
BRANCH   3   4
ATOM      4  N   UNL A   1      33.422  29.808  24.952  1.00  0.00    -0.352 N 
ATOM      5  C   UNL A   1      33.065  29.145  23.795  1.00  0.00     0.253 C 
ATOM      6  O   UNL A   1      33.899  29.073  22.892  1.00  0.00    -0.269 OA
ATOM      7  H   UNL A   1      34.351  30.136  24.977  1.00  0.00     0.163 HD
BRANCH   5   8
ATOM      8  C   UNL A   1      31.750  28.443  23.619  1.00  0.00     0.065 A 
ATOM      9  C   UNL A   1      30.469  26.422  24.185  1.00  0.00     0.074 A 
ATOM     10  C   UNL A   1      31.637  27.189  24.268  1.00  0.00     0.045 A 
ATOM     11  C   UNL A   1      29.358  27.027  23.586  1.00  0.00     0.148 A 
ATOM     12  C   UNL A   1      29.450  28.242  22.925  1.00  0.00     0.067 A 
ATOM     13  F   UNL A   1      28.172  26.396  23.583  1.00  0.00    -0.205 F 
ATOM     14  C   UNL A   1      30.680  28.896  22.822  1.00  0.00     0.047 A 
BRANCH   9  15
ATOM     15  N   UNL A   1      30.448  25.100  24.575  1.00  0.00    -0.363 N 
ATOM     16  C   UNL A   1      31.913  23.165  24.163  1.00  0.00     0.240 C 
ATOM     17  C   UNL A   1      30.684  23.973  23.668  1.00  0.00     0.164 C 
ATOM     18  O   UNL A   1      31.774  22.792  25.559  1.00  0.00    -0.360 OA
ATOM     19  C   UNL A   1      31.640  23.958  26.389  1.00  0.00     0.183 C 
ATOM     20  C   UNL A   1      30.397  24.767  26.005  1.00  0.00     0.145 C 
BRANCH  16  21
ATOM     21  C   UNL A   1      32.081  21.950  23.342  1.00  0.00     0.096 C 
ATOM     22  N   UNL A   1      32.221  21.002  22.691  1.00  0.00    -0.195 NA
ENDBRANCH  16  21
ENDBRANCH   9  15
BRANCH  14  23
ATOM     23  N   UNL A   1      30.769  29.928  21.899  1.00  0.00    -0.398 N 
ATOM     24  H   UNL A   1      30.030  30.090  21.269  1.00  0.00     0.156 HD
ATOM     25  H   UNL A   1      31.572  30.497  21.872  1.00  0.00     0.156 HD
ENDBRANCH  14  23
ENDBRANCH   5   8
ENDBRANCH   3   4
ENDBRANCH   2   3
ENDBRANCH   1   2
BRANCH   1  26
ATOM     26  C   UNL A   1      32.750  32.893  27.161  1.00  0.00     0.116 C 
BRANCH  26  27
ATOM     27  N   UNL A   1      32.643  34.163  27.868  1.00  0.00    -0.352 N 
ATOM     28  C   UNL A   1      33.398  34.653  28.913  1.00  0.00     0.251 C 
ATOM     29  H   UNL A   1      31.927  34.760  27.553  1.00  0.00     0.163 HD
ATOM     30  O   UNL A   1      33.073  35.701  29.463  1.00  0.00    -0.269 OA
BRANCH  28  31
ATOM     31  C   UNL A   1      34.571  33.888  29.390  1.00  0.00     0.039 A 
ATOM     32  C   UNL A   1      35.849  34.256  28.965  1.00  0.00     0.014 A 
ATOM     33  C   UNL A   1      34.409  32.844  30.303  1.00  0.00     0.014 A 
ATOM     34  C   UNL A   1      36.969  33.641  29.534  1.00  0.00     0.010 A 
ATOM     35  C   UNL A   1      35.523  32.310  30.943  1.00  0.00     0.010 A 
ATOM     36  C   UNL A   1      36.818  32.701  30.568  1.00  0.00    -0.014 A 
BRANCH  36  37
ATOM     37  C   UNL A   1      37.990  32.093  31.257  1.00  0.00     0.031 A 
ATOM     38  C   UNL A   1      38.718  30.944  30.610  1.00  0.00     0.074 A 
ATOM     39  C   UNL A   1      38.359  32.524  32.482  1.00  0.00     0.049 A 
ATOM     40  N   UNL A   1      39.677  30.195  31.092  1.00  0.00    -0.248 NA
ATOM     41  C   UNL A   1      38.290  30.568  29.253  1.00  0.00     0.031 C 
ATOM     42  C   UNL A   1      37.723  33.613  33.225  1.00  0.00     0.029 A 
ATOM     43  N   UNL A   1      39.355  32.092  33.325  1.00  0.00    -0.354 N 
ATOM     44  C   UNL A   1      39.962  29.261  30.101  1.00  0.00     0.074 A 
ATOM     45  C   UNL A   1      39.024  29.490  29.024  1.00  0.00     0.031 C 
ATOM     46  C   UNL A   1      38.360  33.781  34.397  1.00  0.00     0.029 A 
ATOM     47  C   UNL A   1      39.409  32.772  34.521  1.00  0.00     0.049 A 
ATOM     48  H   UNL A   1      39.975  31.362  33.095  1.00  0.00     0.167 HD
ATOM     49  C   UNL A   1      40.937  28.321  30.075  1.00  0.00     0.034 A 
ATOM     50  C   UNL A   1      40.195  32.592  35.603  1.00  0.00     0.034 A 
ATOM     51  C   UNL A   1      41.873  28.108  31.149  1.00  0.00     0.049 A 
ATOM     52  C   UNL A   1      41.227  31.486  35.576  1.00  0.00     0.074 A 
ATOM     53  C   UNL A   1      42.913  27.197  31.213  1.00  0.00     0.029 A 
ATOM     54  N   UNL A   1      41.886  28.810  32.347  1.00  0.00    -0.354 N 
ATOM     55  N   UNL A   1      41.498  30.630  34.617  1.00  0.00    -0.248 NA
ATOM     56  C   UNL A   1      42.066  31.326  36.771  1.00  0.00     0.031 C 
ATOM     57  C   UNL A   1      43.502  27.293  32.475  1.00  0.00     0.029 A 
ATOM     58  C   UNL A   1      42.898  28.333  33.163  1.00  0.00     0.049 A 
ATOM     59  H   UNL A   1      41.267  29.539  32.581  1.00  0.00     0.167 HD
ATOM     60  C   UNL A   1      42.574  29.873  35.076  1.00  0.00     0.074 A 
ATOM     61  C   UNL A   1      42.906  30.376  36.391  1.00  0.00     0.031 C 
ATOM     62  C   UNL A   1      43.232  28.857  34.465  1.00  0.00     0.034 A 
BRANCH  49  63
ATOM     63  C   UNL A   1      41.034  27.446  28.851  1.00  0.00     0.023 A 
ATOM     64  C   UNL A   1      42.037  27.642  27.886  1.00  0.00     0.031 A 
ATOM     65  C   UNL A   1      40.123  26.394  28.650  1.00  0.00     0.131 A 
ATOM     66  C   UNL A   1      42.072  26.836  26.739  1.00  0.00     0.055 A 
ATOM     67  C   UNL A   1      40.216  25.542  27.549  1.00  0.00     0.041 A 
ATOM     68  F   UNL A   1      39.127  26.176  29.524  1.00  0.00    -0.206 F 
ATOM     69  C   UNL A   1      41.188  25.767  26.579  1.00  0.00     0.022 A 
BRANCH  66  70
ATOM     70  S   UNL A   1      43.210  27.286  25.402  1.00  0.00     0.124 S 
ATOM     71  O   UNL A   1      43.496  25.982  24.808  1.00  0.00    -0.237 OA
ATOM     72  O   UNL A   1      42.405  28.195  24.593  1.00  0.00    -0.237 OA
ATOM     73  O   UNL A   1      44.334  27.904  26.102  1.00  0.00    -0.744 OA
ENDBRANCH  66  70
ENDBRANCH  49  63
BRANCH  50  74
ATOM     74  C   UNL A   1      40.040  33.442  36.824  1.00  0.00     0.023 A 
ATOM     75  C   UNL A   1      39.377  32.956  37.963  1.00  0.00     0.031 A 
ATOM     76  C   UNL A   1      40.456  34.785  36.834  1.00  0.00     0.131 A 
ATOM     77  C   UNL A   1      39.069  33.826  39.021  1.00  0.00     0.055 A 
ATOM     78  C   UNL A   1      40.220  35.625  37.925  1.00  0.00     0.041 A 
ATOM     79  F   UNL A   1      41.091  35.311  35.774  1.00  0.00    -0.206 F 
ATOM     80  C   UNL A   1      39.502  35.152  39.018  1.00  0.00     0.022 A 
BRANCH  77  81
ATOM     81  S   UNL A   1      37.950  33.239  40.324  1.00  0.00     0.124 S 
ATOM     82  O   UNL A   1      36.729  32.986  39.568  1.00  0.00    -0.237 OA
ATOM     83  O   UNL A   1      38.654  32.061  40.819  1.00  0.00    -0.237 OA
ATOM     84  O   UNL A   1      37.890  34.365  41.252  1.00  0.00    -0.744 OA
ENDBRANCH  77  81
ENDBRANCH  50  74
BRANCH  62  85
ATOM     85  C   UNL A   1      44.437  28.279  35.169  1.00  0.00     0.023 A 
ATOM     86  C   UNL A   1      44.356  27.135  35.980  1.00  0.00     0.031 A 
ATOM     87  C   UNL A   1      45.697  28.888  35.009  1.00  0.00     0.131 A 
ATOM     88  C   UNL A   1      45.502  26.666  36.642  1.00  0.00     0.055 A 
ATOM     89  C   UNL A   1      46.845  28.375  35.611  1.00  0.00     0.041 A 
ATOM     90  F   UNL A   1      45.833  29.988  34.250  1.00  0.00    -0.206 F 
ATOM     91  C   UNL A   1      46.750  27.264  36.444  1.00  0.00     0.022 A 
BRANCH  88  92
ATOM     92  S   UNL A   1      45.325  25.321  37.844  1.00  0.00     0.124 S 
ATOM     93  O   UNL A   1      45.753  25.962  39.082  1.00  0.00    -0.237 OA
ATOM     94  O   UNL A   1      43.903  25.002  37.750  1.00  0.00    -0.237 OA
ATOM     95  O   UNL A   1      46.225  24.287  37.337  1.00  0.00    -0.744 OA
ENDBRANCH  88  92
ENDBRANCH  62  85
ENDBRANCH  36  37
ENDBRANCH  28  31
ENDBRANCH  26  27
ENDBRANCH   1  26
TORSDOF 17
ENDMDL
MODEL 3
REMARK VINA RESULT:     -11.9      2.065      7.809
REMARK SMILES N#C[C@H]1CN(c2cc(C(=O)NCCCCNC(=O)c3ccc(-c4c5nc(c(-c6cc(S(=O)(=O)[O-])ccc6F)c6ccc([nH]6)c(-c6cc(S(=O)(=O)[O-])ccc6F)c6nc(c(-c7cc(S(=O)(=O)[O-])ccc7F)c7ccc4[nH]7)C=C6)C=C5)cc3)c(N)cc2F)CCO1
REMARK SMILES IDX 14 1 13 2 12 3 11 4 9 5 10 6 8 8 6 9 7 10 85 11 84 12 86 13
REMARK SMILES IDX 82 14 5 15 3 16 4 17 89 18 88 19 87 20 2 21 1 22 83 23 15 26
REMARK SMILES IDX 16 27 17 28 18 30 19 31 20 32 81 33 21 34 80 35 22 36 23 37
REMARK SMILES IDX 24 38 74 39 25 40 79 41 73 42 75 43 26 44 78 45 72 46 71 47
REMARK SMILES IDX 27 49 59 50 39 51 58 52 40 53 43 54 57 55 76 56 41 57 42 58
REMARK SMILES IDX 56 60 77 61 44 62 28 63 29 64 37 65 30 66 36 67 38 68 35 69
REMARK SMILES IDX 31 70 32 71 33 72 34 73 60 74 61 75 69 76 62 77 68 78 70 79
REMARK SMILES IDX 67 80 63 81 64 82 65 83 66 84 45 85 46 86 54 87 47 88 53 89
REMARK SMILES IDX 55 90 52 91 48 92 49 93 50 94 51 95
REMARK H PARENT 11 7 83 24 83 25 16 29 75 48 43 59
REMARK Flexibility Score: inf
ROOT
ATOM      1  C   UNL A   1      32.070  31.403  26.566  1.00  0.00     0.023 C 
ENDROOT
BRANCH   1   2
ATOM      2  C   UNL A   1      31.980  29.923  26.923  1.00  0.00     0.023 C 
BRANCH   2   3
ATOM      3  C   UNL A   1      33.173  29.061  26.536  1.00  0.00     0.116 C 
BRANCH   3   4
ATOM      4  N   UNL A   1      33.728  29.286  25.216  1.00  0.00    -0.352 N 
ATOM      5  C   UNL A   1      33.168  29.059  23.974  1.00  0.00     0.253 C 
ATOM      6  O   UNL A   1      33.820  29.385  22.981  1.00  0.00    -0.269 OA
ATOM      7  H   UNL A   1      34.641  29.658  25.202  1.00  0.00     0.163 HD
BRANCH   5   8
ATOM      8  C   UNL A   1      31.853  28.364  23.777  1.00  0.00     0.065 A 
ATOM      9  C   UNL A   1      30.551  26.351  24.326  1.00  0.00     0.074 A 
ATOM     10  C   UNL A   1      31.722  27.112  24.427  1.00  0.00     0.045 A 
ATOM     11  C   UNL A   1      29.454  26.961  23.706  1.00  0.00     0.148 A 
ATOM     12  C   UNL A   1      29.564  28.175  23.044  1.00  0.00     0.067 A 
ATOM     13  F   UNL A   1      28.265  26.337  23.685  1.00  0.00    -0.205 F 
ATOM     14  C   UNL A   1      30.799  28.822  22.962  1.00  0.00     0.047 A 
BRANCH   9  15
ATOM     15  N   UNL A   1      30.516  25.031  24.718  1.00  0.00    -0.363 N 
ATOM     16  C   UNL A   1      31.953  23.076  24.298  1.00  0.00     0.240 C 
ATOM     17  C   UNL A   1      30.731  23.899  23.811  1.00  0.00     0.164 C 
ATOM     18  O   UNL A   1      31.820  22.707  25.696  1.00  0.00    -0.360 OA
ATOM     19  C   UNL A   1      31.707  23.876  26.525  1.00  0.00     0.183 C 
ATOM     20  C   UNL A   1      30.471  24.700  26.149  1.00  0.00     0.145 C 
BRANCH  16  21
ATOM     21  C   UNL A   1      32.099  21.858  23.478  1.00  0.00     0.096 C 
ATOM     22  N   UNL A   1      32.221  20.908  22.826  1.00  0.00    -0.195 NA
ENDBRANCH  16  21
ENDBRANCH   9  15
BRANCH  14  23
ATOM     23  N   UNL A   1      30.910  29.850  22.037  1.00  0.00    -0.398 N 
ATOM     24  H   UNL A   1      30.114  30.372  21.783  1.00  0.00     0.156 HD
ATOM     25  H   UNL A   1      31.784  30.059  21.635  1.00  0.00     0.156 HD
ENDBRANCH  14  23
ENDBRANCH   5   8
ENDBRANCH   3   4
ENDBRANCH   2   3
ENDBRANCH   1   2
BRANCH   1  26
ATOM     26  C   UNL A   1      33.129  32.212  27.307  1.00  0.00     0.116 C 
BRANCH  26  27
ATOM     27  N   UNL A   1      32.726  33.584  27.591  1.00  0.00    -0.352 N 
ATOM     28  C   UNL A   1      33.195  34.457  28.550  1.00  0.00     0.251 C 
ATOM     29  H   UNL A   1      32.015  33.941  27.013  1.00  0.00     0.163 HD
ATOM     30  O   UNL A   1      32.639  35.538  28.716  1.00  0.00    -0.269 OA
BRANCH  28  31
ATOM     31  C   UNL A   1      34.341  34.064  29.400  1.00  0.00     0.039 A 
ATOM     32  C   UNL A   1      34.112  33.313  30.555  1.00  0.00     0.014 A 
ATOM     33  C   UNL A   1      35.644  34.389  29.023  1.00  0.00     0.014 A 
ATOM     34  C   UNL A   1      35.198  32.805  31.275  1.00  0.00     0.010 A 
ATOM     35  C   UNL A   1      36.719  33.796  29.677  1.00  0.00     0.010 A 
ATOM     36  C   UNL A   1      36.511  32.996  30.812  1.00  0.00    -0.014 A 
BRANCH  36  37
ATOM     37  C   UNL A   1      37.685  32.395  31.503  1.00  0.00     0.031 A 
ATOM     38  C   UNL A   1      38.428  31.257  30.852  1.00  0.00     0.074 A 
ATOM     39  C   UNL A   1      38.045  32.820  32.733  1.00  0.00     0.049 A 
ATOM     40  N   UNL A   1      39.391  30.514  31.333  1.00  0.00    -0.248 NA
ATOM     41  C   UNL A   1      38.010  30.887  29.490  1.00  0.00     0.031 C 
ATOM     42  C   UNL A   1      37.394  33.899  33.481  1.00  0.00     0.029 A 
ATOM     43  N   UNL A   1      39.040  32.392  33.578  1.00  0.00    -0.354 N 
ATOM     44  C   UNL A   1      39.690  29.590  30.337  1.00  0.00     0.074 A 
ATOM     45  C   UNL A   1      38.755  29.818  29.257  1.00  0.00     0.031 C 
ATOM     46  C   UNL A   1      38.024  34.064  34.657  1.00  0.00     0.029 A 
ATOM     47  C   UNL A   1      39.082  33.065  34.779  1.00  0.00     0.049 A 
ATOM     48  H   UNL A   1      39.668  31.669  33.346  1.00  0.00     0.167 HD
ATOM     49  C   UNL A   1      40.674  28.660  30.309  1.00  0.00     0.034 A 
ATOM     50  C   UNL A   1      39.865  32.884  35.864  1.00  0.00     0.034 A 
ATOM     51  C   UNL A   1      41.607  28.447  31.386  1.00  0.00     0.049 A 
ATOM     52  C   UNL A   1      40.907  31.788  35.834  1.00  0.00     0.074 A 
ATOM     53  C   UNL A   1      42.655  27.546  31.449  1.00  0.00     0.029 A 
ATOM     54  N   UNL A   1      41.607  29.142  32.589  1.00  0.00    -0.354 N 
ATOM     55  N   UNL A   1      41.191  30.942  34.870  1.00  0.00    -0.248 NA
ATOM     56  C   UNL A   1      41.742  31.628  37.032  1.00  0.00     0.031 C 
ATOM     57  C   UNL A   1      43.237  27.639  32.715  1.00  0.00     0.029 A 
ATOM     58  C   UNL A   1      42.620  28.668  33.407  1.00  0.00     0.049 A 
ATOM     59  H   UNL A   1      40.980  29.862  32.825  1.00  0.00     0.167 HD
ATOM     60  C   UNL A   1      42.272  30.191  35.329  1.00  0.00     0.074 A 
ATOM     61  C   UNL A   1      42.592  30.688  36.649  1.00  0.00     0.031 C 
ATOM     62  C   UNL A   1      42.943  29.186  34.714  1.00  0.00     0.034 A 
BRANCH  49  63
ATOM     63  C   UNL A   1      40.786  27.794  29.079  1.00  0.00     0.023 A 
ATOM     64  C   UNL A   1      41.693  28.095  28.049  1.00  0.00     0.031 A 
ATOM     65  C   UNL A   1      39.986  26.646  28.938  1.00  0.00     0.131 A 
ATOM     66  C   UNL A   1      41.741  27.292  26.901  1.00  0.00     0.055 A 
ATOM     67  C   UNL A   1      40.099  25.804  27.832  1.00  0.00     0.041 A 
ATOM     68  F   UNL A   1      39.082  26.323  29.878  1.00  0.00    -0.206 F 
ATOM     69  C   UNL A   1      40.972  26.130  26.799  1.00  0.00     0.022 A 
BRANCH  66  70
ATOM     70  S   UNL A   1      42.728  27.859  25.491  1.00  0.00     0.124 S 
ATOM     71  O   UNL A   1      41.903  28.947  24.972  1.00  0.00    -0.237 OA
ATOM     72  O   UNL A   1      43.984  28.252  26.120  1.00  0.00    -0.237 OA
ATOM     73  O   UNL A   1      42.804  26.679  24.631  1.00  0.00    -0.744 OA
ENDBRANCH  66  70
ENDBRANCH  49  63
BRANCH  50  74
ATOM     74  C   UNL A   1      39.695  33.723  37.089  1.00  0.00     0.023 A 
ATOM     75  C   UNL A   1      40.581  34.777  37.371  1.00  0.00     0.031 A 
ATOM     76  C   UNL A   1      38.714  33.421  38.051  1.00  0.00     0.131 A 
ATOM     77  C   UNL A   1      40.528  35.426  38.615  1.00  0.00     0.055 A 
ATOM     78  C   UNL A   1      38.613  34.126  39.253  1.00  0.00     0.041 A 
ATOM     79  F   UNL A   1      37.841  32.423  37.843  1.00  0.00    -0.206 F 
ATOM     80  C   UNL A   1      39.539  35.120  39.550  1.00  0.00     0.022 A 
BRANCH  77  81
ATOM     81  S   UNL A   1      41.874  36.559  39.056  1.00  0.00     0.124 S 
ATOM     82  O   UNL A   1      42.822  36.323  37.973  1.00  0.00    -0.237 OA
ATOM     83  O   UNL A   1      41.198  37.851  39.047  1.00  0.00    -0.237 OA
ATOM     84  O   UNL A   1      42.298  36.087  40.372  1.00  0.00    -0.744 OA
ENDBRANCH  77  81
ENDBRANCH  50  74
BRANCH  62  85
ATOM     85  C   UNL A   1      44.149  28.615  35.420  1.00  0.00     0.023 A 
ATOM     86  C   UNL A   1      44.049  27.571  36.355  1.00  0.00     0.031 A 
ATOM     87  C   UNL A   1      45.431  29.125  35.135  1.00  0.00     0.131 A 
ATOM     88  C   UNL A   1      45.200  27.107  37.010  1.00  0.00     0.055 A 
ATOM     89  C   UNL A   1      46.580  28.610  35.735  1.00  0.00     0.041 A 
ATOM     90  F   UNL A   1      45.587  30.127  34.254  1.00  0.00    -0.206 F 
ATOM     91  C   UNL A   1      46.467  27.604  36.688  1.00  0.00     0.022 A 
BRANCH  88  92
ATOM     92  S   UNL A   1      45.013  25.911  38.360  1.00  0.00     0.124 S 
ATOM     93  O   UNL A   1      44.312  26.699  39.368  1.00  0.00    -0.237 OA
ATOM     94  O   UNL A   1      44.238  24.847  37.730  1.00  0.00    -0.237 OA
ATOM     95  O   UNL A   1      46.390  25.557  38.697  1.00  0.00    -0.744 OA
ENDBRANCH  88  92
ENDBRANCH  62  85
ENDBRANCH  36  37
ENDBRANCH  28  31
ENDBRANCH  26  27
ENDBRANCH   1  26
TORSDOF 17
ENDMDL
