MODEL 1
REMARK VINA RESULT:     -10.4      0.000      0.000
REMARK SMILES C[C@@H](C(=O)NCCCCNC(=O)c1ccc(-c2c3nc(c(-c4cc(S(=O)(=O)[O-])ccc4F)c4ccc([nH]4)c(-c4cc(S(=O)(=O)[O-])ccc4F)c4nc(c(-c5cc(S(=O)(=O)[O-])ccc5F)c5ccc2[nH]5)C=C4)C=C3)cc1)c1ccc(-c2ccccc2)c(F)c1
REMARK SMILES IDX 8 1 7 2 6 3 5 4 3 5 4 6 2 8 1 9 76 10 77 11 88 12 78 13
REMARK SMILES IDX 86 14 79 15 87 16 80 17 81 18 85 19 82 20 84 21 83 22 9 23
REMARK SMILES IDX 10 24 11 25 12 27 13 28 14 29 75 30 15 31 74 32 16 33 17 34
REMARK SMILES IDX 18 35 68 36 19 37 73 38 67 39 69 40 20 41 72 42 66 43 65 44
REMARK SMILES IDX 21 46 53 47 33 48 52 49 34 50 37 51 51 52 70 53 35 54 36 55
REMARK SMILES IDX 50 57 71 58 38 59 22 60 23 61 31 62 24 63 30 64 32 65 29 66
REMARK SMILES IDX 25 67 26 68 27 69 28 70 54 71 55 72 63 73 56 74 62 75 64 76
REMARK SMILES IDX 61 77 57 78 58 79 59 80 60 81 39 82 40 83 48 84 41 85 47 86
REMARK SMILES IDX 49 87 46 88 42 89 43 90 44 91 45 92
REMARK H PARENT 5 7 10 26 69 45 37 56
REMARK Flexibility Score: inf
ROOT
ATOM      1  C   UNL A   1      41.894  19.539  27.346  1.00  0.00     0.023 C 
ENDROOT
BRANCH   1   2
ATOM      2  C   UNL A   1      42.978  18.713  26.648  1.00  0.00     0.023 C 
BRANCH   2   3
ATOM      3  C   UNL A   1      43.456  19.275  25.305  1.00  0.00     0.116 C 
BRANCH   3   4
ATOM      4  N   UNL A   1      44.880  19.555  25.334  1.00  0.00    -0.356 N 
ATOM      5  C   UNL A   1      45.541  20.746  25.220  1.00  0.00     0.227 C 
ATOM      6  O   UNL A   1      46.739  20.683  24.940  1.00  0.00    -0.274 OA
ATOM      7  H   UNL A   1      45.457  18.767  25.453  1.00  0.00     0.163 HD
BRANCH   5   8
ATOM      8  C   UNL A   1      44.775  22.069  25.415  1.00  0.00     0.105 C 
ATOM      9  C   UNL A   1      44.952  22.896  24.132  1.00  0.00     0.023 C 
BRANCH   8  10
ATOM     10  C   UNL A   1      45.151  22.898  26.653  1.00  0.00    -0.033 A 
ATOM     11  C   UNL A   1      46.330  23.649  26.750  1.00  0.00     0.005 A 
ATOM     12  C   UNL A   1      44.301  22.903  27.773  1.00  0.00     0.044 A 
ATOM     13  C   UNL A   1      46.582  24.473  27.858  1.00  0.00     0.012 A 
ATOM     14  C   UNL A   1      44.560  23.718  28.876  1.00  0.00     0.131 A 
ATOM     15  C   UNL A   1      45.684  24.546  28.930  1.00  0.00     0.017 A 
ATOM     16  F   UNL A   1      43.673  23.710  29.885  1.00  0.00    -0.206 F 
BRANCH  15  17
ATOM     17  C   UNL A   1      45.914  25.476  30.044  1.00  0.00    -0.015 A 
ATOM     18  C   UNL A   1      44.946  26.441  30.378  1.00  0.00     0.009 A 
ATOM     19  C   UNL A   1      47.091  25.430  30.807  1.00  0.00     0.009 A 
ATOM     20  C   UNL A   1      45.150  27.329  31.437  1.00  0.00     0.001 A 
ATOM     21  C   UNL A   1      47.297  26.319  31.864  1.00  0.00     0.001 A 
ATOM     22  C   UNL A   1      46.326  27.269  32.178  1.00  0.00     0.000 A 
ENDBRANCH  15  17
ENDBRANCH   8  10
ENDBRANCH   5   8
ENDBRANCH   3   4
ENDBRANCH   2   3
ENDBRANCH   1   2
BRANCH   1  23
ATOM     23  C   UNL A   1      41.491  20.814  26.621  1.00  0.00     0.116 C 
BRANCH  23  24
ATOM     24  N   UNL A   1      40.102  20.796  26.190  1.00  0.00    -0.352 N 
ATOM     25  C   UNL A   1      39.168  21.800  26.267  1.00  0.00     0.251 C 
ATOM     26  H   UNL A   1      39.791  19.951  25.791  1.00  0.00     0.163 HD
ATOM     27  O   UNL A   1      37.995  21.565  25.994  1.00  0.00    -0.269 OA
BRANCH  25  28
ATOM     28  C   UNL A   1      39.585  23.146  26.711  1.00  0.00     0.039 A 
ATOM     29  C   UNL A   1      40.453  23.264  27.800  1.00  0.00     0.014 A 
ATOM     30  C   UNL A   1      39.141  24.287  26.037  1.00  0.00     0.014 A 
ATOM     31  C   UNL A   1      40.927  24.524  28.173  1.00  0.00     0.010 A 
ATOM     32  C   UNL A   1      39.667  25.532  26.367  1.00  0.00     0.010 A 
ATOM     33  C   UNL A   1      40.562  25.664  27.440  1.00  0.00    -0.014 A 
BRANCH  33  34
ATOM     34  C   UNL A   1      41.076  27.013  27.787  1.00  0.00     0.031 A 
ATOM     35  C   UNL A   1      42.513  27.354  27.499  1.00  0.00     0.074 A 
ATOM     36  C   UNL A   1      40.287  27.890  28.436  1.00  0.00     0.049 A 
ATOM     37  N   UNL A   1      43.204  28.407  27.850  1.00  0.00    -0.248 NA
ATOM     38  C   UNL A   1      43.281  26.353  26.745  1.00  0.00     0.031 C 
ATOM     39  C   UNL A   1      38.888  27.660  28.800  1.00  0.00     0.029 A 
ATOM     40  N   UNL A   1      40.555  29.144  28.924  1.00  0.00    -0.354 N 
ATOM     41  C   UNL A   1      44.495  28.184  27.383  1.00  0.00     0.074 A 
ATOM     42  C   UNL A   1      44.499  26.869  26.778  1.00  0.00     0.031 C 
ATOM     43  C   UNL A   1      38.418  28.741  29.444  1.00  0.00     0.029 A 
ATOM     44  C   UNL A   1      39.492  29.720  29.579  1.00  0.00     0.049 A 
ATOM     45  H   UNL A   1      41.426  29.590  28.815  1.00  0.00     0.167 HD
ATOM     46  C   UNL A   1      45.572  29.009  27.439  1.00  0.00     0.034 A 
ATOM     47  C   UNL A   1      39.400  30.896  30.234  1.00  0.00     0.034 A 
ATOM     48  C   UNL A   1      45.541  30.324  28.031  1.00  0.00     0.049 A 
ATOM     49  C   UNL A   1      40.610  31.794  30.292  1.00  0.00     0.074 A 
ATOM     50  C   UNL A   1      46.554  31.265  28.097  1.00  0.00     0.029 A 
ATOM     51  N   UNL A   1      44.438  30.884  28.664  1.00  0.00    -0.354 N 
ATOM     52  N   UNL A   1      41.816  31.585  29.818  1.00  0.00    -0.248 NA
ATOM     53  C   UNL A   1      40.442  33.087  30.965  1.00  0.00     0.031 C 
ATOM     54  C   UNL A   1      46.083  32.367  28.820  1.00  0.00     0.029 A 
ATOM     55  C   UNL A   1      44.753  32.147  29.143  1.00  0.00     0.049 A 
ATOM     56  H   UNL A   1      43.560  30.448  28.759  1.00  0.00     0.167 HD
ATOM     57  C   UNL A   1      42.542  32.738  30.108  1.00  0.00     0.074 A 
ATOM     58  C   UNL A   1      41.635  33.637  30.791  1.00  0.00     0.031 C 
ATOM     59  C   UNL A   1      43.837  33.030  29.828  1.00  0.00     0.034 A 
BRANCH  46  60
ATOM     60  C   UNL A   1      46.870  28.487  26.869  1.00  0.00     0.023 A 
ATOM     61  C   UNL A   1      47.092  28.418  25.482  1.00  0.00     0.031 A 
ATOM     62  C   UNL A   1      47.879  28.000  27.719  1.00  0.00     0.131 A 
ATOM     63  C   UNL A   1      48.245  27.792  24.987  1.00  0.00     0.055 A 
ATOM     64  C   UNL A   1      49.066  27.461  27.221  1.00  0.00     0.041 A 
ATOM     65  F   UNL A   1      47.717  28.020  29.052  1.00  0.00    -0.206 F 
ATOM     66  C   UNL A   1      49.248  27.336  25.846  1.00  0.00     0.022 A 
BRANCH  63  67
ATOM     67  S   UNL A   1      48.337  27.431  23.211  1.00  0.00     0.124 S 
ATOM     68  O   UNL A   1      47.165  28.142  22.706  1.00  0.00    -0.237 OA
ATOM     69  O   UNL A   1      49.632  27.991  22.842  1.00  0.00    -0.237 OA
ATOM     70  O   UNL A   1      48.246  25.974  23.152  1.00  0.00    -0.744 OA
ENDBRANCH  63  67
ENDBRANCH  46  60
BRANCH  47  71
ATOM     71  C   UNL A   1      38.125  31.290  30.895  1.00  0.00     0.023 A 
ATOM     72  C   UNL A   1      37.120  31.961  30.182  1.00  0.00     0.031 A 
ATOM     73  C   UNL A   1      37.904  31.024  32.259  1.00  0.00     0.131 A 
ATOM     74  C   UNL A   1      35.955  32.381  30.844  1.00  0.00     0.055 A 
ATOM     75  C   UNL A   1      36.724  31.403  32.900  1.00  0.00     0.041 A 
ATOM     76  F   UNL A   1      38.831  30.377  32.982  1.00  0.00    -0.206 F 
ATOM     77  C   UNL A   1      35.746  32.096  32.195  1.00  0.00     0.022 A 
BRANCH  74  78
ATOM     78  S   UNL A   1      34.742  33.367  29.924  1.00  0.00     0.124 S 
ATOM     79  O   UNL A   1      35.598  34.326  29.237  1.00  0.00    -0.237 OA
ATOM     80  O   UNL A   1      34.105  32.358  29.085  1.00  0.00    -0.237 OA
ATOM     81  O   UNL A   1      33.893  33.927  30.974  1.00  0.00    -0.744 OA
ENDBRANCH  74  78
ENDBRANCH  47  71
BRANCH  59  82
ATOM     82  C   UNL A   1      44.330  34.403  30.211  1.00  0.00     0.023 A 
ATOM     83  C   UNL A   1      44.190  35.507  29.354  1.00  0.00     0.031 A 
ATOM     84  C   UNL A   1      44.951  34.604  31.457  1.00  0.00     0.131 A 
ATOM     85  C   UNL A   1      44.709  36.755  29.734  1.00  0.00     0.055 A 
ATOM     86  C   UNL A   1      45.416  35.858  31.852  1.00  0.00     0.041 A 
ATOM     87  F   UNL A   1      45.111  33.581  32.312  1.00  0.00    -0.206 F 
ATOM     88  C   UNL A   1      45.306  36.940  30.985  1.00  0.00     0.022 A 
BRANCH  85  89
ATOM     89  S   UNL A   1      44.663  38.121  28.541  1.00  0.00     0.124 S 
ATOM     90  O   UNL A   1      45.122  37.471  27.318  1.00  0.00    -0.237 OA
ATOM     91  O   UNL A   1      43.256  38.510  28.567  1.00  0.00    -0.237 OA
ATOM     92  O   UNL A   1      45.586  39.103  29.107  1.00  0.00    -0.744 OA
ENDBRANCH  85  89
ENDBRANCH  59  82
ENDBRANCH  33  34
ENDBRANCH  25  28
ENDBRANCH  23  24
ENDBRANCH   1  23
TORSDOF 16
ENDMDL
MODEL 2
REMARK VINA RESULT:     -10.2      5.340     11.531
REMARK SMILES C[C@@H](C(=O)NCCCCNC(=O)c1ccc(-c2c3nc(c(-c4cc(S(=O)(=O)[O-])ccc4F)c4ccc([nH]4)c(-c4cc(S(=O)(=O)[O-])ccc4F)c4nc(c(-c5cc(S(=O)(=O)[O-])ccc5F)c5ccc2[nH]5)C=C4)C=C3)cc1)c1ccc(-c2ccccc2)c(F)c1
REMARK SMILES IDX 8 1 7 2 6 3 5 4 3 5 4 6 2 8 1 9 76 10 77 11 88 12 78 13
REMARK SMILES IDX 86 14 79 15 87 16 80 17 81 18 85 19 82 20 84 21 83 22 9 23
REMARK SMILES IDX 10 24 11 25 12 27 13 28 14 29 75 30 15 31 74 32 16 33 17 34
REMARK SMILES IDX 18 35 68 36 19 37 73 38 67 39 69 40 20 41 72 42 66 43 65 44
REMARK SMILES IDX 21 46 53 47 33 48 52 49 34 50 37 51 51 52 70 53 35 54 36 55
REMARK SMILES IDX 50 57 71 58 38 59 22 60 23 61 31 62 24 63 30 64 32 65 29 66
REMARK SMILES IDX 25 67 26 68 27 69 28 70 54 71 55 72 63 73 56 74 62 75 64 76
REMARK SMILES IDX 61 77 57 78 58 79 59 80 60 81 39 82 40 83 48 84 41 85 47 86
REMARK SMILES IDX 49 87 46 88 42 89 43 90 44 91 45 92
REMARK H PARENT 5 7 10 26 69 45 37 56
REMARK Flexibility Score: inf
ROOT
ATOM      1  C   UNL A   1      33.546  28.281  25.919  1.00  0.00     0.023 C 
ENDROOT
BRANCH   1   2
ATOM      2  C   UNL A   1      32.877  29.094  24.807  1.00  0.00     0.023 C 
BRANCH   2   3
ATOM      3  C   UNL A   1      31.350  29.178  24.896  1.00  0.00     0.116 C 
BRANCH   3   4
ATOM      4  N   UNL A   1      30.782  29.679  23.658  1.00  0.00    -0.356 N 
ATOM      5  C   UNL A   1      30.355  28.998  22.552  1.00  0.00     0.227 C 
ATOM      6  O   UNL A   1      30.232  29.656  21.518  1.00  0.00    -0.274 OA
ATOM      7  H   UNL A   1      30.691  30.657  23.607  1.00  0.00     0.163 HD
BRANCH   5   8
ATOM      8  C   UNL A   1      30.083  27.484  22.642  1.00  0.00     0.105 C 
ATOM      9  C   UNL A   1      28.979  27.277  23.691  1.00  0.00     0.023 C 
BRANCH   8  10
ATOM     10  C   UNL A   1      31.296  26.591  22.947  1.00  0.00    -0.033 A 
ATOM     11  C   UNL A   1      32.485  26.624  22.205  1.00  0.00     0.005 A 
ATOM     12  C   UNL A   1      31.233  25.664  24.003  1.00  0.00     0.044 A 
ATOM     13  C   UNL A   1      33.603  25.865  22.582  1.00  0.00     0.012 A 
ATOM     14  C   UNL A   1      32.346  24.905  24.369  1.00  0.00     0.131 A 
ATOM     15  C   UNL A   1      33.564  25.013  23.693  1.00  0.00     0.017 A 
ATOM     16  F   UNL A   1      32.223  24.081  25.422  1.00  0.00    -0.206 F 
BRANCH  15  17
ATOM     17  C   UNL A   1      34.765  24.290  24.131  1.00  0.00    -0.015 A 
ATOM     18  C   UNL A   1      35.391  23.364  23.277  1.00  0.00     0.009 A 
ATOM     19  C   UNL A   1      35.325  24.502  25.400  1.00  0.00     0.009 A 
ATOM     20  C   UNL A   1      36.535  22.672  23.680  1.00  0.00     0.001 A 
ATOM     21  C   UNL A   1      36.468  23.809  25.805  1.00  0.00     0.001 A 
ATOM     22  C   UNL A   1      37.073  22.894  24.945  1.00  0.00     0.000 A 
ENDBRANCH  15  17
ENDBRANCH   8  10
ENDBRANCH   5   8
ENDBRANCH   3   4
ENDBRANCH   2   3
ENDBRANCH   1   2
BRANCH   1  23
ATOM     23  C   UNL A   1      33.327  28.816  27.326  1.00  0.00     0.116 C 
BRANCH  23  24
ATOM     24  N   UNL A   1      33.456  30.263  27.399  1.00  0.00    -0.352 N 
ATOM     25  C   UNL A   1      34.490  31.006  27.915  1.00  0.00     0.251 C 
ATOM     26  H   UNL A   1      32.701  30.778  27.031  1.00  0.00     0.163 HD
ATOM     27  O   UNL A   1      34.369  32.221  28.035  1.00  0.00    -0.269 OA
BRANCH  25  28
ATOM     28  C   UNL A   1      35.727  30.325  28.349  1.00  0.00     0.039 A 
ATOM     29  C   UNL A   1      36.828  30.300  27.488  1.00  0.00     0.014 A 
ATOM     30  C   UNL A   1      35.807  29.735  29.613  1.00  0.00     0.014 A 
ATOM     31  C   UNL A   1      38.032  29.739  27.922  1.00  0.00     0.010 A 
ATOM     32  C   UNL A   1      37.025  29.240  30.068  1.00  0.00     0.010 A 
ATOM     33  C   UNL A   1      38.149  29.233  29.226  1.00  0.00    -0.014 A 
BRANCH  33  34
ATOM     34  C   UNL A   1      39.423  28.663  29.731  1.00  0.00     0.031 A 
ATOM     35  C   UNL A   1      40.152  29.356  30.850  1.00  0.00     0.074 A 
ATOM     36  C   UNL A   1      39.966  27.587  29.130  1.00  0.00     0.049 A 
ATOM     37  N   UNL A   1      41.340  29.120  31.340  1.00  0.00    -0.248 NA
ATOM     38  C   UNL A   1      39.458  30.492  31.473  1.00  0.00     0.031 C 
ATOM     39  C   UNL A   1      39.371  26.851  28.013  1.00  0.00     0.029 A 
ATOM     40  N   UNL A   1      41.153  26.938  29.360  1.00  0.00    -0.354 N 
ATOM     41  C   UNL A   1      41.549  30.094  32.311  1.00  0.00     0.074 A 
ATOM     42  C   UNL A   1      40.386  30.956  32.294  1.00  0.00     0.031 C 
ATOM     43  C   UNL A   1      40.190  25.845  27.664  1.00  0.00     0.029 A 
ATOM     44  C   UNL A   1      41.387  25.893  28.498  1.00  0.00     0.049 A 
ATOM     45  H   UNL A   1      41.778  27.195  30.076  1.00  0.00     0.167 HD
ATOM     46  C   UNL A   1      42.605  30.243  33.150  1.00  0.00     0.034 A 
ATOM     47  C   UNL A   1      42.455  25.078  28.379  1.00  0.00     0.034 A 
ATOM     48  C   UNL A   1      43.746  29.361  33.163  1.00  0.00     0.049 A 
ATOM     49  C   UNL A   1      43.622  25.265  29.315  1.00  0.00     0.074 A 
ATOM     50  C   UNL A   1      44.847  29.384  34.002  1.00  0.00     0.029 A 
ATOM     51  N   UNL A   1      43.937  28.296  32.289  1.00  0.00    -0.354 N 
ATOM     52  N   UNL A   1      43.793  26.170  30.251  1.00  0.00    -0.248 NA
ATOM     53  C   UNL A   1      44.735  24.317  29.184  1.00  0.00     0.031 C 
ATOM     54  C   UNL A   1      45.728  28.374  33.599  1.00  0.00     0.029 A 
ATOM     55  C   UNL A   1      45.146  27.671  32.555  1.00  0.00     0.049 A 
ATOM     56  H   UNL A   1      43.305  28.025  31.584  1.00  0.00     0.167 HD
ATOM     57  C   UNL A   1      45.019  25.877  30.843  1.00  0.00     0.074 A 
ATOM     58  C   UNL A   1      45.539  24.709  30.161  1.00  0.00     0.031 C 
ATOM     59  C   UNL A   1      45.654  26.510  31.861  1.00  0.00     0.034 A 
BRANCH  46  60
ATOM     60  C   UNL A   1      42.574  31.421  34.095  1.00  0.00     0.023 A 
ATOM     61  C   UNL A   1      41.777  31.417  35.254  1.00  0.00     0.031 A 
ATOM     62  C   UNL A   1      43.306  32.586  33.807  1.00  0.00     0.131 A 
ATOM     63  C   UNL A   1      41.658  32.581  36.027  1.00  0.00     0.055 A 
ATOM     64  C   UNL A   1      43.255  33.712  34.632  1.00  0.00     0.041 A 
ATOM     65  F   UNL A   1      44.069  32.659  32.705  1.00  0.00    -0.206 F 
ATOM     66  C   UNL A   1      42.412  33.721  35.740  1.00  0.00     0.022 A 
BRANCH  63  67
ATOM     67  S   UNL A   1      40.378  32.638  37.312  1.00  0.00     0.124 S 
ATOM     68  O   UNL A   1      41.165  32.404  38.521  1.00  0.00    -0.237 OA
ATOM     69  O   UNL A   1      39.832  33.981  37.155  1.00  0.00    -0.237 OA
ATOM     70  O   UNL A   1      39.476  31.549  36.945  1.00  0.00    -0.744 OA
ENDBRANCH  63  67
ENDBRANCH  46  60
BRANCH  47  71
ATOM     71  C   UNL A   1      42.481  24.020  27.331  1.00  0.00     0.023 A 
ATOM     72  C   UNL A   1      41.892  22.767  27.557  1.00  0.00     0.031 A 
ATOM     73  C   UNL A   1      43.118  24.238  26.096  1.00  0.00     0.131 A 
ATOM     74  C   UNL A   1      41.986  21.763  26.579  1.00  0.00     0.055 A 
ATOM     75  C   UNL A   1      43.169  23.253  25.110  1.00  0.00     0.041 A 
ATOM     76  F   UNL A   1      43.689  25.423  25.828  1.00  0.00    -0.206 F 
ATOM     77  C   UNL A   1      42.611  22.002  25.353  1.00  0.00     0.022 A 
BRANCH  74  78
ATOM     78  S   UNL A   1      41.336  20.114  26.963  1.00  0.00     0.124 S 
ATOM     79  O   UNL A   1      40.808  20.307  28.308  1.00  0.00    -0.237 OA
ATOM     80  O   UNL A   1      40.348  19.924  25.906  1.00  0.00    -0.237 OA
ATOM     81  O   UNL A   1      42.515  19.255  26.872  1.00  0.00    -0.744 OA
ENDBRANCH  74  78
ENDBRANCH  47  71
BRANCH  59  82
ATOM     82  C   UNL A   1      46.955  25.913  32.336  1.00  0.00     0.023 A 
ATOM     83  C   UNL A   1      48.170  26.161  31.676  1.00  0.00     0.031 A 
ATOM     84  C   UNL A   1      46.973  25.080  33.469  1.00  0.00     0.131 A 
ATOM     85  C   UNL A   1      49.347  25.543  32.127  1.00  0.00     0.055 A 
ATOM     86  C   UNL A   1      48.154  24.512  33.945  1.00  0.00     0.041 A 
ATOM     87  F   UNL A   1      45.838  24.810  34.136  1.00  0.00    -0.206 F 
ATOM     88  C   UNL A   1      49.349  24.733  33.266  1.00  0.00     0.022 A 
BRANCH  85  89
ATOM     89  S   UNL A   1      50.867  25.748  31.158  1.00  0.00     0.124 S 
ATOM     90  O   UNL A   1      51.058  27.193  31.196  1.00  0.00    -0.237 OA
ATOM     91  O   UNL A   1      51.830  24.957  31.919  1.00  0.00    -0.237 OA
ATOM     92  O   UNL A   1      50.517  25.201  29.849  1.00  0.00    -0.744 OA
ENDBRANCH  85  89
ENDBRANCH  59  82
ENDBRANCH  33  34
ENDBRANCH  25  28
ENDBRANCH  23  24
ENDBRANCH   1  23
TORSDOF 16
ENDMDL
MODEL 3
REMARK VINA RESULT:     -10.1      6.727     11.084
REMARK SMILES C[C@@H](C(=O)NCCCCNC(=O)c1ccc(-c2c3nc(c(-c4cc(S(=O)(=O)[O-])ccc4F)c4ccc([nH]4)c(-c4cc(S(=O)(=O)[O-])ccc4F)c4nc(c(-c5cc(S(=O)(=O)[O-])ccc5F)c5ccc2[nH]5)C=C4)C=C3)cc1)c1ccc(-c2ccccc2)c(F)c1
REMARK SMILES IDX 8 1 7 2 6 3 5 4 3 5 4 6 2 8 1 9 76 10 77 11 88 12 78 13
REMARK SMILES IDX 86 14 79 15 87 16 80 17 81 18 85 19 82 20 84 21 83 22 9 23
REMARK SMILES IDX 10 24 11 25 12 27 13 28 14 29 75 30 15 31 74 32 16 33 17 34
REMARK SMILES IDX 18 35 68 36 19 37 73 38 67 39 69 40 20 41 72 42 66 43 65 44
REMARK SMILES IDX 21 46 53 47 33 48 52 49 34 50 37 51 51 52 70 53 35 54 36 55
REMARK SMILES IDX 50 57 71 58 38 59 22 60 23 61 31 62 24 63 30 64 32 65 29 66
REMARK SMILES IDX 25 67 26 68 27 69 28 70 54 71 55 72 63 73 56 74 62 75 64 76
REMARK SMILES IDX 61 77 57 78 58 79 59 80 60 81 39 82 40 83 48 84 41 85 47 86
REMARK SMILES IDX 49 87 46 88 42 89 43 90 44 91 45 92
REMARK H PARENT 5 7 10 26 69 45 37 56
REMARK Flexibility Score: inf
ROOT
ATOM      1  C   UNL A   1      31.723  29.000  25.804  1.00  0.00     0.023 C 
ENDROOT
BRANCH   1   2
ATOM      2  C   UNL A   1      31.505  27.825  26.761  1.00  0.00     0.023 C 
BRANCH   2   3
ATOM      3  C   UNL A   1      32.251  26.539  26.389  1.00  0.00     0.116 C 
BRANCH   3   4
ATOM      4  N   UNL A   1      31.472  25.365  26.735  1.00  0.00    -0.356 N 
ATOM      5  C   UNL A   1      30.611  24.628  25.970  1.00  0.00     0.227 C 
ATOM      6  O   UNL A   1      29.828  23.896  26.577  1.00  0.00    -0.274 OA
ATOM      7  H   UNL A   1      31.580  25.052  27.661  1.00  0.00     0.163 HD
BRANCH   5   8
ATOM      8  C   UNL A   1      30.642  24.765  24.436  1.00  0.00     0.105 C 
ATOM      9  C   UNL A   1      32.087  24.511  23.980  1.00  0.00     0.023 C 
BRANCH   8  10
ATOM     10  C   UNL A   1      30.114  26.088  23.859  1.00  0.00    -0.033 A 
ATOM     11  C   UNL A   1      28.785  26.513  23.993  1.00  0.00     0.005 A 
ATOM     12  C   UNL A   1      30.978  26.926  23.132  1.00  0.00     0.044 A 
ATOM     13  C   UNL A   1      28.373  27.775  23.540  1.00  0.00     0.012 A 
ATOM     14  C   UNL A   1      30.561  28.178  22.676  1.00  0.00     0.131 A 
ATOM     15  C   UNL A   1      29.263  28.646  22.899  1.00  0.00     0.017 A 
ATOM     16  F   UNL A   1      31.459  28.944  22.037  1.00  0.00    -0.206 F 
BRANCH  15  17
ATOM     17  C   UNL A   1      28.845  29.998  22.507  1.00  0.00    -0.015 A 
ATOM     18  C   UNL A   1      28.854  31.047  23.445  1.00  0.00     0.009 A 
ATOM     19  C   UNL A   1      28.433  30.288  21.197  1.00  0.00     0.009 A 
ATOM     20  C   UNL A   1      28.463  32.339  23.085  1.00  0.00     0.001 A 
ATOM     21  C   UNL A   1      28.039  31.578  20.837  1.00  0.00     0.001 A 
ATOM     22  C   UNL A   1      28.053  32.603  21.781  1.00  0.00     0.000 A 
ENDBRANCH  15  17
ENDBRANCH   8  10
ENDBRANCH   5   8
ENDBRANCH   3   4
ENDBRANCH   2   3
ENDBRANCH   1   2
BRANCH   1  23
ATOM     23  C   UNL A   1      32.957  29.843  26.093  1.00  0.00     0.116 C 
BRANCH  23  24
ATOM     24  N   UNL A   1      32.626  31.216  26.442  1.00  0.00    -0.352 N 
ATOM     25  C   UNL A   1      33.268  32.055  27.320  1.00  0.00     0.251 C 
ATOM     26  H   UNL A   1      31.837  31.592  25.989  1.00  0.00     0.163 HD
ATOM     27  O   UNL A   1      32.764  33.135  27.612  1.00  0.00    -0.269 OA
BRANCH  25  28
ATOM     28  C   UNL A   1      34.544  31.628  27.930  1.00  0.00     0.039 A 
ATOM     29  C   UNL A   1      35.600  32.540  28.004  1.00  0.00     0.014 A 
ATOM     30  C   UNL A   1      34.688  30.339  28.451  1.00  0.00     0.014 A 
ATOM     31  C   UNL A   1      36.781  32.180  28.659  1.00  0.00     0.010 A 
ATOM     32  C   UNL A   1      35.836  30.006  29.162  1.00  0.00     0.010 A 
ATOM     33  C   UNL A   1      36.895  30.921  29.270  1.00  0.00    -0.014 A 
BRANCH  33  34
ATOM     34  C   UNL A   1      38.121  30.519  30.005  1.00  0.00     0.031 A 
ATOM     35  C   UNL A   1      39.065  29.525  29.383  1.00  0.00     0.074 A 
ATOM     36  C   UNL A   1      38.339  30.972  31.254  1.00  0.00     0.049 A 
ATOM     37  N   UNL A   1      40.104  28.928  29.904  1.00  0.00    -0.248 NA
ATOM     38  C   UNL A   1      38.769  29.126  28.000  1.00  0.00     0.031 C 
ATOM     39  C   UNL A   1      37.478  31.912  31.975  1.00  0.00     0.029 A 
ATOM     40  N   UNL A   1      39.340  30.686  32.148  1.00  0.00    -0.354 N 
ATOM     41  C   UNL A   1      40.572  28.061  28.922  1.00  0.00     0.074 A 
ATOM     42  C   UNL A   1      39.664  28.172  27.800  1.00  0.00     0.031 C 
ATOM     43  C   UNL A   1      37.994  32.133  33.196  1.00  0.00     0.029 A 
ATOM     44  C   UNL A   1      39.194  31.317  33.361  1.00  0.00     0.049 A 
ATOM     45  H   UNL A   1      40.092  30.087  31.941  1.00  0.00     0.167 HD
ATOM     46  C   UNL A   1      41.669  27.261  28.949  1.00  0.00     0.034 A 
ATOM     47  C   UNL A   1      39.931  31.232  34.487  1.00  0.00     0.034 A 
ATOM     48  C   UNL A   1      42.571  27.180  30.071  1.00  0.00     0.049 A 
ATOM     49  C   UNL A   1      41.140  30.331  34.500  1.00  0.00     0.074 A 
ATOM     50  C   UNL A   1      43.738  26.446  30.189  1.00  0.00     0.029 A 
ATOM     51  N   UNL A   1      42.404  27.854  31.275  1.00  0.00    -0.354 N 
ATOM     52  N   UNL A   1      41.591  29.542  33.552  1.00  0.00    -0.248 NA
ATOM     53  C   UNL A   1      41.943  30.317  35.729  1.00  0.00     0.031 C 
ATOM     54  C   UNL A   1      44.244  26.629  31.481  1.00  0.00     0.029 A 
ATOM     55  C   UNL A   1      43.433  27.535  32.148  1.00  0.00     0.049 A 
ATOM     56  H   UNL A   1      41.662  28.468  31.479  1.00  0.00     0.167 HD
ATOM     57  C   UNL A   1      42.751  28.963  34.062  1.00  0.00     0.074 A 
ATOM     58  C   UNL A   1      42.931  29.500  35.395  1.00  0.00     0.031 C 
ATOM     59  C   UNL A   1      43.595  28.075  33.478  1.00  0.00     0.034 A 
BRANCH  46  60
ATOM     60  C   UNL A   1      41.921  26.398  27.735  1.00  0.00     0.023 A 
ATOM     61  C   UNL A   1      41.523  25.049  27.693  1.00  0.00     0.031 A 
ATOM     62  C   UNL A   1      42.616  26.911  26.625  1.00  0.00     0.131 A 
ATOM     63  C   UNL A   1      41.904  24.239  26.613  1.00  0.00     0.055 A 
ATOM     64  C   UNL A   1      42.912  26.123  25.512  1.00  0.00     0.041 A 
ATOM     65  F   UNL A   1      43.040  28.185  26.614  1.00  0.00    -0.206 F 
ATOM     66  C   UNL A   1      42.573  24.772  25.509  1.00  0.00     0.022 A 
BRANCH  63  67
ATOM     67  S   UNL A   1      41.661  22.447  26.751  1.00  0.00     0.124 S 
ATOM     68  O   UNL A   1      41.915  22.010  25.379  1.00  0.00    -0.237 OA
ATOM     69  O   UNL A   1      42.664  22.066  27.738  1.00  0.00    -0.237 OA
ATOM     70  O   UNL A   1      40.273  22.321  27.189  1.00  0.00    -0.744 OA
ENDBRANCH  63  67
ENDBRANCH  46  60
BRANCH  47  71
ATOM     71  C   UNL A   1      39.546  32.008  35.699  1.00  0.00     0.023 A 
ATOM     72  C   UNL A   1      38.694  31.457  36.668  1.00  0.00     0.031 A 
ATOM     73  C   UNL A   1      40.004  33.324  35.893  1.00  0.00     0.131 A 
ATOM     74  C   UNL A   1      38.293  32.231  37.768  1.00  0.00     0.055 A 
ATOM     75  C   UNL A   1      39.639  34.073  37.011  1.00  0.00     0.041 A 
ATOM     76  F   UNL A   1      40.828  33.893  34.999  1.00  0.00    -0.206 F 
ATOM     77  C   UNL A   1      38.769  33.531  37.952  1.00  0.00     0.022 A 
BRANCH  74  78
ATOM     78  S   UNL A   1      37.083  31.534  38.925  1.00  0.00     0.124 S 
ATOM     79  O   UNL A   1      36.871  30.203  38.370  1.00  0.00    -0.237 OA
ATOM     80  O   UNL A   1      37.804  31.595  40.192  1.00  0.00    -0.237 OA
ATOM     81  O   UNL A   1      35.945  32.445  38.816  1.00  0.00    -0.744 OA
ENDBRANCH  74  78
ENDBRANCH  47  71
BRANCH  59  82
ATOM     82  C   UNL A   1      44.821  27.676  34.261  1.00  0.00     0.023 A 
ATOM     83  C   UNL A   1      44.830  26.550  35.102  1.00  0.00     0.031 A 
ATOM     84  C   UNL A   1      45.997  28.441  34.161  1.00  0.00     0.131 A 
ATOM     85  C   UNL A   1      45.980  26.248  35.849  1.00  0.00     0.055 A 
ATOM     86  C   UNL A   1      47.154  28.104  34.864  1.00  0.00     0.041 A 
ATOM     87  F   UNL A   1      46.040  29.526  33.372  1.00  0.00    -0.206 F 
ATOM     88  C   UNL A   1      47.146  27.009  35.722  1.00  0.00     0.022 A 
BRANCH  85  89
ATOM     89  S   UNL A   1      45.910  24.890  37.050  1.00  0.00     0.124 S 
ATOM     90  O   UNL A   1      44.486  24.572  37.064  1.00  0.00    -0.237 OA
ATOM     91  O   UNL A   1      46.781  23.890  36.441  1.00  0.00    -0.237 OA
ATOM     92  O   UNL A   1      46.424  25.492  38.279  1.00  0.00    -0.744 OA
ENDBRANCH  85  89
ENDBRANCH  59  82
ENDBRANCH  33  34
ENDBRANCH  25  28
ENDBRANCH  23  24
ENDBRANCH   1  23
TORSDOF 16
ENDMDL
