MODEL 1
REMARK VINA RESULT:     -11.9      0.000      0.000
REMARK SMILES CS(=O)(=O)[C@@H]1CCC[C@@H](Sc2ccc(C(=O)NCCCCNC(=O)c3ccc(-c4c5nc(c(-c6cc(S(=O)(=O)[O-])ccc6F)c6ccc([nH]6)c(-c6cc(S(=O)(=O)[O-])ccc6F)c6nc(c(-c7cc(S(=O)(=O)[O-])ccc7F)c7ccc4[nH]7)C=C6)C=C5)cc3)cn2)C1
REMARK SMILES IDX 19 1 18 2 17 3 15 4 16 5 14 7 11 8 12 9 89 10 13 11 88 12
REMARK SMILES IDX 10 13 9 14 5 15 6 16 90 17 7 18 8 19 2 20 1 21 3 22 4 23
REMARK SMILES IDX 20 24 21 25 22 26 23 27 24 29 25 30 26 31 87 32 27 33 86 34
REMARK SMILES IDX 28 35 29 36 30 37 80 38 31 39 85 40 79 41 81 42 32 43 84 44
REMARK SMILES IDX 78 45 77 46 33 48 65 49 45 50 64 51 46 52 49 53 63 54 82 55
REMARK SMILES IDX 47 56 48 57 62 59 83 60 50 61 34 62 35 63 43 64 36 65 42 66
REMARK SMILES IDX 44 67 41 68 37 69 38 70 39 71 40 72 66 73 67 74 75 75 68 76
REMARK SMILES IDX 74 77 76 78 73 79 69 80 70 81 71 82 72 83 51 84 52 85 60 86
REMARK SMILES IDX 53 87 59 88 61 89 58 90 54 91 55 92 56 93 57 94
REMARK H PARENT 17 6 22 28 81 47 49 58
REMARK Flexibility Score: inf
ROOT
ATOM      1  C   UNL A   1      32.563  30.045  26.908  1.00  0.00     0.023 C 
ENDROOT
BRANCH   1   2
ATOM      2  C   UNL A   1      32.787  29.565  25.464  1.00  0.00     0.116 C 
BRANCH   2   3
ATOM      3  N   UNL A   1      31.639  29.856  24.604  1.00  0.00    -0.352 N 
ATOM      4  C   UNL A   1      30.759  29.083  23.869  1.00  0.00     0.252 C 
ATOM      5  O   UNL A   1      29.807  29.637  23.324  1.00  0.00    -0.269 OA
ATOM      6  H   UNL A   1      31.449  30.820  24.534  1.00  0.00     0.163 HD
BRANCH   4   7
ATOM      7  C   UNL A   1      30.892  27.616  23.717  1.00  0.00     0.058 A 
ATOM      8  C   UNL A   1      31.057  24.851  23.310  1.00  0.00     0.096 A 
ATOM      9  C   UNL A   1      30.232  25.407  24.234  1.00  0.00     0.036 A 
ATOM     10  N   UNL A   1      31.804  25.658  22.531  1.00  0.00    -0.249 NA
ATOM     11  C   UNL A   1      30.240  26.745  24.544  1.00  0.00     0.018 A 
ATOM     12  C   UNL A   1      31.673  27.022  22.724  1.00  0.00     0.126 A 
BRANCH   8  13
ATOM     13  S   UNL A   1      31.188  23.074  23.220  1.00  0.00    -0.103 SA
BRANCH  13  14
ATOM     14  C   UNL A   1      32.386  22.441  24.577  1.00  0.00     0.054 C 
ATOM     15  C   UNL A   1      34.813  23.352  24.490  1.00  0.00     0.109 C 
ATOM     16  C   UNL A   1      34.636  23.969  25.892  1.00  0.00     0.020 C 
ATOM     17  C   UNL A   1      33.871  22.176  24.231  1.00  0.00     0.034 C 
ATOM     18  C   UNL A   1      33.199  24.123  26.418  1.00  0.00     0.002 C 
ATOM     19  C   UNL A   1      32.208  23.041  25.983  1.00  0.00     0.015 C 
BRANCH  15  20
ATOM     20  S   UNL A   1      36.545  23.011  24.125  1.00  0.00     0.150 S 
ATOM     21  C   UNL A   1      36.709  21.309  24.651  1.00  0.00     0.158 C 
ATOM     22  O   UNL A   1      37.366  23.810  25.020  1.00  0.00    -0.229 OA
ATOM     23  O   UNL A   1      36.747  23.061  22.695  1.00  0.00    -0.229 OA
ENDBRANCH  15  20
ENDBRANCH  13  14
ENDBRANCH   8  13
ENDBRANCH   4   7
ENDBRANCH   2   3
ENDBRANCH   1   2
BRANCH   1  24
ATOM     24  C   UNL A   1      32.113  31.504  27.006  1.00  0.00     0.023 C 
BRANCH  24  25
ATOM     25  C   UNL A   1      33.225  32.493  27.343  1.00  0.00     0.116 C 
BRANCH  25  26
ATOM     26  N   UNL A   1      32.740  33.823  27.675  1.00  0.00    -0.352 N 
ATOM     27  C   UNL A   1      33.177  34.657  28.681  1.00  0.00     0.251 C 
ATOM     28  H   UNL A   1      32.010  34.170  27.112  1.00  0.00     0.163 HD
ATOM     29  O   UNL A   1      32.583  35.707  28.907  1.00  0.00    -0.269 OA
BRANCH  27  30
ATOM     30  C   UNL A   1      34.332  34.244  29.506  1.00  0.00     0.039 A 
ATOM     31  C   UNL A   1      34.108  33.492  30.661  1.00  0.00     0.014 A 
ATOM     32  C   UNL A   1      35.637  34.543  29.102  1.00  0.00     0.014 A 
ATOM     33  C   UNL A   1      35.195  32.974  31.367  1.00  0.00     0.010 A 
ATOM     34  C   UNL A   1      36.714  33.957  29.760  1.00  0.00     0.010 A 
ATOM     35  C   UNL A   1      36.507  33.164  30.898  1.00  0.00    -0.014 A 
BRANCH  35  36
ATOM     36  C   UNL A   1      37.671  32.537  31.581  1.00  0.00     0.031 A 
ATOM     37  C   UNL A   1      38.391  31.384  30.938  1.00  0.00     0.074 A 
ATOM     38  C   UNL A   1      38.038  32.966  32.806  1.00  0.00     0.049 A 
ATOM     39  N   UNL A   1      39.376  30.659  31.403  1.00  0.00    -0.248 NA
ATOM     40  C   UNL A   1      37.921  30.973  29.606  1.00  0.00     0.031 C 
ATOM     41  C   UNL A   1      37.391  34.048  33.551  1.00  0.00     0.029 A 
ATOM     42  N   UNL A   1      39.040  32.543  33.644  1.00  0.00    -0.354 N 
ATOM     43  C   UNL A   1      39.639  29.705  30.427  1.00  0.00     0.074 A 
ATOM     44  C   UNL A   1      38.661  29.898  29.378  1.00  0.00     0.031 C 
ATOM     45  C   UNL A   1      38.029  34.222  34.720  1.00  0.00     0.029 A 
ATOM     46  C   UNL A   1      39.096  33.233  34.835  1.00  0.00     0.049 A 
ATOM     47  H   UNL A   1      39.661  31.815  33.415  1.00  0.00     0.167 HD
ATOM     48  C   UNL A   1      40.624  28.773  30.393  1.00  0.00     0.034 A 
ATOM     49  C   UNL A   1      39.902  33.076  35.904  1.00  0.00     0.034 A 
ATOM     50  C   UNL A   1      41.594  28.595  31.447  1.00  0.00     0.049 A 
ATOM     51  C   UNL A   1      40.962  32.002  35.864  1.00  0.00     0.074 A 
ATOM     52  C   UNL A   1      42.658  27.711  31.497  1.00  0.00     0.029 A 
ATOM     53  N   UNL A   1      41.613  29.305  32.641  1.00  0.00    -0.354 N 
ATOM     54  N   UNL A   1      41.229  31.141  34.910  1.00  0.00    -0.248 NA
ATOM     55  C   UNL A   1      41.835  31.888  37.039  1.00  0.00     0.031 C 
ATOM     56  C   UNL A   1      43.270  27.832  32.749  1.00  0.00     0.029 A 
ATOM     57  C   UNL A   1      42.649  28.855  33.447  1.00  0.00     0.049 A 
ATOM     58  H   UNL A   1      40.984  30.024  32.880  1.00  0.00     0.167 HD
ATOM     59  C   UNL A   1      42.324  30.406  35.358  1.00  0.00     0.074 A 
ATOM     60  C   UNL A   1      42.675  30.938  36.658  1.00  0.00     0.031 C 
ATOM     61  C   UNL A   1      42.984  29.387  34.748  1.00  0.00     0.034 A 
BRANCH  48  62
ATOM     62  C   UNL A   1      40.679  27.862  29.189  1.00  0.00     0.023 A 
ATOM     63  C   UNL A   1      41.620  28.055  28.161  1.00  0.00     0.031 A 
ATOM     64  C   UNL A   1      39.766  26.802  29.050  1.00  0.00     0.131 A 
ATOM     65  C   UNL A   1      41.574  27.257  27.009  1.00  0.00     0.055 A 
ATOM     66  C   UNL A   1      39.785  25.953  27.942  1.00  0.00     0.041 A 
ATOM     67  F   UNL A   1      38.829  26.580  29.985  1.00  0.00    -0.206 F 
ATOM     68  C   UNL A   1      40.681  26.188  26.904  1.00  0.00     0.022 A 
BRANCH  65  69
ATOM     69  S   UNL A   1      42.588  27.738  25.584  1.00  0.00     0.124 S 
ATOM     70  O   UNL A   1      41.848  28.890  25.072  1.00  0.00    -0.237 OA
ATOM     71  O   UNL A   1      43.878  28.029  26.198  1.00  0.00    -0.237 OA
ATOM     72  O   UNL A   1      42.556  26.557  24.726  1.00  0.00    -0.744 OA
ENDBRANCH  65  69
ENDBRANCH  48  62
BRANCH  49  73
ATOM     73  C   UNL A   1      39.734  33.936  37.113  1.00  0.00     0.023 A 
ATOM     74  C   UNL A   1      39.080  33.457  38.261  1.00  0.00     0.031 A 
ATOM     75  C   UNL A   1      40.181  35.270  37.121  1.00  0.00     0.131 A 
ATOM     76  C   UNL A   1      38.845  34.318  39.344  1.00  0.00     0.055 A 
ATOM     77  C   UNL A   1      40.000  36.104  38.226  1.00  0.00     0.041 A 
ATOM     78  F   UNL A   1      40.813  35.780  36.052  1.00  0.00    -0.206 F 
ATOM     79  C   UNL A   1      39.315  35.633  39.341  1.00  0.00     0.022 A 
BRANCH  76  80
ATOM     80  S   UNL A   1      37.825  33.723  40.721  1.00  0.00     0.124 S 
ATOM     81  O   UNL A   1      36.791  32.972  40.019  1.00  0.00    -0.237 OA
ATOM     82  O   UNL A   1      38.782  32.936  41.489  1.00  0.00    -0.237 OA
ATOM     83  O   UNL A   1      37.373  34.956  41.365  1.00  0.00    -0.744 OA
ENDBRANCH  76  80
ENDBRANCH  49  73
BRANCH  61  84
ATOM     84  C   UNL A   1      44.185  28.816  35.463  1.00  0.00     0.023 A 
ATOM     85  C   UNL A   1      44.055  27.936  36.551  1.00  0.00     0.031 A 
ATOM     86  C   UNL A   1      45.484  29.166  35.050  1.00  0.00     0.131 A 
ATOM     87  C   UNL A   1      45.200  27.485  37.225  1.00  0.00     0.055 A 
ATOM     88  C   UNL A   1      46.620  28.658  35.679  1.00  0.00     0.041 A 
ATOM     89  F   UNL A   1      45.670  30.007  34.018  1.00  0.00    -0.206 F 
ATOM     90  C   UNL A   1      46.482  27.822  36.784  1.00  0.00     0.022 A 
BRANCH  87  91
ATOM     91  S   UNL A   1      44.991  26.531  38.754  1.00  0.00     0.124 S 
ATOM     92  O   UNL A   1      45.715  25.302  38.446  1.00  0.00    -0.237 OA
ATOM     93  O   UNL A   1      45.606  27.401  39.751  1.00  0.00    -0.237 OA
ATOM     94  O   UNL A   1      43.541  26.384  38.871  1.00  0.00    -0.744 OA
ENDBRANCH  87  91
ENDBRANCH  61  84
ENDBRANCH  35  36
ENDBRANCH  27  30
ENDBRANCH  25  26
ENDBRANCH  24  25
ENDBRANCH   1  24
TORSDOF 17
ENDMDL
MODEL 2
REMARK VINA RESULT:     -11.9      3.422      8.648
REMARK SMILES CS(=O)(=O)[C@@H]1CCC[C@@H](Sc2ccc(C(=O)NCCCCNC(=O)c3ccc(-c4c5nc(c(-c6cc(S(=O)(=O)[O-])ccc6F)c6ccc([nH]6)c(-c6cc(S(=O)(=O)[O-])ccc6F)c6nc(c(-c7cc(S(=O)(=O)[O-])ccc7F)c7ccc4[nH]7)C=C6)C=C5)cc3)cn2)C1
REMARK SMILES IDX 19 1 18 2 17 3 15 4 16 5 14 7 11 8 12 9 89 10 13 11 88 12
REMARK SMILES IDX 10 13 9 14 5 15 6 16 90 17 7 18 8 19 2 20 1 21 3 22 4 23
REMARK SMILES IDX 20 24 21 25 22 26 23 27 24 29 25 30 26 31 87 32 27 33 86 34
REMARK SMILES IDX 28 35 29 36 30 37 80 38 31 39 85 40 79 41 81 42 32 43 84 44
REMARK SMILES IDX 78 45 77 46 33 48 65 49 45 50 64 51 46 52 49 53 63 54 82 55
REMARK SMILES IDX 47 56 48 57 62 59 83 60 50 61 34 62 35 63 43 64 36 65 42 66
REMARK SMILES IDX 44 67 41 68 37 69 38 70 39 71 40 72 66 73 67 74 75 75 68 76
REMARK SMILES IDX 74 77 76 78 73 79 69 80 70 81 71 82 72 83 51 84 52 85 60 86
REMARK SMILES IDX 53 87 59 88 61 89 58 90 54 91 55 92 56 93 57 94
REMARK H PARENT 17 6 22 28 81 47 49 58
REMARK Flexibility Score: inf
ROOT
ATOM      1  C   UNL A   1      32.948  29.355  24.918  1.00  0.00     0.023 C 
ENDROOT
BRANCH   1   2
ATOM      2  C   UNL A   1      31.452  29.704  24.989  1.00  0.00     0.116 C 
BRANCH   2   3
ATOM      3  N   UNL A   1      30.850  29.814  23.659  1.00  0.00    -0.352 N 
ATOM      4  C   UNL A   1      30.410  28.901  22.717  1.00  0.00     0.252 C 
ATOM      5  O   UNL A   1      29.837  29.325  21.716  1.00  0.00    -0.269 OA
ATOM      6  H   UNL A   1      30.730  30.747  23.370  1.00  0.00     0.163 HD
BRANCH   4   7
ATOM      7  C   UNL A   1      30.577  27.437  22.859  1.00  0.00     0.058 A 
ATOM      8  C   UNL A   1      30.946  24.691  23.265  1.00  0.00     0.096 A 
ATOM      9  C   UNL A   1      31.805  25.446  22.531  1.00  0.00     0.036 A 
ATOM     10  N   UNL A   1      29.891  25.289  23.852  1.00  0.00    -0.249 NA
ATOM     11  C   UNL A   1      31.567  26.759  22.206  1.00  0.00     0.018 A 
ATOM     12  C   UNL A   1      29.754  26.653  23.671  1.00  0.00     0.126 A 
BRANCH   8  13
ATOM     13  S   UNL A   1      31.196  22.927  23.351  1.00  0.00    -0.103 SA
BRANCH  13  14
ATOM     14  C   UNL A   1      32.435  22.514  24.755  1.00  0.00     0.054 C 
ATOM     15  C   UNL A   1      34.853  23.404  24.460  1.00  0.00     0.109 C 
ATOM     16  C   UNL A   1      34.712  24.230  25.754  1.00  0.00     0.020 C 
ATOM     17  C   UNL A   1      33.911  22.201  24.412  1.00  0.00     0.034 C 
ATOM     18  C   UNL A   1      33.288  24.461  26.291  1.00  0.00     0.002 C 
ATOM     19  C   UNL A   1      32.292  23.323  26.056  1.00  0.00     0.015 C 
BRANCH  15  20
ATOM     20  S   UNL A   1      36.576  23.014  24.103  1.00  0.00     0.150 S 
ATOM     21  C   UNL A   1      36.693  21.313  24.643  1.00  0.00     0.158 C 
ATOM     22  O   UNL A   1      37.415  23.799  24.993  1.00  0.00    -0.229 OA
ATOM     23  O   UNL A   1      36.783  23.046  22.673  1.00  0.00    -0.229 OA
ENDBRANCH  15  20
ENDBRANCH  13  14
ENDBRANCH   8  13
ENDBRANCH   4   7
ENDBRANCH   2   3
ENDBRANCH   1   2
BRANCH   1  24
ATOM     24  C   UNL A   1      33.398  28.368  25.997  1.00  0.00     0.023 C 
BRANCH  24  25
ATOM     25  C   UNL A   1      34.252  28.979  27.105  1.00  0.00     0.116 C 
BRANCH  25  26
ATOM     26  N   UNL A   1      33.882  30.346  27.437  1.00  0.00    -0.352 N 
ATOM     27  C   UNL A   1      34.549  31.228  28.259  1.00  0.00     0.251 C 
ATOM     28  H   UNL A   1      33.054  30.682  27.023  1.00  0.00     0.163 HD
ATOM     29  O   UNL A   1      34.044  32.313  28.532  1.00  0.00    -0.269 OA
BRANCH  27  30
ATOM     30  C   UNL A   1      35.848  30.827  28.840  1.00  0.00     0.039 A 
ATOM     31  C   UNL A   1      35.871  29.872  29.858  1.00  0.00     0.014 A 
ATOM     32  C   UNL A   1      37.044  31.344  28.332  1.00  0.00     0.014 A 
ATOM     33  C   UNL A   1      37.096  29.380  30.313  1.00  0.00     0.010 A 
ATOM     34  C   UNL A   1      38.258  30.792  28.728  1.00  0.00     0.010 A 
ATOM     35  C   UNL A   1      38.299  29.801  29.721  1.00  0.00    -0.014 A 
BRANCH  35  36
ATOM     36  C   UNL A   1      39.606  29.215  30.124  1.00  0.00     0.031 A 
ATOM     37  C   UNL A   1      40.404  29.845  31.233  1.00  0.00     0.074 A 
ATOM     38  C   UNL A   1      40.100  28.155  29.452  1.00  0.00     0.049 A 
ATOM     39  N   UNL A   1      41.592  29.529  31.680  1.00  0.00    -0.248 NA
ATOM     40  C   UNL A   1      39.796  31.002  31.907  1.00  0.00     0.031 C 
ATOM     41  C   UNL A   1      39.439  27.483  28.331  1.00  0.00     0.029 A 
ATOM     42  N   UNL A   1      41.274  27.459  29.607  1.00  0.00    -0.354 N 
ATOM     43  C   UNL A   1      41.877  30.450  32.683  1.00  0.00     0.074 A 
ATOM     44  C   UNL A   1      40.768  31.379  32.724  1.00  0.00     0.031 C 
ATOM     45  C   UNL A   1      40.202  26.457  27.921  1.00  0.00     0.029 A 
ATOM     46  C   UNL A   1      41.430  26.428  28.709  1.00  0.00     0.049 A 
ATOM     47  H   UNL A   1      41.941  27.679  30.296  1.00  0.00     0.167 HD
ATOM     48  C   UNL A   1      42.949  30.499  33.512  1.00  0.00     0.034 A 
ATOM     49  C   UNL A   1      42.452  25.567  28.528  1.00  0.00     0.034 A 
ATOM     50  C   UNL A   1      44.045  29.561  33.459  1.00  0.00     0.049 A 
ATOM     51  C   UNL A   1      43.656  25.668  29.433  1.00  0.00     0.074 A 
ATOM     52  C   UNL A   1      45.160  29.493  34.277  1.00  0.00     0.029 A 
ATOM     53  N   UNL A   1      44.173  28.536  32.530  1.00  0.00    -0.354 N 
ATOM     54  N   UNL A   1      43.886  26.515  30.410  1.00  0.00    -0.248 NA
ATOM     55  C   UNL A   1      44.730  24.691  29.218  1.00  0.00     0.031 C 
ATOM     56  C   UNL A   1      45.996  28.481  33.796  1.00  0.00     0.029 A 
ATOM     57  C   UNL A   1      45.363  27.853  32.735  1.00  0.00     0.049 A 
ATOM     58  H   UNL A   1      43.514  28.324  31.830  1.00  0.00     0.167 HD
ATOM     59  C   UNL A   1      45.117  26.148  30.948  1.00  0.00     0.074 A 
ATOM     60  C   UNL A   1      45.570  24.995  30.197  1.00  0.00     0.031 C 
ATOM     61  C   UNL A   1      45.809  26.710  31.972  1.00  0.00     0.034 A 
BRANCH  48  62
ATOM     62  C   UNL A   1      42.994  31.618  34.526  1.00  0.00     0.023 A 
ATOM     63  C   UNL A   1      42.285  31.542  35.739  1.00  0.00     0.031 A 
ATOM     64  C   UNL A   1      43.733  32.787  34.271  1.00  0.00     0.131 A 
ATOM     65  C   UNL A   1      42.264  32.642  36.608  1.00  0.00     0.055 A 
ATOM     66  C   UNL A   1      43.781  33.842  35.184  1.00  0.00     0.041 A 
ATOM     67  F   UNL A   1      44.411  32.929  33.122  1.00  0.00    -0.206 F 
ATOM     68  C   UNL A   1      43.030  33.782  36.354  1.00  0.00     0.022 A 
BRANCH  65  69
ATOM     69  S   UNL A   1      41.094  32.625  37.995  1.00  0.00     0.124 S 
ATOM     70  O   UNL A   1      41.845  31.884  39.005  1.00  0.00    -0.237 OA
ATOM     71  O   UNL A   1      40.897  34.046  38.259  1.00  0.00    -0.237 OA
ATOM     72  O   UNL A   1      39.932  31.923  37.455  1.00  0.00    -0.744 OA
ENDBRANCH  65  69
ENDBRANCH  48  62
BRANCH  49  73
ATOM     73  C   UNL A   1      42.401  24.547  27.440  1.00  0.00     0.023 A 
ATOM     74  C   UNL A   1      41.727  23.327  27.618  1.00  0.00     0.031 A 
ATOM     75  C   UNL A   1      43.069  24.755  26.220  1.00  0.00     0.131 A 
ATOM     76  C   UNL A   1      41.781  22.343  26.618  1.00  0.00     0.055 A 
ATOM     77  C   UNL A   1      43.067  23.798  25.202  1.00  0.00     0.041 A 
ATOM     78  F   UNL A   1      43.729  25.902  25.994  1.00  0.00    -0.206 F 
ATOM     79  C   UNL A   1      42.432  22.577  25.405  1.00  0.00     0.022 A 
BRANCH  76  80
ATOM     80  S   UNL A   1      41.071  20.711  26.966  1.00  0.00     0.124 S 
ATOM     81  O   UNL A   1      40.772  20.816  28.389  1.00  0.00    -0.237 OA
ATOM     82  O   UNL A   1      39.922  20.683  26.068  1.00  0.00    -0.237 OA
ATOM     83  O   UNL A   1      42.153  19.790  26.620  1.00  0.00    -0.744 OA
ENDBRANCH  76  80
ENDBRANCH  49  73
BRANCH  61  84
ATOM     84  C   UNL A   1      47.107  26.050  32.372  1.00  0.00     0.023 A 
ATOM     85  C   UNL A   1      48.313  26.310  31.698  1.00  0.00     0.031 A 
ATOM     86  C   UNL A   1      47.135  25.139  33.444  1.00  0.00     0.131 A 
ATOM     87  C   UNL A   1      49.481  25.622  32.064  1.00  0.00     0.055 A 
ATOM     88  C   UNL A   1      48.313  24.512  33.849  1.00  0.00     0.041 A 
ATOM     89  F   UNL A   1      46.012  24.847  34.123  1.00  0.00    -0.206 F 
ATOM     90  C   UNL A   1      49.494  24.741  33.148  1.00  0.00     0.022 A 
BRANCH  87  91
ATOM     91  S   UNL A   1      50.963  25.816  31.037  1.00  0.00     0.124 S 
ATOM     92  O   UNL A   1      51.977  25.138  31.837  1.00  0.00    -0.237 OA
ATOM     93  O   UNL A   1      50.575  25.147  29.799  1.00  0.00    -0.237 OA
ATOM     94  O   UNL A   1      51.122  27.266  30.933  1.00  0.00    -0.744 OA
ENDBRANCH  87  91
ENDBRANCH  61  84
ENDBRANCH  35  36
ENDBRANCH  27  30
ENDBRANCH  25  26
ENDBRANCH  24  25
ENDBRANCH   1  24
TORSDOF 17
ENDMDL
MODEL 3
REMARK VINA RESULT:     -11.7      2.413      7.876
REMARK SMILES CS(=O)(=O)[C@@H]1CCC[C@@H](Sc2ccc(C(=O)NCCCCNC(=O)c3ccc(-c4c5nc(c(-c6cc(S(=O)(=O)[O-])ccc6F)c6ccc([nH]6)c(-c6cc(S(=O)(=O)[O-])ccc6F)c6nc(c(-c7cc(S(=O)(=O)[O-])ccc7F)c7ccc4[nH]7)C=C6)C=C5)cc3)cn2)C1
REMARK SMILES IDX 19 1 18 2 17 3 15 4 16 5 14 7 11 8 12 9 89 10 13 11 88 12
REMARK SMILES IDX 10 13 9 14 5 15 6 16 90 17 7 18 8 19 2 20 1 21 3 22 4 23
REMARK SMILES IDX 20 24 21 25 22 26 23 27 24 29 25 30 26 31 87 32 27 33 86 34
REMARK SMILES IDX 28 35 29 36 30 37 80 38 31 39 85 40 79 41 81 42 32 43 84 44
REMARK SMILES IDX 78 45 77 46 33 48 65 49 45 50 64 51 46 52 49 53 63 54 82 55
REMARK SMILES IDX 47 56 48 57 62 59 83 60 50 61 34 62 35 63 43 64 36 65 42 66
REMARK SMILES IDX 44 67 41 68 37 69 38 70 39 71 40 72 66 73 67 74 75 75 68 76
REMARK SMILES IDX 74 77 76 78 73 79 69 80 70 81 71 82 72 83 51 84 52 85 60 86
REMARK SMILES IDX 53 87 59 88 61 89 58 90 54 91 55 92 56 93 57 94
REMARK H PARENT 17 6 22 28 81 47 49 58
REMARK Flexibility Score: inf
ROOT
ATOM      1  C   UNL A   1      33.470  29.122  24.439  1.00  0.00     0.023 C 
ENDROOT
BRANCH   1   2
ATOM      2  C   UNL A   1      33.430  28.961  22.910  1.00  0.00     0.116 C 
BRANCH   2   3
ATOM      3  N   UNL A   1      32.062  28.994  22.389  1.00  0.00    -0.352 N 
ATOM      4  C   UNL A   1      30.979  28.136  22.459  1.00  0.00     0.252 C 
ATOM      5  O   UNL A   1      29.904  28.513  21.995  1.00  0.00    -0.269 OA
ATOM      6  H   UNL A   1      31.869  29.810  21.875  1.00  0.00     0.163 HD
BRANCH   4   7
ATOM      7  C   UNL A   1      31.039  26.794  23.080  1.00  0.00     0.058 A 
ATOM      8  C   UNL A   1      31.184  24.321  24.385  1.00  0.00     0.096 A 
ATOM      9  C   UNL A   1      32.193  24.803  23.615  1.00  0.00     0.036 A 
ATOM     10  N   UNL A   1      30.079  25.073  24.558  1.00  0.00    -0.249 NA
ATOM     11  C   UNL A   1      32.085  25.944  22.858  1.00  0.00     0.018 A 
ATOM     12  C   UNL A   1      30.049  26.308  23.938  1.00  0.00     0.126 A 
BRANCH   8  13
ATOM     13  S   UNL A   1      31.318  22.676  25.063  1.00  0.00    -0.103 SA
BRANCH  13  14
ATOM     14  C   UNL A   1      32.528  21.633  24.003  1.00  0.00     0.054 C 
ATOM     15  C   UNL A   1      35.035  21.751  24.658  1.00  0.00     0.109 C 
ATOM     16  C   UNL A   1      35.039  20.233  24.931  1.00  0.00     0.020 C 
ATOM     17  C   UNL A   1      33.939  22.179  23.681  1.00  0.00     0.034 C 
ATOM     18  C   UNL A   1      33.674  19.543  25.097  1.00  0.00     0.002 C 
ATOM     19  C   UNL A   1      32.529  20.115  24.258  1.00  0.00     0.015 C 
BRANCH  15  20
ATOM     20  S   UNL A   1      36.680  22.358  24.244  1.00  0.00     0.150 S 
ATOM     21  C   UNL A   1      36.883  23.706  25.403  1.00  0.00     0.158 C 
ATOM     22  O   UNL A   1      36.628  22.947  22.916  1.00  0.00    -0.229 OA
ATOM     23  O   UNL A   1      37.655  21.341  24.564  1.00  0.00    -0.229 OA
ENDBRANCH  15  20
ENDBRANCH  13  14
ENDBRANCH   8  13
ENDBRANCH   4   7
ENDBRANCH   2   3
ENDBRANCH   1   2
BRANCH   1  24
ATOM     24  C   UNL A   1      32.169  29.669  25.031  1.00  0.00     0.023 C 
BRANCH  24  25
ATOM     25  C   UNL A   1      32.262  30.086  26.497  1.00  0.00     0.116 C 
BRANCH  25  26
ATOM     26  N   UNL A   1      32.169  31.523  26.699  1.00  0.00    -0.352 N 
ATOM     27  C   UNL A   1      33.064  32.346  27.348  1.00  0.00     0.251 C 
ATOM     28  H   UNL A   1      31.370  31.962  26.328  1.00  0.00     0.163 HD
ATOM     29  O   UNL A   1      32.785  33.526  27.537  1.00  0.00    -0.269 OA
BRANCH  27  30
ATOM     30  C   UNL A   1      34.333  31.775  27.849  1.00  0.00     0.039 A 
ATOM     31  C   UNL A   1      35.439  32.612  28.008  1.00  0.00     0.014 A 
ATOM     32  C   UNL A   1      34.408  30.430  28.222  1.00  0.00     0.014 A 
ATOM     33  C   UNL A   1      36.595  32.117  28.614  1.00  0.00     0.010 A 
ATOM     34  C   UNL A   1      35.530  29.963  28.900  1.00  0.00     0.010 A 
ATOM     35  C   UNL A   1      36.636  30.801  29.107  1.00  0.00    -0.014 A 
BRANCH  35  36
ATOM     36  C   UNL A   1      37.822  30.288  29.843  1.00  0.00     0.031 A 
ATOM     37  C   UNL A   1      38.096  30.750  31.248  1.00  0.00     0.074 A 
ATOM     38  C   UNL A   1      38.684  29.454  29.225  1.00  0.00     0.049 A 
ATOM     39  N   UNL A   1      39.111  30.478  32.027  1.00  0.00    -0.248 NA
ATOM     40  C   UNL A   1      37.111  31.666  31.844  1.00  0.00     0.031 C 
ATOM     41  C   UNL A   1      38.549  28.967  27.850  1.00  0.00     0.029 A 
ATOM     42  N   UNL A   1      39.847  28.872  29.668  1.00  0.00    -0.354 N 
ATOM     43  C   UNL A   1      38.890  31.190  33.200  1.00  0.00     0.074 A 
ATOM     44  C   UNL A   1      37.684  31.965  33.000  1.00  0.00     0.031 C 
ATOM     45  C   UNL A   1      39.571  28.140  27.574  1.00  0.00     0.029 A 
ATOM     46  C   UNL A   1      40.463  28.077  28.728  1.00  0.00     0.049 A 
ATOM     47  H   UNL A   1      40.206  29.011  30.574  1.00  0.00     0.167 HD
ATOM     48  C   UNL A   1      39.611  31.178  34.350  1.00  0.00     0.034 A 
ATOM     49  C   UNL A   1      41.621  27.390  28.781  1.00  0.00     0.034 A 
ATOM     50  C   UNL A   1      40.810  30.397  34.535  1.00  0.00     0.049 A 
ATOM     51  C   UNL A   1      42.430  27.426  30.054  1.00  0.00     0.074 A 
ATOM     52  C   UNL A   1      41.593  30.278  35.669  1.00  0.00     0.029 A 
ATOM     53  N   UNL A   1      41.408  29.612  33.557  1.00  0.00    -0.354 N 
ATOM     54  N   UNL A   1      42.180  28.067  31.173  1.00  0.00    -0.248 NA
ATOM     55  C   UNL A   1      43.669  26.639  30.076  1.00  0.00     0.031 C 
ATOM     56  C   UNL A   1      42.703  29.487  35.356  1.00  0.00     0.029 A 
ATOM     57  C   UNL A   1      42.568  29.034  34.053  1.00  0.00     0.049 A 
ATOM     58  H   UNL A   1      41.060  29.483  32.645  1.00  0.00     0.167 HD
ATOM     59  C   UNL A   1      43.215  27.730  32.043  1.00  0.00     0.074 A 
ATOM     60  C   UNL A   1      44.080  26.818  31.322  1.00  0.00     0.031 C 
ATOM     61  C   UNL A   1      43.429  28.133  33.322  1.00  0.00     0.034 A 
BRANCH  48  62
ATOM     62  C   UNL A   1      39.129  32.055  35.482  1.00  0.00     0.023 A 
ATOM     63  C   UNL A   1      39.548  33.391  35.610  1.00  0.00     0.031 A 
ATOM     64  C   UNL A   1      38.257  31.545  36.461  1.00  0.00     0.131 A 
ATOM     65  C   UNL A   1      39.165  34.142  36.731  1.00  0.00     0.055 A 
ATOM     66  C   UNL A   1      37.806  32.328  37.526  1.00  0.00     0.041 A 
ATOM     67  F   UNL A   1      37.840  30.271  36.407  1.00  0.00    -0.206 F 
ATOM     68  C   UNL A   1      38.274  33.630  37.676  1.00  0.00     0.022 A 
BRANCH  65  69
ATOM     69  S   UNL A   1      39.977  35.739  37.019  1.00  0.00     0.124 S 
ATOM     70  O   UNL A   1      39.653  36.459  35.789  1.00  0.00    -0.237 OA
ATOM     71  O   UNL A   1      39.317  36.214  38.230  1.00  0.00    -0.237 OA
ATOM     72  O   UNL A   1      41.386  35.386  37.173  1.00  0.00    -0.744 OA
ENDBRANCH  65  69
ENDBRANCH  48  62
BRANCH  49  73
ATOM     73  C   UNL A   1      42.104  26.624  27.594  1.00  0.00     0.023 A 
ATOM     74  C   UNL A   1      41.785  25.266  27.427  1.00  0.00     0.031 A 
ATOM     75  C   UNL A   1      42.935  27.227  26.632  1.00  0.00     0.131 A 
ATOM     76  C   UNL A   1      42.336  24.544  26.356  1.00  0.00     0.055 A 
ATOM     77  C   UNL A   1      43.429  26.519  25.534  1.00  0.00     0.041 A 
ATOM     78  F   UNL A   1      43.270  28.522  26.740  1.00  0.00    -0.206 F 
ATOM     79  C   UNL A   1      43.143  25.165  25.400  1.00  0.00     0.022 A 
BRANCH  76  80
ATOM     80  S   UNL A   1      42.066  22.751  26.288  1.00  0.00     0.124 S 
ATOM     81  O   UNL A   1      40.612  22.668  26.368  1.00  0.00    -0.237 OA
ATOM     82  O   UNL A   1      42.660  22.404  25.001  1.00  0.00    -0.237 OA
ATOM     83  O   UNL A   1      42.786  22.255  27.459  1.00  0.00    -0.744 OA
ENDBRANCH  76  80
ENDBRANCH  49  73
BRANCH  61  84
ATOM     84  C   UNL A   1      44.621  27.547  34.040  1.00  0.00     0.023 A 
ATOM     85  C   UNL A   1      44.532  26.358  34.784  1.00  0.00     0.031 A 
ATOM     86  C   UNL A   1      45.868  28.197  33.983  1.00  0.00     0.131 A 
ATOM     87  C   UNL A   1      45.651  25.888  35.488  1.00  0.00     0.055 A 
ATOM     88  C   UNL A   1      46.995  27.687  34.627  1.00  0.00     0.041 A 
ATOM     89  F   UNL A   1      46.013  29.340  33.291  1.00  0.00    -0.206 F 
ATOM     90  C   UNL A   1      46.887  26.532  35.398  1.00  0.00     0.022 A 
BRANCH  87  91
ATOM     91  S   UNL A   1      45.444  24.478  36.610  1.00  0.00     0.124 S 
ATOM     92  O   UNL A   1      44.074  24.661  37.076  1.00  0.00    -0.237 OA
ATOM     93  O   UNL A   1      45.670  23.339  35.726  1.00  0.00    -0.237 OA
ATOM     94  O   UNL A   1      46.477  24.690  37.622  1.00  0.00    -0.744 OA
ENDBRANCH  87  91
ENDBRANCH  61  84
ENDBRANCH  35  36
ENDBRANCH  27  30
ENDBRANCH  25  26
ENDBRANCH  24  25
ENDBRANCH   1  24
TORSDOF 17
ENDMDL
