MODEL 1
REMARK VINA RESULT:     -12.0      0.000      0.000
REMARK SMILES N#Cc1ccn2cc(C(=O)NCCCCNC(=O)c3ccc(-c4c5nc(c(-c6cc(S(=O)(=O)[O-])ccc6F)c6ccc([nH]6)c(-c6cc(S(=O)(=O)[O-])ccc6F)c6nc(c(-c7cc(S(=O)(=O)[O-])ccc7F)c7ccc4[nH]7)C=C6)C=C5)cc3)nc2c1
REMARK SMILES IDX 14 1 13 2 12 3 11 4 9 5 10 6 8 8 3 9 4 10 84 11 5 12 83 13
REMARK SMILES IDX 6 14 82 15 7 16 2 17 1 18 15 19 16 20 17 21 18 23 19 24
REMARK SMILES IDX 20 25 81 26 21 27 80 28 22 29 23 30 24 31 74 32 25 33 79 34
REMARK SMILES IDX 73 35 75 36 26 37 78 38 72 39 71 40 27 42 59 43 39 44 58 45
REMARK SMILES IDX 40 46 43 47 57 48 76 49 41 50 42 51 56 53 77 54 44 55 28 56
REMARK SMILES IDX 29 57 37 58 30 59 36 60 38 61 35 62 31 63 32 64 33 65 34 66
REMARK SMILES IDX 60 67 61 68 69 69 62 70 68 71 70 72 67 73 63 74 64 75 65 76
REMARK SMILES IDX 66 77 45 78 46 79 54 80 47 81 53 82 55 83 52 84 48 85 49 86
REMARK SMILES IDX 50 87 51 88
REMARK H PARENT 11 7 16 22 75 41 43 52
REMARK Flexibility Score: inf
ROOT
ATOM      1  C   UNL A   1      37.442  22.143  24.594  1.00  0.00     0.023 C 
ENDROOT
BRANCH   1   2
ATOM      2  C   UNL A   1      36.109  22.900  24.642  1.00  0.00     0.023 C 
BRANCH   2   3
ATOM      3  C   UNL A   1      35.508  23.065  26.036  1.00  0.00     0.116 C 
BRANCH   3   4
ATOM      4  N   UNL A   1      34.145  23.579  25.995  1.00  0.00    -0.351 N 
ATOM      5  C   UNL A   1      32.958  22.965  25.682  1.00  0.00     0.271 C 
ATOM      6  O   UNL A   1      31.921  23.638  25.772  1.00  0.00    -0.267 OA
ATOM      7  H   UNL A   1      34.062  24.530  26.235  1.00  0.00     0.163 HD
BRANCH   5   8
ATOM      8  C   UNL A   1      32.910  21.561  25.266  1.00  0.00     0.147 A 
ATOM      9  C   UNL A   1      32.920  17.109  24.723  1.00  0.00     0.057 A 
ATOM     10  C   UNL A   1      32.559  17.485  23.356  1.00  0.00     0.038 A 
ATOM     11  C   UNL A   1      33.135  18.037  25.674  1.00  0.00     0.067 A 
ATOM     12  C   UNL A   1      32.441  18.790  23.048  1.00  0.00     0.094 A 
ATOM     13  C   UNL A   1      33.005  19.410  25.346  1.00  0.00     0.138 A 
ATOM     14  N   UNL A   1      32.664  19.741  24.042  1.00  0.00    -0.306 N 
ATOM     15  N   UNL A   1      33.152  20.478  26.086  1.00  0.00    -0.223 NA
ATOM     16  C   UNL A   1      32.603  21.108  23.990  1.00  0.00     0.127 A 
BRANCH   9  17
ATOM     17  C   UNL A   1      33.056  15.638  25.078  1.00  0.00     0.099 C 
ATOM     18  N   UNL A   1      33.169  14.418  25.372  1.00  0.00    -0.192 NA
ENDBRANCH   9  17
ENDBRANCH   5   8
ENDBRANCH   3   4
ENDBRANCH   2   3
ENDBRANCH   1   2
BRANCH   1  19
ATOM     19  C   UNL A   1      38.146  21.984  25.942  1.00  0.00     0.116 C 
BRANCH  19  20
ATOM     20  N   UNL A   1      39.589  21.890  25.858  1.00  0.00    -0.352 N 
ATOM     21  C   UNL A   1      40.631  22.583  26.410  1.00  0.00     0.251 C 
ATOM     22  H   UNL A   1      39.888  21.160  25.268  1.00  0.00     0.163 HD
ATOM     23  O   UNL A   1      41.742  22.059  26.284  1.00  0.00    -0.269 OA
BRANCH  21  24
ATOM     24  C   UNL A   1      40.532  23.922  27.054  1.00  0.00     0.039 A 
ATOM     25  C   UNL A   1      39.564  24.889  26.782  1.00  0.00     0.014 A 
ATOM     26  C   UNL A   1      41.556  24.237  27.970  1.00  0.00     0.014 A 
ATOM     27  C   UNL A   1      39.675  26.166  27.328  1.00  0.00     0.010 A 
ATOM     28  C   UNL A   1      41.665  25.507  28.526  1.00  0.00     0.010 A 
ATOM     29  C   UNL A   1      40.747  26.485  28.168  1.00  0.00    -0.014 A 
BRANCH  29  30
ATOM     30  C   UNL A   1      40.746  27.801  28.812  1.00  0.00     0.031 A 
ATOM     31  C   UNL A   1      41.795  28.706  28.260  1.00  0.00     0.074 A 
ATOM     32  C   UNL A   1      39.825  28.207  29.711  1.00  0.00     0.049 A 
ATOM     33  N   UNL A   1      42.836  29.179  28.864  1.00  0.00    -0.248 NA
ATOM     34  C   UNL A   1      41.786  28.956  26.809  1.00  0.00     0.031 C 
ATOM     35  C   UNL A   1      38.591  27.507  30.083  1.00  0.00     0.029 A 
ATOM     36  N   UNL A   1      39.728  29.377  30.413  1.00  0.00    -0.354 N 
ATOM     37  C   UNL A   1      43.482  29.985  27.924  1.00  0.00     0.074 A 
ATOM     38  C   UNL A   1      42.919  29.641  26.648  1.00  0.00     0.031 C 
ATOM     39  C   UNL A   1      37.768  28.359  30.735  1.00  0.00     0.029 A 
ATOM     40  C   UNL A   1      38.466  29.615  30.955  1.00  0.00     0.049 A 
ATOM     41  H   UNL A   1      40.483  29.999  30.523  1.00  0.00     0.167 HD
ATOM     42  C   UNL A   1      44.220  31.065  28.313  1.00  0.00     0.034 A 
ATOM     43  C   UNL A   1      38.001  30.773  31.492  1.00  0.00     0.034 A 
ATOM     44  C   UNL A   1      44.519  30.986  29.717  1.00  0.00     0.049 A 
ATOM     45  C   UNL A   1      39.158  31.628  31.821  1.00  0.00     0.074 A 
ATOM     46  C   UNL A   1      45.309  30.198  30.523  1.00  0.00     0.029 A 
ATOM     47  N   UNL A   1      43.602  31.607  30.525  1.00  0.00    -0.354 N 
ATOM     48  N   UNL A   1      39.995  31.385  32.788  1.00  0.00    -0.248 NA
ATOM     49  C   UNL A   1      39.608  32.595  30.830  1.00  0.00     0.031 C 
ATOM     50  C   UNL A   1      44.650  30.159  31.785  1.00  0.00     0.029 A 
ATOM     51  C   UNL A   1      43.518  30.976  31.732  1.00  0.00     0.049 A 
ATOM     52  H   UNL A   1      43.077  32.401  30.269  1.00  0.00     0.167 HD
ATOM     53  C   UNL A   1      41.217  31.769  32.272  1.00  0.00     0.074 A 
ATOM     54  C   UNL A   1      40.897  32.667  31.167  1.00  0.00     0.031 C 
ATOM     55  C   UNL A   1      42.347  31.071  32.585  1.00  0.00     0.034 A 
BRANCH  42  56
ATOM     56  C   UNL A   1      44.233  32.390  27.565  1.00  0.00     0.023 A 
ATOM     57  C   UNL A   1      43.585  33.551  28.026  1.00  0.00     0.031 A 
ATOM     58  C   UNL A   1      45.124  32.586  26.486  1.00  0.00     0.131 A 
ATOM     59  C   UNL A   1      43.821  34.811  27.458  1.00  0.00     0.055 A 
ATOM     60  C   UNL A   1      45.409  33.854  25.957  1.00  0.00     0.041 A 
ATOM     61  F   UNL A   1      45.801  31.558  25.950  1.00  0.00    -0.206 F 
ATOM     62  C   UNL A   1      44.760  34.978  26.449  1.00  0.00     0.022 A 
BRANCH  59  63
ATOM     63  S   UNL A   1      42.917  36.266  28.059  1.00  0.00     0.124 S 
ATOM     64  O   UNL A   1      41.603  36.081  27.452  1.00  0.00    -0.237 OA
ATOM     65  O   UNL A   1      42.979  36.071  29.506  1.00  0.00    -0.237 OA
ATOM     66  O   UNL A   1      43.699  37.389  27.552  1.00  0.00    -0.744 OA
ENDBRANCH  59  63
ENDBRANCH  42  56
BRANCH  43  67
ATOM     67  C   UNL A   1      36.644  31.364  31.375  1.00  0.00     0.023 A 
ATOM     68  C   UNL A   1      36.087  31.554  30.099  1.00  0.00     0.031 A 
ATOM     69  C   UNL A   1      36.055  32.066  32.446  1.00  0.00     0.131 A 
ATOM     70  C   UNL A   1      35.045  32.472  29.908  1.00  0.00     0.055 A 
ATOM     71  C   UNL A   1      34.997  32.964  32.256  1.00  0.00     0.041 A 
ATOM     72  F   UNL A   1      36.553  31.958  33.688  1.00  0.00    -0.206 F 
ATOM     73  C   UNL A   1      34.500  33.187  30.976  1.00  0.00     0.022 A 
BRANCH  70  74
ATOM     74  S   UNL A   1      34.459  32.844  28.233  1.00  0.00     0.124 S 
ATOM     75  O   UNL A   1      35.664  33.364  27.591  1.00  0.00    -0.237 OA
ATOM     76  O   UNL A   1      34.020  31.530  27.776  1.00  0.00    -0.237 OA
ATOM     77  O   UNL A   1      33.403  33.828  28.452  1.00  0.00    -0.744 OA
ENDBRANCH  70  74
ENDBRANCH  43  67
BRANCH  55  78
ATOM     78  C   UNL A   1      42.331  30.190  33.811  1.00  0.00     0.023 A 
ATOM     79  C   UNL A   1      42.740  30.792  35.013  1.00  0.00     0.031 A 
ATOM     80  C   UNL A   1      42.114  28.800  33.819  1.00  0.00     0.131 A 
ATOM     81  C   UNL A   1      42.983  30.015  36.148  1.00  0.00     0.055 A 
ATOM     82  C   UNL A   1      42.275  28.038  34.982  1.00  0.00     0.041 A 
ATOM     83  F   UNL A   1      41.819  28.126  32.699  1.00  0.00    -0.206 F 
ATOM     84  C   UNL A   1      42.734  28.642  36.149  1.00  0.00     0.022 A 
BRANCH  81  85
ATOM     85  S   UNL A   1      43.797  30.752  37.589  1.00  0.00     0.124 S 
ATOM     86  O   UNL A   1      44.592  31.817  36.982  1.00  0.00    -0.237 OA
ATOM     87  O   UNL A   1      42.661  31.196  38.392  1.00  0.00    -0.237 OA
ATOM     88  O   UNL A   1      44.563  29.650  38.164  1.00  0.00    -0.744 OA
ENDBRANCH  81  85
ENDBRANCH  55  78
ENDBRANCH  29  30
ENDBRANCH  21  24
ENDBRANCH  19  20
ENDBRANCH   1  19
TORSDOF 15
ENDMDL
MODEL 2
REMARK VINA RESULT:     -11.9      2.158      3.459
REMARK SMILES N#Cc1ccn2cc(C(=O)NCCCCNC(=O)c3ccc(-c4c5nc(c(-c6cc(S(=O)(=O)[O-])ccc6F)c6ccc([nH]6)c(-c6cc(S(=O)(=O)[O-])ccc6F)c6nc(c(-c7cc(S(=O)(=O)[O-])ccc7F)c7ccc4[nH]7)C=C6)C=C5)cc3)nc2c1
REMARK SMILES IDX 14 1 13 2 12 3 11 4 9 5 10 6 8 8 3 9 4 10 84 11 5 12 83 13
REMARK SMILES IDX 6 14 82 15 7 16 2 17 1 18 15 19 16 20 17 21 18 23 19 24
REMARK SMILES IDX 20 25 81 26 21 27 80 28 22 29 23 30 24 31 74 32 25 33 79 34
REMARK SMILES IDX 73 35 75 36 26 37 78 38 72 39 71 40 27 42 59 43 39 44 58 45
REMARK SMILES IDX 40 46 43 47 57 48 76 49 41 50 42 51 56 53 77 54 44 55 28 56
REMARK SMILES IDX 29 57 37 58 30 59 36 60 38 61 35 62 31 63 32 64 33 65 34 66
REMARK SMILES IDX 60 67 61 68 69 69 62 70 68 71 70 72 67 73 63 74 64 75 65 76
REMARK SMILES IDX 66 77 45 78 46 79 54 80 47 81 53 82 55 83 52 84 48 85 49 86
REMARK SMILES IDX 50 87 51 88
REMARK H PARENT 11 7 16 22 75 41 43 52
REMARK Flexibility Score: inf
ROOT
ATOM      1  C   UNL A   1      37.288  21.843  24.664  1.00  0.00     0.023 C 
ENDROOT
BRANCH   1   2
ATOM      2  C   UNL A   1      36.395  20.726  25.217  1.00  0.00     0.023 C 
BRANCH   2   3
ATOM      3  C   UNL A   1      35.063  21.193  25.801  1.00  0.00     0.116 C 
BRANCH   3   4
ATOM      4  N   UNL A   1      33.980  20.256  25.530  1.00  0.00    -0.351 N 
ATOM      5  C   UNL A   1      32.676  20.466  25.156  1.00  0.00     0.271 C 
ATOM      6  O   UNL A   1      31.969  19.470  24.945  1.00  0.00    -0.267 OA
ATOM      7  H   UNL A   1      34.227  19.309  25.632  1.00  0.00     0.163 HD
BRANCH   5   8
ATOM      8  C   UNL A   1      32.135  21.819  24.998  1.00  0.00     0.147 A 
ATOM      9  C   UNL A   1      30.676  25.881  23.780  1.00  0.00     0.057 A 
ATOM     10  C   UNL A   1      30.274  25.929  25.187  1.00  0.00     0.038 A 
ATOM     11  C   UNL A   1      31.294  24.805  23.261  1.00  0.00     0.067 A 
ATOM     12  C   UNL A   1      30.532  24.868  25.974  1.00  0.00     0.094 A 
ATOM     13  C   UNL A   1      31.561  23.688  24.094  1.00  0.00     0.138 A 
ATOM     14  N   UNL A   1      31.172  23.758  25.424  1.00  0.00    -0.306 N 
ATOM     15  N   UNL A   1      32.131  22.544  23.823  1.00  0.00    -0.223 NA
ATOM     16  C   UNL A   1      31.536  22.570  25.999  1.00  0.00     0.127 A 
BRANCH   9  17
ATOM     17  C   UNL A   1      30.389  27.076  22.885  1.00  0.00     0.099 C 
ATOM     18  N   UNL A   1      30.151  28.066  22.143  1.00  0.00    -0.192 NA
ENDBRANCH   9  17
ENDBRANCH   5   8
ENDBRANCH   3   4
ENDBRANCH   2   3
ENDBRANCH   1   2
BRANCH   1  19
ATOM     19  C   UNL A   1      37.978  22.705  25.722  1.00  0.00     0.116 C 
BRANCH  19  20
ATOM     20  N   UNL A   1      39.301  22.251  26.098  1.00  0.00    -0.352 N 
ATOM     21  C   UNL A   1      40.246  22.676  26.991  1.00  0.00     0.251 C 
ATOM     22  H   UNL A   1      39.585  21.453  25.595  1.00  0.00     0.163 HD
ATOM     23  O   UNL A   1      41.173  21.888  27.198  1.00  0.00    -0.269 OA
BRANCH  21  24
ATOM     24  C   UNL A   1      40.277  24.015  27.642  1.00  0.00     0.039 A 
ATOM     25  C   UNL A   1      39.259  24.968  27.596  1.00  0.00     0.014 A 
ATOM     26  C   UNL A   1      41.476  24.346  28.305  1.00  0.00     0.014 A 
ATOM     27  C   UNL A   1      39.473  26.248  28.105  1.00  0.00     0.010 A 
ATOM     28  C   UNL A   1      41.691  25.618  28.823  1.00  0.00     0.010 A 
ATOM     29  C   UNL A   1      40.702  26.583  28.682  1.00  0.00    -0.014 A 
BRANCH  29  30
ATOM     30  C   UNL A   1      40.829  27.900  29.311  1.00  0.00     0.031 A 
ATOM     31  C   UNL A   1      41.790  28.785  28.593  1.00  0.00     0.074 A 
ATOM     32  C   UNL A   1      40.073  28.324  30.346  1.00  0.00     0.049 A 
ATOM     33  N   UNL A   1      42.924  29.240  29.017  1.00  0.00    -0.248 NA
ATOM     34  C   UNL A   1      41.550  29.032  27.160  1.00  0.00     0.031 C 
ATOM     35  C   UNL A   1      38.904  27.647  30.917  1.00  0.00     0.029 A 
ATOM     36  N   UNL A   1      40.112  29.498  31.049  1.00  0.00    -0.354 N 
ATOM     37  C   UNL A   1      43.422  30.033  27.981  1.00  0.00     0.074 A 
ATOM     38  C   UNL A   1      42.653  29.696  26.814  1.00  0.00     0.031 C 
ATOM     39  C   UNL A   1      38.213  28.515  31.690  1.00  0.00     0.029 A 
ATOM     40  C   UNL A   1      38.959  29.759  31.788  1.00  0.00     0.049 A 
ATOM     41  H   UNL A   1      40.886  30.105  31.032  1.00  0.00     0.167 HD
ATOM     42  C   UNL A   1      44.231  31.100  28.239  1.00  0.00     0.034 A 
ATOM     43  C   UNL A   1      38.607  30.926  32.387  1.00  0.00     0.034 A 
ATOM     44  C   UNL A   1      44.754  31.018  29.577  1.00  0.00     0.049 A 
ATOM     45  C   UNL A   1      39.818  31.760  32.519  1.00  0.00     0.074 A 
ATOM     46  C   UNL A   1      45.650  30.218  30.247  1.00  0.00     0.029 A 
ATOM     47  N   UNL A   1      43.991  31.658  30.520  1.00  0.00    -0.354 N 
ATOM     48  N   UNL A   1      40.796  31.504  33.339  1.00  0.00    -0.248 NA
ATOM     49  C   UNL A   1      40.117  32.718  31.465  1.00  0.00     0.031 C 
ATOM     50  C   UNL A   1      45.204  30.193  31.600  1.00  0.00     0.029 A 
ATOM     51  C   UNL A   1      44.093  31.030  31.727  1.00  0.00     0.049 A 
ATOM     52  H   UNL A   1      43.445  32.460  30.348  1.00  0.00     0.167 HD
ATOM     53  C   UNL A   1      41.924  31.866  32.630  1.00  0.00     0.074 A 
ATOM     54  C   UNL A   1      41.444  32.767  31.587  1.00  0.00     0.031 C 
ATOM     55  C   UNL A   1      43.078  31.149  32.759  1.00  0.00     0.034 A 
BRANCH  42  56
ATOM     56  C   UNL A   1      44.146  32.423  27.493  1.00  0.00     0.023 A 
ATOM     57  C   UNL A   1      43.464  33.552  27.983  1.00  0.00     0.031 A 
ATOM     58  C   UNL A   1      44.977  32.661  26.375  1.00  0.00     0.131 A 
ATOM     59  C   UNL A   1      43.613  34.821  27.407  1.00  0.00     0.055 A 
ATOM     60  C   UNL A   1      45.176  33.940  25.835  1.00  0.00     0.041 A 
ATOM     61  F   UNL A   1      45.677  31.667  25.807  1.00  0.00    -0.206 F 
ATOM     62  C   UNL A   1      44.495  35.033  26.356  1.00  0.00     0.022 A 
BRANCH  59  63
ATOM     63  S   UNL A   1      42.667  36.231  28.050  1.00  0.00     0.124 S 
ATOM     64  O   UNL A   1      43.651  36.900  28.894  1.00  0.00    -0.237 OA
ATOM     65  O   UNL A   1      42.310  36.929  26.817  1.00  0.00    -0.237 OA
ATOM     66  O   UNL A   1      41.550  35.604  28.750  1.00  0.00    -0.744 OA
ENDBRANCH  59  63
ENDBRANCH  42  56
BRANCH  43  67
ATOM     67  C   UNL A   1      37.260  31.541  32.489  1.00  0.00     0.023 A 
ATOM     68  C   UNL A   1      36.569  31.876  31.313  1.00  0.00     0.031 A 
ATOM     69  C   UNL A   1      36.811  32.127  33.689  1.00  0.00     0.131 A 
ATOM     70  C   UNL A   1      35.534  32.821  31.341  1.00  0.00     0.055 A 
ATOM     71  C   UNL A   1      35.759  33.052  33.719  1.00  0.00     0.041 A 
ATOM     72  F   UNL A   1      37.441  31.878  34.848  1.00  0.00    -0.206 F 
ATOM     73  C   UNL A   1      35.128  33.420  32.535  1.00  0.00     0.022 A 
BRANCH  70  74
ATOM     74  S   UNL A   1      34.773  33.381  29.793  1.00  0.00     0.124 S 
ATOM     75  O   UNL A   1      33.656  34.191  30.272  1.00  0.00    -0.237 OA
ATOM     76  O   UNL A   1      35.868  34.121  29.178  1.00  0.00    -0.237 OA
ATOM     77  O   UNL A   1      34.393  32.136  29.131  1.00  0.00    -0.744 OA
ENDBRANCH  70  74
ENDBRANCH  43  67
BRANCH  55  78
ATOM     78  C   UNL A   1      43.246  30.270  33.975  1.00  0.00     0.023 A 
ATOM     79  C   UNL A   1      42.679  28.987  33.897  1.00  0.00     0.031 A 
ATOM     80  C   UNL A   1      43.756  30.683  35.221  1.00  0.00     0.131 A 
ATOM     81  C   UNL A   1      42.574  28.187  35.037  1.00  0.00     0.055 A 
ATOM     82  C   UNL A   1      43.726  29.844  36.341  1.00  0.00     0.041 A 
ATOM     83  F   UNL A   1      44.223  31.924  35.416  1.00  0.00    -0.206 F 
ATOM     84  C   UNL A   1      43.113  28.597  36.258  1.00  0.00     0.022 A 
BRANCH  81  85
ATOM     85  S   UNL A   1      41.577  26.676  34.990  1.00  0.00     0.124 S 
ATOM     86  O   UNL A   1      41.150  26.546  36.380  1.00  0.00    -0.237 OA
ATOM     87  O   UNL A   1      40.525  27.028  34.040  1.00  0.00    -0.237 OA
ATOM     88  O   UNL A   1      42.508  25.652  34.523  1.00  0.00    -0.744 OA
ENDBRANCH  81  85
ENDBRANCH  55  78
ENDBRANCH  29  30
ENDBRANCH  21  24
ENDBRANCH  19  20
ENDBRANCH   1  19
TORSDOF 15
ENDMDL
MODEL 3
REMARK VINA RESULT:     -11.8      4.806      9.836
REMARK SMILES N#Cc1ccn2cc(C(=O)NCCCCNC(=O)c3ccc(-c4c5nc(c(-c6cc(S(=O)(=O)[O-])ccc6F)c6ccc([nH]6)c(-c6cc(S(=O)(=O)[O-])ccc6F)c6nc(c(-c7cc(S(=O)(=O)[O-])ccc7F)c7ccc4[nH]7)C=C6)C=C5)cc3)nc2c1
REMARK SMILES IDX 14 1 13 2 12 3 11 4 9 5 10 6 8 8 3 9 4 10 84 11 5 12 83 13
REMARK SMILES IDX 6 14 82 15 7 16 2 17 1 18 15 19 16 20 17 21 18 23 19 24
REMARK SMILES IDX 20 25 81 26 21 27 80 28 22 29 23 30 24 31 74 32 25 33 79 34
REMARK SMILES IDX 73 35 75 36 26 37 78 38 72 39 71 40 27 42 59 43 39 44 58 45
REMARK SMILES IDX 40 46 43 47 57 48 76 49 41 50 42 51 56 53 77 54 44 55 28 56
REMARK SMILES IDX 29 57 37 58 30 59 36 60 38 61 35 62 31 63 32 64 33 65 34 66
REMARK SMILES IDX 60 67 61 68 69 69 62 70 68 71 70 72 67 73 63 74 64 75 65 76
REMARK SMILES IDX 66 77 45 78 46 79 54 80 47 81 53 82 55 83 52 84 48 85 49 86
REMARK SMILES IDX 50 87 51 88
REMARK H PARENT 11 7 16 22 75 41 43 52
REMARK Flexibility Score: inf
ROOT
ATOM      1  C   UNL A   1      33.174  29.552  27.257  1.00  0.00     0.023 C 
ENDROOT
BRANCH   1   2
ATOM      2  C   UNL A   1      33.718  28.377  26.437  1.00  0.00     0.023 C 
BRANCH   2   3
ATOM      3  C   UNL A   1      32.706  27.274  26.135  1.00  0.00     0.116 C 
BRANCH   3   4
ATOM      4  N   UNL A   1      33.034  26.536  24.923  1.00  0.00    -0.351 N 
ATOM      5  C   UNL A   1      32.512  26.604  23.655  1.00  0.00     0.271 C 
ATOM      6  O   UNL A   1      33.016  25.879  22.785  1.00  0.00    -0.267 OA
ATOM      7  H   UNL A   1      33.756  25.876  25.032  1.00  0.00     0.163 HD
BRANCH   5   8
ATOM      8  C   UNL A   1      31.404  27.507  23.332  1.00  0.00     0.147 A 
ATOM      9  C   UNL A   1      28.557  30.731  22.064  1.00  0.00     0.057 A 
ATOM     10  C   UNL A   1      27.573  29.769  22.563  1.00  0.00     0.038 A 
ATOM     11  C   UNL A   1      29.876  30.470  22.098  1.00  0.00     0.067 A 
ATOM     12  C   UNL A   1      28.005  28.599  23.068  1.00  0.00     0.094 A 
ATOM     13  C   UNL A   1      30.326  29.233  22.627  1.00  0.00     0.138 A 
ATOM     14  N   UNL A   1      29.374  28.339  23.096  1.00  0.00    -0.306 N 
ATOM     15  N   UNL A   1      31.535  28.754  22.756  1.00  0.00    -0.223 NA
ATOM     16  C   UNL A   1      30.059  27.241  23.544  1.00  0.00     0.127 A 
BRANCH   9  17
ATOM     17  C   UNL A   1      28.077  32.056  21.493  1.00  0.00     0.099 C 
ATOM     18  N   UNL A   1      27.679  33.154  21.020  1.00  0.00    -0.192 NA
ENDBRANCH   9  17
ENDBRANCH   5   8
ENDBRANCH   3   4
ENDBRANCH   2   3
ENDBRANCH   1   2
BRANCH   1  19
ATOM     19  C   UNL A   1      34.006  30.833  27.186  1.00  0.00     0.116 C 
BRANCH  19  20
ATOM     20  N   UNL A   1      34.040  31.597  28.416  1.00  0.00    -0.352 N 
ATOM     21  C   UNL A   1      35.010  31.905  29.330  1.00  0.00     0.251 C 
ATOM     22  H   UNL A   1      33.164  31.982  28.647  1.00  0.00     0.163 HD
ATOM     23  O   UNL A   1      34.712  32.784  30.144  1.00  0.00    -0.269 OA
BRANCH  21  24
ATOM     24  C   UNL A   1      36.324  31.216  29.459  1.00  0.00     0.039 A 
ATOM     25  C   UNL A   1      37.570  31.841  29.528  1.00  0.00     0.014 A 
ATOM     26  C   UNL A   1      36.280  29.807  29.447  1.00  0.00     0.014 A 
ATOM     27  C   UNL A   1      38.738  31.083  29.480  1.00  0.00     0.010 A 
ATOM     28  C   UNL A   1      37.442  29.046  29.409  1.00  0.00     0.010 A 
ATOM     29  C   UNL A   1      38.673  29.689  29.381  1.00  0.00    -0.014 A 
BRANCH  29  30
ATOM     30  C   UNL A   1      39.927  28.936  29.460  1.00  0.00     0.031 A 
ATOM     31  C   UNL A   1      40.362  28.701  30.867  1.00  0.00     0.074 A 
ATOM     32  C   UNL A   1      40.560  28.398  28.396  1.00  0.00     0.049 A 
ATOM     33  N   UNL A   1      41.409  29.167  31.465  1.00  0.00    -0.248 NA
ATOM     34  C   UNL A   1      39.415  28.023  31.769  1.00  0.00     0.031 C 
ATOM     35  C   UNL A   1      40.055  28.315  27.022  1.00  0.00     0.029 A 
ATOM     36  N   UNL A   1      41.744  27.716  28.321  1.00  0.00    -0.354 N 
ATOM     37  C   UNL A   1      41.372  28.636  32.757  1.00  0.00     0.074 A 
ATOM     38  C   UNL A   1      40.040  28.130  32.942  1.00  0.00     0.031 C 
ATOM     39  C   UNL A   1      40.793  27.423  26.323  1.00  0.00     0.029 A 
ATOM     40  C   UNL A   1      41.906  26.982  27.147  1.00  0.00     0.049 A 
ATOM     41  H   UNL A   1      42.420  27.739  29.036  1.00  0.00     0.167 HD
ATOM     42  C   UNL A   1      42.520  28.405  33.455  1.00  0.00     0.034 A 
ATOM     43  C   UNL A   1      42.847  26.037  26.886  1.00  0.00     0.034 A 
ATOM     44  C   UNL A   1      43.621  29.111  32.856  1.00  0.00     0.049 A 
ATOM     45  C   UNL A   1      43.946  26.198  27.858  1.00  0.00     0.074 A 
ATOM     46  C   UNL A   1      44.005  30.426  32.723  1.00  0.00     0.029 A 
ATOM     47  N   UNL A   1      44.312  28.386  31.920  1.00  0.00    -0.354 N 
ATOM     48  N   UNL A   1      44.785  27.193  27.853  1.00  0.00    -0.248 NA
ATOM     49  C   UNL A   1      43.905  25.416  29.085  1.00  0.00     0.031 C 
ATOM     50  C   UNL A   1      44.729  30.492  31.499  1.00  0.00     0.029 A 
ATOM     51  C   UNL A   1      44.824  29.208  30.957  1.00  0.00     0.049 A 
ATOM     52  H   UNL A   1      44.425  27.408  31.940  1.00  0.00     0.167 HD
ATOM     53  C   UNL A   1      44.994  27.454  29.193  1.00  0.00     0.074 A 
ATOM     54  C   UNL A   1      44.592  26.233  29.885  1.00  0.00     0.031 C 
ATOM     55  C   UNL A   1      45.165  28.737  29.627  1.00  0.00     0.034 A 
BRANCH  42  56
ATOM     56  C   UNL A   1      42.739  27.186  34.339  1.00  0.00     0.023 A 
ATOM     57  C   UNL A   1      43.502  26.069  33.951  1.00  0.00     0.031 A 
ATOM     58  C   UNL A   1      42.391  27.231  35.708  1.00  0.00     0.131 A 
ATOM     59  C   UNL A   1      43.898  25.083  34.866  1.00  0.00     0.055 A 
ATOM     60  C   UNL A   1      42.836  26.279  36.637  1.00  0.00     0.041 A 
ATOM     61  F   UNL A   1      41.658  28.240  36.204  1.00  0.00    -0.206 F 
ATOM     62  C   UNL A   1      43.601  25.198  36.218  1.00  0.00     0.022 A 
BRANCH  59  63
ATOM     63  S   UNL A   1      44.838  23.637  34.299  1.00  0.00     0.124 S 
ATOM     64  O   UNL A   1      43.824  22.588  34.315  1.00  0.00    -0.237 OA
ATOM     65  O   UNL A   1      45.275  24.075  32.976  1.00  0.00    -0.237 OA
ATOM     66  O   UNL A   1      45.902  23.510  35.291  1.00  0.00    -0.744 OA
ENDBRANCH  59  63
ENDBRANCH  42  56
BRANCH  43  67
ATOM     67  C   UNL A   1      42.691  24.765  26.135  1.00  0.00     0.023 A 
ATOM     68  C   UNL A   1      41.684  23.863  26.515  1.00  0.00     0.031 A 
ATOM     69  C   UNL A   1      43.723  24.270  25.313  1.00  0.00     0.131 A 
ATOM     70  C   UNL A   1      41.765  22.512  26.151  1.00  0.00     0.055 A 
ATOM     71  C   UNL A   1      43.789  22.924  24.929  1.00  0.00     0.041 A 
ATOM     72  F   UNL A   1      44.737  25.066  24.935  1.00  0.00    -0.206 F 
ATOM     73  C   UNL A   1      42.816  22.032  25.367  1.00  0.00     0.022 A 
BRANCH  70  74
ATOM     74  S   UNL A   1      40.559  21.324  26.798  1.00  0.00     0.124 S 
ATOM     75  O   UNL A   1      40.986  20.075  26.171  1.00  0.00    -0.237 OA
ATOM     76  O   UNL A   1      40.793  21.419  28.234  1.00  0.00    -0.237 OA
ATOM     77  O   UNL A   1      39.279  21.845  26.326  1.00  0.00    -0.744 OA
ENDBRANCH  70  74
ENDBRANCH  43  67
BRANCH  55  78
ATOM     78  C   UNL A   1      45.565  29.788  28.620  1.00  0.00     0.023 A 
ATOM     79  C   UNL A   1      46.944  30.013  28.472  1.00  0.00     0.031 A 
ATOM     80  C   UNL A   1      44.687  30.667  27.959  1.00  0.00     0.131 A 
ATOM     81  C   UNL A   1      47.410  31.112  27.747  1.00  0.00     0.055 A 
ATOM     82  C   UNL A   1      45.160  31.717  27.163  1.00  0.00     0.041 A 
ATOM     83  F   UNL A   1      43.358  30.592  28.121  1.00  0.00    -0.206 F 
ATOM     84  C   UNL A   1      46.528  31.957  27.072  1.00  0.00     0.022 A 
BRANCH  81  85
ATOM     85  S   UNL A   1      49.163  31.562  27.818  1.00  0.00     0.124 S 
ATOM     86  O   UNL A   1      49.792  30.294  28.177  1.00  0.00    -0.237 OA
ATOM     87  O   UNL A   1      49.418  32.028  26.458  1.00  0.00    -0.237 OA
ATOM     88  O   UNL A   1      49.220  32.601  28.844  1.00  0.00    -0.744 OA
ENDBRANCH  81  85
ENDBRANCH  55  78
ENDBRANCH  29  30
ENDBRANCH  21  24
ENDBRANCH  19  20
ENDBRANCH   1  19
TORSDOF 15
ENDMDL
