MODEL 1
REMARK VINA RESULT:     -13.7      0.000      0.000
REMARK SMILES Cc1cccc(C[NH2+]Cc2c(C(=O)NCCCCNC(=O)c3ccc(-c4c5nc(c(-c6cc(S(=O)(=O)[O-])ccc6F)c6ccc([nH]6)c(-c6cc(S(=O)(=O)[O-])ccc6F)c6nc(c(-c7cc(S(=O)(=O)[O-])ccc7F)c7ccc4[nH]7)C=C6)C=C5)cc3)c(C)n(Cc3cccc(F)c3)c2C)c1
REMARK SMILES IDX 16 1 15 2 14 3 12 4 13 5 11 7 10 8 96 9 85 10 87 11 97 12
REMARK SMILES IDX 86 13 9 14 8 15 7 18 6 19 1 20 2 21 3 22 98 23 4 24 5 25
REMARK SMILES IDX 88 26 89 27 90 28 95 29 91 30 93 31 92 32 94 33 17 34 18 35
REMARK SMILES IDX 19 36 20 37 21 39 22 40 23 41 84 42 24 43 83 44 25 45 26 46
REMARK SMILES IDX 27 47 77 48 28 49 82 50 76 51 78 52 29 53 81 54 75 55 74 56
REMARK SMILES IDX 30 58 62 59 42 60 61 61 43 62 46 63 60 64 79 65 44 66 45 67
REMARK SMILES IDX 59 69 80 70 47 71 31 72 32 73 40 74 33 75 39 76 41 77 38 78
REMARK SMILES IDX 34 79 35 80 36 81 37 82 63 83 64 84 72 85 65 86 71 87 73 88
REMARK SMILES IDX 70 89 66 90 67 91 68 92 69 93 48 94 49 95 57 96 50 97 56 98
REMARK SMILES IDX 58 99 55 100 51 101 52 102 53 103 54 104
REMARK H PARENT 14 6 8 16 8 17 19 38 78 57 46 68
REMARK Flexibility Score: inf
ROOT
ATOM      1  C   UNL A   1      31.769  29.520  27.053  1.00  0.00     0.023 C 
ENDROOT
BRANCH   1   2
ATOM      2  C   UNL A   1      32.244  28.059  27.022  1.00  0.00     0.116 C 
BRANCH   2   3
ATOM      3  N   UNL A   1      31.127  27.142  26.949  1.00  0.00    -0.352 N 
ATOM      4  C   UNL A   1      30.707  26.129  26.136  1.00  0.00     0.253 C 
ATOM      5  O   UNL A   1      29.664  25.618  26.572  1.00  0.00    -0.269 OA
ATOM      6  H   UNL A   1      30.497  27.288  27.691  1.00  0.00     0.163 HD
BRANCH   4   7
ATOM      7  C   UNL A   1      31.331  25.615  24.881  1.00  0.00     0.069 A 
ATOM      8  C   UNL A   1      31.920  26.214  23.679  1.00  0.00     0.040 A 
ATOM      9  C   UNL A   1      32.250  25.158  22.822  1.00  0.00     0.025 A 
ATOM     10  C   UNL A   1      31.400  24.220  24.666  1.00  0.00     0.028 A 
ATOM     11  N   UNL A   1      32.096  23.976  23.504  1.00  0.00    -0.343 N 
ATOM     12  C   UNL A   1      32.743  25.202  21.415  1.00  0.00     0.065 C 
ATOM     13  C   UNL A   1      30.875  23.112  25.533  1.00  0.00     0.065 C 
BRANCH   8  14
ATOM     14  C   UNL A   1      32.157  27.684  23.407  1.00  0.00     0.300 C 
BRANCH  14  15
ATOM     15  N   UNL A   1      31.011  28.568  23.620  1.00  0.00    -0.339 N 
ATOM     16  H   UNL A   1      30.485  28.226  24.424  1.00  0.00     0.346 HD
ATOM     17  H   UNL A   1      31.382  29.506  23.772  1.00  0.00     0.346 HD
BRANCH  15  18
ATOM     18  C   UNL A   1      30.108  28.644  22.474  1.00  0.00     0.297 C 
BRANCH  18  19
ATOM     19  C   UNL A   1      29.358  29.963  22.530  1.00  0.00     0.006 A 
ATOM     20  C   UNL A   1      27.823  32.448  20.077  1.00  0.00     0.044 C 
ATOM     21  C   UNL A   1      28.298  31.829  21.358  1.00  0.00    -0.051 A 
ATOM     22  C   UNL A   1      28.284  32.558  22.550  1.00  0.00     0.003 A 
ATOM     23  C   UNL A   1      28.796  30.521  21.371  1.00  0.00     0.013 A 
ATOM     24  C   UNL A   1      28.797  32.000  23.721  1.00  0.00     0.001 A 
ATOM     25  C   UNL A   1      29.345  30.717  23.708  1.00  0.00     0.009 A 
ENDBRANCH  18  19
ENDBRANCH  15  18
ENDBRANCH  14  15
ENDBRANCH   8  14
BRANCH  11  26
ATOM     26  C   UNL A   1      32.549  22.664  23.020  1.00  0.00     0.157 C 
BRANCH  26  27
ATOM     27  C   UNL A   1      33.809  22.143  23.686  1.00  0.00    -0.025 A 
ATOM     28  C   UNL A   1      33.765  20.918  24.380  1.00  0.00     0.006 A 
ATOM     29  C   UNL A   1      35.025  22.841  23.631  1.00  0.00     0.044 A 
ATOM     30  C   UNL A   1      34.920  20.376  24.947  1.00  0.00     0.003 A 
ATOM     31  C   UNL A   1      36.169  22.288  24.194  1.00  0.00     0.123 A 
ATOM     32  C   UNL A   1      36.129  21.060  24.844  1.00  0.00     0.039 A 
ATOM     33  F   UNL A   1      37.333  22.942  24.104  1.00  0.00    -0.207 F 
ENDBRANCH  26  27
ENDBRANCH  11  26
ENDBRANCH   4   7
ENDBRANCH   2   3
ENDBRANCH   1   2
BRANCH   1  34
ATOM     34  C   UNL A   1      32.898  30.550  27.069  1.00  0.00     0.023 C 
BRANCH  34  35
ATOM     35  C   UNL A   1      34.138  30.079  27.823  1.00  0.00     0.116 C 
BRANCH  35  36
ATOM     36  N   UNL A   1      34.832  31.099  28.595  1.00  0.00    -0.352 N 
ATOM     37  C   UNL A   1      36.051  30.987  29.261  1.00  0.00     0.251 C 
ATOM     38  H   UNL A   1      34.387  31.974  28.654  1.00  0.00     0.163 HD
ATOM     39  O   UNL A   1      36.495  31.888  29.943  1.00  0.00    -0.269 OA
BRANCH  37  40
ATOM     40  C   UNL A   1      36.869  29.769  29.015  1.00  0.00     0.039 A 
ATOM     41  C   UNL A   1      37.208  28.991  30.127  1.00  0.00     0.014 A 
ATOM     42  C   UNL A   1      37.499  29.561  27.791  1.00  0.00     0.014 A 
ATOM     43  C   UNL A   1      38.345  28.186  30.075  1.00  0.00     0.010 A 
ATOM     44  C   UNL A   1      38.682  28.841  27.767  1.00  0.00     0.010 A 
ATOM     45  C   UNL A   1      39.143  28.212  28.930  1.00  0.00    -0.014 A 
BRANCH  45  46
ATOM     46  C   UNL A   1      40.536  27.768  28.928  1.00  0.00     0.031 A 
ATOM     47  C   UNL A   1      40.923  26.433  28.430  1.00  0.00     0.074 A 
ATOM     48  C   UNL A   1      41.506  28.595  29.383  1.00  0.00     0.049 A 
ATOM     49  N   UNL A   1      41.972  25.795  28.831  1.00  0.00    -0.248 NA
ATOM     50  C   UNL A   1      40.132  25.688  27.457  1.00  0.00     0.031 C 
ATOM     51  C   UNL A   1      42.952  28.414  29.280  1.00  0.00     0.029 A 
ATOM     52  N   UNL A   1      41.354  29.656  30.276  1.00  0.00    -0.354 N 
ATOM     53  C   UNL A   1      42.133  24.697  28.023  1.00  0.00     0.074 A 
ATOM     54  C   UNL A   1      40.940  24.651  27.207  1.00  0.00     0.031 C 
ATOM     55  C   UNL A   1      43.545  29.113  30.258  1.00  0.00     0.029 A 
ATOM     56  C   UNL A   1      42.500  29.672  31.095  1.00  0.00     0.049 A 
ATOM     57  H   UNL A   1      40.590  30.275  30.324  1.00  0.00     0.167 HD
ATOM     58  C   UNL A   1      43.300  23.994  28.049  1.00  0.00     0.034 A 
ATOM     59  C   UNL A   1      42.390  29.531  32.447  1.00  0.00     0.034 A 
ATOM     60  C   UNL A   1      44.258  24.531  29.008  1.00  0.00     0.049 A 
ATOM     61  C   UNL A   1      43.082  28.297  32.998  1.00  0.00     0.074 A 
ATOM     62  C   UNL A   1      45.374  25.344  28.917  1.00  0.00     0.029 A 
ATOM     63  N   UNL A   1      43.965  24.437  30.355  1.00  0.00    -0.354 N 
ATOM     64  N   UNL A   1      43.731  27.425  32.277  1.00  0.00    -0.248 NA
ATOM     65  C   UNL A   1      43.006  27.903  34.406  1.00  0.00     0.031 C 
ATOM     66  C   UNL A   1      45.733  25.755  30.236  1.00  0.00     0.029 A 
ATOM     67  C   UNL A   1      44.848  25.170  31.123  1.00  0.00     0.049 A 
ATOM     68  H   UNL A   1      43.219  23.911  30.723  1.00  0.00     0.167 HD
ATOM     69  C   UNL A   1      44.065  26.349  33.059  1.00  0.00     0.074 A 
ATOM     70  C   UNL A   1      43.601  26.700  34.388  1.00  0.00     0.031 C 
ATOM     71  C   UNL A   1      44.643  25.216  32.561  1.00  0.00     0.034 A 
BRANCH  58  72
ATOM     72  C   UNL A   1      43.644  22.933  27.039  1.00  0.00     0.023 A 
ATOM     73  C   UNL A   1      42.969  21.698  27.073  1.00  0.00     0.031 A 
ATOM     74  C   UNL A   1      44.622  23.074  26.036  1.00  0.00     0.131 A 
ATOM     75  C   UNL A   1      43.332  20.646  26.215  1.00  0.00     0.055 A 
ATOM     76  C   UNL A   1      45.031  22.006  25.226  1.00  0.00     0.041 A 
ATOM     77  F   UNL A   1      45.193  24.261  25.778  1.00  0.00    -0.206 F 
ATOM     78  C   UNL A   1      44.393  20.778  25.323  1.00  0.00     0.022 A 
BRANCH  75  79
ATOM     79  S   UNL A   1      42.389  19.098  26.273  1.00  0.00     0.124 S 
ATOM     80  O   UNL A   1      42.418  18.767  27.695  1.00  0.00    -0.237 OA
ATOM     81  O   UNL A   1      41.098  19.507  25.733  1.00  0.00    -0.237 OA
ATOM     82  O   UNL A   1      43.161  18.199  25.416  1.00  0.00    -0.744 OA
ENDBRANCH  75  79
ENDBRANCH  58  72
BRANCH  59  83
ATOM     83  C   UNL A   1      41.145  30.154  32.990  1.00  0.00     0.023 A 
ATOM     84  C   UNL A   1      41.088  31.566  32.991  1.00  0.00     0.031 A 
ATOM     85  C   UNL A   1      39.940  29.452  33.118  1.00  0.00     0.131 A 
ATOM     86  C   UNL A   1      39.852  32.223  32.926  1.00  0.00     0.055 A 
ATOM     87  C   UNL A   1      38.709  30.120  33.148  1.00  0.00     0.041 A 
ATOM     88  F   UNL A   1      39.919  28.112  33.081  1.00  0.00    -0.206 F 
ATOM     89  C   UNL A   1      38.659  31.507  33.001  1.00  0.00     0.022 A 
BRANCH  86  90
ATOM     90  S   UNL A   1      39.838  33.966  32.415  1.00  0.00     0.124 S 
ATOM     91  O   UNL A   1      38.896  33.966  31.305  1.00  0.00    -0.237 OA
ATOM     92  O   UNL A   1      39.382  34.651  33.625  1.00  0.00    -0.237 OA
ATOM     93  O   UNL A   1      41.227  34.243  32.064  1.00  0.00    -0.744 OA
ENDBRANCH  86  90
ENDBRANCH  59  83
BRANCH  71  94
ATOM     94  C   UNL A   1      45.015  24.036  33.421  1.00  0.00     0.023 A 
ATOM     95  C   UNL A   1      46.352  23.756  33.750  1.00  0.00     0.031 A 
ATOM     96  C   UNL A   1      44.050  23.115  33.884  1.00  0.00     0.131 A 
ATOM     97  C   UNL A   1      46.674  22.659  34.568  1.00  0.00     0.055 A 
ATOM     98  C   UNL A   1      44.384  21.976  34.623  1.00  0.00     0.041 A 
ATOM     99  F   UNL A   1      42.738  23.304  33.680  1.00  0.00    -0.206 F 
ATOM    100  C   UNL A   1      45.704  21.751  34.983  1.00  0.00     0.022 A 
BRANCH  97 101
ATOM    101  S   UNL A   1      48.378  22.497  35.160  1.00  0.00     0.124 S 
ATOM    102  O   UNL A   1      48.204  22.361  36.601  1.00  0.00    -0.237 OA
ATOM    103  O   UNL A   1      48.820  21.294  34.458  1.00  0.00    -0.237 OA
ATOM    104  O   UNL A   1      49.016  23.737  34.723  1.00  0.00    -0.744 OA
ENDBRANCH  97 101
ENDBRANCH  71  94
ENDBRANCH  45  46
ENDBRANCH  37  40
ENDBRANCH  35  36
ENDBRANCH  34  35
ENDBRANCH   1  34
TORSDOF 20
ENDMDL
MODEL 2
REMARK VINA RESULT:     -13.6      4.212     10.917
REMARK SMILES Cc1cccc(C[NH2+]Cc2c(C(=O)NCCCCNC(=O)c3ccc(-c4c5nc(c(-c6cc(S(=O)(=O)[O-])ccc6F)c6ccc([nH]6)c(-c6cc(S(=O)(=O)[O-])ccc6F)c6nc(c(-c7cc(S(=O)(=O)[O-])ccc7F)c7ccc4[nH]7)C=C6)C=C5)cc3)c(C)n(Cc3cccc(F)c3)c2C)c1
REMARK SMILES IDX 16 1 15 2 14 3 12 4 13 5 11 7 10 8 96 9 85 10 87 11 97 12
REMARK SMILES IDX 86 13 9 14 8 15 7 18 6 19 1 20 2 21 3 22 98 23 4 24 5 25
REMARK SMILES IDX 88 26 89 27 90 28 95 29 91 30 93 31 92 32 94 33 17 34 18 35
REMARK SMILES IDX 19 36 20 37 21 39 22 40 23 41 84 42 24 43 83 44 25 45 26 46
REMARK SMILES IDX 27 47 77 48 28 49 82 50 76 51 78 52 29 53 81 54 75 55 74 56
REMARK SMILES IDX 30 58 62 59 42 60 61 61 43 62 46 63 60 64 79 65 44 66 45 67
REMARK SMILES IDX 59 69 80 70 47 71 31 72 32 73 40 74 33 75 39 76 41 77 38 78
REMARK SMILES IDX 34 79 35 80 36 81 37 82 63 83 64 84 72 85 65 86 71 87 73 88
REMARK SMILES IDX 70 89 66 90 67 91 68 92 69 93 48 94 49 95 57 96 50 97 56 98
REMARK SMILES IDX 58 99 55 100 51 101 52 102 53 103 54 104
REMARK H PARENT 14 6 8 16 8 17 19 38 78 57 46 68
REMARK Flexibility Score: inf
ROOT
ATOM      1  C   UNL A   1      36.703  21.460  25.505  1.00  0.00     0.023 C 
ENDROOT
BRANCH   1   2
ATOM      2  C   UNL A   1      35.929  22.772  25.308  1.00  0.00     0.116 C 
BRANCH   2   3
ATOM      3  N   UNL A   1      35.275  22.812  24.019  1.00  0.00    -0.352 N 
ATOM      4  C   UNL A   1      34.185  23.416  23.460  1.00  0.00     0.253 C 
ATOM      5  O   UNL A   1      34.100  23.140  22.253  1.00  0.00    -0.269 OA
ATOM      6  H   UNL A   1      35.746  22.249  23.363  1.00  0.00     0.163 HD
BRANCH   4   7
ATOM      7  C   UNL A   1      33.174  24.305  24.104  1.00  0.00     0.069 A 
ATOM      8  C   UNL A   1      32.222  24.184  25.212  1.00  0.00     0.040 A 
ATOM      9  C   UNL A   1      31.491  25.376  25.248  1.00  0.00     0.025 A 
ATOM     10  C   UNL A   1      32.967  25.603  23.583  1.00  0.00     0.028 A 
ATOM     11  N   UNL A   1      32.071  26.274  24.385  1.00  0.00    -0.343 N 
ATOM     12  C   UNL A   1      30.305  25.731  26.080  1.00  0.00     0.065 C 
ATOM     13  C   UNL A   1      33.611  26.248  22.389  1.00  0.00     0.065 C 
BRANCH   8  14
ATOM     14  C   UNL A   1      32.063  23.016  26.162  1.00  0.00     0.300 C 
BRANCH  14  15
ATOM     15  N   UNL A   1      31.847  21.710  25.540  1.00  0.00    -0.339 N 
ATOM     16  H   UNL A   1      30.959  21.336  25.875  1.00  0.00     0.346 HD
ATOM     17  H   UNL A   1      31.850  21.855  24.530  1.00  0.00     0.346 HD
BRANCH  15  18
ATOM     18  C   UNL A   1      32.898  20.739  25.836  1.00  0.00     0.297 C 
BRANCH  18  19
ATOM     19  C   UNL A   1      32.737  19.547  24.910  1.00  0.00     0.006 A 
ATOM     20  C   UNL A   1      33.388  15.790  24.998  1.00  0.00     0.044 C 
ATOM     21  C   UNL A   1      33.027  17.155  24.492  1.00  0.00    -0.051 A 
ATOM     22  C   UNL A   1      32.793  17.372  23.132  1.00  0.00     0.003 A 
ATOM     23  C   UNL A   1      32.953  18.240  25.373  1.00  0.00     0.013 A 
ATOM     24  C   UNL A   1      32.530  18.660  22.662  1.00  0.00     0.001 A 
ATOM     25  C   UNL A   1      32.519  19.742  23.542  1.00  0.00     0.009 A 
ENDBRANCH  18  19
ENDBRANCH  15  18
ENDBRANCH  14  15
ENDBRANCH   8  14
BRANCH  11  26
ATOM     26  C   UNL A   1      31.728  27.700  24.303  1.00  0.00     0.157 C 
BRANCH  26  27
ATOM     27  C   UNL A   1      32.380  28.572  25.359  1.00  0.00    -0.025 A 
ATOM     28  C   UNL A   1      33.607  28.171  25.921  1.00  0.00     0.006 A 
ATOM     29  C   UNL A   1      31.802  29.774  25.795  1.00  0.00     0.044 A 
ATOM     30  C   UNL A   1      34.268  28.981  26.847  1.00  0.00     0.003 A 
ATOM     31  C   UNL A   1      32.473  30.574  26.712  1.00  0.00     0.123 A 
ATOM     32  C   UNL A   1      33.703  30.193  27.235  1.00  0.00     0.039 A 
ATOM     33  F   UNL A   1      31.932  31.738  27.094  1.00  0.00    -0.207 F 
ENDBRANCH  26  27
ENDBRANCH  11  26
ENDBRANCH   4   7
ENDBRANCH   2   3
ENDBRANCH   1   2
BRANCH   1  34
ATOM     34  C   UNL A   1      38.224  21.607  25.435  1.00  0.00     0.023 C 
BRANCH  34  35
ATOM     35  C   UNL A   1      38.742  22.868  26.118  1.00  0.00     0.116 C 
BRANCH  35  36
ATOM     36  N   UNL A   1      40.188  22.962  26.256  1.00  0.00    -0.352 N 
ATOM     37  C   UNL A   1      40.953  24.100  26.501  1.00  0.00     0.251 C 
ATOM     38  H   UNL A   1      40.687  22.119  26.165  1.00  0.00     0.163 HD
ATOM     39  O   UNL A   1      42.166  24.067  26.516  1.00  0.00    -0.269 OA
BRANCH  37  40
ATOM     40  C   UNL A   1      40.239  25.352  26.872  1.00  0.00     0.039 A 
ATOM     41  C   UNL A   1      40.673  26.538  26.270  1.00  0.00     0.014 A 
ATOM     42  C   UNL A   1      39.374  25.390  27.961  1.00  0.00     0.014 A 
ATOM     43  C   UNL A   1      40.443  27.753  26.914  1.00  0.00     0.010 A 
ATOM     44  C   UNL A   1      39.229  26.581  28.653  1.00  0.00     0.010 A 
ATOM     45  C   UNL A   1      39.825  27.750  28.166  1.00  0.00    -0.014 A 
BRANCH  45  46
ATOM     46  C   UNL A   1      39.923  28.874  29.097  1.00  0.00     0.031 A 
ATOM     47  C   UNL A   1      38.857  29.891  29.200  1.00  0.00     0.074 A 
ATOM     48  C   UNL A   1      41.009  28.992  29.896  1.00  0.00     0.049 A 
ATOM     49  N   UNL A   1      39.061  31.106  29.584  1.00  0.00    -0.248 NA
ATOM     50  C   UNL A   1      37.469  29.625  28.841  1.00  0.00     0.031 C 
ATOM     51  C   UNL A   1      41.197  29.916  31.011  1.00  0.00     0.029 A 
ATOM     52  N   UNL A   1      42.277  28.457  29.673  1.00  0.00    -0.354 N 
ATOM     53  C   UNL A   1      37.839  31.706  29.756  1.00  0.00     0.074 A 
ATOM     54  C   UNL A   1      36.877  30.755  29.242  1.00  0.00     0.031 C 
ATOM     55  C   UNL A   1      42.512  30.104  31.199  1.00  0.00     0.029 A 
ATOM     56  C   UNL A   1      43.212  29.403  30.139  1.00  0.00     0.049 A 
ATOM     57  H   UNL A   1      42.481  27.583  29.268  1.00  0.00     0.167 HD
ATOM     58  C   UNL A   1      37.747  32.899  30.407  1.00  0.00     0.034 A 
ATOM     59  C   UNL A   1      44.137  29.941  29.292  1.00  0.00     0.034 A 
ATOM     60  C   UNL A   1      39.046  33.408  30.831  1.00  0.00     0.049 A 
ATOM     61  C   UNL A   1      44.014  31.443  29.115  1.00  0.00     0.074 A 
ATOM     62  C   UNL A   1      39.742  33.420  32.027  1.00  0.00     0.029 A 
ATOM     63  N   UNL A   1      39.947  33.805  29.862  1.00  0.00    -0.354 N 
ATOM     64  N   UNL A   1      43.116  32.189  29.699  1.00  0.00    -0.248 NA
ATOM     65  C   UNL A   1      44.842  32.206  28.178  1.00  0.00     0.031 C 
ATOM     66  C   UNL A   1      41.088  33.810  31.753  1.00  0.00     0.029 A 
ATOM     67  C   UNL A   1      41.195  34.055  30.397  1.00  0.00     0.049 A 
ATOM     68  H   UNL A   1      39.727  33.896  28.907  1.00  0.00     0.167 HD
ATOM     69  C   UNL A   1      43.169  33.456  29.175  1.00  0.00     0.074 A 
ATOM     70  C   UNL A   1      44.275  33.420  28.236  1.00  0.00     0.031 C 
ATOM     71  C   UNL A   1      42.271  34.434  29.497  1.00  0.00     0.034 A 
BRANCH  58  72
ATOM     72  C   UNL A   1      36.438  33.502  30.840  1.00  0.00     0.023 A 
ATOM     73  C   UNL A   1      35.627  34.154  29.892  1.00  0.00     0.031 A 
ATOM     74  C   UNL A   1      35.946  33.476  32.159  1.00  0.00     0.131 A 
ATOM     75  C   UNL A   1      34.449  34.819  30.275  1.00  0.00     0.055 A 
ATOM     76  C   UNL A   1      34.809  34.193  32.554  1.00  0.00     0.041 A 
ATOM     77  F   UNL A   1      36.526  32.724  33.107  1.00  0.00    -0.206 F 
ATOM     78  C   UNL A   1      34.061  34.882  31.611  1.00  0.00     0.022 A 
BRANCH  75  79
ATOM     79  S   UNL A   1      33.422  35.594  28.998  1.00  0.00     0.124 S 
ATOM     80  O   UNL A   1      32.567  34.490  28.572  1.00  0.00    -0.237 OA
ATOM     81  O   UNL A   1      32.769  36.666  29.740  1.00  0.00    -0.237 OA
ATOM     82  O   UNL A   1      34.397  36.037  28.002  1.00  0.00    -0.744 OA
ENDBRANCH  75  79
ENDBRANCH  58  72
BRANCH  59  83
ATOM     83  C   UNL A   1      44.597  28.970  28.253  1.00  0.00     0.023 A 
ATOM     84  C   UNL A   1      45.404  27.898  28.697  1.00  0.00     0.031 A 
ATOM     85  C   UNL A   1      43.976  28.846  27.005  1.00  0.00     0.131 A 
ATOM     86  C   UNL A   1      45.418  26.686  27.995  1.00  0.00     0.055 A 
ATOM     87  C   UNL A   1      44.071  27.663  26.260  1.00  0.00     0.041 A 
ATOM     88  F   UNL A   1      43.163  29.807  26.544  1.00  0.00    -0.206 F 
ATOM     89  C   UNL A   1      44.752  26.560  26.777  1.00  0.00     0.022 A 
BRANCH  86  90
ATOM     90  S   UNL A   1      46.034  25.208  28.853  1.00  0.00     0.124 S 
ATOM     91  O   UNL A   1      47.198  24.840  28.059  1.00  0.00    -0.237 OA
ATOM     92  O   UNL A   1      46.324  25.714  30.194  1.00  0.00    -0.237 OA
ATOM     93  O   UNL A   1      44.913  24.275  28.800  1.00  0.00    -0.744 OA
ENDBRANCH  86  90
ENDBRANCH  59  83
BRANCH  71  94
ATOM     94  C   UNL A   1      42.334  35.827  28.926  1.00  0.00     0.023 A 
ATOM     95  C   UNL A   1      43.029  36.860  29.578  1.00  0.00     0.031 A 
ATOM     96  C   UNL A   1      41.644  36.183  27.747  1.00  0.00     0.131 A 
ATOM     97  C   UNL A   1      43.088  38.147  29.018  1.00  0.00     0.055 A 
ATOM     98  C   UNL A   1      41.631  37.487  27.242  1.00  0.00     0.041 A 
ATOM     99  F   UNL A   1      40.989  35.274  27.009  1.00  0.00    -0.206 F 
ATOM    100  C   UNL A   1      42.371  38.476  27.871  1.00  0.00     0.022 A 
BRANCH  97 101
ATOM    101  S   UNL A   1      44.202  39.363  29.769  1.00  0.00     0.124 S 
ATOM    102  O   UNL A   1      45.432  39.183  29.007  1.00  0.00    -0.237 OA
ATOM    103  O   UNL A   1      43.481  40.611  29.527  1.00  0.00    -0.237 OA
ATOM    104  O   UNL A   1      44.269  38.951  31.169  1.00  0.00    -0.744 OA
ENDBRANCH  97 101
ENDBRANCH  71  94
ENDBRANCH  45  46
ENDBRANCH  37  40
ENDBRANCH  35  36
ENDBRANCH  34  35
ENDBRANCH   1  34
TORSDOF 20
ENDMDL
MODEL 3
REMARK VINA RESULT:     -13.6      1.797      2.366
REMARK SMILES Cc1cccc(C[NH2+]Cc2c(C(=O)NCCCCNC(=O)c3ccc(-c4c5nc(c(-c6cc(S(=O)(=O)[O-])ccc6F)c6ccc([nH]6)c(-c6cc(S(=O)(=O)[O-])ccc6F)c6nc(c(-c7cc(S(=O)(=O)[O-])ccc7F)c7ccc4[nH]7)C=C6)C=C5)cc3)c(C)n(Cc3cccc(F)c3)c2C)c1
REMARK SMILES IDX 16 1 15 2 14 3 12 4 13 5 11 7 10 8 96 9 85 10 87 11 97 12
REMARK SMILES IDX 86 13 9 14 8 15 7 18 6 19 1 20 2 21 3 22 98 23 4 24 5 25
REMARK SMILES IDX 88 26 89 27 90 28 95 29 91 30 93 31 92 32 94 33 17 34 18 35
REMARK SMILES IDX 19 36 20 37 21 39 22 40 23 41 84 42 24 43 83 44 25 45 26 46
REMARK SMILES IDX 27 47 77 48 28 49 82 50 76 51 78 52 29 53 81 54 75 55 74 56
REMARK SMILES IDX 30 58 62 59 42 60 61 61 43 62 46 63 60 64 79 65 44 66 45 67
REMARK SMILES IDX 59 69 80 70 47 71 31 72 32 73 40 74 33 75 39 76 41 77 38 78
REMARK SMILES IDX 34 79 35 80 36 81 37 82 63 83 64 84 72 85 65 86 71 87 73 88
REMARK SMILES IDX 70 89 66 90 67 91 68 92 69 93 48 94 49 95 57 96 50 97 56 98
REMARK SMILES IDX 58 99 55 100 51 101 52 102 53 103 54 104
REMARK H PARENT 14 6 8 16 8 17 19 38 78 57 46 68
REMARK Flexibility Score: inf
ROOT
ATOM      1  C   UNL A   1      34.106  28.985  27.257  1.00  0.00     0.023 C 
ENDROOT
BRANCH   1   2
ATOM      2  C   UNL A   1      32.917  28.315  26.552  1.00  0.00     0.116 C 
BRANCH   2   3
ATOM      3  N   UNL A   1      33.334  27.629  25.348  1.00  0.00    -0.352 N 
ATOM      4  C   UNL A   1      33.199  26.387  24.798  1.00  0.00     0.253 C 
ATOM      5  O   UNL A   1      33.730  26.341  23.678  1.00  0.00    -0.269 OA
ATOM      6  H   UNL A   1      33.860  28.222  24.765  1.00  0.00     0.163 HD
BRANCH   4   7
ATOM      7  C   UNL A   1      32.526  25.181  25.364  1.00  0.00     0.069 A 
ATOM      8  C   UNL A   1      31.152  24.816  25.723  1.00  0.00     0.040 A 
ATOM      9  C   UNL A   1      31.210  23.540  26.296  1.00  0.00     0.025 A 
ATOM     10  C   UNL A   1      33.307  24.056  25.714  1.00  0.00     0.028 A 
ATOM     11  N   UNL A   1      32.475  23.036  26.117  1.00  0.00    -0.343 N 
ATOM     12  C   UNL A   1      30.132  22.755  26.963  1.00  0.00     0.065 C 
ATOM     13  C   UNL A   1      34.798  23.891  25.640  1.00  0.00     0.065 C 
BRANCH   8  14
ATOM     14  C   UNL A   1      29.897  25.632  25.502  1.00  0.00     0.300 C 
BRANCH  14  15
ATOM     15  N   UNL A   1      29.407  25.694  24.125  1.00  0.00    -0.339 N 
ATOM     16  H   UNL A   1      30.194  25.908  23.512  1.00  0.00     0.346 HD
ATOM     17  H   UNL A   1      28.988  24.788  23.917  1.00  0.00     0.346 HD
BRANCH  15  18
ATOM     18  C   UNL A   1      28.371  26.703  23.916  1.00  0.00     0.297 C 
BRANCH  18  19
ATOM     19  C   UNL A   1      29.003  27.929  23.282  1.00  0.00     0.006 A 
ATOM     20  C   UNL A   1      27.879  30.971  21.275  1.00  0.00     0.044 C 
ATOM     21  C   UNL A   1      28.763  29.969  21.956  1.00  0.00    -0.051 A 
ATOM     22  C   UNL A   1      30.150  30.018  21.796  1.00  0.00     0.003 A 
ATOM     23  C   UNL A   1      28.208  28.947  22.735  1.00  0.00     0.013 A 
ATOM     24  C   UNL A   1      30.959  29.038  22.373  1.00  0.00     0.001 A 
ATOM     25  C   UNL A   1      30.388  27.991  23.098  1.00  0.00     0.009 A 
ENDBRANCH  18  19
ENDBRANCH  15  18
ENDBRANCH  14  15
ENDBRANCH   8  14
BRANCH  11  26
ATOM     26  C   UNL A   1      32.869  21.645  26.385  1.00  0.00     0.157 C 
BRANCH  26  27
ATOM     27  C   UNL A   1      32.730  20.708  25.200  1.00  0.00    -0.025 A 
ATOM     28  C   UNL A   1      32.880  19.322  25.398  1.00  0.00     0.006 A 
ATOM     29  C   UNL A   1      32.451  21.176  23.907  1.00  0.00     0.044 A 
ATOM     30  C   UNL A   1      32.692  18.425  24.344  1.00  0.00     0.003 A 
ATOM     31  C   UNL A   1      32.260  20.273  22.868  1.00  0.00     0.123 A 
ATOM     32  C   UNL A   1      32.370  18.904  23.077  1.00  0.00     0.039 A 
ATOM     33  F   UNL A   1      31.956  20.727  21.646  1.00  0.00    -0.207 F 
ENDBRANCH  26  27
ENDBRANCH  11  26
ENDBRANCH   4   7
ENDBRANCH   2   3
ENDBRANCH   1   2
BRANCH   1  34
ATOM     34  C   UNL A   1      33.847  30.425  27.701  1.00  0.00     0.023 C 
BRANCH  34  35
ATOM     35  C   UNL A   1      35.091  31.307  27.652  1.00  0.00     0.116 C 
BRANCH  35  36
ATOM     36  N   UNL A   1      35.552  31.819  28.935  1.00  0.00    -0.352 N 
ATOM     37  C   UNL A   1      36.364  31.180  29.869  1.00  0.00     0.251 C 
ATOM     38  H   UNL A   1      35.255  32.726  29.170  1.00  0.00     0.163 HD
ATOM     39  O   UNL A   1      36.620  31.679  30.945  1.00  0.00    -0.269 OA
BRANCH  37  40
ATOM     40  C   UNL A   1      37.024  29.908  29.464  1.00  0.00     0.039 A 
ATOM     41  C   UNL A   1      37.296  28.979  30.474  1.00  0.00     0.014 A 
ATOM     42  C   UNL A   1      37.593  29.764  28.202  1.00  0.00     0.014 A 
ATOM     43  C   UNL A   1      38.326  28.058  30.294  1.00  0.00     0.010 A 
ATOM     44  C   UNL A   1      38.680  28.919  28.056  1.00  0.00     0.010 A 
ATOM     45  C   UNL A   1      39.092  28.117  29.127  1.00  0.00    -0.014 A 
BRANCH  45  46
ATOM     46  C   UNL A   1      40.421  27.516  29.025  1.00  0.00     0.031 A 
ATOM     47  C   UNL A   1      40.604  26.095  28.664  1.00  0.00     0.074 A 
ATOM     48  C   UNL A   1      41.520  28.272  29.255  1.00  0.00     0.049 A 
ATOM     49  N   UNL A   1      41.625  25.391  29.023  1.00  0.00    -0.248 NA
ATOM     50  C   UNL A   1      39.624  25.339  27.893  1.00  0.00     0.031 C 
ATOM     51  C   UNL A   1      42.914  27.912  29.012  1.00  0.00     0.029 A 
ATOM     52  N   UNL A   1      41.591  29.440  30.012  1.00  0.00    -0.354 N 
ATOM     53  C   UNL A   1      41.570  24.195  28.353  1.00  0.00     0.074 A 
ATOM     54  C   UNL A   1      40.283  24.193  27.691  1.00  0.00     0.031 C 
ATOM     55  C   UNL A   1      43.696  28.648  29.817  1.00  0.00     0.029 A 
ATOM     56  C   UNL A   1      42.828  29.419  30.687  1.00  0.00     0.049 A 
ATOM     57  H   UNL A   1      40.907  30.146  30.067  1.00  0.00     0.167 HD
ATOM     58  C   UNL A   1      42.653  23.368  28.337  1.00  0.00     0.034 A 
ATOM     59  C   UNL A   1      42.878  29.451  32.050  1.00  0.00     0.034 A 
ATOM     60  C   UNL A   1      43.775  23.899  29.103  1.00  0.00     0.049 A 
ATOM     61  C   UNL A   1      43.506  28.218  32.675  1.00  0.00     0.074 A 
ATOM     62  C   UNL A   1      44.947  24.560  28.779  1.00  0.00     0.029 A 
ATOM     63  N   UNL A   1      43.648  23.998  30.475  1.00  0.00    -0.354 N 
ATOM     64  N   UNL A   1      43.965  27.197  32.004  1.00  0.00    -0.248 NA
ATOM     65  C   UNL A   1      43.570  28.003  34.121  1.00  0.00     0.031 C 
ATOM     66  C   UNL A   1      45.511  25.077  29.984  1.00  0.00     0.029 A 
ATOM     67  C   UNL A   1      44.691  24.709  31.034  1.00  0.00     0.049 A 
ATOM     68  H   UNL A   1      42.906  23.609  30.991  1.00  0.00     0.167 HD
ATOM     69  C   UNL A   1      44.286  26.189  32.877  1.00  0.00     0.074 A 
ATOM     70  C   UNL A   1      44.033  26.746  34.193  1.00  0.00     0.031 C 
ATOM     71  C   UNL A   1      44.678  24.946  32.468  1.00  0.00     0.034 A 
BRANCH  58  72
ATOM     72  C   UNL A   1      42.755  22.164  27.442  1.00  0.00     0.023 A 
ATOM     73  C   UNL A   1      43.778  22.102  26.476  1.00  0.00     0.031 A 
ATOM     74  C   UNL A   1      41.881  21.061  27.486  1.00  0.00     0.131 A 
ATOM     75  C   UNL A   1      43.845  21.044  25.553  1.00  0.00     0.055 A 
ATOM     76  C   UNL A   1      41.906  20.040  26.527  1.00  0.00     0.041 A 
ATOM     77  F   UNL A   1      40.994  20.911  28.481  1.00  0.00    -0.206 F 
ATOM     78  C   UNL A   1      42.885  20.035  25.544  1.00  0.00     0.022 A 
BRANCH  75  79
ATOM     79  S   UNL A   1      45.216  20.997  24.368  1.00  0.00     0.124 S 
ATOM     80  O   UNL A   1      44.804  19.936  23.454  1.00  0.00    -0.237 OA
ATOM     81  O   UNL A   1      45.202  22.352  23.831  1.00  0.00    -0.237 OA
ATOM     82  O   UNL A   1      46.373  20.675  25.202  1.00  0.00    -0.744 OA
ENDBRANCH  75  79
ENDBRANCH  58  72
BRANCH  59  83
ATOM     83  C   UNL A   1      41.781  30.274  32.645  1.00  0.00     0.023 A 
ATOM     84  C   UNL A   1      41.867  31.673  32.465  1.00  0.00     0.031 A 
ATOM     85  C   UNL A   1      40.539  29.737  33.001  1.00  0.00     0.131 A 
ATOM     86  C   UNL A   1      40.706  32.457  32.456  1.00  0.00     0.055 A 
ATOM     87  C   UNL A   1      39.396  30.542  33.084  1.00  0.00     0.041 A 
ATOM     88  F   UNL A   1      40.379  28.413  33.145  1.00  0.00    -0.206 F 
ATOM     89  C   UNL A   1      39.466  31.898  32.762  1.00  0.00     0.022 A 
BRANCH  86  90
ATOM     90  S   UNL A   1      40.801  34.117  31.725  1.00  0.00     0.124 S 
ATOM     91  O   UNL A   1      39.572  34.743  32.191  1.00  0.00    -0.237 OA
ATOM     92  O   UNL A   1      42.035  34.651  32.300  1.00  0.00    -0.237 OA
ATOM     93  O   UNL A   1      40.876  33.866  30.288  1.00  0.00    -0.744 OA
ENDBRANCH  86  90
ENDBRANCH  59  83
BRANCH  71  94
ATOM     94  C   UNL A   1      45.035  23.840  33.427  1.00  0.00     0.023 A 
ATOM     95  C   UNL A   1      46.367  23.578  33.787  1.00  0.00     0.031 A 
ATOM     96  C   UNL A   1      44.060  22.969  33.960  1.00  0.00     0.131 A 
ATOM     97  C   UNL A   1      46.676  22.552  34.697  1.00  0.00     0.055 A 
ATOM     98  C   UNL A   1      44.380  21.893  34.793  1.00  0.00     0.041 A 
ATOM     99  F   UNL A   1      42.750  23.150  33.731  1.00  0.00    -0.206 F 
ATOM    100  C   UNL A   1      45.695  21.689  35.180  1.00  0.00     0.022 A 
BRANCH  97 101
ATOM    101  S   UNL A   1      48.374  22.427  35.312  1.00  0.00     0.124 S 
ATOM    102  O   UNL A   1      48.245  22.860  36.699  1.00  0.00    -0.237 OA
ATOM    103  O   UNL A   1      48.655  21.007  35.114  1.00  0.00    -0.237 OA
ATOM    104  O   UNL A   1      49.124  23.332  34.444  1.00  0.00    -0.744 OA
ENDBRANCH  97 101
ENDBRANCH  71  94
ENDBRANCH  45  46
ENDBRANCH  37  40
ENDBRANCH  35  36
ENDBRANCH  34  35
ENDBRANCH   1  34
TORSDOF 20
ENDMDL
