MODEL 1
REMARK VINA RESULT:     -11.3      0.000      0.000
REMARK SMILES O=C(Cc1ccc(S(=O)(=O)C[C@H]2CCCO2)cc1)NCCCCNC(=O)c1ccc(-c2c3nc(c(-c4cc(S(=O)(=O)[O-])ccc4F)c4ccc([nH]4)c(-c4cc(S(=O)(=O)[O-])ccc4F)c4nc(c(-c5cc(S(=O)(=O)[O-])ccc5F)c5ccc2[nH]5)C=C4)C=C3)cc1
REMARK SMILES IDX 21 1 20 2 19 3 1 4 2 5 3 7 4 8 5 9 18 10 6 11 17 12 7 13
REMARK SMILES IDX 8 14 9 15 10 16 11 17 12 18 13 19 16 20 14 21 15 22 22 23
REMARK SMILES IDX 23 24 24 25 25 26 26 28 27 29 28 30 89 31 29 32 88 33 30 34
REMARK SMILES IDX 31 35 32 36 82 37 33 38 87 39 81 40 83 41 34 42 86 43 80 44
REMARK SMILES IDX 79 45 35 47 67 48 47 49 66 50 48 51 51 52 65 53 84 54 49 55
REMARK SMILES IDX 50 56 64 58 85 59 52 60 36 61 37 62 45 63 38 64 44 65 46 66
REMARK SMILES IDX 43 67 39 68 40 69 41 70 42 71 68 72 69 73 77 74 70 75 76 76
REMARK SMILES IDX 78 77 75 78 71 79 72 80 73 81 74 82 53 83 54 84 62 85 55 86
REMARK SMILES IDX 61 87 63 88 60 89 56 90 57 91 58 92 59 93
REMARK H PARENT 19 6 24 27 83 46 51 57
REMARK Flexibility Score: inf
ROOT
ATOM      1  C   UNL A   1      31.246  29.415  24.581  1.00  0.00     0.023 C 
ENDROOT
BRANCH   1   2
ATOM      2  C   UNL A   1      31.059  28.601  23.305  1.00  0.00     0.116 C 
BRANCH   2   3
ATOM      3  N   UNL A   1      32.097  27.608  23.113  1.00  0.00    -0.356 N 
ATOM      4  O   UNL A   1      31.024  26.462  21.430  1.00  0.00    -0.275 OA
ATOM      5  C   UNL A   1      32.025  26.654  22.113  1.00  0.00     0.224 C 
ATOM      6  H   UNL A   1      32.879  27.613  23.711  1.00  0.00     0.163 HD
BRANCH   5   7
ATOM      7  C   UNL A   1      33.316  25.881  21.906  1.00  0.00     0.135 C 
BRANCH   7   8
ATOM      8  C   UNL A   1      33.571  24.764  22.902  1.00  0.00    -0.039 A 
ATOM      9  C   UNL A   1      33.069  23.483  22.621  1.00  0.00     0.005 A 
ATOM     10  C   UNL A   1      34.264  24.955  24.107  1.00  0.00     0.005 A 
ATOM     11  C   UNL A   1      33.280  22.423  23.506  1.00  0.00     0.020 A 
ATOM     12  C   UNL A   1      34.437  23.912  25.018  1.00  0.00     0.020 A 
ATOM     13  C   UNL A   1      33.973  22.639  24.701  1.00  0.00     0.067 A 
BRANCH  13  14
ATOM     14  S   UNL A   1      34.237  21.250  25.771  1.00  0.00     0.180 S 
ATOM     15  O   UNL A   1      35.559  21.454  26.336  1.00  0.00    -0.224 OA
ATOM     16  O   UNL A   1      33.087  21.160  26.655  1.00  0.00    -0.224 OA
BRANCH  14  17
ATOM     17  C   UNL A   1      34.315  19.754  24.833  1.00  0.00     0.174 C 
BRANCH  17  18
ATOM     18  C   UNL A   1      33.077  18.862  24.796  1.00  0.00     0.133 C 
ATOM     19  C   UNL A   1      32.538  18.664  23.385  1.00  0.00     0.035 C 
ATOM     20  O   UNL A   1      33.318  17.547  25.303  1.00  0.00    -0.377 OA
ATOM     21  C   UNL A   1      33.255  17.414  22.941  1.00  0.00     0.031 C 
ATOM     22  C   UNL A   1      33.304  16.608  24.219  1.00  0.00     0.160 C 
ENDBRANCH  17  18
ENDBRANCH  14  17
ENDBRANCH  13  14
ENDBRANCH   7   8
ENDBRANCH   5   7
ENDBRANCH   2   3
ENDBRANCH   1   2
BRANCH   1  23
ATOM     23  C   UNL A   1      31.860  28.658  25.764  1.00  0.00     0.023 C 
BRANCH  23  24
ATOM     24  C   UNL A   1      31.966  29.438  27.072  1.00  0.00     0.116 C 
BRANCH  24  25
ATOM     25  N   UNL A   1      31.949  30.877  26.873  1.00  0.00    -0.352 N 
ATOM     26  C   UNL A   1      32.854  31.835  27.268  1.00  0.00     0.251 C 
ATOM     27  H   UNL A   1      31.170  31.220  26.380  1.00  0.00     0.163 HD
ATOM     28  O   UNL A   1      32.564  33.022  27.138  1.00  0.00    -0.269 OA
BRANCH  26  29
ATOM     29  C   UNL A   1      34.155  31.453  27.871  1.00  0.00     0.039 A 
ATOM     30  C   UNL A   1      35.133  32.440  28.041  1.00  0.00     0.014 A 
ATOM     31  C   UNL A   1      34.430  30.135  28.242  1.00  0.00     0.014 A 
ATOM     32  C   UNL A   1      36.351  32.121  28.649  1.00  0.00     0.010 A 
ATOM     33  C   UNL A   1      35.622  29.830  28.904  1.00  0.00     0.010 A 
ATOM     34  C   UNL A   1      36.593  30.821  29.121  1.00  0.00    -0.014 A 
BRANCH  34  35
ATOM     35  C   UNL A   1      37.845  30.482  29.853  1.00  0.00     0.031 A 
ATOM     36  C   UNL A   1      38.849  29.538  29.248  1.00  0.00     0.074 A 
ATOM     37  C   UNL A   1      38.045  30.969  31.094  1.00  0.00     0.049 A 
ATOM     38  N   UNL A   1      39.946  29.049  29.767  1.00  0.00    -0.248 NA
ATOM     39  C   UNL A   1      38.564  29.062  27.886  1.00  0.00     0.031 C 
ATOM     40  C   UNL A   1      37.134  31.867  31.807  1.00  0.00     0.029 A 
ATOM     41  N   UNL A   1      39.071  30.767  31.983  1.00  0.00    -0.354 N 
ATOM     42  C   UNL A   1      40.474  28.192  28.807  1.00  0.00     0.074 A 
ATOM     43  C   UNL A   1      39.547  28.195  27.694  1.00  0.00     0.031 C 
ATOM     44  C   UNL A   1      37.649  32.150  33.014  1.00  0.00     0.029 A 
ATOM     45  C   UNL A   1      38.903  31.422  33.182  1.00  0.00     0.049 A 
ATOM     46  H   UNL A   1      39.856  30.207  31.782  1.00  0.00     0.167 HD
ATOM     47  C   UNL A   1      41.630  27.482  28.844  1.00  0.00     0.034 A 
ATOM     48  C   UNL A   1      39.661  31.424  34.296  1.00  0.00     0.034 A 
ATOM     49  C   UNL A   1      42.555  27.503  29.952  1.00  0.00     0.049 A 
ATOM     50  C   UNL A   1      40.933  30.614  34.320  1.00  0.00     0.074 A 
ATOM     51  C   UNL A   1      43.785  26.875  30.062  1.00  0.00     0.029 A 
ATOM     52  N   UNL A   1      42.351  28.180  31.148  1.00  0.00    -0.354 N 
ATOM     53  N   UNL A   1      41.441  29.846  33.385  1.00  0.00    -0.248 NA
ATOM     54  C   UNL A   1      41.736  30.680  35.549  1.00  0.00     0.031 C 
ATOM     55  C   UNL A   1      44.293  27.122  31.342  1.00  0.00     0.029 A 
ATOM     56  C   UNL A   1      43.417  27.960  32.009  1.00  0.00     0.049 A 
ATOM     57  H   UNL A   1      41.565  28.736  31.354  1.00  0.00     0.167 HD
ATOM     58  C   UNL A   1      42.638  29.362  33.902  1.00  0.00     0.074 A 
ATOM     59  C   UNL A   1      42.782  29.932  35.225  1.00  0.00     0.031 C 
ATOM     60  C   UNL A   1      43.543  28.526  33.332  1.00  0.00     0.034 A 
BRANCH  47  61
ATOM     61  C   UNL A   1      41.941  26.600  27.658  1.00  0.00     0.023 A 
ATOM     62  C   UNL A   1      41.537  25.255  27.609  1.00  0.00     0.031 A 
ATOM     63  C   UNL A   1      42.673  27.107  26.568  1.00  0.00     0.131 A 
ATOM     64  C   UNL A   1      41.932  24.443  26.535  1.00  0.00     0.055 A 
ATOM     65  C   UNL A   1      42.993  26.315  25.464  1.00  0.00     0.041 A 
ATOM     66  F   UNL A   1      43.102  28.379  26.565  1.00  0.00    -0.206 F 
ATOM     67  C   UNL A   1      42.635  24.970  25.450  1.00  0.00     0.022 A 
BRANCH  64  68
ATOM     68  S   UNL A   1      41.636  22.657  26.646  1.00  0.00     0.124 S 
ATOM     69  O   UNL A   1      40.183  22.609  26.799  1.00  0.00    -0.237 OA
ATOM     70  O   UNL A   1      42.160  22.170  25.375  1.00  0.00    -0.237 OA
ATOM     71  O   UNL A   1      42.393  22.257  27.829  1.00  0.00    -0.744 OA
ENDBRANCH  64  68
ENDBRANCH  47  61
BRANCH  48  72
ATOM     72  C   UNL A   1      39.243  32.208  35.493  1.00  0.00     0.023 A 
ATOM     73  C   UNL A   1      39.664  33.535  35.669  1.00  0.00     0.031 A 
ATOM     74  C   UNL A   1      38.452  31.626  36.499  1.00  0.00     0.131 A 
ATOM     75  C   UNL A   1      39.332  34.224  36.845  1.00  0.00     0.055 A 
ATOM     76  C   UNL A   1      38.082  32.332  37.645  1.00  0.00     0.041 A 
ATOM     77  F   UNL A   1      38.016  30.362  36.375  1.00  0.00    -0.206 F 
ATOM     78  C   UNL A   1      38.534  33.634  37.830  1.00  0.00     0.022 A 
BRANCH  75  79
ATOM     79  S   UNL A   1      40.024  35.879  37.107  1.00  0.00     0.124 S 
ATOM     80  O   UNL A   1      39.285  36.330  38.280  1.00  0.00    -0.237 OA
ATOM     81  O   UNL A   1      41.438  35.585  37.313  1.00  0.00    -0.237 OA
ATOM     82  O   UNL A   1      39.710  36.579  35.863  1.00  0.00    -0.744 OA
ENDBRANCH  75  79
ENDBRANCH  48  72
BRANCH  60  83
ATOM     83  C   UNL A   1      44.789  28.223  34.125  1.00  0.00     0.023 A 
ATOM     84  C   UNL A   1      44.872  27.111  34.980  1.00  0.00     0.031 A 
ATOM     85  C   UNL A   1      45.905  29.076  34.037  1.00  0.00     0.131 A 
ATOM     86  C   UNL A   1      46.026  26.908  35.753  1.00  0.00     0.055 A 
ATOM     87  C   UNL A   1      47.071  28.837  34.767  1.00  0.00     0.041 A 
ATOM     88  F   UNL A   1      45.879  30.154  33.238  1.00  0.00    -0.206 F 
ATOM     89  C   UNL A   1      47.131  27.756  35.640  1.00  0.00     0.022 A 
BRANCH  86  90
ATOM     90  S   UNL A   1      46.034  25.565  36.973  1.00  0.00     0.124 S 
ATOM     91  O   UNL A   1      47.339  25.734  37.603  1.00  0.00    -0.237 OA
ATOM     92  O   UNL A   1      44.879  25.889  37.804  1.00  0.00    -0.237 OA
ATOM     93  O   UNL A   1      45.891  24.360  36.159  1.00  0.00    -0.744 OA
ENDBRANCH  86  90
ENDBRANCH  60  83
ENDBRANCH  34  35
ENDBRANCH  26  29
ENDBRANCH  24  25
ENDBRANCH  23  24
ENDBRANCH   1  23
TORSDOF 18
ENDMDL
MODEL 2
REMARK VINA RESULT:     -11.2      3.112      8.775
REMARK SMILES O=C(Cc1ccc(S(=O)(=O)C[C@H]2CCCO2)cc1)NCCCCNC(=O)c1ccc(-c2c3nc(c(-c4cc(S(=O)(=O)[O-])ccc4F)c4ccc([nH]4)c(-c4cc(S(=O)(=O)[O-])ccc4F)c4nc(c(-c5cc(S(=O)(=O)[O-])ccc5F)c5ccc2[nH]5)C=C4)C=C3)cc1
REMARK SMILES IDX 21 1 20 2 19 3 1 4 2 5 3 7 4 8 5 9 18 10 6 11 17 12 7 13
REMARK SMILES IDX 8 14 9 15 10 16 11 17 12 18 13 19 16 20 14 21 15 22 22 23
REMARK SMILES IDX 23 24 24 25 25 26 26 28 27 29 28 30 89 31 29 32 88 33 30 34
REMARK SMILES IDX 31 35 32 36 82 37 33 38 87 39 81 40 83 41 34 42 86 43 80 44
REMARK SMILES IDX 79 45 35 47 67 48 47 49 66 50 48 51 51 52 65 53 84 54 49 55
REMARK SMILES IDX 50 56 64 58 85 59 52 60 36 61 37 62 45 63 38 64 44 65 46 66
REMARK SMILES IDX 43 67 39 68 40 69 41 70 42 71 68 72 69 73 77 74 70 75 76 76
REMARK SMILES IDX 78 77 75 78 71 79 72 80 73 81 74 82 53 83 54 84 62 85 55 86
REMARK SMILES IDX 61 87 63 88 60 89 56 90 57 91 58 92 59 93
REMARK H PARENT 19 6 24 27 83 46 51 57
REMARK Flexibility Score: inf
ROOT
ATOM      1  C   UNL A   1      34.516  33.399  29.546  1.00  0.00     0.023 C 
ENDROOT
BRANCH   1   2
ATOM      2  C   UNL A   1      34.775  32.115  28.766  1.00  0.00     0.116 C 
BRANCH   2   3
ATOM      3  N   UNL A   1      33.683  31.761  27.882  1.00  0.00    -0.356 N 
ATOM      4  O   UNL A   1      34.492  29.681  27.322  1.00  0.00    -0.275 OA
ATOM      5  C   UNL A   1      33.592  30.515  27.290  1.00  0.00     0.224 C 
ATOM      6  H   UNL A   1      32.982  32.429  27.699  1.00  0.00     0.163 HD
BRANCH   5   7
ATOM      7  C   UNL A   1      32.255  30.249  26.618  1.00  0.00     0.135 C 
BRANCH   7   8
ATOM      8  C   UNL A   1      32.272  29.185  25.535  1.00  0.00    -0.039 A 
ATOM      9  C   UNL A   1      32.879  29.487  24.306  1.00  0.00     0.005 A 
ATOM     10  C   UNL A   1      31.687  27.920  25.693  1.00  0.00     0.005 A 
ATOM     11  C   UNL A   1      32.922  28.540  23.279  1.00  0.00     0.020 A 
ATOM     12  C   UNL A   1      31.684  26.987  24.655  1.00  0.00     0.020 A 
ATOM     13  C   UNL A   1      32.331  27.287  23.461  1.00  0.00     0.067 A 
BRANCH  13  14
ATOM     14  S   UNL A   1      32.443  26.115  22.134  1.00  0.00     0.180 S 
ATOM     15  O   UNL A   1      31.242  26.323  21.344  1.00  0.00    -0.224 OA
ATOM     16  O   UNL A   1      33.746  26.287  21.514  1.00  0.00    -0.224 OA
BRANCH  14  17
ATOM     17  C   UNL A   1      32.355  24.464  22.759  1.00  0.00     0.174 C 
BRANCH  17  18
ATOM     18  C   UNL A   1      33.663  23.746  23.082  1.00  0.00     0.133 C 
ATOM     19  C   UNL A   1      34.331  24.283  24.341  1.00  0.00     0.035 C 
ATOM     20  O   UNL A   1      33.493  22.344  23.305  1.00  0.00    -0.377 OA
ATOM     21  C   UNL A   1      33.761  23.386  25.412  1.00  0.00     0.031 C 
ATOM     22  C   UNL A   1      33.676  22.057  24.697  1.00  0.00     0.160 C 
ENDBRANCH  17  18
ENDBRANCH  14  17
ENDBRANCH  13  14
ENDBRANCH   7   8
ENDBRANCH   5   7
ENDBRANCH   2   3
ENDBRANCH   1   2
BRANCH   1  23
ATOM     23  C   UNL A   1      33.362  34.265  29.029  1.00  0.00     0.023 C 
BRANCH  23  24
ATOM     24  C   UNL A   1      33.447  35.754  29.354  1.00  0.00     0.116 C 
BRANCH  24  25
ATOM     25  N   UNL A   1      32.575  36.143  30.448  1.00  0.00    -0.352 N 
ATOM     26  C   UNL A   1      32.645  35.836  31.788  1.00  0.00     0.251 C 
ATOM     27  H   UNL A   1      31.814  36.713  30.192  1.00  0.00     0.163 HD
ATOM     28  O   UNL A   1      31.706  36.136  32.520  1.00  0.00    -0.269 OA
BRANCH  26  29
ATOM     29  C   UNL A   1      33.822  35.127  32.347  1.00  0.00     0.039 A 
ATOM     30  C   UNL A   1      33.632  33.880  32.952  1.00  0.00     0.014 A 
ATOM     31  C   UNL A   1      35.101  35.688  32.306  1.00  0.00     0.014 A 
ATOM     32  C   UNL A   1      34.729  33.166  33.446  1.00  0.00     0.010 A 
ATOM     33  C   UNL A   1      36.203  34.949  32.744  1.00  0.00     0.010 A 
ATOM     34  C   UNL A   1      36.030  33.677  33.313  1.00  0.00    -0.014 A 
BRANCH  34  35
ATOM     35  C   UNL A   1      37.218  32.894  33.749  1.00  0.00     0.031 A 
ATOM     36  C   UNL A   1      37.968  33.279  34.996  1.00  0.00     0.074 A 
ATOM     37  C   UNL A   1      37.665  31.878  32.985  1.00  0.00     0.049 A 
ATOM     38  N   UNL A   1      39.076  32.783  35.485  1.00  0.00    -0.248 NA
ATOM     39  C   UNL A   1      37.409  34.389  35.782  1.00  0.00     0.031 C 
ATOM     40  C   UNL A   1      37.049  31.425  31.736  1.00  0.00     0.029 A 
ATOM     41  N   UNL A   1      38.751  31.051  33.135  1.00  0.00    -0.354 N 
ATOM     42  C   UNL A   1      39.361  33.530  36.623  1.00  0.00     0.074 A 
ATOM     43  C   UNL A   1      38.331  34.544  36.721  1.00  0.00     0.031 C 
ATOM     44  C   UNL A   1      37.754  30.394  31.244  1.00  0.00     0.029 A 
ATOM     45  C   UNL A   1      38.898  30.139  32.114  1.00  0.00     0.049 A 
ATOM     46  H   UNL A   1      39.366  31.103  33.902  1.00  0.00     0.167 HD
ATOM     47  C   UNL A   1      40.376  33.376  37.511  1.00  0.00     0.034 A 
ATOM     48  C   UNL A   1      39.853  29.214  31.894  1.00  0.00     0.034 A 
ATOM     49  C   UNL A   1      41.385  32.348  37.412  1.00  0.00     0.049 A 
ATOM     50  C   UNL A   1      40.981  29.072  32.885  1.00  0.00     0.074 A 
ATOM     51  C   UNL A   1      42.415  32.063  38.293  1.00  0.00     0.029 A 
ATOM     52  N   UNL A   1      41.500  31.441  36.365  1.00  0.00    -0.354 N 
ATOM     53  N   UNL A   1      41.207  29.757  33.982  1.00  0.00    -0.248 NA
ATOM     54  C   UNL A   1      41.975  28.026  32.611  1.00  0.00     0.031 C 
ATOM     55  C   UNL A   1      43.185  31.028  37.750  1.00  0.00     0.029 A 
ATOM     56  C   UNL A   1      42.599  30.618  36.565  1.00  0.00     0.049 A 
ATOM     57  H   UNL A   1      40.889  31.390  35.595  1.00  0.00     0.167 HD
ATOM     58  C   UNL A   1      42.354  29.202  34.543  1.00  0.00     0.074 A 
ATOM     59  C   UNL A   1      42.764  28.122  33.671  1.00  0.00     0.031 C 
ATOM     60  C   UNL A   1      43.005  29.551  35.682  1.00  0.00     0.034 A 
BRANCH  47  61
ATOM     61  C   UNL A   1      40.456  34.362  38.651  1.00  0.00     0.023 A 
ATOM     62  C   UNL A   1      39.901  34.083  39.912  1.00  0.00     0.031 A 
ATOM     63  C   UNL A   1      41.076  35.612  38.467  1.00  0.00     0.131 A 
ATOM     64  C   UNL A   1      39.908  35.066  40.914  1.00  0.00     0.055 A 
ATOM     65  C   UNL A   1      41.151  36.555  39.494  1.00  0.00     0.041 A 
ATOM     66  F   UNL A   1      41.608  35.943  37.280  1.00  0.00    -0.206 F 
ATOM     67  C   UNL A   1      40.553  36.290  40.723  1.00  0.00     0.022 A 
BRANCH  64  68
ATOM     68  S   UNL A   1      38.941  34.774  42.420  1.00  0.00     0.124 S 
ATOM     69  O   UNL A   1      39.908  35.113  43.461  1.00  0.00    -0.237 OA
ATOM     70  O   UNL A   1      37.824  35.698  42.262  1.00  0.00    -0.237 OA
ATOM     71  O   UNL A   1      38.596  33.357  42.337  1.00  0.00    -0.744 OA
ENDBRANCH  64  68
ENDBRANCH  47  61
BRANCH  48  72
ATOM     72  C   UNL A   1      39.802  28.350  30.680  1.00  0.00     0.023 A 
ATOM     73  C   UNL A   1      40.507  28.699  29.518  1.00  0.00     0.031 A 
ATOM     74  C   UNL A   1      39.013  27.187  30.651  1.00  0.00     0.131 A 
ATOM     75  C   UNL A   1      40.374  27.919  28.359  1.00  0.00     0.055 A 
ATOM     76  C   UNL A   1      38.922  26.387  29.511  1.00  0.00     0.041 A 
ATOM     77  F   UNL A   1      38.325  26.805  31.739  1.00  0.00    -0.206 F 
ATOM     78  C   UNL A   1      39.594  26.759  28.351  1.00  0.00     0.022 A 
BRANCH  75  79
ATOM     79  S   UNL A   1      41.174  28.488  26.834  1.00  0.00     0.124 S 
ATOM     80  O   UNL A   1      42.319  29.224  27.355  1.00  0.00    -0.237 OA
ATOM     81  O   UNL A   1      41.472  27.227  26.162  1.00  0.00    -0.237 OA
ATOM     82  O   UNL A   1      40.144  29.304  26.194  1.00  0.00    -0.744 OA
ENDBRANCH  75  79
ENDBRANCH  48  72
BRANCH  60  83
ATOM     83  C   UNL A   1      44.202  28.717  36.068  1.00  0.00     0.023 A 
ATOM     84  C   UNL A   1      44.102  27.656  36.983  1.00  0.00     0.031 A 
ATOM     85  C   UNL A   1      45.466  29.005  35.521  1.00  0.00     0.131 A 
ATOM     86  C   UNL A   1      45.255  26.953  37.367  1.00  0.00     0.055 A 
ATOM     87  C   UNL A   1      46.599  28.266  35.865  1.00  0.00     0.041 A 
ATOM     88  F   UNL A   1      45.619  30.009  34.644  1.00  0.00    -0.206 F 
ATOM     89  C   UNL A   1      46.500  27.242  36.802  1.00  0.00     0.022 A 
BRANCH  86  90
ATOM     90  S   UNL A   1      45.121  25.707  38.679  1.00  0.00     0.124 S 
ATOM     91  O   UNL A   1      46.515  25.528  39.071  1.00  0.00    -0.237 OA
ATOM     92  O   UNL A   1      44.264  26.371  39.655  1.00  0.00    -0.237 OA
ATOM     93  O   UNL A   1      44.515  24.560  38.003  1.00  0.00    -0.744 OA
ENDBRANCH  86  90
ENDBRANCH  60  83
ENDBRANCH  34  35
ENDBRANCH  26  29
ENDBRANCH  24  25
ENDBRANCH  23  24
ENDBRANCH   1  23
TORSDOF 18
ENDMDL
MODEL 3
REMARK VINA RESULT:     -11.1      1.769      2.165
REMARK SMILES O=C(Cc1ccc(S(=O)(=O)C[C@H]2CCCO2)cc1)NCCCCNC(=O)c1ccc(-c2c3nc(c(-c4cc(S(=O)(=O)[O-])ccc4F)c4ccc([nH]4)c(-c4cc(S(=O)(=O)[O-])ccc4F)c4nc(c(-c5cc(S(=O)(=O)[O-])ccc5F)c5ccc2[nH]5)C=C4)C=C3)cc1
REMARK SMILES IDX 21 1 20 2 19 3 1 4 2 5 3 7 4 8 5 9 18 10 6 11 17 12 7 13
REMARK SMILES IDX 8 14 9 15 10 16 11 17 12 18 13 19 16 20 14 21 15 22 22 23
REMARK SMILES IDX 23 24 24 25 25 26 26 28 27 29 28 30 89 31 29 32 88 33 30 34
REMARK SMILES IDX 31 35 32 36 82 37 33 38 87 39 81 40 83 41 34 42 86 43 80 44
REMARK SMILES IDX 79 45 35 47 67 48 47 49 66 50 48 51 51 52 65 53 84 54 49 55
REMARK SMILES IDX 50 56 64 58 85 59 52 60 36 61 37 62 45 63 38 64 44 65 46 66
REMARK SMILES IDX 43 67 39 68 40 69 41 70 42 71 68 72 69 73 77 74 70 75 76 76
REMARK SMILES IDX 78 77 75 78 71 79 72 80 73 81 74 82 53 83 54 84 62 85 55 86
REMARK SMILES IDX 61 87 63 88 60 89 56 90 57 91 58 92 59 93
REMARK H PARENT 19 6 24 27 83 46 51 57
REMARK Flexibility Score: inf
ROOT
ATOM      1  C   UNL A   1      32.939  29.005  23.106  1.00  0.00     0.023 C 
ENDROOT
BRANCH   1   2
ATOM      2  C   UNL A   1      31.516  28.583  22.756  1.00  0.00     0.116 C 
BRANCH   2   3
ATOM      3  N   UNL A   1      31.352  27.144  22.702  1.00  0.00    -0.356 N 
ATOM      4  O   UNL A   1      29.992  26.988  24.551  1.00  0.00    -0.275 OA
ATOM      5  C   UNL A   1      30.518  26.467  23.573  1.00  0.00     0.224 C 
ATOM      6  H   UNL A   1      31.848  26.633  22.022  1.00  0.00     0.163 HD
BRANCH   5   7
ATOM      7  C   UNL A   1      30.278  25.015  23.192  1.00  0.00     0.135 C 
BRANCH   7   8
ATOM      8  C   UNL A   1      31.276  24.022  23.758  1.00  0.00    -0.039 A 
ATOM      9  C   UNL A   1      31.250  23.752  25.136  1.00  0.00     0.005 A 
ATOM     10  C   UNL A   1      32.244  23.376  22.974  1.00  0.00     0.005 A 
ATOM     11  C   UNL A   1      32.148  22.843  25.702  1.00  0.00     0.020 A 
ATOM     12  C   UNL A   1      33.174  22.504  23.542  1.00  0.00     0.020 A 
ATOM     13  C   UNL A   1      33.103  22.214  24.900  1.00  0.00     0.067 A 
BRANCH  13  14
ATOM     14  S   UNL A   1      34.195  21.048  25.669  1.00  0.00     0.180 S 
ATOM     15  O   UNL A   1      35.520  21.632  25.546  1.00  0.00    -0.224 OA
ATOM     16  O   UNL A   1      33.660  20.759  26.989  1.00  0.00    -0.224 OA
BRANCH  14  17
ATOM     17  C   UNL A   1      34.226  19.535  24.756  1.00  0.00     0.174 C 
BRANCH  17  18
ATOM     18  C   UNL A   1      32.897  18.843  24.464  1.00  0.00     0.133 C 
ATOM     19  C   UNL A   1      33.015  17.779  23.380  1.00  0.00     0.035 C 
ATOM     20  O   UNL A   1      32.350  18.173  25.602  1.00  0.00    -0.377 OA
ATOM     21  C   UNL A   1      33.301  16.535  24.184  1.00  0.00     0.031 C 
ATOM     22  C   UNL A   1      32.455  16.756  25.417  1.00  0.00     0.160 C 
ENDBRANCH  17  18
ENDBRANCH  14  17
ENDBRANCH  13  14
ENDBRANCH   7   8
ENDBRANCH   5   7
ENDBRANCH   2   3
ENDBRANCH   1   2
BRANCH   1  23
ATOM     23  C   UNL A   1      33.692  28.067  24.056  1.00  0.00     0.023 C 
BRANCH  23  24
ATOM     24  C   UNL A   1      33.545  28.368  25.546  1.00  0.00     0.116 C 
BRANCH  24  25
ATOM     25  N   UNL A   1      32.862  29.625  25.802  1.00  0.00    -0.352 N 
ATOM     26  C   UNL A   1      33.152  30.621  26.706  1.00  0.00     0.251 C 
ATOM     27  H   UNL A   1      32.068  29.788  25.244  1.00  0.00     0.163 HD
ATOM     28  O   UNL A   1      32.345  31.531  26.872  1.00  0.00    -0.269 OA
BRANCH  26  29
ATOM     29  C   UNL A   1      34.407  30.592  27.495  1.00  0.00     0.039 A 
ATOM     30  C   UNL A   1      34.751  29.415  28.170  1.00  0.00     0.014 A 
ATOM     31  C   UNL A   1      35.231  31.715  27.602  1.00  0.00     0.014 A 
ATOM     32  C   UNL A   1      35.952  29.341  28.884  1.00  0.00     0.010 A 
ATOM     33  C   UNL A   1      36.458  31.622  28.263  1.00  0.00     0.010 A 
ATOM     34  C   UNL A   1      36.835  30.433  28.907  1.00  0.00    -0.014 A 
BRANCH  34  35
ATOM     35  C   UNL A   1      38.158  30.345  29.584  1.00  0.00     0.031 A 
ATOM     36  C   UNL A   1      39.275  29.545  28.970  1.00  0.00     0.074 A 
ATOM     37  C   UNL A   1      38.332  30.927  30.787  1.00  0.00     0.049 A 
ATOM     38  N   UNL A   1      40.461  29.271  29.451  1.00  0.00    -0.248 NA
ATOM     39  C   UNL A   1      39.010  28.951  27.651  1.00  0.00     0.031 C 
ATOM     40  C   UNL A   1      37.319  31.704  31.505  1.00  0.00     0.029 A 
ATOM     41  N   UNL A   1      39.419  30.946  31.627  1.00  0.00    -0.354 N 
ATOM     42  C   UNL A   1      41.079  28.458  28.506  1.00  0.00     0.074 A 
ATOM     43  C   UNL A   1      40.113  28.246  27.447  1.00  0.00     0.031 C 
ATOM     44  C   UNL A   1      37.836  32.136  32.667  1.00  0.00     0.029 A 
ATOM     45  C   UNL A   1      39.200  31.632  32.800  1.00  0.00     0.049 A 
ATOM     46  H   UNL A   1      40.275  30.511  31.410  1.00  0.00     0.167 HD
ATOM     47  C   UNL A   1      42.337  27.949  28.513  1.00  0.00     0.034 A 
ATOM     48  C   UNL A   1      39.999  31.821  33.869  1.00  0.00     0.034 A 
ATOM     49  C   UNL A   1      43.296  28.183  29.566  1.00  0.00     0.049 A 
ATOM     50  C   UNL A   1      41.387  31.232  33.862  1.00  0.00     0.074 A 
ATOM     51  C   UNL A   1      44.617  27.771  29.638  1.00  0.00     0.029 A 
ATOM     52  N   UNL A   1      43.039  28.885  30.737  1.00  0.00    -0.354 N 
ATOM     53  N   UNL A   1      41.970  30.505  32.938  1.00  0.00    -0.248 NA
ATOM     54  C   UNL A   1      42.224  31.497  35.039  1.00  0.00     0.031 C 
ATOM     55  C   UNL A   1      45.136  28.170  30.875  1.00  0.00     0.029 A 
ATOM     56  C   UNL A   1      44.165  28.891  31.548  1.00  0.00     0.049 A 
ATOM     57  H   UNL A   1      42.182  29.316  30.959  1.00  0.00     0.167 HD
ATOM     58  C   UNL A   1      43.254  30.252  33.411  1.00  0.00     0.074 A 
ATOM     59  C   UNL A   1      43.363  30.913  34.695  1.00  0.00     0.031 C 
ATOM     60  C   UNL A   1      44.257  29.544  32.832  1.00  0.00     0.034 A 
BRANCH  47  61
ATOM     61  C   UNL A   1      42.734  27.064  27.356  1.00  0.00     0.023 A 
ATOM     62  C   UNL A   1      42.558  25.669  27.396  1.00  0.00     0.031 A 
ATOM     63  C   UNL A   1      43.318  27.620  26.203  1.00  0.00     0.131 A 
ATOM     64  C   UNL A   1      43.032  24.873  26.342  1.00  0.00     0.055 A 
ATOM     65  C   UNL A   1      43.713  26.829  25.123  1.00  0.00     0.041 A 
ATOM     66  F   UNL A   1      43.528  28.943  26.114  1.00  0.00    -0.206 F 
ATOM     67  C   UNL A   1      43.585  25.445  25.194  1.00  0.00     0.022 A 
BRANCH  64  68
ATOM     68  S   UNL A   1      43.044  23.073  26.556  1.00  0.00     0.124 S 
ATOM     69  O   UNL A   1      42.442  22.624  25.302  1.00  0.00    -0.237 OA
ATOM     70  O   UNL A   1      44.463  22.783  26.723  1.00  0.00    -0.237 OA
ATOM     71  O   UNL A   1      42.219  22.862  27.743  1.00  0.00    -0.744 OA
ENDBRANCH  64  68
ENDBRANCH  47  61
BRANCH  48  72
ATOM     72  C   UNL A   1      39.512  32.593  35.048  1.00  0.00     0.023 A 
ATOM     73  C   UNL A   1      38.885  31.945  36.123  1.00  0.00     0.031 A 
ATOM     74  C   UNL A   1      39.628  33.992  35.095  1.00  0.00     0.131 A 
ATOM     75  C   UNL A   1      38.356  32.700  37.181  1.00  0.00     0.055 A 
ATOM     76  C   UNL A   1      39.143  34.736  36.173  1.00  0.00     0.041 A 
ATOM     77  F   UNL A   1      40.226  34.660  34.095  1.00  0.00    -0.206 F 
ATOM     78  C   UNL A   1      38.491  34.090  37.218  1.00  0.00     0.022 A 
BRANCH  75  79
ATOM     79  S   UNL A   1      37.417  31.842  38.474  1.00  0.00     0.124 S 
ATOM     80  O   UNL A   1      38.326  31.929  39.611  1.00  0.00    -0.237 OA
ATOM     81  O   UNL A   1      36.207  32.653  38.557  1.00  0.00    -0.237 OA
ATOM     82  O   UNL A   1      37.229  30.501  37.925  1.00  0.00    -0.744 OA
ENDBRANCH  75  79
ENDBRANCH  48  72
BRANCH  60  83
ATOM     83  C   UNL A   1      45.572  29.494  33.570  1.00  0.00     0.023 A 
ATOM     84  C   UNL A   1      45.854  28.494  34.517  1.00  0.00     0.031 A 
ATOM     85  C   UNL A   1      46.551  30.476  33.332  1.00  0.00     0.131 A 
ATOM     86  C   UNL A   1      47.062  28.528  35.230  1.00  0.00     0.055 A 
ATOM     87  C   UNL A   1      47.774  30.472  34.005  1.00  0.00     0.041 A 
ATOM     88  F   UNL A   1      46.333  31.455  32.440  1.00  0.00    -0.206 F 
ATOM     89  C   UNL A   1      48.030  29.503  34.969  1.00  0.00     0.022 A 
BRANCH  86  90
ATOM     90  S   UNL A   1      47.320  27.328  36.566  1.00  0.00     0.124 S 
ATOM     91  O   UNL A   1      46.300  27.724  37.531  1.00  0.00    -0.237 OA
ATOM     92  O   UNL A   1      47.099  26.054  35.891  1.00  0.00    -0.237 OA
ATOM     93  O   UNL A   1      48.699  27.574  36.987  1.00  0.00    -0.744 OA
ENDBRANCH  86  90
ENDBRANCH  60  83
ENDBRANCH  34  35
ENDBRANCH  26  29
ENDBRANCH  24  25
ENDBRANCH  23  24
ENDBRANCH   1  23
TORSDOF 18
ENDMDL
