MODEL 1
REMARK VINA RESULT:     -12.4      0.000      0.000
REMARK SMILES COC(=O)c1ccc([C@H]2CC(=O)Nc3c(C(=O)NCCCCNC(=O)c4ccc(-c5c6nc(c(-c7cc(S(=O)(=O)[O-])ccc7F)c7ccc([nH]7)c(-c7cc(S(=O)(=O)[O-])ccc7F)c7nc(c(-c8cc(S(=O)(=O)[O-])ccc8F)c8ccc5[nH]8)C=C7)C=C6)cc4)cn(-c4ccccc4)c32)cc1
REMARK SMILES IDX 20 1 19 2 18 3 16 4 17 5 15 7 9 8 10 9 97 10 11 11 14 12
REMARK SMILES IDX 90 13 12 14 13 15 89 16 8 18 5 19 6 20 99 21 7 22 98 23 3 24
REMARK SMILES IDX 4 25 2 26 1 27 91 28 92 29 96 30 93 31 95 32 94 33 21 34
REMARK SMILES IDX 22 35 23 36 24 37 25 39 26 40 27 41 88 42 28 43 87 44 29 45
REMARK SMILES IDX 30 46 31 47 81 48 32 49 86 50 80 51 82 52 33 53 85 54 79 55
REMARK SMILES IDX 78 56 34 58 66 59 46 60 65 61 47 62 50 63 64 64 83 65 48 66
REMARK SMILES IDX 49 67 63 69 84 70 51 71 35 72 36 73 44 74 37 75 43 76 45 77
REMARK SMILES IDX 42 78 38 79 39 80 40 81 41 82 67 83 68 84 76 85 69 86 75 87
REMARK SMILES IDX 77 88 74 89 70 90 71 91 72 92 73 93 52 94 53 95 61 96 54 97
REMARK SMILES IDX 60 98 62 99 59 100 55 101 56 102 57 103 58 104
REMARK H PARENT 18 6 13 17 23 38 82 57 50 68
REMARK Flexibility Score: inf
ROOT
ATOM      1  C   UNL A   1      39.240  22.265  26.358  1.00  0.00     0.023 C 
ENDROOT
BRANCH   1   2
ATOM      2  C   UNL A   1      37.935  22.995  26.008  1.00  0.00     0.116 C 
BRANCH   2   3
ATOM      3  N   UNL A   1      37.605  22.854  24.612  1.00  0.00    -0.352 N 
ATOM      4  C   UNL A   1      36.508  23.161  23.857  1.00  0.00     0.254 C 
ATOM      5  O   UNL A   1      36.641  22.913  22.652  1.00  0.00    -0.269 OA
ATOM      6  H   UNL A   1      38.331  22.445  24.087  1.00  0.00     0.163 HD
BRANCH   4   7
ATOM      7  C   UNL A   1      35.237  23.718  24.352  1.00  0.00     0.081 A 
ATOM      8  C   UNL A   1      31.630  24.318  25.189  1.00  0.00     0.078 C 
ATOM      9  C   UNL A   1      31.061  22.946  24.808  1.00  0.00     0.115 C 
ATOM     10  C   UNL A   1      33.125  24.363  24.978  1.00  0.00     0.055 A 
ATOM     11  C   UNL A   1      32.013  21.795  24.963  1.00  0.00     0.225 C 
ATOM     12  C   UNL A   1      33.917  23.268  24.676  1.00  0.00     0.076 A 
ATOM     13  N   UNL A   1      33.948  25.471  25.058  1.00  0.00    -0.317 N 
ATOM     14  O   UNL A   1      31.608  20.648  25.149  1.00  0.00    -0.275 OA
ATOM     15  N   UNL A   1      33.337  22.024  24.735  1.00  0.00    -0.324 N 
ATOM     16  C   UNL A   1      35.171  25.098  24.561  1.00  0.00     0.107 A 
ATOM     17  H   UNL A   1      33.920  21.243  24.603  1.00  0.00     0.170 HD
BRANCH   8  18
ATOM     18  C   UNL A   1      30.798  25.361  24.434  1.00  0.00    -0.038 A 
ATOM     19  C   UNL A   1      29.295  27.407  23.204  1.00  0.00     0.060 A 
ATOM     20  C   UNL A   1      28.852  26.828  24.396  1.00  0.00     0.016 A 
ATOM     21  C   UNL A   1      30.445  26.909  22.587  1.00  0.00     0.016 A 
ATOM     22  C   UNL A   1      29.604  25.824  25.012  1.00  0.00     0.005 A 
ATOM     23  C   UNL A   1      31.160  25.866  23.175  1.00  0.00     0.005 A 
BRANCH  19  24
ATOM     24  C   UNL A   1      28.541  28.568  22.660  1.00  0.00     0.337 C 
ATOM     25  O   UNL A   1      27.429  28.885  23.027  1.00  0.00    -0.246 OA
BRANCH  24  26
ATOM     26  O   UNL A   1      29.289  29.217  21.726  1.00  0.00    -0.465 OA
ATOM     27  C   UNL A   1      29.438  30.613  21.971  1.00  0.00     0.282 C 
ENDBRANCH  24  26
ENDBRANCH  19  24
ENDBRANCH   8  18
BRANCH  13  28
ATOM     28  C   UNL A   1      33.584  26.794  25.422  1.00  0.00     0.045 A 
ATOM     29  C   UNL A   1      32.973  27.041  26.655  1.00  0.00     0.026 A 
ATOM     30  C   UNL A   1      33.717  27.822  24.480  1.00  0.00     0.026 A 
ATOM     31  C   UNL A   1      32.422  28.296  26.914  1.00  0.00     0.002 A 
ATOM     32  C   UNL A   1      33.131  29.064  24.734  1.00  0.00     0.002 A 
ATOM     33  C   UNL A   1      32.474  29.296  25.942  1.00  0.00     0.000 A 
ENDBRANCH  13  28
ENDBRANCH   4   7
ENDBRANCH   2   3
ENDBRANCH   1   2
BRANCH   1  34
ATOM     34  C   UNL A   1      39.470  20.958  25.584  1.00  0.00     0.023 C 
BRANCH  34  35
ATOM     35  C   UNL A   1      39.925  19.787  26.451  1.00  0.00     0.116 C 
BRANCH  35  36
ATOM     36  N   UNL A   1      41.162  19.160  25.976  1.00  0.00    -0.352 N 
ATOM     37  C   UNL A   1      42.333  19.796  25.596  1.00  0.00     0.251 C 
ATOM     38  H   UNL A   1      41.161  18.176  25.922  1.00  0.00     0.163 HD
ATOM     39  O   UNL A   1      43.107  19.278  24.801  1.00  0.00    -0.269 OA
BRANCH  37  40
ATOM     40  C   UNL A   1      42.627  21.105  26.205  1.00  0.00     0.039 A 
ATOM     41  C   UNL A   1      42.855  22.261  25.452  1.00  0.00     0.014 A 
ATOM     42  C   UNL A   1      42.591  21.149  27.596  1.00  0.00     0.014 A 
ATOM     43  C   UNL A   1      42.968  23.479  26.121  1.00  0.00     0.010 A 
ATOM     44  C   UNL A   1      42.511  22.359  28.227  1.00  0.00     0.010 A 
ATOM     45  C   UNL A   1      42.780  23.519  27.513  1.00  0.00    -0.014 A 
BRANCH  45  46
ATOM     46  C   UNL A   1      42.726  24.768  28.263  1.00  0.00     0.031 A 
ATOM     47  C   UNL A   1      41.394  25.429  28.241  1.00  0.00     0.074 A 
ATOM     48  C   UNL A   1      43.711  25.137  29.116  1.00  0.00     0.049 A 
ATOM     49  N   UNL A   1      41.064  26.508  27.613  1.00  0.00    -0.248 NA
ATOM     50  C   UNL A   1      40.243  24.717  28.822  1.00  0.00     0.031 C 
ATOM     51  C   UNL A   1      44.942  24.412  29.456  1.00  0.00     0.029 A 
ATOM     52  N   UNL A   1      43.769  26.205  29.956  1.00  0.00    -0.354 N 
ATOM     53  C   UNL A   1      39.739  26.760  27.955  1.00  0.00     0.074 A 
ATOM     54  C   UNL A   1      39.233  25.518  28.474  1.00  0.00     0.031 C 
ATOM     55  C   UNL A   1      45.488  24.931  30.580  1.00  0.00     0.029 A 
ATOM     56  C   UNL A   1      44.754  26.131  30.941  1.00  0.00     0.049 A 
ATOM     57  H   UNL A   1      43.159  26.974  29.875  1.00  0.00     0.167 HD
ATOM     58  C   UNL A   1      39.272  28.038  28.037  1.00  0.00     0.034 A 
ATOM     59  C   UNL A   1      44.955  26.989  31.981  1.00  0.00     0.034 A 
ATOM     60  C   UNL A   1      40.206  28.957  27.416  1.00  0.00     0.049 A 
ATOM     61  C   UNL A   1      44.302  28.265  31.588  1.00  0.00     0.074 A 
ATOM     62  C   UNL A   1      40.747  29.076  26.150  1.00  0.00     0.029 A 
ATOM     63  N   UNL A   1      41.046  29.672  28.243  1.00  0.00    -0.354 N 
ATOM     64  N   UNL A   1      44.705  28.979  30.571  1.00  0.00    -0.248 NA
ATOM     65  C   UNL A   1      42.908  28.458  31.965  1.00  0.00     0.031 C 
ATOM     66  C   UNL A   1      42.122  29.387  26.372  1.00  0.00     0.029 A 
ATOM     67  C   UNL A   1      42.321  29.554  27.745  1.00  0.00     0.049 A 
ATOM     68  H   UNL A   1      40.781  30.177  29.046  1.00  0.00     0.167 HD
ATOM     69  C   UNL A   1      43.541  29.355  29.913  1.00  0.00     0.074 A 
ATOM     70  C   UNL A   1      42.465  29.082  30.868  1.00  0.00     0.031 C 
ATOM     71  C   UNL A   1      43.523  29.567  28.562  1.00  0.00     0.034 A 
BRANCH  58  72
ATOM     72  C   UNL A   1      38.209  28.526  29.003  1.00  0.00     0.023 A 
ATOM     73  C   UNL A   1      37.297  29.481  28.509  1.00  0.00     0.031 A 
ATOM     74  C   UNL A   1      38.207  28.355  30.405  1.00  0.00     0.131 A 
ATOM     75  C   UNL A   1      36.556  30.297  29.380  1.00  0.00     0.055 A 
ATOM     76  C   UNL A   1      37.419  29.126  31.266  1.00  0.00     0.041 A 
ATOM     77  F   UNL A   1      39.020  27.504  31.039  1.00  0.00    -0.206 F 
ATOM     78  C   UNL A   1      36.615  30.131  30.759  1.00  0.00     0.022 A 
BRANCH  75  79
ATOM     79  S   UNL A   1      35.667  31.711  28.678  1.00  0.00     0.124 S 
ATOM     80  O   UNL A   1      34.717  32.015  29.741  1.00  0.00    -0.237 OA
ATOM     81  O   UNL A   1      36.747  32.672  28.480  1.00  0.00    -0.237 OA
ATOM     82  O   UNL A   1      35.084  31.166  27.454  1.00  0.00    -0.744 OA
ENDBRANCH  75  79
ENDBRANCH  58  72
BRANCH  59  83
ATOM     83  C   UNL A   1      45.328  26.636  33.388  1.00  0.00     0.023 A 
ATOM     84  C   UNL A   1      44.763  25.561  34.116  1.00  0.00     0.031 A 
ATOM     85  C   UNL A   1      46.465  27.251  33.962  1.00  0.00     0.131 A 
ATOM     86  C   UNL A   1      45.332  25.153  35.353  1.00  0.00     0.055 A 
ATOM     87  C   UNL A   1      47.024  26.840  35.177  1.00  0.00     0.041 A 
ATOM     88  F   UNL A   1      47.126  28.225  33.317  1.00  0.00    -0.206 F 
ATOM     89  C   UNL A   1      46.463  25.784  35.873  1.00  0.00     0.022 A 
BRANCH  86  90
ATOM     90  S   UNL A   1      44.645  23.743  36.292  1.00  0.00     0.124 S 
ATOM     91  O   UNL A   1      45.501  22.640  35.874  1.00  0.00    -0.237 OA
ATOM     92  O   UNL A   1      44.785  24.189  37.674  1.00  0.00    -0.237 OA
ATOM     93  O   UNL A   1      43.263  23.655  35.818  1.00  0.00    -0.744 OA
ENDBRANCH  86  90
ENDBRANCH  59  83
BRANCH  71  94
ATOM     94  C   UNL A   1      44.845  29.645  27.818  1.00  0.00     0.023 A 
ATOM     95  C   UNL A   1      45.568  28.539  27.310  1.00  0.00     0.031 A 
ATOM     96  C   UNL A   1      45.305  30.931  27.486  1.00  0.00     0.131 A 
ATOM     97  C   UNL A   1      46.707  28.753  26.502  1.00  0.00     0.055 A 
ATOM     98  C   UNL A   1      46.415  31.137  26.668  1.00  0.00     0.041 A 
ATOM     99  F   UNL A   1      44.648  32.020  27.917  1.00  0.00    -0.206 F 
ATOM    100  C   UNL A   1      47.122  30.048  26.175  1.00  0.00     0.022 A 
BRANCH  97 101
ATOM    101  S   UNL A   1      47.685  27.350  25.864  1.00  0.00     0.124 S 
ATOM    102  O   UNL A   1      49.025  27.904  25.726  1.00  0.00    -0.237 OA
ATOM    103  O   UNL A   1      47.512  26.341  26.905  1.00  0.00    -0.237 OA
ATOM    104  O   UNL A   1      47.027  27.026  24.594  1.00  0.00    -0.744 OA
ENDBRANCH  97 101
ENDBRANCH  71  94
ENDBRANCH  45  46
ENDBRANCH  37  40
ENDBRANCH  35  36
ENDBRANCH  34  35
ENDBRANCH   1  34
TORSDOF 18
ENDMDL
MODEL 2
REMARK VINA RESULT:     -12.3      1.908      2.213
REMARK SMILES COC(=O)c1ccc([C@H]2CC(=O)Nc3c(C(=O)NCCCCNC(=O)c4ccc(-c5c6nc(c(-c7cc(S(=O)(=O)[O-])ccc7F)c7ccc([nH]7)c(-c7cc(S(=O)(=O)[O-])ccc7F)c7nc(c(-c8cc(S(=O)(=O)[O-])ccc8F)c8ccc5[nH]8)C=C7)C=C6)cc4)cn(-c4ccccc4)c32)cc1
REMARK SMILES IDX 20 1 19 2 18 3 16 4 17 5 15 7 9 8 10 9 97 10 11 11 14 12
REMARK SMILES IDX 90 13 12 14 13 15 89 16 8 18 5 19 6 20 99 21 7 22 98 23 3 24
REMARK SMILES IDX 4 25 2 26 1 27 91 28 92 29 96 30 93 31 95 32 94 33 21 34
REMARK SMILES IDX 22 35 23 36 24 37 25 39 26 40 27 41 88 42 28 43 87 44 29 45
REMARK SMILES IDX 30 46 31 47 81 48 32 49 86 50 80 51 82 52 33 53 85 54 79 55
REMARK SMILES IDX 78 56 34 58 66 59 46 60 65 61 47 62 50 63 64 64 83 65 48 66
REMARK SMILES IDX 49 67 63 69 84 70 51 71 35 72 36 73 44 74 37 75 43 76 45 77
REMARK SMILES IDX 42 78 38 79 39 80 40 81 41 82 67 83 68 84 76 85 69 86 75 87
REMARK SMILES IDX 77 88 74 89 70 90 71 91 72 92 73 93 52 94 53 95 61 96 54 97
REMARK SMILES IDX 60 98 62 99 59 100 55 101 56 102 57 103 58 104
REMARK H PARENT 18 6 13 17 23 38 82 57 50 68
REMARK Flexibility Score: inf
ROOT
ATOM      1  C   UNL A   1      38.956  22.466  26.488  1.00  0.00     0.023 C 
ENDROOT
BRANCH   1   2
ATOM      2  C   UNL A   1      37.721  23.196  25.938  1.00  0.00     0.116 C 
BRANCH   2   3
ATOM      3  N   UNL A   1      37.591  23.020  24.514  1.00  0.00    -0.352 N 
ATOM      4  C   UNL A   1      36.586  23.240  23.614  1.00  0.00     0.254 C 
ATOM      5  O   UNL A   1      36.895  22.995  22.442  1.00  0.00    -0.269 OA
ATOM      6  H   UNL A   1      38.408  22.663  24.096  1.00  0.00     0.163 HD
BRANCH   4   7
ATOM      7  C   UNL A   1      35.223  23.706  23.927  1.00  0.00     0.081 A 
ATOM      8  C   UNL A   1      31.522  24.315  23.949  1.00  0.00     0.078 C 
ATOM      9  C   UNL A   1      31.091  23.228  22.958  1.00  0.00     0.115 C 
ATOM     10  C   UNL A   1      33.017  24.288  24.169  1.00  0.00     0.055 A 
ATOM     11  C   UNL A   1      31.969  22.010  22.925  1.00  0.00     0.225 C 
ATOM     12  C   UNL A   1      33.868  23.300  23.706  1.00  0.00     0.076 A 
ATOM     13  N   UNL A   1      33.776  25.213  24.861  1.00  0.00    -0.317 N 
ATOM     14  O   UNL A   1      31.537  20.916  22.565  1.00  0.00    -0.275 OA
ATOM     15  N   UNL A   1      33.304  22.177  23.152  1.00  0.00    -0.324 N 
ATOM     16  C   UNL A   1      35.092  24.924  24.602  1.00  0.00     0.107 A 
ATOM     17  H   UNL A   1      33.905  21.440  22.901  1.00  0.00     0.170 HD
BRANCH   8  18
ATOM     18  C   UNL A   1      30.927  25.633  23.438  1.00  0.00    -0.038 A 
ATOM     19  C   UNL A   1      29.847  28.129  22.691  1.00  0.00     0.060 A 
ATOM     20  C   UNL A   1      29.166  27.311  23.596  1.00  0.00     0.016 A 
ATOM     21  C   UNL A   1      31.024  27.665  22.099  1.00  0.00     0.016 A 
ATOM     22  C   UNL A   1      29.708  26.080  23.976  1.00  0.00     0.005 A 
ATOM     23  C   UNL A   1      31.530  26.410  22.437  1.00  0.00     0.005 A 
BRANCH  19  24
ATOM     24  C   UNL A   1      29.307  29.489  22.423  1.00  0.00     0.337 C 
ATOM     25  O   UNL A   1      28.998  29.890  21.321  1.00  0.00    -0.246 OA
BRANCH  24  26
ATOM     26  O   UNL A   1      29.193  30.185  23.587  1.00  0.00    -0.465 OA
ATOM     27  C   UNL A   1      28.192  31.200  23.560  1.00  0.00     0.282 C 
ENDBRANCH  24  26
ENDBRANCH  19  24
ENDBRANCH   8  18
BRANCH  13  28
ATOM     28  C   UNL A   1      33.317  26.350  25.575  1.00  0.00     0.045 A 
ATOM     29  C   UNL A   1      32.319  26.215  26.545  1.00  0.00     0.026 A 
ATOM     30  C   UNL A   1      33.772  27.621  25.200  1.00  0.00     0.026 A 
ATOM     31  C   UNL A   1      31.720  27.354  27.082  1.00  0.00     0.002 A 
ATOM     32  C   UNL A   1      33.142  28.755  25.717  1.00  0.00     0.002 A 
ATOM     33  C   UNL A   1      32.109  28.621  26.646  1.00  0.00     0.000 A 
ENDBRANCH  13  28
ENDBRANCH   4   7
ENDBRANCH   2   3
ENDBRANCH   1   2
BRANCH   1  34
ATOM     34  C   UNL A   1      39.397  21.246  25.665  1.00  0.00     0.023 C 
BRANCH  34  35
ATOM     35  C   UNL A   1      39.718  20.009  26.501  1.00  0.00     0.116 C 
BRANCH  35  36
ATOM     36  N   UNL A   1      40.923  19.303  26.054  1.00  0.00    -0.352 N 
ATOM     37  C   UNL A   1      42.153  19.859  25.742  1.00  0.00     0.251 C 
ATOM     38  H   UNL A   1      40.850  18.324  25.966  1.00  0.00     0.163 HD
ATOM     39  O   UNL A   1      42.918  19.307  24.961  1.00  0.00    -0.269 OA
BRANCH  37  40
ATOM     40  C   UNL A   1      42.520  21.122  26.406  1.00  0.00     0.039 A 
ATOM     41  C   UNL A   1      42.851  22.284  25.702  1.00  0.00     0.014 A 
ATOM     42  C   UNL A   1      42.444  21.121  27.796  1.00  0.00     0.014 A 
ATOM     43  C   UNL A   1      43.029  23.467  26.418  1.00  0.00     0.010 A 
ATOM     44  C   UNL A   1      42.430  22.310  28.468  1.00  0.00     0.010 A 
ATOM     45  C   UNL A   1      42.802  23.472  27.805  1.00  0.00    -0.014 A 
BRANCH  45  46
ATOM     46  C   UNL A   1      42.813  24.696  28.598  1.00  0.00     0.031 A 
ATOM     47  C   UNL A   1      41.665  25.601  28.328  1.00  0.00     0.074 A 
ATOM     48  C   UNL A   1      43.633  24.854  29.664  1.00  0.00     0.049 A 
ATOM     49  N   UNL A   1      41.687  26.734  27.708  1.00  0.00    -0.248 NA
ATOM     50  C   UNL A   1      40.302  25.115  28.603  1.00  0.00     0.031 C 
ATOM     51  C   UNL A   1      44.602  23.899  30.219  1.00  0.00     0.029 A 
ATOM     52  N   UNL A   1      43.697  25.876  30.558  1.00  0.00    -0.354 N 
ATOM     53  C   UNL A   1      40.390  27.230  27.770  1.00  0.00     0.074 A 
ATOM     54  C   UNL A   1      39.561  26.102  28.093  1.00  0.00     0.031 C 
ATOM     55  C   UNL A   1      44.969  24.284  31.463  1.00  0.00     0.029 A 
ATOM     56  C   UNL A   1      44.407  25.596  31.727  1.00  0.00     0.049 A 
ATOM     57  H   UNL A   1      43.273  26.749  30.393  1.00  0.00     0.167 HD
ATOM     58  C   UNL A   1      40.160  28.574  27.825  1.00  0.00     0.034 A 
ATOM     59  C   UNL A   1      44.525  26.382  32.835  1.00  0.00     0.034 A 
ATOM     60  C   UNL A   1      41.362  29.305  27.476  1.00  0.00     0.049 A 
ATOM     61  C   UNL A   1      44.222  27.766  32.386  1.00  0.00     0.074 A 
ATOM     62  C   UNL A   1      42.184  29.339  26.367  1.00  0.00     0.029 A 
ATOM     63  N   UNL A   1      42.113  29.832  28.506  1.00  0.00    -0.354 N 
ATOM     64  N   UNL A   1      44.967  28.406  31.524  1.00  0.00    -0.248 NA
ATOM     65  C   UNL A   1      42.840  28.218  32.464  1.00  0.00     0.031 C 
ATOM     66  C   UNL A   1      43.508  29.376  26.898  1.00  0.00     0.029 A 
ATOM     67  C   UNL A   1      43.423  29.478  28.289  1.00  0.00     0.049 A 
ATOM     68  H   UNL A   1      41.773  30.365  29.261  1.00  0.00     0.167 HD
ATOM     69  C   UNL A   1      44.070  29.011  30.654  1.00  0.00     0.074 A 
ATOM     70  C   UNL A   1      42.776  28.935  31.336  1.00  0.00     0.031 C 
ATOM     71  C   UNL A   1      44.393  29.245  29.346  1.00  0.00     0.034 A 
BRANCH  58  72
ATOM     72  C   UNL A   1      39.016  29.241  28.566  1.00  0.00     0.023 A 
ATOM     73  C   UNL A   1      39.080  29.221  29.974  1.00  0.00     0.031 A 
ATOM     74  C   UNL A   1      37.769  29.618  28.021  1.00  0.00     0.131 A 
ATOM     75  C   UNL A   1      37.930  29.422  30.757  1.00  0.00     0.055 A 
ATOM     76  C   UNL A   1      36.642  29.881  28.807  1.00  0.00     0.041 A 
ATOM     77  F   UNL A   1      37.533  29.673  26.707  1.00  0.00    -0.206 F 
ATOM     78  C   UNL A   1      36.707  29.746  30.181  1.00  0.00     0.022 A 
BRANCH  75  79
ATOM     79  S   UNL A   1      38.027  29.052  32.527  1.00  0.00     0.124 S 
ATOM     80  O   UNL A   1      36.725  29.515  32.993  1.00  0.00    -0.237 OA
ATOM     81  O   UNL A   1      38.234  27.608  32.519  1.00  0.00    -0.237 OA
ATOM     82  O   UNL A   1      39.169  29.845  32.974  1.00  0.00    -0.744 OA
ENDBRANCH  75  79
ENDBRANCH  58  72
BRANCH  59  83
ATOM     83  C   UNL A   1      44.502  25.941  34.266  1.00  0.00     0.023 A 
ATOM     84  C   UNL A   1      45.132  26.638  35.325  1.00  0.00     0.031 A 
ATOM     85  C   UNL A   1      43.620  24.901  34.640  1.00  0.00     0.131 A 
ATOM     86  C   UNL A   1      44.870  26.282  36.676  1.00  0.00     0.055 A 
ATOM     87  C   UNL A   1      43.362  24.559  35.972  1.00  0.00     0.041 A 
ATOM     88  F   UNL A   1      42.910  24.230  33.719  1.00  0.00    -0.206 F 
ATOM     89  C   UNL A   1      43.982  25.254  36.996  1.00  0.00     0.022 A 
BRANCH  86  90
ATOM     90  S   UNL A   1      45.641  27.192  38.061  1.00  0.00     0.124 S 
ATOM     91  O   UNL A   1      46.909  27.626  37.486  1.00  0.00    -0.237 OA
ATOM     92  O   UNL A   1      44.660  28.236  38.337  1.00  0.00    -0.237 OA
ATOM     93  O   UNL A   1      45.764  26.179  39.112  1.00  0.00    -0.744 OA
ENDBRANCH  86  90
ENDBRANCH  59  83
BRANCH  71  94
ATOM     94  C   UNL A   1      45.839  29.079  28.911  1.00  0.00     0.023 A 
ATOM     95  C   UNL A   1      46.446  27.859  28.528  1.00  0.00     0.031 A 
ATOM     96  C   UNL A   1      46.584  30.259  28.740  1.00  0.00     0.131 A 
ATOM     97  C   UNL A   1      47.756  27.861  27.996  1.00  0.00     0.055 A 
ATOM     98  C   UNL A   1      47.866  30.259  28.192  1.00  0.00     0.041 A 
ATOM     99  F   UNL A   1      46.053  31.450  29.062  1.00  0.00    -0.206 F 
ATOM    100  C   UNL A   1      48.458  29.058  27.821  1.00  0.00     0.022 A 
BRANCH  97 101
ATOM    101  S   UNL A   1      48.583  26.303  27.530  1.00  0.00     0.124 S 
ATOM    102  O   UNL A   1      49.801  26.311  28.330  1.00  0.00    -0.237 OA
ATOM    103  O   UNL A   1      47.589  25.294  27.886  1.00  0.00    -0.237 OA
ATOM    104  O   UNL A   1      48.802  26.452  26.088  1.00  0.00    -0.744 OA
ENDBRANCH  97 101
ENDBRANCH  71  94
ENDBRANCH  45  46
ENDBRANCH  37  40
ENDBRANCH  35  36
ENDBRANCH  34  35
ENDBRANCH   1  34
TORSDOF 18
ENDMDL
MODEL 3
REMARK VINA RESULT:     -12.1      2.108      3.273
REMARK SMILES COC(=O)c1ccc([C@H]2CC(=O)Nc3c(C(=O)NCCCCNC(=O)c4ccc(-c5c6nc(c(-c7cc(S(=O)(=O)[O-])ccc7F)c7ccc([nH]7)c(-c7cc(S(=O)(=O)[O-])ccc7F)c7nc(c(-c8cc(S(=O)(=O)[O-])ccc8F)c8ccc5[nH]8)C=C7)C=C6)cc4)cn(-c4ccccc4)c32)cc1
REMARK SMILES IDX 20 1 19 2 18 3 16 4 17 5 15 7 9 8 10 9 97 10 11 11 14 12
REMARK SMILES IDX 90 13 12 14 13 15 89 16 8 18 5 19 6 20 99 21 7 22 98 23 3 24
REMARK SMILES IDX 4 25 2 26 1 27 91 28 92 29 96 30 93 31 95 32 94 33 21 34
REMARK SMILES IDX 22 35 23 36 24 37 25 39 26 40 27 41 88 42 28 43 87 44 29 45
REMARK SMILES IDX 30 46 31 47 81 48 32 49 86 50 80 51 82 52 33 53 85 54 79 55
REMARK SMILES IDX 78 56 34 58 66 59 46 60 65 61 47 62 50 63 64 64 83 65 48 66
REMARK SMILES IDX 49 67 63 69 84 70 51 71 35 72 36 73 44 74 37 75 43 76 45 77
REMARK SMILES IDX 42 78 38 79 39 80 40 81 41 82 67 83 68 84 76 85 69 86 75 87
REMARK SMILES IDX 77 88 74 89 70 90 71 91 72 92 73 93 52 94 53 95 61 96 54 97
REMARK SMILES IDX 60 98 62 99 59 100 55 101 56 102 57 103 58 104
REMARK H PARENT 18 6 13 17 23 38 82 57 50 68
REMARK Flexibility Score: inf
ROOT
ATOM      1  C   UNL A   1      36.566  18.224  25.141  1.00  0.00     0.023 C 
ENDROOT
BRANCH   1   2
ATOM      2  C   UNL A   1      35.468  18.159  24.068  1.00  0.00     0.116 C 
BRANCH   2   3
ATOM      3  N   UNL A   1      34.155  18.315  24.642  1.00  0.00    -0.352 N 
ATOM      4  C   UNL A   1      33.331  19.384  24.859  1.00  0.00     0.254 C 
ATOM      5  O   UNL A   1      32.236  19.085  25.351  1.00  0.00    -0.269 OA
ATOM      6  H   UNL A   1      33.766  17.463  24.945  1.00  0.00     0.163 HD
BRANCH   4   7
ATOM      7  C   UNL A   1      33.645  20.797  24.581  1.00  0.00     0.081 A 
ATOM      8  C   UNL A   1      34.996  24.294  24.692  1.00  0.00     0.078 C 
ATOM      9  C   UNL A   1      36.071  24.105  25.768  1.00  0.00     0.115 C 
ATOM     10  C   UNL A   1      34.280  22.995  24.406  1.00  0.00     0.055 A 
ATOM     11  C   UNL A   1      36.670  22.730  25.837  1.00  0.00     0.225 C 
ATOM     12  C   UNL A   1      34.662  21.756  24.890  1.00  0.00     0.076 A 
ATOM     13  N   UNL A   1      33.155  22.816  23.622  1.00  0.00    -0.317 N 
ATOM     14  O   UNL A   1      37.801  22.543  26.284  1.00  0.00    -0.275 OA
ATOM     15  N   UNL A   1      35.869  21.667  25.538  1.00  0.00    -0.324 N 
ATOM     16  C   UNL A   1      32.718  21.534  23.838  1.00  0.00     0.107 A 
ATOM     17  H   UNL A   1      36.178  20.772  25.807  1.00  0.00     0.170 HD
BRANCH   8  18
ATOM     18  C   UNL A   1      34.126  25.472  25.147  1.00  0.00    -0.038 A 
ATOM     19  C   UNL A   1      32.613  27.622  26.170  1.00  0.00     0.060 A 
ATOM     20  C   UNL A   1      32.459  26.338  26.700  1.00  0.00     0.016 A 
ATOM     21  C   UNL A   1      33.462  27.814  25.077  1.00  0.00     0.016 A 
ATOM     22  C   UNL A   1      33.218  25.277  26.202  1.00  0.00     0.005 A 
ATOM     23  C   UNL A   1      34.174  26.739  24.545  1.00  0.00     0.005 A 
BRANCH  19  24
ATOM     24  C   UNL A   1      31.893  28.748  26.823  1.00  0.00     0.337 C 
ATOM     25  O   UNL A   1      31.325  28.659  27.891  1.00  0.00    -0.246 OA
BRANCH  24  26
ATOM     26  O   UNL A   1      31.992  29.872  26.062  1.00  0.00    -0.465 OA
ATOM     27  C   UNL A   1      32.391  31.030  26.790  1.00  0.00     0.282 C 
ENDBRANCH  24  26
ENDBRANCH  19  24
ENDBRANCH   8  18
BRANCH  13  28
ATOM     28  C   UNL A   1      32.466  23.795  22.860  1.00  0.00     0.045 A 
ATOM     29  C   UNL A   1      33.063  24.351  21.725  1.00  0.00     0.026 A 
ATOM     30  C   UNL A   1      31.247  24.298  23.336  1.00  0.00     0.026 A 
ATOM     31  C   UNL A   1      32.482  25.461  21.112  1.00  0.00     0.002 A 
ATOM     32  C   UNL A   1      30.692  25.431  22.738  1.00  0.00     0.002 A 
ATOM     33  C   UNL A   1      31.315  26.018  21.636  1.00  0.00     0.000 A 
ENDBRANCH  13  28
ENDBRANCH   4   7
ENDBRANCH   2   3
ENDBRANCH   1   2
BRANCH   1  34
ATOM     34  C   UNL A   1      37.853  18.934  24.695  1.00  0.00     0.023 C 
BRANCH  34  35
ATOM     35  C   UNL A   1      38.750  19.385  25.846  1.00  0.00     0.116 C 
BRANCH  35  36
ATOM     36  N   UNL A   1      40.126  18.890  25.737  1.00  0.00    -0.352 N 
ATOM     37  C   UNL A   1      41.292  19.637  25.784  1.00  0.00     0.251 C 
ATOM     38  H   UNL A   1      40.233  17.918  25.618  1.00  0.00     0.163 HD
ATOM     39  O   UNL A   1      42.316  19.248  25.235  1.00  0.00    -0.269 OA
BRANCH  37  40
ATOM     40  C   UNL A   1      41.265  20.900  26.542  1.00  0.00     0.039 A 
ATOM     41  C   UNL A   1      41.083  20.951  27.927  1.00  0.00     0.014 A 
ATOM     42  C   UNL A   1      41.510  22.055  25.805  1.00  0.00     0.014 A 
ATOM     43  C   UNL A   1      41.230  22.180  28.571  1.00  0.00     0.010 A 
ATOM     44  C   UNL A   1      41.840  23.210  26.458  1.00  0.00     0.010 A 
ATOM     45  C   UNL A   1      41.624  23.304  27.826  1.00  0.00    -0.014 A 
BRANCH  45  46
ATOM     46  C   UNL A   1      41.950  24.583  28.447  1.00  0.00     0.031 A 
ATOM     47  C   UNL A   1      40.872  25.600  28.338  1.00  0.00     0.074 A 
ATOM     48  C   UNL A   1      43.013  24.729  29.274  1.00  0.00     0.049 A 
ATOM     49  N   UNL A   1      40.864  26.660  27.601  1.00  0.00    -0.248 NA
ATOM     50  C   UNL A   1      39.571  25.320  28.969  1.00  0.00     0.031 C 
ATOM     51  C   UNL A   1      43.981  23.711  29.705  1.00  0.00     0.029 A 
ATOM     52  N   UNL A   1      43.394  25.810  30.005  1.00  0.00    -0.354 N 
ATOM     53  C   UNL A   1      39.678  27.323  27.895  1.00  0.00     0.074 A 
ATOM     54  C   UNL A   1      38.836  26.344  28.527  1.00  0.00     0.031 C 
ATOM     55  C   UNL A   1      44.671  24.156  30.780  1.00  0.00     0.029 A 
ATOM     56  C   UNL A   1      44.328  25.548  31.008  1.00  0.00     0.049 A 
ATOM     57  H   UNL A   1      43.036  26.712  29.838  1.00  0.00     0.167 HD
ATOM     58  C   UNL A   1      39.608  28.684  27.842  1.00  0.00     0.034 A 
ATOM     59  C   UNL A   1      44.787  26.409  31.960  1.00  0.00     0.034 A 
ATOM     60  C   UNL A   1      40.762  29.220  27.148  1.00  0.00     0.049 A 
ATOM     61  C   UNL A   1      44.532  27.775  31.432  1.00  0.00     0.074 A 
ATOM     62  C   UNL A   1      41.296  29.048  25.885  1.00  0.00     0.029 A 
ATOM     63  N   UNL A   1      41.788  29.736  27.913  1.00  0.00    -0.354 N 
ATOM     64  N   UNL A   1      45.113  28.233  30.355  1.00  0.00    -0.248 NA
ATOM     65  C   UNL A   1      43.263  28.406  31.765  1.00  0.00     0.031 C 
ATOM     66  C   UNL A   1      42.705  28.962  26.097  1.00  0.00     0.029 A 
ATOM     67  C   UNL A   1      42.964  29.199  27.449  1.00  0.00     0.049 A 
ATOM     68  H   UNL A   1      41.694  30.374  28.657  1.00  0.00     0.167 HD
ATOM     69  C   UNL A   1      44.103  28.868  29.645  1.00  0.00     0.074 A 
ATOM     70  C   UNL A   1      43.008  29.020  30.605  1.00  0.00     0.031 C 
ATOM     71  C   UNL A   1      44.128  28.939  28.280  1.00  0.00     0.034 A 
BRANCH  58  72
ATOM     72  C   UNL A   1      38.750  29.557  28.738  1.00  0.00     0.023 A 
ATOM     73  C   UNL A   1      39.018  29.497  30.121  1.00  0.00     0.031 A 
ATOM     74  C   UNL A   1      37.540  30.191  28.382  1.00  0.00     0.131 A 
ATOM     75  C   UNL A   1      38.063  29.914  31.065  1.00  0.00     0.055 A 
ATOM     76  C   UNL A   1      36.621  30.664  29.325  1.00  0.00     0.041 A 
ATOM     77  F   UNL A   1      37.126  30.319  27.117  1.00  0.00    -0.206 F 
ATOM     78  C   UNL A   1      36.861  30.492  30.676  1.00  0.00     0.022 A 
BRANCH  75  79
ATOM     79  S   UNL A   1      38.345  29.499  32.805  1.00  0.00     0.124 S 
ATOM     80  O   UNL A   1      39.772  29.198  32.805  1.00  0.00    -0.237 OA
ATOM     81  O   UNL A   1      37.944  30.732  33.474  1.00  0.00    -0.237 OA
ATOM     82  O   UNL A   1      37.465  28.354  33.024  1.00  0.00    -0.744 OA
ENDBRANCH  75  79
ENDBRANCH  58  72
BRANCH  59  83
ATOM     83  C   UNL A   1      45.060  26.104  33.402  1.00  0.00     0.023 A 
ATOM     84  C   UNL A   1      44.105  26.241  34.438  1.00  0.00     0.031 A 
ATOM     85  C   UNL A   1      46.254  25.425  33.737  1.00  0.00     0.131 A 
ATOM     86  C   UNL A   1      44.370  25.715  35.732  1.00  0.00     0.055 A 
ATOM     87  C   UNL A   1      46.506  24.905  35.010  1.00  0.00     0.041 A 
ATOM     88  F   UNL A   1      47.189  25.170  32.808  1.00  0.00    -0.206 F 
ATOM     89  C   UNL A   1      45.561  25.041  36.011  1.00  0.00     0.022 A 
BRANCH  86  90
ATOM     90  S   UNL A   1      43.139  25.844  37.077  1.00  0.00     0.124 S 
ATOM     91  O   UNL A   1      43.880  25.349  38.231  1.00  0.00    -0.237 OA
ATOM     92  O   UNL A   1      42.815  27.266  37.072  1.00  0.00    -0.237 OA
ATOM     93  O   UNL A   1      42.051  24.970  36.632  1.00  0.00    -0.744 OA
ENDBRANCH  86  90
ENDBRANCH  59  83
BRANCH  71  94
ATOM     94  C   UNL A   1      45.404  28.550  27.552  1.00  0.00     0.023 A 
ATOM     95  C   UNL A   1      45.719  27.251  27.085  1.00  0.00     0.031 A 
ATOM     96  C   UNL A   1      46.267  29.599  27.192  1.00  0.00     0.131 A 
ATOM     97  C   UNL A   1      46.868  27.050  26.287  1.00  0.00     0.055 A 
ATOM     98  C   UNL A   1      47.386  29.400  26.384  1.00  0.00     0.041 A 
ATOM     99  F   UNL A   1      46.008  30.857  27.584  1.00  0.00    -0.206 F 
ATOM    100  C   UNL A   1      47.692  28.123  25.931  1.00  0.00     0.022 A 
BRANCH  97 101
ATOM    101  S   UNL A   1      47.326  25.383  25.702  1.00  0.00     0.124 S 
ATOM    102  O   UNL A   1      48.725  25.527  25.324  1.00  0.00    -0.237 OA
ATOM    103  O   UNL A   1      47.060  24.550  26.872  1.00  0.00    -0.237 OA
ATOM    104  O   UNL A   1      46.413  25.154  24.578  1.00  0.00    -0.744 OA
ENDBRANCH  97 101
ENDBRANCH  71  94
ENDBRANCH  45  46
ENDBRANCH  37  40
ENDBRANCH  35  36
ENDBRANCH  34  35
ENDBRANCH   1  34
TORSDOF 18
ENDMDL
