MODEL 1
REMARK VINA RESULT:     -11.1      0.000      0.000
REMARK SMILES C=CCN(CC(=O)NCCCCNC(=O)c1ccc(-c2c3nc(c(-c4cc(S(=O)(=O)[O-])ccc4F)c4ccc([nH]4)c(-c4cc(S(=O)(=O)[O-])ccc4F)c4nc(c(-c5cc(S(=O)(=O)[O-])ccc5F)c5ccc2[nH]5)C=C4)C=C3)cc1)C(=O)/C=C/c1ccc(OC)cc1
REMARK SMILES IDX 9 1 8 2 6 3 7 4 5 6 4 7 3 8 2 9 1 10 79 11 80 12 81 13 82 14
REMARK SMILES IDX 83 15 84 16 90 17 85 18 89 19 86 20 87 21 88 22 10 23 11 24
REMARK SMILES IDX 12 25 13 26 14 27 15 29 16 30 17 31 78 32 18 33 77 34 19 35
REMARK SMILES IDX 20 36 21 37 71 38 22 39 76 40 70 41 72 42 23 43 75 44 69 45
REMARK SMILES IDX 68 46 24 48 56 49 36 50 55 51 37 52 40 53 54 54 73 55 38 56
REMARK SMILES IDX 39 57 53 59 74 60 41 61 25 62 26 63 34 64 27 65 33 66 35 67
REMARK SMILES IDX 32 68 28 69 29 70 30 71 31 72 57 73 58 74 66 75 59 76 65 77
REMARK SMILES IDX 67 78 64 79 60 80 61 81 62 82 63 83 42 84 43 85 51 86 44 87
REMARK SMILES IDX 50 88 52 89 49 90 45 91 46 92 47 93 48 94
REMARK H PARENT 8 5 13 28 72 47 40 58
REMARK Flexibility Score: inf
ROOT
ATOM      1  C   UNL A   1      30.850  27.789  22.717  1.00  0.00     0.116 C 
ENDROOT
BRANCH   1   2
ATOM      2  N   UNL A   1      32.036  27.360  22.013  1.00  0.00    -0.355 N 
ATOM      3  C   UNL A   1      32.432  26.092  21.704  1.00  0.00     0.239 C 
ATOM      4  O   UNL A   1      33.282  25.953  20.820  1.00  0.00    -0.273 OA
ATOM      5  H   UNL A   1      32.640  28.079  21.716  1.00  0.00     0.163 HD
BRANCH   3   6
ATOM      6  C   UNL A   1      31.741  24.868  22.325  1.00  0.00     0.220 C 
BRANCH   6   7
ATOM      7  N   UNL A   1      32.508  24.150  23.353  1.00  0.00    -0.326 N 
BRANCH   7   8
ATOM      8  C   UNL A   1      32.140  24.390  24.747  1.00  0.00     0.147 C 
BRANCH   8   9
ATOM      9  C   UNL A   1      33.243  25.075  25.496  1.00  0.00    -0.014 C 
ATOM     10  C   UNL A   1      34.053  25.977  24.924  1.00  0.00     0.006 C 
ENDBRANCH   8   9
ENDBRANCH   7   8
BRANCH   7  11
ATOM     11  C   UNL A   1      33.566  23.284  23.110  1.00  0.00     0.247 C 
ATOM     12  O   UNL A   1      34.530  23.609  22.413  1.00  0.00    -0.270 OA
BRANCH  11  13
ATOM     13  C   UNL A   1      33.550  21.866  23.574  1.00  0.00     0.072 C 
ATOM     14  C   UNL A   1      32.558  20.973  23.457  1.00  0.00     0.014 C 
BRANCH  14  15
ATOM     15  C   UNL A   1      32.628  19.625  24.025  1.00  0.00    -0.025 A 
ATOM     16  C   UNL A   1      32.721  19.440  25.407  1.00  0.00     0.012 A 
ATOM     17  C   UNL A   1      32.684  18.511  23.183  1.00  0.00     0.012 A 
ATOM     18  C   UNL A   1      32.915  18.157  25.932  1.00  0.00     0.047 A 
ATOM     19  C   UNL A   1      32.883  17.229  23.710  1.00  0.00     0.047 A 
ATOM     20  C   UNL A   1      33.023  17.050  25.087  1.00  0.00     0.118 A 
BRANCH  20  21
ATOM     21  O   UNL A   1      33.269  15.863  25.723  1.00  0.00    -0.497 OA
ATOM     22  C   UNL A   1      32.208  14.917  25.742  1.00  0.00     0.278 C 
ENDBRANCH  20  21
ENDBRANCH  14  15
ENDBRANCH  11  13
ENDBRANCH   7  11
ENDBRANCH   6   7
ENDBRANCH   3   6
ENDBRANCH   1   2
BRANCH   1  23
ATOM     23  C   UNL A   1      31.155  28.497  24.032  1.00  0.00     0.023 C 
BRANCH  23  24
ATOM     24  C   UNL A   1      32.543  29.137  24.117  1.00  0.00     0.023 C 
BRANCH  24  25
ATOM     25  C   UNL A   1      33.050  29.427  25.526  1.00  0.00     0.116 C 
BRANCH  25  26
ATOM     26  N   UNL A   1      32.577  30.694  26.061  1.00  0.00    -0.352 N 
ATOM     27  C   UNL A   1      33.147  31.483  27.030  1.00  0.00     0.251 C 
ATOM     28  H   UNL A   1      31.734  31.031  25.678  1.00  0.00     0.163 HD
ATOM     29  O   UNL A   1      32.557  32.483  27.429  1.00  0.00    -0.269 OA
BRANCH  27  30
ATOM     30  C   UNL A   1      34.447  31.093  27.618  1.00  0.00     0.039 A 
ATOM     31  C   UNL A   1      35.448  32.060  27.736  1.00  0.00     0.014 A 
ATOM     32  C   UNL A   1      34.665  29.793  28.083  1.00  0.00     0.014 A 
ATOM     33  C   UNL A   1      36.642  31.742  28.387  1.00  0.00     0.010 A 
ATOM     34  C   UNL A   1      35.827  29.498  28.791  1.00  0.00     0.010 A 
ATOM     35  C   UNL A   1      36.826  30.470  28.955  1.00  0.00    -0.014 A 
BRANCH  35  36
ATOM     36  C   UNL A   1      38.057  30.137  29.719  1.00  0.00     0.031 A 
ATOM     37  C   UNL A   1      39.040  29.145  29.160  1.00  0.00     0.074 A 
ATOM     38  C   UNL A   1      38.261  30.686  30.933  1.00  0.00     0.049 A 
ATOM     39  N   UNL A   1      40.122  28.652  29.708  1.00  0.00    -0.248 NA
ATOM     40  C   UNL A   1      38.754  28.617  27.817  1.00  0.00     0.031 C 
ATOM     41  C   UNL A   1      37.368  31.642  31.591  1.00  0.00     0.029 A 
ATOM     42  N   UNL A   1      39.283  30.515  31.835  1.00  0.00    -0.354 N 
ATOM     43  C   UNL A   1      40.644  27.757  28.780  1.00  0.00     0.074 A 
ATOM     44  C   UNL A   1      39.722  27.728  27.663  1.00  0.00     0.031 C 
ATOM     45  C   UNL A   1      37.892  31.989  32.779  1.00  0.00     0.029 A 
ATOM     46  C   UNL A   1      39.131  31.248  32.991  1.00  0.00     0.049 A 
ATOM     47  H   UNL A   1      40.051  29.922  31.672  1.00  0.00     0.167 HD
ATOM     48  C   UNL A   1      41.798  27.048  28.840  1.00  0.00     0.034 A 
ATOM     49  C   UNL A   1      39.898  31.306  34.098  1.00  0.00     0.034 A 
ATOM     50  C   UNL A   1      42.711  27.091  29.955  1.00  0.00     0.049 A 
ATOM     51  C   UNL A   1      41.154  30.471  34.157  1.00  0.00     0.074 A 
ATOM     52  C   UNL A   1      43.914  26.425  30.112  1.00  0.00     0.029 A 
ATOM     53  N   UNL A   1      42.525  27.847  31.105  1.00  0.00    -0.354 N 
ATOM     54  N   UNL A   1      41.645  29.650  33.256  1.00  0.00    -0.248 NA
ATOM     55  C   UNL A   1      41.967  30.580  35.376  1.00  0.00     0.031 C 
ATOM     56  C   UNL A   1      44.429  26.736  31.375  1.00  0.00     0.029 A 
ATOM     57  C   UNL A   1      43.582  27.650  31.980  1.00  0.00     0.049 A 
ATOM     58  H   UNL A   1      41.755  28.437  31.275  1.00  0.00     0.167 HD
ATOM     59  C   UNL A   1      42.845  29.181  33.788  1.00  0.00     0.074 A 
ATOM     60  C   UNL A   1      43.008  29.820  35.075  1.00  0.00     0.031 C 
ATOM     61  C   UNL A   1      43.734  28.304  33.258  1.00  0.00     0.034 A 
BRANCH  48  62
ATOM     62  C   UNL A   1      42.125  26.157  27.667  1.00  0.00     0.023 A 
ATOM     63  C   UNL A   1      41.733  24.807  27.640  1.00  0.00     0.031 A 
ATOM     64  C   UNL A   1      42.845  26.656  26.567  1.00  0.00     0.131 A 
ATOM     65  C   UNL A   1      42.118  23.986  26.570  1.00  0.00     0.055 A 
ATOM     66  C   UNL A   1      43.157  25.853  25.469  1.00  0.00     0.041 A 
ATOM     67  F   UNL A   1      43.264  27.931  26.546  1.00  0.00    -0.206 F 
ATOM     68  C   UNL A   1      42.804  24.506  25.471  1.00  0.00     0.022 A 
BRANCH  65  69
ATOM     69  S   UNL A   1      41.812  22.204  26.692  1.00  0.00     0.124 S 
ATOM     70  O   UNL A   1      42.230  21.743  25.370  1.00  0.00    -0.237 OA
ATOM     71  O   UNL A   1      42.667  21.810  27.806  1.00  0.00    -0.237 OA
ATOM     72  O   UNL A   1      40.376  22.119  26.949  1.00  0.00    -0.744 OA
ENDBRANCH  65  69
ENDBRANCH  48  62
BRANCH  49  73
ATOM     73  C   UNL A   1      39.514  32.169  35.254  1.00  0.00     0.023 A 
ATOM     74  C   UNL A   1      38.801  31.639  36.342  1.00  0.00     0.031 A 
ATOM     75  C   UNL A   1      39.776  33.551  35.251  1.00  0.00     0.131 A 
ATOM     76  C   UNL A   1      38.313  32.492  37.343  1.00  0.00     0.055 A 
ATOM     77  C   UNL A   1      39.343  34.386  36.283  1.00  0.00     0.041 A 
ATOM     78  F   UNL A   1      40.455  34.112  34.238  1.00  0.00    -0.206 F 
ATOM     79  C   UNL A   1      38.590  33.860  37.328  1.00  0.00     0.022 A 
BRANCH  76  80
ATOM     80  S   UNL A   1      37.198  31.803  38.598  1.00  0.00     0.124 S 
ATOM     81  O   UNL A   1      36.053  32.702  38.504  1.00  0.00    -0.237 OA
ATOM     82  O   UNL A   1      36.992  30.445  38.105  1.00  0.00    -0.237 OA
ATOM     83  O   UNL A   1      37.973  31.907  39.833  1.00  0.00    -0.744 OA
ENDBRANCH  76  80
ENDBRANCH  49  73
BRANCH  61  84
ATOM     84  C   UNL A   1      44.992  28.041  34.048  1.00  0.00     0.023 A 
ATOM     85  C   UNL A   1      45.079  26.992  34.979  1.00  0.00     0.031 A 
ATOM     86  C   UNL A   1      46.116  28.870  33.875  1.00  0.00     0.131 A 
ATOM     87  C   UNL A   1      46.243  26.834  35.746  1.00  0.00     0.055 A 
ATOM     88  C   UNL A   1      47.293  28.670  34.598  1.00  0.00     0.041 A 
ATOM     89  F   UNL A   1      46.088  29.887  32.999  1.00  0.00    -0.206 F 
ATOM     90  C   UNL A   1      47.356  27.657  35.550  1.00  0.00     0.022 A 
BRANCH  87  91
ATOM     91  S   UNL A   1      46.253  25.593  37.068  1.00  0.00     0.124 S 
ATOM     92  O   UNL A   1      46.350  24.346  36.315  1.00  0.00    -0.237 OA
ATOM     93  O   UNL A   1      47.436  25.966  37.838  1.00  0.00    -0.237 OA
ATOM     94  O   UNL A   1      44.979  25.807  37.751  1.00  0.00    -0.744 OA
ENDBRANCH  87  91
ENDBRANCH  61  84
ENDBRANCH  35  36
ENDBRANCH  27  30
ENDBRANCH  25  26
ENDBRANCH  24  25
ENDBRANCH  23  24
ENDBRANCH   1  23
TORSDOF 21
ENDMDL
MODEL 2
REMARK VINA RESULT:     -11.0      1.679      7.766
REMARK SMILES C=CCN(CC(=O)NCCCCNC(=O)c1ccc(-c2c3nc(c(-c4cc(S(=O)(=O)[O-])ccc4F)c4ccc([nH]4)c(-c4cc(S(=O)(=O)[O-])ccc4F)c4nc(c(-c5cc(S(=O)(=O)[O-])ccc5F)c5ccc2[nH]5)C=C4)C=C3)cc1)C(=O)/C=C/c1ccc(OC)cc1
REMARK SMILES IDX 9 1 8 2 6 3 7 4 5 6 4 7 3 8 2 9 1 10 79 11 80 12 81 13 82 14
REMARK SMILES IDX 83 15 84 16 90 17 85 18 89 19 86 20 87 21 88 22 10 23 11 24
REMARK SMILES IDX 12 25 13 26 14 27 15 29 16 30 17 31 78 32 18 33 77 34 19 35
REMARK SMILES IDX 20 36 21 37 71 38 22 39 76 40 70 41 72 42 23 43 75 44 69 45
REMARK SMILES IDX 68 46 24 48 56 49 36 50 55 51 37 52 40 53 54 54 73 55 38 56
REMARK SMILES IDX 39 57 53 59 74 60 41 61 25 62 26 63 34 64 27 65 33 66 35 67
REMARK SMILES IDX 32 68 28 69 29 70 30 71 31 72 57 73 58 74 66 75 59 76 65 77
REMARK SMILES IDX 67 78 64 79 60 80 61 81 62 82 63 83 42 84 43 85 51 86 44 87
REMARK SMILES IDX 50 88 52 89 49 90 45 91 46 92 47 93 48 94
REMARK H PARENT 8 5 13 28 72 47 40 58
REMARK Flexibility Score: inf
ROOT
ATOM      1  C   UNL A   1      32.388  29.904  25.356  1.00  0.00     0.116 C 
ENDROOT
BRANCH   1   2
ATOM      2  N   UNL A   1      31.582  29.465  24.241  1.00  0.00    -0.355 N 
ATOM      3  C   UNL A   1      31.896  28.567  23.263  1.00  0.00     0.239 C 
ATOM      4  O   UNL A   1      30.970  28.080  22.609  1.00  0.00    -0.273 OA
ATOM      5  H   UNL A   1      30.685  29.868  24.177  1.00  0.00     0.163 HD
BRANCH   3   6
ATOM      6  C   UNL A   1      33.336  28.063  23.077  1.00  0.00     0.220 C 
BRANCH   6   7
ATOM      7  N   UNL A   1      33.561  26.641  23.370  1.00  0.00    -0.326 N 
BRANCH   7   8
ATOM      8  C   UNL A   1      33.831  26.281  24.761  1.00  0.00     0.147 C 
BRANCH   8   9
ATOM      9  C   UNL A   1      32.606  25.746  25.438  1.00  0.00    -0.014 C 
ATOM     10  C   UNL A   1      31.865  26.482  26.279  1.00  0.00     0.006 C 
ENDBRANCH   8   9
ENDBRANCH   7   8
BRANCH   7  11
ATOM     11  C   UNL A   1      33.562  25.616  22.432  1.00  0.00     0.247 C 
ATOM     12  O   UNL A   1      33.335  25.823  21.237  1.00  0.00    -0.270 OA
BRANCH  11  13
ATOM     13  C   UNL A   1      33.717  24.185  22.824  1.00  0.00     0.072 C 
ATOM     14  C   UNL A   1      32.773  23.236  22.864  1.00  0.00     0.014 C 
BRANCH  14  15
ATOM     15  C   UNL A   1      33.029  21.876  23.345  1.00  0.00    -0.025 A 
ATOM     16  C   UNL A   1      32.257  20.804  22.888  1.00  0.00     0.012 A 
ATOM     17  C   UNL A   1      33.998  21.649  24.327  1.00  0.00     0.012 A 
ATOM     18  C   UNL A   1      32.423  19.532  23.446  1.00  0.00     0.047 A 
ATOM     19  C   UNL A   1      34.159  20.375  24.886  1.00  0.00     0.047 A 
ATOM     20  C   UNL A   1      33.355  19.316  24.464  1.00  0.00     0.118 A 
BRANCH  20  21
ATOM     21  O   UNL A   1      33.379  18.042  24.962  1.00  0.00    -0.497 OA
ATOM     22  C   UNL A   1      34.004  17.051  24.155  1.00  0.00     0.278 C 
ENDBRANCH  20  21
ENDBRANCH  14  15
ENDBRANCH  11  13
ENDBRANCH   7  11
ENDBRANCH   6   7
ENDBRANCH   3   6
ENDBRANCH   1   2
BRANCH   1  23
ATOM     23  C   UNL A   1      31.563  30.463  26.510  1.00  0.00     0.023 C 
BRANCH  23  24
ATOM     24  C   UNL A   1      31.525  31.990  26.601  1.00  0.00     0.023 C 
BRANCH  24  25
ATOM     25  C   UNL A   1      32.787  32.650  27.146  1.00  0.00     0.116 C 
BRANCH  25  26
ATOM     26  N   UNL A   1      32.578  34.019  27.590  1.00  0.00    -0.352 N 
ATOM     27  C   UNL A   1      33.258  34.721  28.556  1.00  0.00     0.251 C 
ATOM     28  H   UNL A   1      31.853  34.508  27.137  1.00  0.00     0.163 HD
ATOM     29  O   UNL A   1      32.883  35.848  28.868  1.00  0.00    -0.269 OA
BRANCH  27  30
ATOM     30  C   UNL A   1      34.406  34.092  29.244  1.00  0.00     0.039 A 
ATOM     31  C   UNL A   1      34.156  33.221  30.307  1.00  0.00     0.014 A 
ATOM     32  C   UNL A   1      35.716  34.328  28.820  1.00  0.00     0.014 A 
ATOM     33  C   UNL A   1      35.217  32.532  30.898  1.00  0.00     0.010 A 
ATOM     34  C   UNL A   1      36.763  33.589  29.365  1.00  0.00     0.010 A 
ATOM     35  C   UNL A   1      36.524  32.679  30.407  1.00  0.00    -0.014 A 
BRANCH  35  36
ATOM     36  C   UNL A   1      37.654  31.897  30.972  1.00  0.00     0.031 A 
ATOM     37  C   UNL A   1      38.128  32.168  32.373  1.00  0.00     0.074 A 
ATOM     38  C   UNL A   1      38.285  30.983  30.207  1.00  0.00     0.049 A 
ATOM     39  N   UNL A   1      39.150  31.662  33.015  1.00  0.00    -0.248 NA
ATOM     40  C   UNL A   1      37.365  33.161  33.147  1.00  0.00     0.031 C 
ATOM     41  C   UNL A   1      37.934  30.648  28.824  1.00  0.00     0.029 A 
ATOM     42  N   UNL A   1      39.358  30.171  30.479  1.00  0.00    -0.354 N 
ATOM     43  C   UNL A   1      39.154  32.274  34.264  1.00  0.00     0.074 A 
ATOM     44  C   UNL A   1      38.072  33.236  34.263  1.00  0.00     0.031 C 
ATOM     45  C   UNL A   1      38.760  29.687  28.380  1.00  0.00     0.029 A 
ATOM     46  C   UNL A   1      39.729  29.368  29.423  1.00  0.00     0.049 A 
ATOM     47  H   UNL A   1      39.821  30.164  31.348  1.00  0.00     0.167 HD
ATOM     48  C   UNL A   1      39.967  32.036  35.323  1.00  0.00     0.034 A 
ATOM     49  C   UNL A   1      40.742  28.486  29.308  1.00  0.00     0.034 A 
ATOM     50  C   UNL A   1      41.037  31.069  35.315  1.00  0.00     0.049 A 
ATOM     51  C   UNL A   1      41.660  28.273  30.488  1.00  0.00     0.074 A 
ATOM     52  C   UNL A   1      41.909  30.738  36.337  1.00  0.00     0.029 A 
ATOM     53  N   UNL A   1      41.380  30.274  34.229  1.00  0.00    -0.354 N 
ATOM     54  N   UNL A   1      41.631  28.842  31.672  1.00  0.00    -0.248 NA
ATOM     55  C   UNL A   1      42.738  27.290  30.321  1.00  0.00     0.031 C 
ATOM     56  C   UNL A   1      42.811  29.783  35.855  1.00  0.00     0.029 A 
ATOM     57  C   UNL A   1      42.460  29.467  34.553  1.00  0.00     0.049 A 
ATOM     58  H   UNL A   1      40.924  30.281  33.357  1.00  0.00     0.167 HD
ATOM     59  C   UNL A   1      42.661  28.251  32.400  1.00  0.00     0.074 A 
ATOM     60  C   UNL A   1      43.279  27.276  31.529  1.00  0.00     0.031 C 
ATOM     61  C   UNL A   1      43.059  28.491  33.675  1.00  0.00     0.034 A 
BRANCH  48  62
ATOM     62  C   UNL A   1      39.730  32.846  36.574  1.00  0.00     0.023 A 
ATOM     63  C   UNL A   1      38.873  32.389  37.591  1.00  0.00     0.031 A 
ATOM     64  C   UNL A   1      40.357  34.092  36.751  1.00  0.00     0.131 A 
ATOM     65  C   UNL A   1      38.614  33.199  38.706  1.00  0.00     0.055 A 
ATOM     66  C   UNL A   1      40.156  34.858  37.901  1.00  0.00     0.041 A 
ATOM     67  F   UNL A   1      41.169  34.589  35.805  1.00  0.00    -0.206 F 
ATOM     68  C   UNL A   1      39.271  34.419  38.881  1.00  0.00     0.022 A 
BRANCH  65  69
ATOM     69  S   UNL A   1      37.318  32.689  39.865  1.00  0.00     0.124 S 
ATOM     70  O   UNL A   1      37.819  31.393  40.315  1.00  0.00    -0.237 OA
ATOM     71  O   UNL A   1      37.337  33.760  40.855  1.00  0.00    -0.237 OA
ATOM     72  O   UNL A   1      36.117  32.630  39.033  1.00  0.00    -0.744 OA
ENDBRANCH  65  69
ENDBRANCH  48  62
BRANCH  49  73
ATOM     73  C   UNL A   1      40.966  27.736  28.037  1.00  0.00     0.023 A 
ATOM     74  C   UNL A   1      40.631  26.376  27.936  1.00  0.00     0.031 A 
ATOM     75  C   UNL A   1      41.596  28.341  26.934  1.00  0.00     0.131 A 
ATOM     76  C   UNL A   1      40.991  25.649  26.791  1.00  0.00     0.055 A 
ATOM     77  C   UNL A   1      41.894  27.628  25.771  1.00  0.00     0.041 A 
ATOM     78  F   UNL A   1      41.937  29.639  26.975  1.00  0.00    -0.206 F 
ATOM     79  C   UNL A   1      41.608  26.268  25.703  1.00  0.00     0.022 A 
BRANCH  76  80
ATOM     80  S   UNL A   1      40.755  23.849  26.800  1.00  0.00     0.124 S 
ATOM     81  O   UNL A   1      39.362  23.730  26.383  1.00  0.00    -0.237 OA
ATOM     82  O   UNL A   1      41.755  23.410  25.833  1.00  0.00    -0.237 OA
ATOM     83  O   UNL A   1      41.025  23.479  28.188  1.00  0.00    -0.744 OA
ENDBRANCH  76  80
ENDBRANCH  49  73
BRANCH  61  84
ATOM     84  C   UNL A   1      44.174  27.632  34.217  1.00  0.00     0.023 A 
ATOM     85  C   UNL A   1      43.949  26.323  34.674  1.00  0.00     0.031 A 
ATOM     86  C   UNL A   1      45.482  28.145  34.292  1.00  0.00     0.131 A 
ATOM     87  C   UNL A   1      45.002  25.590  35.241  1.00  0.00     0.055 A 
ATOM     88  C   UNL A   1      46.539  27.389  34.802  1.00  0.00     0.041 A 
ATOM     89  F   UNL A   1      45.754  29.390  33.870  1.00  0.00    -0.206 F 
ATOM     90  C   UNL A   1      46.299  26.109  35.294  1.00  0.00     0.022 A 
BRANCH  87  91
ATOM     91  S   UNL A   1      44.638  23.980  35.992  1.00  0.00     0.124 S 
ATOM     92  O   UNL A   1      45.136  24.158  37.353  1.00  0.00    -0.237 OA
ATOM     93  O   UNL A   1      43.188  23.890  35.850  1.00  0.00    -0.237 OA
ATOM     94  O   UNL A   1      45.398  23.038  35.172  1.00  0.00    -0.744 OA
ENDBRANCH  87  91
ENDBRANCH  61  84
ENDBRANCH  35  36
ENDBRANCH  27  30
ENDBRANCH  25  26
ENDBRANCH  24  25
ENDBRANCH  23  24
ENDBRANCH   1  23
TORSDOF 21
ENDMDL
MODEL 3
REMARK VINA RESULT:     -10.9      1.109      7.530
REMARK SMILES C=CCN(CC(=O)NCCCCNC(=O)c1ccc(-c2c3nc(c(-c4cc(S(=O)(=O)[O-])ccc4F)c4ccc([nH]4)c(-c4cc(S(=O)(=O)[O-])ccc4F)c4nc(c(-c5cc(S(=O)(=O)[O-])ccc5F)c5ccc2[nH]5)C=C4)C=C3)cc1)C(=O)/C=C/c1ccc(OC)cc1
REMARK SMILES IDX 9 1 8 2 6 3 7 4 5 6 4 7 3 8 2 9 1 10 79 11 80 12 81 13 82 14
REMARK SMILES IDX 83 15 84 16 90 17 85 18 89 19 86 20 87 21 88 22 10 23 11 24
REMARK SMILES IDX 12 25 13 26 14 27 15 29 16 30 17 31 78 32 18 33 77 34 19 35
REMARK SMILES IDX 20 36 21 37 71 38 22 39 76 40 70 41 72 42 23 43 75 44 69 45
REMARK SMILES IDX 68 46 24 48 56 49 36 50 55 51 37 52 40 53 54 54 73 55 38 56
REMARK SMILES IDX 39 57 53 59 74 60 41 61 25 62 26 63 34 64 27 65 33 66 35 67
REMARK SMILES IDX 32 68 28 69 29 70 30 71 31 72 57 73 58 74 66 75 59 76 65 77
REMARK SMILES IDX 67 78 64 79 60 80 61 81 62 82 63 83 42 84 43 85 51 86 44 87
REMARK SMILES IDX 50 88 52 89 49 90 45 91 46 92 47 93 48 94
REMARK H PARENT 8 5 13 28 72 47 40 58
REMARK Flexibility Score: inf
ROOT
ATOM      1  C   UNL A   1      32.985  28.644  24.948  1.00  0.00     0.116 C 
ENDROOT
BRANCH   1   2
ATOM      2  N   UNL A   1      33.690  28.349  23.722  1.00  0.00    -0.355 N 
ATOM      3  C   UNL A   1      33.605  27.238  22.936  1.00  0.00     0.239 C 
ATOM      4  O   UNL A   1      34.019  27.319  21.777  1.00  0.00    -0.273 OA
ATOM      5  H   UNL A   1      34.315  29.045  23.411  1.00  0.00     0.163 HD
BRANCH   3   6
ATOM      6  C   UNL A   1      32.885  25.970  23.424  1.00  0.00     0.220 C 
BRANCH   6   7
ATOM      7  N   UNL A   1      33.666  24.727  23.368  1.00  0.00    -0.326 N 
BRANCH   7   8
ATOM      8  C   UNL A   1      34.738  24.569  24.349  1.00  0.00     0.147 C 
BRANCH   8   9
ATOM      9  C   UNL A   1      34.246  23.908  25.601  1.00  0.00    -0.014 C 
ATOM     10  C   UNL A   1      35.074  23.405  26.527  1.00  0.00     0.006 C 
ENDBRANCH   8   9
ENDBRANCH   7   8
BRANCH   7  11
ATOM     11  C   UNL A   1      33.484  23.702  22.449  1.00  0.00     0.247 C 
ATOM     12  O   UNL A   1      33.282  23.926  21.252  1.00  0.00    -0.270 OA
BRANCH  11  13
ATOM     13  C   UNL A   1      33.401  22.271  22.864  1.00  0.00     0.072 C 
ATOM     14  C   UNL A   1      32.458  21.685  23.612  1.00  0.00     0.014 C 
BRANCH  14  15
ATOM     15  C   UNL A   1      32.524  20.281  24.023  1.00  0.00    -0.025 A 
ATOM     16  C   UNL A   1      32.720  19.942  25.365  1.00  0.00     0.012 A 
ATOM     17  C   UNL A   1      32.474  19.266  23.064  1.00  0.00     0.012 A 
ATOM     18  C   UNL A   1      32.908  18.605  25.731  1.00  0.00     0.047 A 
ATOM     19  C   UNL A   1      32.667  17.928  23.432  1.00  0.00     0.047 A 
ATOM     20  C   UNL A   1      32.909  17.595  24.765  1.00  0.00     0.118 A 
BRANCH  20  21
ATOM     21  O   UNL A   1      33.162  16.340  25.247  1.00  0.00    -0.497 OA
ATOM     22  C   UNL A   1      34.500  15.869  25.135  1.00  0.00     0.278 C 
ENDBRANCH  20  21
ENDBRANCH  14  15
ENDBRANCH  11  13
ENDBRANCH   7  11
ENDBRANCH   6   7
ENDBRANCH   3   6
ENDBRANCH   1   2
BRANCH   1  23
ATOM     23  C   UNL A   1      31.588  29.211  24.717  1.00  0.00     0.023 C 
BRANCH  23  24
ATOM     24  C   UNL A   1      31.280  30.504  25.475  1.00  0.00     0.023 C 
BRANCH  24  25
ATOM     25  C   UNL A   1      32.276  30.884  26.564  1.00  0.00     0.116 C 
BRANCH  25  26
ATOM     26  N   UNL A   1      32.273  32.303  26.882  1.00  0.00    -0.352 N 
ATOM     27  C   UNL A   1      33.197  33.025  27.598  1.00  0.00     0.251 C 
ATOM     28  H   UNL A   1      31.506  32.815  26.538  1.00  0.00     0.163 HD
ATOM     29  O   UNL A   1      32.986  34.207  27.851  1.00  0.00    -0.269 OA
BRANCH  27  30
ATOM     30  C   UNL A   1      34.417  32.355  28.099  1.00  0.00     0.039 A 
ATOM     31  C   UNL A   1      35.591  33.102  28.222  1.00  0.00     0.014 A 
ATOM     32  C   UNL A   1      34.395  31.011  28.481  1.00  0.00     0.014 A 
ATOM     33  C   UNL A   1      36.723  32.519  28.796  1.00  0.00     0.010 A 
ATOM     34  C   UNL A   1      35.503  30.453  29.114  1.00  0.00     0.010 A 
ATOM     35  C   UNL A   1      36.677  31.202  29.283  1.00  0.00    -0.014 A 
BRANCH  35  36
ATOM     36  C   UNL A   1      37.847  30.591  29.966  1.00  0.00     0.031 A 
ATOM     37  C   UNL A   1      38.164  30.964  31.388  1.00  0.00     0.074 A 
ATOM     38  C   UNL A   1      38.650  29.746  29.290  1.00  0.00     0.049 A 
ATOM     39  N   UNL A   1      39.186  30.615  32.128  1.00  0.00    -0.248 NA
ATOM     40  C   UNL A   1      37.219  31.871  32.059  1.00  0.00     0.031 C 
ATOM     41  C   UNL A   1      38.460  29.327  27.899  1.00  0.00     0.029 A 
ATOM     42  N   UNL A   1      39.792  29.088  29.678  1.00  0.00    -0.354 N 
ATOM     43  C   UNL A   1      39.009  31.258  33.348  1.00  0.00     0.074 A 
ATOM     44  C   UNL A   1      37.816  32.071  33.223  1.00  0.00     0.031 C 
ATOM     45  C   UNL A   1      39.437  28.468  27.560  1.00  0.00     0.029 A 
ATOM     46  C   UNL A   1      40.348  28.310  28.688  1.00  0.00     0.049 A 
ATOM     47  H   UNL A   1      40.178  29.168  30.580  1.00  0.00     0.167 HD
ATOM     48  C   UNL A   1      39.755  31.160  34.476  1.00  0.00     0.034 A 
ATOM     49  C   UNL A   1      41.472  27.564  28.688  1.00  0.00     0.034 A 
ATOM     50  C   UNL A   1      40.936  30.342  34.590  1.00  0.00     0.049 A 
ATOM     51  C   UNL A   1      42.308  27.509  29.943  1.00  0.00     0.074 A 
ATOM     52  C   UNL A   1      41.756  30.158  35.690  1.00  0.00     0.029 A 
ATOM     53  N   UNL A   1      41.467  29.566  33.568  1.00  0.00    -0.354 N 
ATOM     54  N   UNL A   1      42.109  28.104  31.097  1.00  0.00    -0.248 NA
ATOM     55  C   UNL A   1      43.513  26.670  29.901  1.00  0.00     0.031 C 
ATOM     56  C   UNL A   1      42.809  29.316  35.319  1.00  0.00     0.029 A 
ATOM     57  C   UNL A   1      42.610  28.917  34.007  1.00  0.00     0.049 A 
ATOM     58  H   UNL A   1      41.087  29.488  32.662  1.00  0.00     0.167 HD
ATOM     59  C   UNL A   1      43.142  27.675  31.927  1.00  0.00     0.074 A 
ATOM     60  C   UNL A   1      43.950  26.762  31.147  1.00  0.00     0.031 C 
ATOM     61  C   UNL A   1      43.400  28.002  33.219  1.00  0.00     0.034 A 
BRANCH  48  62
ATOM     62  C   UNL A   1      39.313  31.969  35.671  1.00  0.00     0.023 A 
ATOM     63  C   UNL A   1      38.589  31.385  36.724  1.00  0.00     0.031 A 
ATOM     64  C   UNL A   1      39.609  33.341  35.756  1.00  0.00     0.131 A 
ATOM     65  C   UNL A   1      38.128  32.179  37.784  1.00  0.00     0.055 A 
ATOM     66  C   UNL A   1      39.214  34.110  36.853  1.00  0.00     0.041 A 
ATOM     67  F   UNL A   1      40.279  33.959  34.771  1.00  0.00    -0.206 F 
ATOM     68  C   UNL A   1      38.458  33.533  37.869  1.00  0.00     0.022 A 
BRANCH  65  69
ATOM     69  S   UNL A   1      36.990  31.442  38.987  1.00  0.00     0.124 S 
ATOM     70  O   UNL A   1      37.768  31.533  40.221  1.00  0.00    -0.237 OA
ATOM     71  O   UNL A   1      35.826  32.318  38.900  1.00  0.00    -0.237 OA
ATOM     72  O   UNL A   1      36.789  30.085  38.484  1.00  0.00    -0.744 OA
ENDBRANCH  65  69
ENDBRANCH  48  62
BRANCH  49  73
ATOM     73  C   UNL A   1      41.894  26.813  27.469  1.00  0.00     0.023 A 
ATOM     74  C   UNL A   1      41.672  25.430  27.364  1.00  0.00     0.031 A 
ATOM     75  C   UNL A   1      42.601  27.445  26.431  1.00  0.00     0.131 A 
ATOM     76  C   UNL A   1      42.213  24.713  26.286  1.00  0.00     0.055 A 
ATOM     77  C   UNL A   1      43.082  26.737  25.327  1.00  0.00     0.041 A 
ATOM     78  F   UNL A   1      42.840  28.765  26.477  1.00  0.00    -0.206 F 
ATOM     79  C   UNL A   1      42.905  25.358  25.260  1.00  0.00     0.022 A 
BRANCH  76  80
ATOM     80  S   UNL A   1      42.108  22.901  26.313  1.00  0.00     0.124 S 
ATOM     81  O   UNL A   1      42.937  22.573  27.468  1.00  0.00    -0.237 OA
ATOM     82  O   UNL A   1      40.674  22.685  26.469  1.00  0.00    -0.237 OA
ATOM     83  O   UNL A   1      42.661  22.511  25.017  1.00  0.00    -0.744 OA
ENDBRANCH  76  80
ENDBRANCH  49  73
BRANCH  61  84
ATOM     84  C   UNL A   1      44.567  27.313  33.881  1.00  0.00     0.023 A 
ATOM     85  C   UNL A   1      44.464  26.012  34.401  1.00  0.00     0.031 A 
ATOM     86  C   UNL A   1      45.798  27.982  34.007  1.00  0.00     0.131 A 
ATOM     87  C   UNL A   1      45.553  25.441  35.076  1.00  0.00     0.055 A 
ATOM     88  C   UNL A   1      46.897  27.386  34.626  1.00  0.00     0.041 A 
ATOM     89  F   UNL A   1      45.952  29.227  33.528  1.00  0.00    -0.206 F 
ATOM     90  C   UNL A   1      46.774  26.114  35.178  1.00  0.00     0.022 A 
BRANCH  87  91
ATOM     91  S   UNL A   1      45.327  23.840  35.899  1.00  0.00     0.124 S 
ATOM     92  O   UNL A   1      43.980  23.468  35.476  1.00  0.00    -0.237 OA
ATOM     93  O   UNL A   1      46.414  23.045  35.337  1.00  0.00    -0.237 OA
ATOM     94  O   UNL A   1      45.465  24.161  37.318  1.00  0.00    -0.744 OA
ENDBRANCH  87  91
ENDBRANCH  61  84
ENDBRANCH  35  36
ENDBRANCH  27  30
ENDBRANCH  25  26
ENDBRANCH  24  25
ENDBRANCH  23  24
ENDBRANCH   1  23
TORSDOF 21
ENDMDL
