MODEL 1
REMARK VINA RESULT:     -12.1      0.000      0.000
REMARK SMILES O=C(NCCCCNC(=O)[C@@H]1CCn2c(C(=O)c3ccccc3)ccc21)c1ccc(-c2c3nc(c(-c4cc(S(=O)(=O)[O-])ccc4F)c4ccc([nH]4)c(-c4cc(S(=O)(=O)[O-])ccc4F)c4nc(c(-c5cc(S(=O)(=O)[O-])ccc5F)c5ccc2[nH]5)C=C4)C=C3)cc1
REMARK SMILES IDX 5 1 4 2 3 3 1 4 2 5 27 7 28 8 89 9 29 10 88 11 30 12 31 13
REMARK SMILES IDX 32 14 82 15 33 16 87 17 81 18 83 19 34 20 86 21 80 22 79 23
REMARK SMILES IDX 35 25 67 26 47 27 66 28 48 29 51 30 65 31 84 32 49 33 50 34
REMARK SMILES IDX 64 36 85 37 52 38 36 39 37 40 45 41 38 42 44 43 46 44 43 45
REMARK SMILES IDX 39 46 40 47 41 48 42 49 68 50 69 51 77 52 70 53 76 54 78 55
REMARK SMILES IDX 75 56 71 57 72 58 73 59 74 60 53 61 54 62 62 63 55 64 61 65
REMARK SMILES IDX 63 66 60 67 56 68 57 69 58 70 59 71 6 72 7 73 8 74 9 75
REMARK SMILES IDX 10 77 11 78 12 79 26 80 13 81 14 82 25 83 15 84 24 85 16 86
REMARK SMILES IDX 17 87 18 88 19 89 23 90 20 91 22 92 21 93
REMARK H PARENT 3 6 83 24 51 35 8 76
REMARK Flexibility Score: inf
ROOT
ATOM      1  C   UNL A   1      33.033  28.310  27.034  1.00  0.00     0.023 C 
ENDROOT
BRANCH   1   2
ATOM      2  C   UNL A   1      33.701  29.489  26.338  1.00  0.00     0.116 C 
BRANCH   2   3
ATOM      3  N   UNL A   1      33.500  30.757  27.026  1.00  0.00    -0.352 N 
ATOM      4  O   UNL A   1      33.891  32.387  28.532  1.00  0.00    -0.269 OA
ATOM      5  C   UNL A   1      34.282  31.366  27.981  1.00  0.00     0.251 C 
ATOM      6  H   UNL A   1      32.686  31.248  26.771  1.00  0.00     0.163 HD
BRANCH   5   7
ATOM      7  C   UNL A   1      35.580  30.762  28.358  1.00  0.00     0.039 A 
ATOM      8  C   UNL A   1      35.633  29.703  29.265  1.00  0.00     0.014 A 
ATOM      9  C   UNL A   1      36.759  31.282  27.816  1.00  0.00     0.014 A 
ATOM     10  C   UNL A   1      36.861  29.283  29.761  1.00  0.00     0.010 A 
ATOM     11  C   UNL A   1      37.996  30.791  28.246  1.00  0.00     0.010 A 
ATOM     12  C   UNL A   1      38.058  29.816  29.254  1.00  0.00    -0.014 A 
BRANCH  12  13
ATOM     13  C   UNL A   1      39.354  29.306  29.774  1.00  0.00     0.031 A 
ATOM     14  C   UNL A   1      39.986  29.896  31.006  1.00  0.00     0.074 A 
ATOM     15  C   UNL A   1      39.936  28.266  29.145  1.00  0.00     0.049 A 
ATOM     16  N   UNL A   1      41.098  29.554  31.606  1.00  0.00    -0.248 NA
ATOM     17  C   UNL A   1      39.285  31.022  31.639  1.00  0.00     0.031 C 
ATOM     18  C   UNL A   1      39.415  27.616  27.939  1.00  0.00     0.029 A 
ATOM     19  N   UNL A   1      41.070  27.553  29.440  1.00  0.00    -0.354 N 
ATOM     20  C   UNL A   1      41.242  30.432  32.677  1.00  0.00     0.074 A 
ATOM     21  C   UNL A   1      40.117  31.342  32.621  1.00  0.00     0.031 C 
ATOM     22  C   UNL A   1      40.195  26.570  27.630  1.00  0.00     0.029 A 
ATOM     23  C   UNL A   1      41.309  26.516  28.570  1.00  0.00     0.049 A 
ATOM     24  H   UNL A   1      41.658  27.766  30.201  1.00  0.00     0.167 HD
ATOM     25  C   UNL A   1      42.219  30.466  33.619  1.00  0.00     0.034 A 
ATOM     26  C   UNL A   1      42.320  25.628  28.519  1.00  0.00     0.034 A 
ATOM     27  C   UNL A   1      43.329  29.543  33.663  1.00  0.00     0.049 A 
ATOM     28  C   UNL A   1      43.401  25.706  29.560  1.00  0.00     0.074 A 
ATOM     29  C   UNL A   1      44.357  29.472  34.589  1.00  0.00     0.029 A 
ATOM     30  N   UNL A   1      43.563  28.532  32.739  1.00  0.00    -0.354 N 
ATOM     31  N   UNL A   1      43.518  26.540  30.568  1.00  0.00    -0.248 NA
ATOM     32  C   UNL A   1      44.485  24.722  29.457  1.00  0.00     0.031 C 
ATOM     33  C   UNL A   1      45.241  28.461  34.190  1.00  0.00     0.029 A 
ATOM     34  C   UNL A   1      44.731  27.853  33.055  1.00  0.00     0.049 A 
ATOM     35  H   UNL A   1      42.982  28.327  31.970  1.00  0.00     0.167 HD
ATOM     36  C   UNL A   1      44.686  26.171  31.227  1.00  0.00     0.074 A 
ATOM     37  C   UNL A   1      45.220  25.026  30.517  1.00  0.00     0.031 C 
ATOM     38  C   UNL A   1      45.264  26.730  32.321  1.00  0.00     0.034 A 
BRANCH  25  39
ATOM     39  C   UNL A   1      42.153  31.570  34.650  1.00  0.00     0.023 A 
ATOM     40  C   UNL A   1      41.208  31.560  35.691  1.00  0.00     0.031 A 
ATOM     41  C   UNL A   1      43.040  32.660  34.579  1.00  0.00     0.131 A 
ATOM     42  C   UNL A   1      41.128  32.648  36.576  1.00  0.00     0.055 A 
ATOM     43  C   UNL A   1      43.003  33.703  35.507  1.00  0.00     0.041 A 
ATOM     44  F   UNL A   1      43.951  32.736  33.597  1.00  0.00    -0.206 F 
ATOM     45  C   UNL A   1      42.033  33.708  36.505  1.00  0.00     0.022 A 
BRANCH  42  46
ATOM     46  S   UNL A   1      39.735  32.721  37.737  1.00  0.00     0.124 S 
ATOM     47  O   UNL A   1      38.926  31.586  37.300  1.00  0.00    -0.237 OA
ATOM     48  O   UNL A   1      40.395  32.576  39.029  1.00  0.00    -0.237 OA
ATOM     49  O   UNL A   1      39.144  34.032  37.481  1.00  0.00    -0.744 OA
ENDBRANCH  42  46
ENDBRANCH  25  39
BRANCH  26  50
ATOM     50  C   UNL A   1      42.370  24.617  27.427  1.00  0.00     0.023 A 
ATOM     51  C   UNL A   1      41.626  23.431  27.501  1.00  0.00     0.031 A 
ATOM     52  C   UNL A   1      43.180  24.820  26.295  1.00  0.00     0.131 A 
ATOM     53  C   UNL A   1      41.729  22.477  26.477  1.00  0.00     0.055 A 
ATOM     54  C   UNL A   1      43.241  23.893  25.255  1.00  0.00     0.041 A 
ATOM     55  F   UNL A   1      43.907  25.943  26.173  1.00  0.00    -0.206 F 
ATOM     56  C   UNL A   1      42.521  22.706  25.349  1.00  0.00     0.022 A 
BRANCH  53  57
ATOM     57  S   UNL A   1      40.864  20.896  26.671  1.00  0.00     0.124 S 
ATOM     58  O   UNL A   1      39.566  21.191  26.075  1.00  0.00    -0.237 OA
ATOM     59  O   UNL A   1      41.723  19.987  25.919  1.00  0.00    -0.237 OA
ATOM     60  O   UNL A   1      40.855  20.688  28.118  1.00  0.00    -0.744 OA
ENDBRANCH  53  57
ENDBRANCH  26  50
BRANCH  38  61
ATOM     61  C   UNL A   1      46.530  26.078  32.819  1.00  0.00     0.023 A 
ATOM     62  C   UNL A   1      46.496  25.033  33.759  1.00  0.00     0.031 A 
ATOM     63  C   UNL A   1      47.783  26.536  32.378  1.00  0.00     0.131 A 
ATOM     64  C   UNL A   1      47.696  24.520  34.275  1.00  0.00     0.055 A 
ATOM     65  C   UNL A   1      48.973  25.983  32.853  1.00  0.00     0.041 A 
ATOM     66  F   UNL A   1      47.870  27.534  31.485  1.00  0.00    -0.206 F 
ATOM     67  C   UNL A   1      48.934  24.980  33.817  1.00  0.00     0.022 A 
BRANCH  64  68
ATOM     68  S   UNL A   1      47.618  23.314  35.627  1.00  0.00     0.124 S 
ATOM     69  O   UNL A   1      46.325  22.681  35.395  1.00  0.00    -0.237 OA
ATOM     70  O   UNL A   1      48.790  22.482  35.371  1.00  0.00    -0.237 OA
ATOM     71  O   UNL A   1      47.698  24.141  36.830  1.00  0.00    -0.744 OA
ENDBRANCH  64  68
ENDBRANCH  38  61
ENDBRANCH  12  13
ENDBRANCH   5   7
ENDBRANCH   2   3
ENDBRANCH   1   2
BRANCH   1  72
ATOM     72  C   UNL A   1      31.529  28.178  26.811  1.00  0.00     0.023 C 
BRANCH  72  73
ATOM     73  C   UNL A   1      31.108  27.186  25.734  1.00  0.00     0.116 C 
BRANCH  73  74
ATOM     74  N   UNL A   1      30.723  25.889  26.250  1.00  0.00    -0.356 N 
ATOM     75  C   UNL A   1      31.464  24.778  26.520  1.00  0.00     0.229 C 
ATOM     76  H   UNL A   1      29.761  25.793  26.436  1.00  0.00     0.163 HD
ATOM     77  O   UNL A   1      30.882  23.836  27.070  1.00  0.00    -0.274 OA
BRANCH  75  78
ATOM     78  C   UNL A   1      32.948  24.658  26.179  1.00  0.00     0.127 C 
ATOM     79  C   UNL A   1      33.316  24.734  24.683  1.00  0.00     0.042 C 
ATOM     80  C   UNL A   1      33.516  23.357  26.611  1.00  0.00     0.031 A 
ATOM     81  C   UNL A   1      34.108  23.451  24.347  1.00  0.00     0.124 C 
ATOM     82  N   UNL A   1      34.142  22.701  25.591  1.00  0.00    -0.341 N 
ATOM     83  C   UNL A   1      33.615  22.607  27.747  1.00  0.00     0.025 A 
ATOM     84  C   UNL A   1      34.585  21.474  25.992  1.00  0.00     0.090 A 
ATOM     85  C   UNL A   1      34.289  21.422  27.358  1.00  0.00     0.032 A 
BRANCH  84  86
ATOM     86  C   UNL A   1      35.195  20.388  25.240  1.00  0.00     0.209 C 
ATOM     87  O   UNL A   1      36.415  20.250  25.134  1.00  0.00    -0.287 OA
BRANCH  86  88
ATOM     88  C   UNL A   1      34.378  19.343  24.597  1.00  0.00     0.024 A 
ATOM     89  C   UNL A   1      34.965  18.098  24.347  1.00  0.00     0.012 A 
ATOM     90  C   UNL A   1      33.077  19.613  24.168  1.00  0.00     0.012 A 
ATOM     91  C   UNL A   1      34.226  17.101  23.711  1.00  0.00     0.001 A 
ATOM     92  C   UNL A   1      32.336  18.607  23.546  1.00  0.00     0.001 A 
ATOM     93  C   UNL A   1      32.909  17.353  23.322  1.00  0.00     0.000 A 
ENDBRANCH  86  88
ENDBRANCH  84  86
ENDBRANCH  75  78
ENDBRANCH  73  74
ENDBRANCH  72  73
ENDBRANCH   1  72
TORSDOF 16
ENDMDL
MODEL 2
REMARK VINA RESULT:     -12.0      1.765      2.348
REMARK SMILES O=C(NCCCCNC(=O)[C@@H]1CCn2c(C(=O)c3ccccc3)ccc21)c1ccc(-c2c3nc(c(-c4cc(S(=O)(=O)[O-])ccc4F)c4ccc([nH]4)c(-c4cc(S(=O)(=O)[O-])ccc4F)c4nc(c(-c5cc(S(=O)(=O)[O-])ccc5F)c5ccc2[nH]5)C=C4)C=C3)cc1
REMARK SMILES IDX 5 1 4 2 3 3 1 4 2 5 27 7 28 8 89 9 29 10 88 11 30 12 31 13
REMARK SMILES IDX 32 14 82 15 33 16 87 17 81 18 83 19 34 20 86 21 80 22 79 23
REMARK SMILES IDX 35 25 67 26 47 27 66 28 48 29 51 30 65 31 84 32 49 33 50 34
REMARK SMILES IDX 64 36 85 37 52 38 36 39 37 40 45 41 38 42 44 43 46 44 43 45
REMARK SMILES IDX 39 46 40 47 41 48 42 49 68 50 69 51 77 52 70 53 76 54 78 55
REMARK SMILES IDX 75 56 71 57 72 58 73 59 74 60 53 61 54 62 62 63 55 64 61 65
REMARK SMILES IDX 63 66 60 67 56 68 57 69 58 70 59 71 6 72 7 73 8 74 9 75
REMARK SMILES IDX 10 77 11 78 12 79 26 80 13 81 14 82 25 83 15 84 24 85 16 86
REMARK SMILES IDX 17 87 18 88 19 89 23 90 20 91 22 92 21 93
REMARK H PARENT 3 6 83 24 51 35 8 76
REMARK Flexibility Score: inf
ROOT
ATOM      1  C   UNL A   1      31.989  28.595  24.990  1.00  0.00     0.023 C 
ENDROOT
BRANCH   1   2
ATOM      2  C   UNL A   1      33.132  29.401  25.594  1.00  0.00     0.116 C 
BRANCH   2   3
ATOM      3  N   UNL A   1      32.727  30.722  26.056  1.00  0.00    -0.352 N 
ATOM      4  O   UNL A   1      32.761  32.573  27.343  1.00  0.00    -0.269 OA
ATOM      5  C   UNL A   1      33.312  31.533  27.003  1.00  0.00     0.251 C 
ATOM      6  H   UNL A   1      31.918  31.086  25.630  1.00  0.00     0.163 HD
BRANCH   5   7
ATOM      7  C   UNL A   1      34.591  31.125  27.627  1.00  0.00     0.039 A 
ATOM      8  C   UNL A   1      34.796  29.804  28.025  1.00  0.00     0.014 A 
ATOM      9  C   UNL A   1      35.585  32.085  27.839  1.00  0.00     0.014 A 
ATOM     10  C   UNL A   1      35.912  29.481  28.787  1.00  0.00     0.010 A 
ATOM     11  C   UNL A   1      36.753  31.735  28.523  1.00  0.00     0.010 A 
ATOM     12  C   UNL A   1      36.908  30.438  29.040  1.00  0.00    -0.014 A 
BRANCH  12  13
ATOM     13  C   UNL A   1      38.112  30.042  29.818  1.00  0.00     0.031 A 
ATOM     14  C   UNL A   1      38.329  30.535  31.223  1.00  0.00     0.074 A 
ATOM     15  C   UNL A   1      38.990  29.188  29.255  1.00  0.00     0.049 A 
ATOM     16  N   UNL A   1      39.311  30.268  32.048  1.00  0.00    -0.248 NA
ATOM     17  C   UNL A   1      37.322  31.457  31.768  1.00  0.00     0.031 C 
ATOM     18  C   UNL A   1      38.882  28.648  27.897  1.00  0.00     0.029 A 
ATOM     19  N   UNL A   1      40.124  28.603  29.754  1.00  0.00    -0.354 N 
ATOM     20  C   UNL A   1      39.051  31.000  33.203  1.00  0.00     0.074 A 
ATOM     21  C   UNL A   1      37.836  31.747  32.956  1.00  0.00     0.031 C 
ATOM     22  C   UNL A   1      39.875  27.771  27.692  1.00  0.00     0.029 A 
ATOM     23  C   UNL A   1      40.730  27.739  28.873  1.00  0.00     0.049 A 
ATOM     24  H   UNL A   1      40.473  28.785  30.657  1.00  0.00     0.167 HD
ATOM     25  C   UNL A   1      39.759  31.035  34.361  1.00  0.00     0.034 A 
ATOM     26  C   UNL A   1      41.858  27.012  28.990  1.00  0.00     0.034 A 
ATOM     27  C   UNL A   1      40.966  30.274  34.591  1.00  0.00     0.049 A 
ATOM     28  C   UNL A   1      42.636  27.091  30.274  1.00  0.00     0.074 A 
ATOM     29  C   UNL A   1      41.744  30.215  35.735  1.00  0.00     0.029 A 
ATOM     30  N   UNL A   1      41.574  29.443  33.659  1.00  0.00    -0.354 N 
ATOM     31  N   UNL A   1      42.372  27.784  31.357  1.00  0.00    -0.248 NA
ATOM     32  C   UNL A   1      43.861  26.287  30.350  1.00  0.00     0.031 C 
ATOM     33  C   UNL A   1      42.853  29.399  35.473  1.00  0.00     0.029 A 
ATOM     34  C   UNL A   1      42.731  28.892  34.190  1.00  0.00     0.049 A 
ATOM     35  H   UNL A   1      41.233  29.270  32.751  1.00  0.00     0.167 HD
ATOM     36  C   UNL A   1      43.397  27.490  32.251  1.00  0.00     0.074 A 
ATOM     37  C   UNL A   1      44.265  26.538  31.587  1.00  0.00     0.031 C 
ATOM     38  C   UNL A   1      43.601  27.964  33.506  1.00  0.00     0.034 A 
BRANCH  25  39
ATOM     39  C   UNL A   1      39.270  31.965  35.447  1.00  0.00     0.023 A 
ATOM     40  C   UNL A   1      39.687  33.306  35.523  1.00  0.00     0.031 A 
ATOM     41  C   UNL A   1      38.385  31.497  36.436  1.00  0.00     0.131 A 
ATOM     42  C   UNL A   1      39.272  34.111  36.597  1.00  0.00     0.055 A 
ATOM     43  C   UNL A   1      37.918  32.323  37.460  1.00  0.00     0.041 A 
ATOM     44  F   UNL A   1      37.967  30.221  36.428  1.00  0.00    -0.206 F 
ATOM     45  C   UNL A   1      38.373  33.635  37.553  1.00  0.00     0.022 A 
BRANCH  42  46
ATOM     46  S   UNL A   1      40.033  35.745  36.801  1.00  0.00     0.124 S 
ATOM     47  O   UNL A   1      39.381  36.225  38.018  1.00  0.00    -0.237 OA
ATOM     48  O   UNL A   1      41.449  35.420  36.920  1.00  0.00    -0.237 OA
ATOM     49  O   UNL A   1      39.655  36.454  35.581  1.00  0.00    -0.744 OA
ENDBRANCH  42  46
ENDBRANCH  25  39
BRANCH  26  50
ATOM     50  C   UNL A   1      42.330  26.179  27.850  1.00  0.00     0.023 A 
ATOM     51  C   UNL A   1      41.896  24.855  27.690  1.00  0.00     0.031 A 
ATOM     52  C   UNL A   1      43.238  26.696  26.909  1.00  0.00     0.131 A 
ATOM     53  C   UNL A   1      42.394  24.081  26.630  1.00  0.00     0.055 A 
ATOM     54  C   UNL A   1      43.693  25.941  25.829  1.00  0.00     0.041 A 
ATOM     55  F   UNL A   1      43.679  27.961  27.015  1.00  0.00    -0.206 F 
ATOM     56  C   UNL A   1      43.279  24.619  25.691  1.00  0.00     0.022 A 
BRANCH  53  57
ATOM     57  S   UNL A   1      41.922  22.334  26.533  1.00  0.00     0.124 S 
ATOM     58  O   UNL A   1      42.631  21.899  25.335  1.00  0.00    -0.237 OA
ATOM     59  O   UNL A   1      42.424  21.814  27.801  1.00  0.00    -0.237 OA
ATOM     60  O   UNL A   1      40.466  22.381  26.415  1.00  0.00    -0.744 OA
ENDBRANCH  53  57
ENDBRANCH  26  50
BRANCH  38  61
ATOM     61  C   UNL A   1      44.804  27.427  34.240  1.00  0.00     0.023 A 
ATOM     62  C   UNL A   1      44.733  26.249  35.004  1.00  0.00     0.031 A 
ATOM     63  C   UNL A   1      46.023  28.126  34.208  1.00  0.00     0.131 A 
ATOM     64  C   UNL A   1      45.844  25.836  35.754  1.00  0.00     0.055 A 
ATOM     65  C   UNL A   1      47.143  27.679  34.911  1.00  0.00     0.041 A 
ATOM     66  F   UNL A   1      46.143  29.258  33.497  1.00  0.00    -0.206 F 
ATOM     67  C   UNL A   1      47.052  26.537  35.701  1.00  0.00     0.022 A 
BRANCH  64  68
ATOM     68  S   UNL A   1      45.659  24.427  36.881  1.00  0.00     0.124 S 
ATOM     69  O   UNL A   1      47.041  23.992  37.052  1.00  0.00    -0.237 OA
ATOM     70  O   UNL A   1      45.035  25.041  38.049  1.00  0.00    -0.237 OA
ATOM     71  O   UNL A   1      44.805  23.503  36.138  1.00  0.00    -0.744 OA
ENDBRANCH  64  68
ENDBRANCH  38  61
ENDBRANCH  12  13
ENDBRANCH   5   7
ENDBRANCH   2   3
ENDBRANCH   1   2
BRANCH   1  72
ATOM     72  C   UNL A   1      31.246  27.677  25.956  1.00  0.00     0.023 C 
BRANCH  72  73
ATOM     73  C   UNL A   1      30.357  26.622  25.309  1.00  0.00     0.116 C 
BRANCH  73  74
ATOM     74  N   UNL A   1      30.214  25.415  26.096  1.00  0.00    -0.356 N 
ATOM     75  C   UNL A   1      31.130  24.481  26.477  1.00  0.00     0.229 C 
ATOM     76  H   UNL A   1      29.297  25.237  26.409  1.00  0.00     0.163 HD
ATOM     77  O   UNL A   1      30.745  23.600  27.254  1.00  0.00    -0.274 OA
BRANCH  75  78
ATOM     78  C   UNL A   1      32.578  24.483  25.991  1.00  0.00     0.127 C 
ATOM     79  C   UNL A   1      32.790  24.459  24.463  1.00  0.00     0.042 C 
ATOM     80  C   UNL A   1      33.326  23.292  26.464  1.00  0.00     0.031 A 
ATOM     81  C   UNL A   1      33.683  23.238  24.149  1.00  0.00     0.124 C 
ATOM     82  N   UNL A   1      33.920  22.613  25.439  1.00  0.00    -0.341 N 
ATOM     83  C   UNL A   1      33.618  22.663  27.639  1.00  0.00     0.025 A 
ATOM     84  C   UNL A   1      34.533  21.479  25.888  1.00  0.00     0.090 A 
ATOM     85  C   UNL A   1      34.378  21.522  27.278  1.00  0.00     0.032 A 
BRANCH  84  86
ATOM     86  C   UNL A   1      35.185  20.397  25.166  1.00  0.00     0.209 C 
ATOM     87  O   UNL A   1      36.405  20.340  25.004  1.00  0.00    -0.287 OA
BRANCH  86  88
ATOM     88  C   UNL A   1      34.417  19.261  24.625  1.00  0.00     0.024 A 
ATOM     89  C   UNL A   1      35.087  18.055  24.392  1.00  0.00     0.012 A 
ATOM     90  C   UNL A   1      33.074  19.407  24.271  1.00  0.00     0.012 A 
ATOM     91  C   UNL A   1      34.392  16.973  23.851  1.00  0.00     0.001 A 
ATOM     92  C   UNL A   1      32.380  18.317  23.744  1.00  0.00     0.001 A 
ATOM     93  C   UNL A   1      33.038  17.102  23.538  1.00  0.00     0.000 A 
ENDBRANCH  86  88
ENDBRANCH  84  86
ENDBRANCH  75  78
ENDBRANCH  73  74
ENDBRANCH  72  73
ENDBRANCH   1  72
TORSDOF 16
ENDMDL
MODEL 3
REMARK VINA RESULT:     -12.0      4.993     10.131
REMARK SMILES O=C(NCCCCNC(=O)[C@@H]1CCn2c(C(=O)c3ccccc3)ccc21)c1ccc(-c2c3nc(c(-c4cc(S(=O)(=O)[O-])ccc4F)c4ccc([nH]4)c(-c4cc(S(=O)(=O)[O-])ccc4F)c4nc(c(-c5cc(S(=O)(=O)[O-])ccc5F)c5ccc2[nH]5)C=C4)C=C3)cc1
REMARK SMILES IDX 5 1 4 2 3 3 1 4 2 5 27 7 28 8 89 9 29 10 88 11 30 12 31 13
REMARK SMILES IDX 32 14 82 15 33 16 87 17 81 18 83 19 34 20 86 21 80 22 79 23
REMARK SMILES IDX 35 25 67 26 47 27 66 28 48 29 51 30 65 31 84 32 49 33 50 34
REMARK SMILES IDX 64 36 85 37 52 38 36 39 37 40 45 41 38 42 44 43 46 44 43 45
REMARK SMILES IDX 39 46 40 47 41 48 42 49 68 50 69 51 77 52 70 53 76 54 78 55
REMARK SMILES IDX 75 56 71 57 72 58 73 59 74 60 53 61 54 62 62 63 55 64 61 65
REMARK SMILES IDX 63 66 60 67 56 68 57 69 58 70 59 71 6 72 7 73 8 74 9 75
REMARK SMILES IDX 10 77 11 78 12 79 26 80 13 81 14 82 25 83 15 84 24 85 16 86
REMARK SMILES IDX 17 87 18 88 19 89 23 90 20 91 22 92 21 93
REMARK H PARENT 3 6 83 24 51 35 8 76
REMARK Flexibility Score: inf
ROOT
ATOM      1  C   UNL A   1      35.333  21.735  24.694  1.00  0.00     0.023 C 
ENDROOT
BRANCH   1   2
ATOM      2  C   UNL A   1      36.622  22.160  25.388  1.00  0.00     0.116 C 
BRANCH   2   3
ATOM      3  N   UNL A   1      37.579  21.073  25.545  1.00  0.00    -0.352 N 
ATOM      4  O   UNL A   1      39.574  20.104  25.949  1.00  0.00    -0.269 OA
ATOM      5  C   UNL A   1      38.882  21.114  25.990  1.00  0.00     0.251 C 
ATOM      6  H   UNL A   1      37.246  20.180  25.298  1.00  0.00     0.163 HD
BRANCH   5   7
ATOM      7  C   UNL A   1      39.445  22.389  26.487  1.00  0.00     0.039 A 
ATOM      8  C   UNL A   1      38.949  23.610  26.028  1.00  0.00     0.014 A 
ATOM      9  C   UNL A   1      40.501  22.359  27.403  1.00  0.00     0.014 A 
ATOM     10  C   UNL A   1      39.618  24.786  26.346  1.00  0.00     0.010 A 
ATOM     11  C   UNL A   1      41.111  23.554  27.797  1.00  0.00     0.010 A 
ATOM     12  C   UNL A   1      40.702  24.775  27.239  1.00  0.00    -0.014 A 
BRANCH  12  13
ATOM     13  C   UNL A   1      41.360  26.060  27.593  1.00  0.00     0.031 A 
ATOM     14  C   UNL A   1      42.724  26.410  27.061  1.00  0.00     0.074 A 
ATOM     15  C   UNL A   1      40.689  26.936  28.367  1.00  0.00     0.049 A 
ATOM     16  N   UNL A   1      43.429  27.497  27.252  1.00  0.00    -0.248 NA
ATOM     17  C   UNL A   1      43.386  25.406  26.216  1.00  0.00     0.031 C 
ATOM     18  C   UNL A   1      39.362  26.701  28.943  1.00  0.00     0.029 A 
ATOM     19  N   UNL A   1      41.010  28.202  28.783  1.00  0.00    -0.354 N 
ATOM     20  C   UNL A   1      44.626  27.303  26.567  1.00  0.00     0.074 A 
ATOM     21  C   UNL A   1      44.560  25.979  25.984  1.00  0.00     0.031 C 
ATOM     22  C   UNL A   1      38.960  27.806  29.588  1.00  0.00     0.029 A 
ATOM     23  C   UNL A   1      40.026  28.799  29.535  1.00  0.00     0.049 A 
ATOM     24  H   UNL A   1      41.864  28.641  28.564  1.00  0.00     0.167 HD
ATOM     25  C   UNL A   1      45.674  28.155  26.434  1.00  0.00     0.034 A 
ATOM     26  C   UNL A   1      39.988  30.005  30.133  1.00  0.00     0.034 A 
ATOM     27  C   UNL A   1      45.716  29.477  27.016  1.00  0.00     0.049 A 
ATOM     28  C   UNL A   1      41.173  30.918  29.990  1.00  0.00     0.074 A 
ATOM     29  C   UNL A   1      46.716  30.431  26.919  1.00  0.00     0.029 A 
ATOM     30  N   UNL A   1      44.719  30.031  27.809  1.00  0.00    -0.354 N 
ATOM     31  N   UNL A   1      42.294  30.720  29.334  1.00  0.00    -0.248 NA
ATOM     32  C   UNL A   1      41.087  32.218  30.666  1.00  0.00     0.031 C 
ATOM     33  C   UNL A   1      46.350  31.534  27.702  1.00  0.00     0.029 A 
ATOM     34  C   UNL A   1      45.092  31.300  28.231  1.00  0.00     0.049 A 
ATOM     35  H   UNL A   1      43.870  29.588  28.038  1.00  0.00     0.167 HD
ATOM     36  C   UNL A   1      43.042  31.879  29.510  1.00  0.00     0.074 A 
ATOM     37  C   UNL A   1      42.235  32.777  30.311  1.00  0.00     0.031 C 
ATOM     38  C   UNL A   1      44.286  32.173  29.052  1.00  0.00     0.034 A 
BRANCH  25  39
ATOM     39  C   UNL A   1      46.879  27.661  25.667  1.00  0.00     0.023 A 
ATOM     40  C   UNL A   1      47.109  28.023  24.328  1.00  0.00     0.031 A 
ATOM     41  C   UNL A   1      47.806  26.799  26.282  1.00  0.00     0.131 A 
ATOM     42  C   UNL A   1      48.197  27.474  23.630  1.00  0.00     0.055 A 
ATOM     43  C   UNL A   1      48.926  26.314  25.604  1.00  0.00     0.041 A 
ATOM     44  F   UNL A   1      47.630  26.402  27.552  1.00  0.00    -0.206 F 
ATOM     45  C   UNL A   1      49.119  26.640  24.265  1.00  0.00     0.022 A 
BRANCH  42  46
ATOM     46  S   UNL A   1      48.312  27.757  21.841  1.00  0.00     0.124 S 
ATOM     47  O   UNL A   1      46.987  28.295  21.541  1.00  0.00    -0.237 OA
ATOM     48  O   UNL A   1      49.422  28.697  21.742  1.00  0.00    -0.237 OA
ATOM     49  O   UNL A   1      48.572  26.425  21.300  1.00  0.00    -0.744 OA
ENDBRANCH  42  46
ENDBRANCH  25  39
BRANCH  26  50
ATOM     50  C   UNL A   1      38.803  30.399  30.944  1.00  0.00     0.023 A 
ATOM     51  C   UNL A   1      37.724  31.085  30.368  1.00  0.00     0.031 A 
ATOM     52  C   UNL A   1      38.742  30.102  32.317  1.00  0.00     0.131 A 
ATOM     53  C   UNL A   1      36.642  31.482  31.168  1.00  0.00     0.055 A 
ATOM     54  C   UNL A   1      37.642  30.454  33.100  1.00  0.00     0.041 A 
ATOM     55  F   UNL A   1      39.746  29.441  32.915  1.00  0.00    -0.206 F 
ATOM     56  C   UNL A   1      36.587  31.159  32.527  1.00  0.00     0.022 A 
BRANCH  53  57
ATOM     57  S   UNL A   1      35.332  32.489  30.423  1.00  0.00     0.124 S 
ATOM     58  O   UNL A   1      34.331  32.509  31.483  1.00  0.00    -0.237 OA
ATOM     59  O   UNL A   1      36.026  33.748  30.171  1.00  0.00    -0.237 OA
ATOM     60  O   UNL A   1      34.961  31.734  29.227  1.00  0.00    -0.744 OA
ENDBRANCH  53  57
ENDBRANCH  26  50
BRANCH  38  61
ATOM     61  C   UNL A   1      44.823  33.540  29.394  1.00  0.00     0.023 A 
ATOM     62  C   UNL A   1      44.479  34.674  28.638  1.00  0.00     0.031 A 
ATOM     63  C   UNL A   1      45.721  33.701  30.463  1.00  0.00     0.131 A 
ATOM     64  C   UNL A   1      45.078  35.911  28.923  1.00  0.00     0.055 A 
ATOM     65  C   UNL A   1      46.269  34.945  30.779  1.00  0.00     0.041 A 
ATOM     66  F   UNL A   1      46.084  32.650  31.214  1.00  0.00    -0.206 F 
ATOM     67  C   UNL A   1      45.960  36.055  29.997  1.00  0.00     0.022 A 
BRANCH  64  68
ATOM     68  S   UNL A   1      44.766  37.307  27.809  1.00  0.00     0.124 S 
ATOM     69  O   UNL A   1      43.778  36.749  26.892  1.00  0.00    -0.237 OA
ATOM     70  O   UNL A   1      44.278  38.334  28.725  1.00  0.00    -0.237 OA
ATOM     71  O   UNL A   1      46.077  37.576  27.221  1.00  0.00    -0.744 OA
ENDBRANCH  64  68
ENDBRANCH  38  61
ENDBRANCH  12  13
ENDBRANCH   5   7
ENDBRANCH   2   3
ENDBRANCH   1   2
BRANCH   1  72
ATOM     72  C   UNL A   1      34.479  22.869  24.136  1.00  0.00     0.023 C 
BRANCH  72  73
ATOM     73  C   UNL A   1      34.119  23.970  25.127  1.00  0.00     0.116 C 
BRANCH  73  74
ATOM     74  N   UNL A   1      33.672  23.478  26.413  1.00  0.00    -0.356 N 
ATOM     75  C   UNL A   1      32.420  23.357  26.938  1.00  0.00     0.229 C 
ATOM     76  H   UNL A   1      34.395  23.180  27.011  1.00  0.00     0.163 HD
ATOM     77  O   UNL A   1      32.323  22.790  28.032  1.00  0.00    -0.274 OA
BRANCH  75  78
ATOM     78  C   UNL A   1      31.166  23.882  26.242  1.00  0.00     0.127 C 
ATOM     79  C   UNL A   1      30.834  23.265  24.868  1.00  0.00     0.042 C 
ATOM     80  C   UNL A   1      31.254  25.336  25.958  1.00  0.00     0.031 A 
ATOM     81  C   UNL A   1      30.730  24.431  23.861  1.00  0.00     0.124 C 
ATOM     82  N   UNL A   1      31.022  25.621  24.643  1.00  0.00    -0.341 N 
ATOM     83  C   UNL A   1      31.490  26.501  26.628  1.00  0.00     0.025 A 
ATOM     84  C   UNL A   1      31.187  26.952  24.390  1.00  0.00     0.090 A 
ATOM     85  C   UNL A   1      31.447  27.519  25.642  1.00  0.00     0.032 A 
BRANCH  84  86
ATOM     86  C   UNL A   1      31.162  27.696  23.139  1.00  0.00     0.209 C 
ATOM     87  O   UNL A   1      32.074  27.647  22.313  1.00  0.00    -0.287 OA
BRANCH  86  88
ATOM     88  C   UNL A   1      30.002  28.521  22.758  1.00  0.00     0.024 A 
ATOM     89  C   UNL A   1      30.226  29.678  22.004  1.00  0.00     0.012 A 
ATOM     90  C   UNL A   1      28.718  28.207  23.211  1.00  0.00     0.012 A 
ATOM     91  C   UNL A   1      29.150  30.495  21.657  1.00  0.00     0.001 A 
ATOM     92  C   UNL A   1      27.644  29.019  22.847  1.00  0.00     0.001 A 
ATOM     93  C   UNL A   1      27.860  30.159  22.068  1.00  0.00     0.000 A 
ENDBRANCH  86  88
ENDBRANCH  84  86
ENDBRANCH  75  78
ENDBRANCH  73  74
ENDBRANCH  72  73
ENDBRANCH   1  72
TORSDOF 16
ENDMDL
