MODEL 1
REMARK VINA RESULT:     -11.2      0.000      0.000
REMARK SMILES Cc1csc(C[NH2+]C[C@H]2CCC[C@H]2C(=O)NCCCCNC(=O)c2ccc(-c3c4nc(c(-c5cc(S(=O)(=O)[O-])ccc5F)c5ccc([nH]5)c(-c5cc(S(=O)(=O)[O-])ccc5F)c5nc(c(-c6cc(S(=O)(=O)[O-])ccc6F)c6ccc3[nH]6)C=C5)C=C4)cc2)n1
REMARK SMILES IDX 18 1 17 2 16 3 14 4 15 5 13 7 9 8 10 9 11 10 12 11 8 12 7 13
REMARK SMILES IDX 6 16 5 17 1 18 2 19 3 20 87 21 4 22 19 23 20 24 21 25 22 26
REMARK SMILES IDX 23 28 24 29 25 30 86 31 26 32 85 33 27 34 28 35 29 36 79 37
REMARK SMILES IDX 30 38 84 39 78 40 80 41 31 42 83 43 77 44 76 45 32 47 64 48
REMARK SMILES IDX 44 49 63 50 45 51 48 52 62 53 81 54 46 55 47 56 61 58 82 59
REMARK SMILES IDX 49 60 33 61 34 62 42 63 35 64 41 65 43 66 40 67 36 68 37 69
REMARK SMILES IDX 38 70 39 71 65 72 66 73 74 74 67 75 73 76 75 77 72 78 68 79
REMARK SMILES IDX 69 80 70 81 71 82 50 83 51 84 59 85 52 86 58 87 60 88 57 89
REMARK SMILES IDX 53 90 54 91 55 92 56 93
REMARK H PARENT 16 6 7 14 7 15 21 27 80 46 48 57
REMARK Flexibility Score: inf
ROOT
ATOM      1  C   UNL A   1      34.386  23.119  25.550  1.00  0.00     0.023 C 
ENDROOT
BRANCH   1   2
ATOM      2  C   UNL A   1      34.218  24.631  25.732  1.00  0.00     0.116 C 
BRANCH   2   3
ATOM      3  N   UNL A   1      32.820  25.016  25.642  1.00  0.00    -0.356 N 
ATOM      4  C   UNL A   1      32.141  26.152  25.938  1.00  0.00     0.223 C 
ATOM      5  O   UNL A   1      30.908  26.083  25.855  1.00  0.00    -0.275 OA
ATOM      6  H   UNL A   1      32.242  24.299  25.294  1.00  0.00     0.163 HD
BRANCH   4   7
ATOM      7  C   UNL A   1      32.774  27.480  26.357  1.00  0.00     0.087 C 
ATOM      8  C   UNL A   1      33.064  28.564  25.285  1.00  0.00     0.057 C 
ATOM      9  C   UNL A   1      33.311  29.796  26.164  1.00  0.00     0.010 C 
ATOM     10  C   UNL A   1      32.249  29.693  27.251  1.00  0.00     0.001 C 
ATOM     11  C   UNL A   1      32.161  28.201  27.568  1.00  0.00     0.014 C 
BRANCH   8  12
ATOM     12  C   UNL A   1      31.932  28.747  24.276  1.00  0.00     0.265 C 
BRANCH  12  13
ATOM     13  N   UNL A   1      32.085  28.190  22.949  1.00  0.00    -0.340 N 
ATOM     14  H   UNL A   1      32.381  28.942  22.326  1.00  0.00     0.346 HD
ATOM     15  H   UNL A   1      32.766  27.436  23.042  1.00  0.00     0.346 HD
BRANCH  13  16
ATOM     16  C   UNL A   1      30.892  27.578  22.377  1.00  0.00     0.329 C 
BRANCH  16  17
ATOM     17  C   UNL A   1      29.785  28.602  22.352  1.00  0.00     0.147 A 
ATOM     18  C   UNL A   1      28.406  31.578  20.876  1.00  0.00     0.067 C 
ATOM     19  C   UNL A   1      28.590  30.350  21.689  1.00  0.00     0.049 A 
ATOM     20  C   UNL A   1      27.650  29.730  22.489  1.00  0.00     0.090 A 
ATOM     21  N   UNL A   1      29.817  29.715  21.646  1.00  0.00    -0.241 NA
ATOM     22  S   UNL A   1      28.307  28.307  23.181  1.00  0.00    -0.121 S 
ENDBRANCH  16  17
ENDBRANCH  13  16
ENDBRANCH  12  13
ENDBRANCH   8  12
ENDBRANCH   4   7
ENDBRANCH   2   3
ENDBRANCH   1   2
BRANCH   1  23
ATOM     23  C   UNL A   1      35.638  22.518  26.172  1.00  0.00     0.023 C 
BRANCH  23  24
ATOM     24  C   UNL A   1      36.863  22.549  25.278  1.00  0.00     0.116 C 
BRANCH  24  25
ATOM     25  N   UNL A   1      37.802  21.470  25.544  1.00  0.00    -0.352 N 
ATOM     26  C   UNL A   1      39.048  21.540  26.126  1.00  0.00     0.251 C 
ATOM     27  H   UNL A   1      37.507  20.572  25.272  1.00  0.00     0.163 HD
ATOM     28  O   UNL A   1      39.757  20.548  26.178  1.00  0.00    -0.269 OA
BRANCH  26  29
ATOM     29  C   UNL A   1      39.523  22.843  26.640  1.00  0.00     0.039 A 
ATOM     30  C   UNL A   1      40.507  22.859  27.628  1.00  0.00     0.014 A 
ATOM     31  C   UNL A   1      39.031  24.038  26.108  1.00  0.00     0.014 A 
ATOM     32  C   UNL A   1      41.041  24.081  28.043  1.00  0.00     0.010 A 
ATOM     33  C   UNL A   1      39.637  25.241  26.443  1.00  0.00     0.010 A 
ATOM     34  C   UNL A   1      40.633  25.278  27.430  1.00  0.00    -0.014 A 
BRANCH  34  35
ATOM     35  C   UNL A   1      41.191  26.586  27.850  1.00  0.00     0.031 A 
ATOM     36  C   UNL A   1      42.621  26.921  27.520  1.00  0.00     0.074 A 
ATOM     37  C   UNL A   1      40.432  27.442  28.561  1.00  0.00     0.049 A 
ATOM     38  N   UNL A   1      43.318  27.983  27.832  1.00  0.00    -0.248 NA
ATOM     39  C   UNL A   1      43.382  25.905  26.775  1.00  0.00     0.031 C 
ATOM     40  C   UNL A   1      39.052  27.197  28.988  1.00  0.00     0.029 A 
ATOM     41  N   UNL A   1      40.710  28.693  29.049  1.00  0.00    -0.354 N 
ATOM     42  C   UNL A   1      44.597  27.754  27.334  1.00  0.00     0.074 A 
ATOM     43  C   UNL A   1      44.600  26.419  26.780  1.00  0.00     0.031 C 
ATOM     44  C   UNL A   1      38.593  28.280  29.638  1.00  0.00     0.029 A 
ATOM     45  C   UNL A   1      39.654  29.279  29.708  1.00  0.00     0.049 A 
ATOM     46  H   UNL A   1      41.584  29.131  28.939  1.00  0.00     0.167 HD
ATOM     47  C   UNL A   1      45.661  28.594  27.310  1.00  0.00     0.034 A 
ATOM     48  C   UNL A   1      39.556  30.487  30.296  1.00  0.00     0.034 A 
ATOM     49  C   UNL A   1      45.625  29.932  27.843  1.00  0.00     0.049 A 
ATOM     50  C   UNL A   1      40.751  31.407  30.254  1.00  0.00     0.074 A 
ATOM     51  C   UNL A   1      46.617  30.895  27.825  1.00  0.00     0.029 A 
ATOM     52  N   UNL A   1      44.535  30.497  28.493  1.00  0.00    -0.354 N 
ATOM     53  N   UNL A   1      41.937  31.199  29.726  1.00  0.00    -0.248 NA
ATOM     54  C   UNL A   1      40.589  32.728  30.872  1.00  0.00     0.031 C 
ATOM     55  C   UNL A   1      46.149  32.019  28.515  1.00  0.00     0.029 A 
ATOM     56  C   UNL A   1      44.839  31.785  28.902  1.00  0.00     0.049 A 
ATOM     57  H   UNL A   1      43.672  30.047  28.642  1.00  0.00     0.167 HD
ATOM     58  C   UNL A   1      42.651  32.377  29.926  1.00  0.00     0.074 A 
ATOM     59  C   UNL A   1      41.755  33.294  30.600  1.00  0.00     0.031 C 
ATOM     60  C   UNL A   1      43.931  32.676  29.585  1.00  0.00     0.034 A 
BRANCH  47  61
ATOM     61  C   UNL A   1      46.940  28.074  26.695  1.00  0.00     0.023 A 
ATOM     62  C   UNL A   1      47.184  28.169  25.313  1.00  0.00     0.031 A 
ATOM     63  C   UNL A   1      47.906  27.435  27.490  1.00  0.00     0.131 A 
ATOM     64  C   UNL A   1      48.319  27.558  24.757  1.00  0.00     0.055 A 
ATOM     65  C   UNL A   1      49.077  26.906  26.943  1.00  0.00     0.041 A 
ATOM     66  F   UNL A   1      47.720  27.294  28.812  1.00  0.00    -0.206 F 
ATOM     67  C   UNL A   1      49.281  26.951  25.566  1.00  0.00     0.022 A 
BRANCH  64  68
ATOM     68  S   UNL A   1      48.438  27.435  22.951  1.00  0.00     0.124 S 
ATOM     69  O   UNL A   1      49.737  28.055  22.700  1.00  0.00    -0.237 OA
ATOM     70  O   UNL A   1      48.362  25.997  22.727  1.00  0.00    -0.237 OA
ATOM     71  O   UNL A   1      47.288  28.203  22.480  1.00  0.00    -0.744 OA
ENDBRANCH  64  68
ENDBRANCH  47  61
BRANCH  48  72
ATOM     72  C   UNL A   1      38.292  30.909  30.966  1.00  0.00     0.023 A 
ATOM     73  C   UNL A   1      37.283  31.573  30.250  1.00  0.00     0.031 A 
ATOM     74  C   UNL A   1      38.091  30.695  32.341  1.00  0.00     0.131 A 
ATOM     75  C   UNL A   1      36.144  32.048  30.920  1.00  0.00     0.055 A 
ATOM     76  C   UNL A   1      36.933  31.123  32.993  1.00  0.00     0.041 A 
ATOM     77  F   UNL A   1      39.020  30.058  33.073  1.00  0.00    -0.206 F 
ATOM     78  C   UNL A   1      35.957  31.817  32.284  1.00  0.00     0.022 A 
BRANCH  75  79
ATOM     79  S   UNL A   1      34.951  33.057  29.997  1.00  0.00     0.124 S 
ATOM     80  O   UNL A   1      35.811  34.084  29.423  1.00  0.00    -0.237 OA
ATOM     81  O   UNL A   1      34.397  32.086  29.059  1.00  0.00    -0.237 OA
ATOM     82  O   UNL A   1      34.027  33.520  31.029  1.00  0.00    -0.744 OA
ENDBRANCH  75  79
ENDBRANCH  48  72
BRANCH  60  83
ATOM     83  C   UNL A   1      44.412  34.068  29.911  1.00  0.00     0.023 A 
ATOM     84  C   UNL A   1      44.165  35.151  29.050  1.00  0.00     0.031 A 
ATOM     85  C   UNL A   1      45.143  34.308  31.087  1.00  0.00     0.131 A 
ATOM     86  C   UNL A   1      44.698  36.414  29.348  1.00  0.00     0.055 A 
ATOM     87  C   UNL A   1      45.617  35.580  31.410  1.00  0.00     0.041 A 
ATOM     88  F   UNL A   1      45.408  33.308  31.944  1.00  0.00    -0.206 F 
ATOM     89  C   UNL A   1      45.408  36.638  30.531  1.00  0.00     0.022 A 
BRANCH  86  90
ATOM     90  S   UNL A   1      44.536  37.736  28.118  1.00  0.00     0.124 S 
ATOM     91  O   UNL A   1      43.953  38.816  28.907  1.00  0.00    -0.237 OA
ATOM     92  O   UNL A   1      45.916  37.934  27.688  1.00  0.00    -0.237 OA
ATOM     93  O   UNL A   1      43.651  37.158  27.108  1.00  0.00    -0.744 OA
ENDBRANCH  86  90
ENDBRANCH  60  83
ENDBRANCH  34  35
ENDBRANCH  26  29
ENDBRANCH  24  25
ENDBRANCH  23  24
ENDBRANCH   1  23
TORSDOF 18
ENDMDL
MODEL 2
REMARK VINA RESULT:     -11.1      1.778      3.025
REMARK SMILES Cc1csc(C[NH2+]C[C@H]2CCC[C@H]2C(=O)NCCCCNC(=O)c2ccc(-c3c4nc(c(-c5cc(S(=O)(=O)[O-])ccc5F)c5ccc([nH]5)c(-c5cc(S(=O)(=O)[O-])ccc5F)c5nc(c(-c6cc(S(=O)(=O)[O-])ccc6F)c6ccc3[nH]6)C=C5)C=C4)cc2)n1
REMARK SMILES IDX 18 1 17 2 16 3 14 4 15 5 13 7 9 8 10 9 11 10 12 11 8 12 7 13
REMARK SMILES IDX 6 16 5 17 1 18 2 19 3 20 87 21 4 22 19 23 20 24 21 25 22 26
REMARK SMILES IDX 23 28 24 29 25 30 86 31 26 32 85 33 27 34 28 35 29 36 79 37
REMARK SMILES IDX 30 38 84 39 78 40 80 41 31 42 83 43 77 44 76 45 32 47 64 48
REMARK SMILES IDX 44 49 63 50 45 51 48 52 62 53 81 54 46 55 47 56 61 58 82 59
REMARK SMILES IDX 49 60 33 61 34 62 42 63 35 64 41 65 43 66 40 67 36 68 37 69
REMARK SMILES IDX 38 70 39 71 65 72 66 73 74 74 67 75 73 76 75 77 72 78 68 79
REMARK SMILES IDX 69 80 70 81 71 82 50 83 51 84 59 85 52 86 58 87 60 88 57 89
REMARK SMILES IDX 53 90 54 91 55 92 56 93
REMARK H PARENT 16 6 7 14 7 15 21 27 80 46 48 57
REMARK Flexibility Score: inf
ROOT
ATOM      1  C   UNL A   1      35.555  22.667  23.505  1.00  0.00     0.023 C 
ENDROOT
BRANCH   1   2
ATOM      2  C   UNL A   1      34.316  23.560  23.382  1.00  0.00     0.116 C 
BRANCH   2   3
ATOM      3  N   UNL A   1      34.248  24.513  24.476  1.00  0.00    -0.356 N 
ATOM      4  C   UNL A   1      33.756  25.771  24.593  1.00  0.00     0.223 C 
ATOM      5  O   UNL A   1      33.988  26.346  25.664  1.00  0.00    -0.275 OA
ATOM      6  H   UNL A   1      34.645  24.174  25.311  1.00  0.00     0.163 HD
BRANCH   4   7
ATOM      7  C   UNL A   1      32.954  26.513  23.522  1.00  0.00     0.087 C 
ATOM      8  C   UNL A   1      31.477  26.117  23.257  1.00  0.00     0.057 C 
ATOM      9  C   UNL A   1      30.988  27.316  22.436  1.00  0.00     0.010 C 
ATOM     10  C   UNL A   1      31.614  28.518  23.130  1.00  0.00     0.001 C 
ATOM     11  C   UNL A   1      33.009  28.048  23.538  1.00  0.00     0.014 C 
BRANCH   8  12
ATOM     12  C   UNL A   1      30.669  25.874  24.531  1.00  0.00     0.265 C 
BRANCH  12  13
ATOM     13  N   UNL A   1      30.379  24.512  24.922  1.00  0.00    -0.340 N 
ATOM     14  H   UNL A   1      29.368  24.380  24.871  1.00  0.00     0.346 HD
ATOM     15  H   UNL A   1      30.907  23.920  24.281  1.00  0.00     0.346 HD
BRANCH  13  16
ATOM     16  C   UNL A   1      30.812  24.131  26.260  1.00  0.00     0.329 C 
BRANCH  16  17
ATOM     17  C   UNL A   1      31.637  22.871  26.164  1.00  0.00     0.147 A 
ATOM     18  C   UNL A   1      32.600  19.988  24.242  1.00  0.00     0.067 C 
ATOM     19  C   UNL A   1      32.523  21.033  25.293  1.00  0.00     0.049 A 
ATOM     20  C   UNL A   1      33.377  21.204  26.365  1.00  0.00     0.090 A 
ATOM     21  N   UNL A   1      31.512  21.972  25.208  1.00  0.00    -0.241 NA
ATOM     22  S   UNL A   1      32.922  22.585  27.271  1.00  0.00    -0.121 S 
ENDBRANCH  16  17
ENDBRANCH  13  16
ENDBRANCH  12  13
ENDBRANCH   8  12
ENDBRANCH   4   7
ENDBRANCH   2   3
ENDBRANCH   1   2
BRANCH   1  23
ATOM     23  C   UNL A   1      36.666  23.205  24.394  1.00  0.00     0.023 C 
BRANCH  23  24
ATOM     24  C   UNL A   1      36.761  22.541  25.755  1.00  0.00     0.116 C 
BRANCH  24  25
ATOM     25  N   UNL A   1      37.794  21.520  25.830  1.00  0.00    -0.352 N 
ATOM     26  C   UNL A   1      39.108  21.653  26.221  1.00  0.00     0.251 C 
ATOM     27  H   UNL A   1      37.516  20.614  25.567  1.00  0.00     0.163 HD
ATOM     28  O   UNL A   1      39.876  20.710  26.123  1.00  0.00    -0.269 OA
BRANCH  26  29
ATOM     29  C   UNL A   1      39.574  22.967  26.715  1.00  0.00     0.039 A 
ATOM     30  C   UNL A   1      40.517  23.004  27.742  1.00  0.00     0.014 A 
ATOM     31  C   UNL A   1      39.119  24.149  26.127  1.00  0.00     0.014 A 
ATOM     32  C   UNL A   1      41.046  24.233  28.142  1.00  0.00     0.010 A 
ATOM     33  C   UNL A   1      39.723  25.356  26.450  1.00  0.00     0.010 A 
ATOM     34  C   UNL A   1      40.677  25.414  27.477  1.00  0.00    -0.014 A 
BRANCH  34  35
ATOM     35  C   UNL A   1      41.232  26.729  27.881  1.00  0.00     0.031 A 
ATOM     36  C   UNL A   1      42.656  27.070  27.532  1.00  0.00     0.074 A 
ATOM     37  C   UNL A   1      40.475  27.586  28.593  1.00  0.00     0.049 A 
ATOM     38  N   UNL A   1      43.349  28.139  27.827  1.00  0.00    -0.248 NA
ATOM     39  C   UNL A   1      43.415  26.053  26.786  1.00  0.00     0.031 C 
ATOM     40  C   UNL A   1      39.101  27.336  29.037  1.00  0.00     0.029 A 
ATOM     41  N   UNL A   1      40.750  28.843  29.068  1.00  0.00    -0.354 N 
ATOM     42  C   UNL A   1      44.624  27.914  27.318  1.00  0.00     0.074 A 
ATOM     43  C   UNL A   1      44.630  26.575  26.774  1.00  0.00     0.031 C 
ATOM     44  C   UNL A   1      38.642  28.421  29.683  1.00  0.00     0.029 A 
ATOM     45  C   UNL A   1      39.697  29.427  29.734  1.00  0.00     0.049 A 
ATOM     46  H   UNL A   1      41.620  29.285  28.944  1.00  0.00     0.167 HD
ATOM     47  C   UNL A   1      45.682  28.761  27.275  1.00  0.00     0.034 A 
ATOM     48  C   UNL A   1      39.598  30.639  30.313  1.00  0.00     0.034 A 
ATOM     49  C   UNL A   1      45.644  30.103  27.798  1.00  0.00     0.049 A 
ATOM     50  C   UNL A   1      40.787  31.567  30.250  1.00  0.00     0.074 A 
ATOM     51  C   UNL A   1      46.629  31.072  27.761  1.00  0.00     0.029 A 
ATOM     52  N   UNL A   1      44.557  30.666  28.455  1.00  0.00    -0.354 N 
ATOM     53  N   UNL A   1      41.968  31.362  29.711  1.00  0.00    -0.248 NA
ATOM     54  C   UNL A   1      40.623  32.892  30.859  1.00  0.00     0.031 C 
ATOM     55  C   UNL A   1      46.161  32.199  28.447  1.00  0.00     0.029 A 
ATOM     56  C   UNL A   1      44.857  31.959  28.850  1.00  0.00     0.049 A 
ATOM     57  H   UNL A   1      43.698  30.212  28.617  1.00  0.00     0.167 HD
ATOM     58  C   UNL A   1      42.677  32.545  29.893  1.00  0.00     0.074 A 
ATOM     59  C   UNL A   1      41.782  33.463  30.570  1.00  0.00     0.031 C 
ATOM     60  C   UNL A   1      43.951  32.851  29.536  1.00  0.00     0.034 A 
BRANCH  47  61
ATOM     61  C   UNL A   1      46.957  28.244  26.650  1.00  0.00     0.023 A 
ATOM     62  C   UNL A   1      47.160  28.272  25.259  1.00  0.00     0.031 A 
ATOM     63  C   UNL A   1      47.964  27.674  27.448  1.00  0.00     0.131 A 
ATOM     64  C   UNL A   1      48.296  27.664  24.702  1.00  0.00     0.055 A 
ATOM     65  C   UNL A   1      49.133  27.150  26.895  1.00  0.00     0.041 A 
ATOM     66  F   UNL A   1      47.819  27.598  28.780  1.00  0.00    -0.206 F 
ATOM     67  C   UNL A   1      49.297  27.127  25.513  1.00  0.00     0.022 A 
BRANCH  64  68
ATOM     68  S   UNL A   1      48.367  27.449  22.902  1.00  0.00     0.124 S 
ATOM     69  O   UNL A   1      49.661  28.048  22.585  1.00  0.00    -0.237 OA
ATOM     70  O   UNL A   1      48.280  26.001  22.753  1.00  0.00    -0.237 OA
ATOM     71  O   UNL A   1      47.208  28.197  22.422  1.00  0.00    -0.744 OA
ENDBRANCH  64  68
ENDBRANCH  47  61
BRANCH  48  72
ATOM     72  C   UNL A   1      38.338  31.058  30.992  1.00  0.00     0.023 A 
ATOM     73  C   UNL A   1      37.306  31.684  30.276  1.00  0.00     0.031 A 
ATOM     74  C   UNL A   1      38.166  30.882  32.377  1.00  0.00     0.131 A 
ATOM     75  C   UNL A   1      36.171  32.159  30.953  1.00  0.00     0.055 A 
ATOM     76  C   UNL A   1      37.012  31.308  33.037  1.00  0.00     0.041 A 
ATOM     77  F   UNL A   1      39.119  30.283  33.109  1.00  0.00    -0.206 F 
ATOM     78  C   UNL A   1      36.012  31.964  32.327  1.00  0.00     0.022 A 
BRANCH  75  79
ATOM     79  S   UNL A   1      34.944  33.119  30.023  1.00  0.00     0.124 S 
ATOM     80  O   UNL A   1      35.772  34.156  29.419  1.00  0.00    -0.237 OA
ATOM     81  O   UNL A   1      34.404  32.117  29.111  1.00  0.00    -0.237 OA
ATOM     82  O   UNL A   1      34.020  33.581  31.056  1.00  0.00    -0.744 OA
ENDBRANCH  75  79
ENDBRANCH  48  72
BRANCH  60  83
ATOM     83  C   UNL A   1      44.427  34.248  29.845  1.00  0.00     0.023 A 
ATOM     84  C   UNL A   1      44.214  35.311  28.951  1.00  0.00     0.031 A 
ATOM     85  C   UNL A   1      45.118  34.513  31.040  1.00  0.00     0.131 A 
ATOM     86  C   UNL A   1      44.742  36.578  29.237  1.00  0.00     0.055 A 
ATOM     87  C   UNL A   1      45.586  35.790  31.349  1.00  0.00     0.041 A 
ATOM     88  F   UNL A   1      45.348  33.533  31.929  1.00  0.00    -0.206 F 
ATOM     89  C   UNL A   1      45.412  36.829  30.438  1.00  0.00     0.022 A 
BRANCH  86  90
ATOM     90  S   UNL A   1      44.629  37.872  27.971  1.00  0.00     0.124 S 
ATOM     91  O   UNL A   1      45.738  37.531  27.087  1.00  0.00    -0.237 OA
ATOM     92  O   UNL A   1      43.291  37.661  27.428  1.00  0.00    -0.237 OA
ATOM     93  O   UNL A   1      44.799  39.110  28.731  1.00  0.00    -0.744 OA
ENDBRANCH  86  90
ENDBRANCH  60  83
ENDBRANCH  34  35
ENDBRANCH  26  29
ENDBRANCH  24  25
ENDBRANCH  23  24
ENDBRANCH   1  23
TORSDOF 18
ENDMDL
MODEL 3
REMARK VINA RESULT:     -11.0      5.444     10.134
REMARK SMILES Cc1csc(C[NH2+]C[C@H]2CCC[C@H]2C(=O)NCCCCNC(=O)c2ccc(-c3c4nc(c(-c5cc(S(=O)(=O)[O-])ccc5F)c5ccc([nH]5)c(-c5cc(S(=O)(=O)[O-])ccc5F)c5nc(c(-c6cc(S(=O)(=O)[O-])ccc6F)c6ccc3[nH]6)C=C5)C=C4)cc2)n1
REMARK SMILES IDX 18 1 17 2 16 3 14 4 15 5 13 7 9 8 10 9 11 10 12 11 8 12 7 13
REMARK SMILES IDX 6 16 5 17 1 18 2 19 3 20 87 21 4 22 19 23 20 24 21 25 22 26
REMARK SMILES IDX 23 28 24 29 25 30 86 31 26 32 85 33 27 34 28 35 29 36 79 37
REMARK SMILES IDX 30 38 84 39 78 40 80 41 31 42 83 43 77 44 76 45 32 47 64 48
REMARK SMILES IDX 44 49 63 50 45 51 48 52 62 53 81 54 46 55 47 56 61 58 82 59
REMARK SMILES IDX 49 60 33 61 34 62 42 63 35 64 41 65 43 66 40 67 36 68 37 69
REMARK SMILES IDX 38 70 39 71 65 72 66 73 74 74 67 75 73 76 75 77 72 78 68 79
REMARK SMILES IDX 69 80 70 81 71 82 50 83 51 84 59 85 52 86 58 87 60 88 57 89
REMARK SMILES IDX 53 90 54 91 55 92 56 93
REMARK H PARENT 16 6 7 14 7 15 21 27 80 46 48 57
REMARK Flexibility Score: inf
ROOT
ATOM      1  C   UNL A   1      34.636  30.805  27.623  1.00  0.00     0.023 C 
ENDROOT
BRANCH   1   2
ATOM      2  C   UNL A   1      34.284  29.412  27.090  1.00  0.00     0.116 C 
BRANCH   2   3
ATOM      3  N   UNL A   1      33.047  28.925  27.676  1.00  0.00    -0.356 N 
ATOM      4  C   UNL A   1      32.133  27.998  27.298  1.00  0.00     0.223 C 
ATOM      5  O   UNL A   1      31.110  27.931  27.992  1.00  0.00    -0.275 OA
ATOM      6  H   UNL A   1      32.823  29.364  28.529  1.00  0.00     0.163 HD
BRANCH   4   7
ATOM      7  C   UNL A   1      32.271  27.051  26.104  1.00  0.00     0.087 C 
ATOM      8  C   UNL A   1      31.498  27.351  24.793  1.00  0.00     0.057 C 
ATOM      9  C   UNL A   1      32.207  26.417  23.807  1.00  0.00     0.010 C 
ATOM     10  C   UNL A   1      33.679  26.539  24.175  1.00  0.00     0.001 C 
ATOM     11  C   UNL A   1      33.692  26.630  25.700  1.00  0.00     0.014 C 
BRANCH   8  12
ATOM     12  C   UNL A   1      31.537  28.822  24.382  1.00  0.00     0.265 C 
BRANCH  12  13
ATOM     13  N   UNL A   1      31.257  29.169  23.005  1.00  0.00    -0.340 N 
ATOM     14  H   UNL A   1      31.499  30.151  22.874  1.00  0.00     0.346 HD
ATOM     15  H   UNL A   1      31.812  28.526  22.439  1.00  0.00     0.346 HD
BRANCH  13  16
ATOM     16  C   UNL A   1      29.878  28.986  22.573  1.00  0.00     0.329 C 
BRANCH  16  17
ATOM     17  C   UNL A   1      29.236  30.341  22.407  1.00  0.00     0.147 A 
ATOM     18  C   UNL A   1      29.110  33.803  23.375  1.00  0.00     0.067 C 
ATOM     19  C   UNL A   1      28.879  32.514  22.676  1.00  0.00     0.049 A 
ATOM     20  C   UNL A   1      28.142  32.309  21.525  1.00  0.00     0.090 A 
ATOM     21  N   UNL A   1      29.470  31.376  23.189  1.00  0.00    -0.241 NA
ATOM     22  S   UNL A   1      28.214  30.662  21.061  1.00  0.00    -0.121 S 
ENDBRANCH  16  17
ENDBRANCH  13  16
ENDBRANCH  12  13
ENDBRANCH   8  12
ENDBRANCH   4   7
ENDBRANCH   2   3
ENDBRANCH   1   2
BRANCH   1  23
ATOM     23  C   UNL A   1      33.452  31.713  27.917  1.00  0.00     0.023 C 
BRANCH  23  24
ATOM     24  C   UNL A   1      33.553  33.098  27.309  1.00  0.00     0.116 C 
BRANCH  24  25
ATOM     25  N   UNL A   1      32.953  34.138  28.130  1.00  0.00    -0.352 N 
ATOM     26  C   UNL A   1      33.313  34.550  29.394  1.00  0.00     0.251 C 
ATOM     27  H   UNL A   1      32.187  34.608  27.730  1.00  0.00     0.163 HD
ATOM     28  O   UNL A   1      32.632  35.368  29.990  1.00  0.00    -0.269 OA
BRANCH  26  29
ATOM     29  C   UNL A   1      34.509  33.950  30.025  1.00  0.00     0.039 A 
ATOM     30  C   UNL A   1      34.335  32.968  31.000  1.00  0.00     0.014 A 
ATOM     31  C   UNL A   1      35.792  34.322  29.614  1.00  0.00     0.014 A 
ATOM     32  C   UNL A   1      35.454  32.317  31.524  1.00  0.00     0.010 A 
ATOM     33  C   UNL A   1      36.892  33.600  30.055  1.00  0.00     0.010 A 
ATOM     34  C   UNL A   1      36.737  32.606  31.031  1.00  0.00    -0.014 A 
BRANCH  34  35
ATOM     35  C   UNL A   1      37.939  31.921  31.568  1.00  0.00     0.031 A 
ATOM     36  C   UNL A   1      38.485  32.329  32.911  1.00  0.00     0.074 A 
ATOM     37  C   UNL A   1      38.557  30.976  30.834  1.00  0.00     0.049 A 
ATOM     38  N   UNL A   1      39.545  31.896  33.541  1.00  0.00    -0.248 NA
ATOM     39  C   UNL A   1      37.765  33.399  33.619  1.00  0.00     0.031 C 
ATOM     40  C   UNL A   1      38.148  30.541  29.495  1.00  0.00     0.029 A 
ATOM     41  N   UNL A   1      39.657  30.204  31.109  1.00  0.00    -0.354 N 
ATOM     42  C   UNL A   1      39.624  32.649  34.708  1.00  0.00     0.074 A 
ATOM     43  C   UNL A   1      38.557  33.623  34.654  1.00  0.00     0.031 C 
ATOM     44  C   UNL A   1      38.963  29.555  29.085  1.00  0.00     0.029 A 
ATOM     45  C   UNL A   1      39.972  29.313  30.110  1.00  0.00     0.049 A 
ATOM     46  H   UNL A   1      40.174  30.283  31.942  1.00  0.00     0.167 HD
ATOM     47  C   UNL A   1      40.486  32.517  35.747  1.00  0.00     0.034 A 
ATOM     48  C   UNL A   1      40.961  28.401  30.037  1.00  0.00     0.034 A 
ATOM     49  C   UNL A   1      41.524  31.519  35.792  1.00  0.00     0.049 A 
ATOM     50  C   UNL A   1      41.906  28.268  31.206  1.00  0.00     0.074 A 
ATOM     51  C   UNL A   1      42.419  31.250  36.811  1.00  0.00     0.029 A 
ATOM     52  N   UNL A   1      41.808  30.624  34.768  1.00  0.00    -0.354 N 
ATOM     53  N   UNL A   1      41.931  28.948  32.331  1.00  0.00    -0.248 NA
ATOM     54  C   UNL A   1      42.944  27.236  31.102  1.00  0.00     0.031 C 
ATOM     55  C   UNL A   1      43.280  30.234  36.381  1.00  0.00     0.029 A 
ATOM     56  C   UNL A   1      42.878  29.819  35.121  1.00  0.00     0.049 A 
ATOM     57  H   UNL A   1      41.319  30.570  33.915  1.00  0.00     0.167 HD
ATOM     58  C   UNL A   1      42.971  28.405  33.078  1.00  0.00     0.074 A 
ATOM     59  C   UNL A   1      43.530  27.328  32.286  1.00  0.00     0.031 C 
ATOM     60  C   UNL A   1      43.426  28.760  34.308  1.00  0.00     0.034 A 
BRANCH  47  61
ATOM     61  C   UNL A   1      40.334  33.483  36.899  1.00  0.00     0.023 A 
ATOM     62  C   UNL A   1      41.192  34.587  37.052  1.00  0.00     0.031 A 
ATOM     63  C   UNL A   1      39.352  33.275  37.882  1.00  0.00     0.131 A 
ATOM     64  C   UNL A   1      41.110  35.387  38.203  1.00  0.00     0.055 A 
ATOM     65  C   UNL A   1      39.218  34.126  38.981  1.00  0.00     0.041 A 
ATOM     66  F   UNL A   1      38.518  32.226  37.803  1.00  0.00    -0.206 F 
ATOM     67  C   UNL A   1      40.111  35.179  39.155  1.00  0.00     0.022 A 
BRANCH  64  68
ATOM     68  S   UNL A   1      42.424  36.600  38.509  1.00  0.00     0.124 S 
ATOM     69  O   UNL A   1      43.464  35.763  39.102  1.00  0.00    -0.237 OA
ATOM     70  O   UNL A   1      42.699  37.111  37.172  1.00  0.00    -0.237 OA
ATOM     71  O   UNL A   1      41.802  37.553  39.426  1.00  0.00    -0.744 OA
ENDBRANCH  64  68
ENDBRANCH  47  61
BRANCH  48  72
ATOM     72  C   UNL A   1      41.112  27.535  28.832  1.00  0.00     0.023 A 
ATOM     73  C   UNL A   1      42.116  27.786  27.884  1.00  0.00     0.031 A 
ATOM     74  C   UNL A   1      40.226  26.470  28.587  1.00  0.00     0.131 A 
ATOM     75  C   UNL A   1      42.179  27.020  26.709  1.00  0.00     0.055 A 
ATOM     76  C   UNL A   1      40.325  25.678  27.442  1.00  0.00     0.041 A 
ATOM     77  F   UNL A   1      39.252  26.181  29.464  1.00  0.00    -0.206 F 
ATOM     78  C   UNL A   1      41.297  25.960  26.487  1.00  0.00     0.022 A 
BRANCH  75  79
ATOM     79  S   UNL A   1      43.374  27.491  25.428  1.00  0.00     0.124 S 
ATOM     80  O   UNL A   1      44.098  28.575  26.080  1.00  0.00    -0.237 OA
ATOM     81  O   UNL A   1      44.116  26.249  25.237  1.00  0.00    -0.237 OA
ATOM     82  O   UNL A   1      42.530  27.889  24.305  1.00  0.00    -0.744 OA
ENDBRANCH  75  79
ENDBRANCH  48  72
BRANCH  60  83
ATOM     83  C   UNL A   1      44.563  27.945  34.873  1.00  0.00     0.023 A 
ATOM     84  C   UNL A   1      44.330  26.777  35.618  1.00  0.00     0.031 A 
ATOM     85  C   UNL A   1      45.893  28.354  34.677  1.00  0.00     0.131 A 
ATOM     86  C   UNL A   1      45.409  26.092  36.195  1.00  0.00     0.055 A 
ATOM     87  C   UNL A   1      46.967  27.633  35.199  1.00  0.00     0.041 A 
ATOM     88  F   UNL A   1      46.171  29.463  33.972  1.00  0.00    -0.206 F 
ATOM     89  C   UNL A   1      46.727  26.503  35.976  1.00  0.00     0.022 A 
BRANCH  86  90
ATOM     90  S   UNL A   1      45.060  24.712  37.319  1.00  0.00     0.124 S 
ATOM     91  O   UNL A   1      43.910  25.211  38.065  1.00  0.00    -0.237 OA
ATOM     92  O   UNL A   1      44.794  23.615  36.395  1.00  0.00    -0.237 OA
ATOM     93  O   UNL A   1      46.293  24.582  38.095  1.00  0.00    -0.744 OA
ENDBRANCH  86  90
ENDBRANCH  60  83
ENDBRANCH  34  35
ENDBRANCH  26  29
ENDBRANCH  24  25
ENDBRANCH  23  24
ENDBRANCH   1  23
TORSDOF 18
ENDMDL
