MODEL 1
REMARK VINA RESULT:     -15.3      0.000      0.000
REMARK SMILES C[C@]12C(=O)N(c3ccc(C(=O)NCCCCNC(=O)c4ccc(-c5c6nc(c(-c7cc(S(=O)(=O)[O-])ccc7F)c7ccc([nH]7)c(-c7cc(S(=O)(=O)[O-])ccc7F)c7nc(c(-c8cc(S(=O)(=O)[O-])ccc8F)c8ccc5[nH]8)C=C7)C=C6)cc4)cc3)C(=O)[C@H]1[C@H]1c3ccccc3[C@@H]2c2ccccc21
REMARK SMILES IDX 15 1 14 2 13 3 12 4 10 5 11 6 9 8 6 9 7 10 84 11 8 12 83 13
REMARK SMILES IDX 5 14 1 15 2 16 3 17 87 18 95 19 4 20 85 21 88 22 94 23 96 24
REMARK SMILES IDX 86 25 89 26 101 27 93 28 97 29 90 30 100 31 92 32 98 33
REMARK SMILES IDX 91 34 99 35 16 36 17 37 18 38 19 40 20 41 21 42 82 43 22 44
REMARK SMILES IDX 81 45 23 46 24 47 25 48 75 49 26 50 80 51 74 52 76 53 27 54
REMARK SMILES IDX 79 55 73 56 72 57 28 59 60 60 40 61 59 62 41 63 44 64 58 65
REMARK SMILES IDX 77 66 42 67 43 68 57 70 78 71 45 72 29 73 30 74 38 75 31 76
REMARK SMILES IDX 37 77 39 78 36 79 32 80 33 81 34 82 35 83 61 84 62 85 70 86
REMARK SMILES IDX 63 87 69 88 71 89 68 90 64 91 65 92 66 93 67 94 46 95 47 96
REMARK SMILES IDX 55 97 48 98 54 99 56 100 53 101 49 102 50 103 51 104 52 105
REMARK H PARENT 12 7 17 39 76 58 44 69
REMARK Flexibility Score: inf
ROOT
ATOM      1  C   UNL A   1      35.984  20.124  24.959  1.00  0.00     0.023 C 
ENDROOT
BRANCH   1   2
ATOM      2  C   UNL A   1      36.045  18.654  24.565  1.00  0.00     0.023 C 
BRANCH   2   3
ATOM      3  C   UNL A   1      34.796  17.841  24.880  1.00  0.00     0.116 C 
BRANCH   3   4
ATOM      4  N   UNL A   1      34.025  17.494  23.700  1.00  0.00    -0.352 N 
ATOM      5  C   UNL A   1      33.014  18.175  23.073  1.00  0.00     0.251 C 
ATOM      6  O   UNL A   1      32.420  17.659  22.129  1.00  0.00    -0.269 OA
ATOM      7  H   UNL A   1      34.268  16.635  23.283  1.00  0.00     0.163 HD
BRANCH   5   8
ATOM      8  C   UNL A   1      32.604  19.518  23.533  1.00  0.00     0.039 A 
ATOM      9  C   UNL A   1      31.751  22.047  24.491  1.00  0.00     0.052 A 
ATOM     10  C   UNL A   1      31.911  20.946  25.355  1.00  0.00     0.027 A 
ATOM     11  C   UNL A   1      32.033  21.840  23.133  1.00  0.00     0.027 A 
ATOM     12  C   UNL A   1      32.330  19.697  24.886  1.00  0.00     0.016 A 
ATOM     13  C   UNL A   1      32.414  20.582  22.653  1.00  0.00     0.016 A 
BRANCH   9  14
ATOM     14  N   UNL A   1      31.137  23.256  24.937  1.00  0.00    -0.250 N 
ATOM     15  C   UNL A   1      29.368  26.288  24.592  1.00  0.00     0.024 C 
ATOM     16  C   UNL A   1      30.700  25.544  24.752  1.00  0.00     0.071 C 
ATOM     17  C   UNL A   1      30.599  24.196  24.088  1.00  0.00     0.241 C 
ATOM     18  C   UNL A   1      30.984  25.212  26.243  1.00  0.00     0.107 C 
ATOM     19  C   UNL A   1      31.933  26.294  24.130  1.00  0.00     0.066 C 
ATOM     20  O   UNL A   1      30.122  24.056  22.973  1.00  0.00    -0.273 OA
ATOM     21  C   UNL A   1      31.111  23.705  26.242  1.00  0.00     0.238 C 
ATOM     22  C   UNL A   1      32.315  25.887  26.709  1.00  0.00     0.063 C 
ATOM     23  C   UNL A   1      33.205  25.487  24.446  1.00  0.00    -0.036 A 
ATOM     24  C   UNL A   1      32.041  27.584  24.932  1.00  0.00    -0.036 A 
ATOM     25  O   UNL A   1      31.182  23.066  27.286  1.00  0.00    -0.274 OA
ATOM     26  C   UNL A   1      33.423  25.292  25.837  1.00  0.00    -0.036 A 
ATOM     27  C   UNL A   1      32.217  27.368  26.328  1.00  0.00    -0.036 A 
ATOM     28  C   UNL A   1      34.056  24.900  23.520  1.00  0.00     0.005 A 
ATOM     29  C   UNL A   1      31.980  28.864  24.402  1.00  0.00     0.005 A 
ATOM     30  C   UNL A   1      34.492  24.535  26.298  1.00  0.00     0.004 A 
ATOM     31  C   UNL A   1      32.335  28.449  27.187  1.00  0.00     0.004 A 
ATOM     32  C   UNL A   1      35.125  24.127  23.987  1.00  0.00     0.000 A 
ATOM     33  C   UNL A   1      32.093  29.944  25.272  1.00  0.00     0.000 A 
ATOM     34  C   UNL A   1      35.344  23.951  25.362  1.00  0.00     0.000 A 
ATOM     35  C   UNL A   1      32.268  29.740  26.650  1.00  0.00     0.000 A 
ENDBRANCH   9  14
ENDBRANCH   5   8
ENDBRANCH   3   4
ENDBRANCH   2   3
ENDBRANCH   1   2
BRANCH   1  36
ATOM     36  C   UNL A   1      37.327  20.823  25.122  1.00  0.00     0.116 C 
BRANCH  36  37
ATOM     37  N   UNL A   1      38.467  19.918  25.214  1.00  0.00    -0.352 N 
ATOM     38  C   UNL A   1      39.674  20.102  25.854  1.00  0.00     0.251 C 
ATOM     39  H   UNL A   1      38.360  19.054  24.754  1.00  0.00     0.163 HD
ATOM     40  O   UNL A   1      40.543  19.239  25.798  1.00  0.00    -0.269 OA
BRANCH  38  41
ATOM     41  C   UNL A   1      39.924  21.384  26.545  1.00  0.00     0.039 A 
ATOM     42  C   UNL A   1      39.310  22.553  26.098  1.00  0.00     0.014 A 
ATOM     43  C   UNL A   1      40.883  21.427  27.558  1.00  0.00     0.014 A 
ATOM     44  C   UNL A   1      39.822  23.780  26.498  1.00  0.00     0.010 A 
ATOM     45  C   UNL A   1      41.324  22.664  28.033  1.00  0.00     0.010 A 
ATOM     46  C   UNL A   1      40.853  23.851  27.451  1.00  0.00    -0.014 A 
BRANCH  46  47
ATOM     47  C   UNL A   1      41.450  25.171  27.786  1.00  0.00     0.031 A 
ATOM     48  C   UNL A   1      42.839  25.528  27.323  1.00  0.00     0.074 A 
ATOM     49  C   UNL A   1      40.704  26.079  28.445  1.00  0.00     0.049 A 
ATOM     50  N   UNL A   1      43.505  26.641  27.502  1.00  0.00    -0.248 NA
ATOM     51  C   UNL A   1      43.580  24.509  26.562  1.00  0.00     0.031 C 
ATOM     52  C   UNL A   1      39.338  25.849  28.915  1.00  0.00     0.029 A 
ATOM     53  N   UNL A   1      40.966  27.377  28.802  1.00  0.00    -0.354 N 
ATOM     54  C   UNL A   1      44.743  26.451  26.896  1.00  0.00     0.074 A 
ATOM     55  C   UNL A   1      44.751  25.103  26.373  1.00  0.00     0.031 C 
ATOM     56  C   UNL A   1      38.858  26.985  29.436  1.00  0.00     0.029 A 
ATOM     57  C   UNL A   1      39.906  28.002  29.415  1.00  0.00     0.049 A 
ATOM     58  H   UNL A   1      41.831  27.819  28.636  1.00  0.00     0.167 HD
ATOM     59  C   UNL A   1      45.769  27.326  26.771  1.00  0.00     0.034 A 
ATOM     60  C   UNL A   1      39.789  29.248  29.917  1.00  0.00     0.034 A 
ATOM     61  C   UNL A   1      45.736  28.676  27.278  1.00  0.00     0.049 A 
ATOM     62  C   UNL A   1      40.959  30.189  29.806  1.00  0.00     0.074 A 
ATOM     63  C   UNL A   1      46.723  29.642  27.197  1.00  0.00     0.029 A 
ATOM     64  N   UNL A   1      44.665  29.255  27.942  1.00  0.00    -0.354 N 
ATOM     65  N   UNL A   1      42.118  29.994  29.223  1.00  0.00    -0.248 NA
ATOM     66  C   UNL A   1      40.814  31.513  30.423  1.00  0.00     0.031 C 
ATOM     67  C   UNL A   1      46.271  30.785  27.858  1.00  0.00     0.029 A 
ATOM     68  C   UNL A   1      44.976  30.558  28.294  1.00  0.00     0.049 A 
ATOM     69  H   UNL A   1      43.810  28.806  28.134  1.00  0.00     0.167 HD
ATOM     70  C   UNL A   1      42.835  31.174  29.391  1.00  0.00     0.074 A 
ATOM     71  C   UNL A   1      41.969  32.087  30.105  1.00  0.00     0.031 C 
ATOM     72  C   UNL A   1      44.100  31.467  28.996  1.00  0.00     0.034 A 
BRANCH  59  73
ATOM     73  C   UNL A   1      47.019  26.880  26.052  1.00  0.00     0.023 A 
ATOM     74  C   UNL A   1      48.063  26.262  26.766  1.00  0.00     0.031 A 
ATOM     75  C   UNL A   1      47.230  27.180  24.694  1.00  0.00     0.131 A 
ATOM     76  C   UNL A   1      49.281  25.992  26.128  1.00  0.00     0.055 A 
ATOM     77  C   UNL A   1      48.431  26.873  24.053  1.00  0.00     0.041 A 
ATOM     78  F   UNL A   1      46.265  27.768  23.968  1.00  0.00    -0.206 F 
ATOM     79  C   UNL A   1      49.469  26.288  24.774  1.00  0.00     0.022 A 
BRANCH  76  80
ATOM     80  S   UNL A   1      50.689  25.303  27.041  1.00  0.00     0.124 S 
ATOM     81  O   UNL A   1      51.159  26.467  27.788  1.00  0.00    -0.237 OA
ATOM     82  O   UNL A   1      50.053  24.262  27.844  1.00  0.00    -0.237 OA
ATOM     83  O   UNL A   1      51.590  24.831  25.995  1.00  0.00    -0.744 OA
ENDBRANCH  76  80
ENDBRANCH  59  73
BRANCH  60  84
ATOM     84  C   UNL A   1      38.489  29.664  30.523  1.00  0.00     0.023 A 
ATOM     85  C   UNL A   1      37.540  30.381  29.773  1.00  0.00     0.031 A 
ATOM     86  C   UNL A   1      38.238  29.466  31.890  1.00  0.00     0.131 A 
ATOM     87  C   UNL A   1      36.431  30.951  30.412  1.00  0.00     0.055 A 
ATOM     88  C   UNL A   1      37.092  29.968  32.508  1.00  0.00     0.041 A 
ATOM     89  F   UNL A   1      39.120  28.798  32.649  1.00  0.00    -0.206 F 
ATOM     90  C   UNL A   1      36.193  30.735  31.772  1.00  0.00     0.022 A 
BRANCH  87  91
ATOM     91  S   UNL A   1      35.353  32.118  29.535  1.00  0.00     0.124 S 
ATOM     92  O   UNL A   1      36.299  33.142  29.107  1.00  0.00    -0.237 OA
ATOM     93  O   UNL A   1      34.806  31.278  28.473  1.00  0.00    -0.237 OA
ATOM     94  O   UNL A   1      34.393  32.531  30.554  1.00  0.00    -0.744 OA
ENDBRANCH  87  91
ENDBRANCH  60  84
BRANCH  72  95
ATOM     95  C   UNL A   1      44.656  32.833  29.316  1.00  0.00     0.023 A 
ATOM     96  C   UNL A   1      44.540  33.877  28.380  1.00  0.00     0.031 A 
ATOM     97  C   UNL A   1      45.433  33.051  30.467  1.00  0.00     0.131 A 
ATOM     98  C   UNL A   1      45.228  35.079  28.590  1.00  0.00     0.055 A 
ATOM     99  C   UNL A   1      46.080  34.267  30.693  1.00  0.00     0.041 A 
ATOM    100  F   UNL A   1      45.583  32.081  31.383  1.00  0.00    -0.206 F 
ATOM    101  C   UNL A   1      45.991  35.282  29.744  1.00  0.00     0.022 A 
BRANCH  98 102
ATOM    102  S   UNL A   1      45.230  36.388  27.333  1.00  0.00     0.124 S 
ATOM    103  O   UNL A   1      43.812  36.480  26.990  1.00  0.00    -0.237 OA
ATOM    104  O   UNL A   1      45.766  37.526  28.076  1.00  0.00    -0.237 OA
ATOM    105  O   UNL A   1      46.091  35.864  26.279  1.00  0.00    -0.744 OA
ENDBRANCH  98 102
ENDBRANCH  72  95
ENDBRANCH  46  47
ENDBRANCH  38  41
ENDBRANCH  36  37
ENDBRANCH   1  36
TORSDOF 15
ENDMDL
MODEL 2
REMARK VINA RESULT:     -15.1      0.324      7.278
REMARK SMILES C[C@]12C(=O)N(c3ccc(C(=O)NCCCCNC(=O)c4ccc(-c5c6nc(c(-c7cc(S(=O)(=O)[O-])ccc7F)c7ccc([nH]7)c(-c7cc(S(=O)(=O)[O-])ccc7F)c7nc(c(-c8cc(S(=O)(=O)[O-])ccc8F)c8ccc5[nH]8)C=C7)C=C6)cc4)cc3)C(=O)[C@H]1[C@H]1c3ccccc3[C@@H]2c2ccccc21
REMARK SMILES IDX 15 1 14 2 13 3 12 4 10 5 11 6 9 8 6 9 7 10 84 11 8 12 83 13
REMARK SMILES IDX 5 14 1 15 2 16 3 17 87 18 95 19 4 20 85 21 88 22 94 23 96 24
REMARK SMILES IDX 86 25 89 26 101 27 93 28 97 29 90 30 100 31 92 32 98 33
REMARK SMILES IDX 91 34 99 35 16 36 17 37 18 38 19 40 20 41 21 42 82 43 22 44
REMARK SMILES IDX 81 45 23 46 24 47 25 48 75 49 26 50 80 51 74 52 76 53 27 54
REMARK SMILES IDX 79 55 73 56 72 57 28 59 60 60 40 61 59 62 41 63 44 64 58 65
REMARK SMILES IDX 77 66 42 67 43 68 57 70 78 71 45 72 29 73 30 74 38 75 31 76
REMARK SMILES IDX 37 77 39 78 36 79 32 80 33 81 34 82 35 83 61 84 62 85 70 86
REMARK SMILES IDX 63 87 69 88 71 89 68 90 64 91 65 92 66 93 67 94 46 95 47 96
REMARK SMILES IDX 55 97 48 98 54 99 56 100 53 101 49 102 50 103 51 104 52 105
REMARK H PARENT 12 7 17 39 76 58 44 69
REMARK Flexibility Score: inf
ROOT
ATOM      1  C   UNL A   1      35.905  20.065  24.997  1.00  0.00     0.023 C 
ENDROOT
BRANCH   1   2
ATOM      2  C   UNL A   1      35.937  18.608  24.555  1.00  0.00     0.023 C 
BRANCH   2   3
ATOM      3  C   UNL A   1      34.667  17.812  24.828  1.00  0.00     0.116 C 
BRANCH   3   4
ATOM      4  N   UNL A   1      33.914  17.503  23.626  1.00  0.00    -0.352 N 
ATOM      5  C   UNL A   1      32.934  18.219  22.989  1.00  0.00     0.251 C 
ATOM      6  O   UNL A   1      32.348  17.733  22.024  1.00  0.00    -0.269 OA
ATOM      7  H   UNL A   1      34.145  16.645  23.202  1.00  0.00     0.163 HD
BRANCH   5   8
ATOM      8  C   UNL A   1      32.547  19.565  23.461  1.00  0.00     0.039 A 
ATOM      9  C   UNL A   1      31.742  22.099  24.445  1.00  0.00     0.052 A 
ATOM     10  C   UNL A   1      31.917  20.996  25.303  1.00  0.00     0.027 A 
ATOM     11  C   UNL A   1      31.983  21.891  23.079  1.00  0.00     0.027 A 
ATOM     12  C   UNL A   1      32.313  19.744  24.822  1.00  0.00     0.016 A 
ATOM     13  C   UNL A   1      32.341  20.631  22.588  1.00  0.00     0.016 A 
BRANCH   9  14
ATOM     14  N   UNL A   1      31.149  23.312  24.910  1.00  0.00    -0.250 N 
ATOM     15  C   UNL A   1      29.408  26.365  24.615  1.00  0.00     0.024 C 
ATOM     16  C   UNL A   1      30.735  25.606  24.746  1.00  0.00     0.071 C 
ATOM     17  C   UNL A   1      30.606  24.263  24.076  1.00  0.00     0.241 C 
ATOM     18  C   UNL A   1      31.043  25.262  26.229  1.00  0.00     0.107 C 
ATOM     19  C   UNL A   1      31.964  26.345  24.104  1.00  0.00     0.066 C 
ATOM     20  O   UNL A   1      30.106  24.134  22.970  1.00  0.00    -0.273 OA
ATOM     21  C   UNL A   1      31.154  23.754  26.218  1.00  0.00     0.238 C 
ATOM     22  C   UNL A   1      32.391  25.920  26.673  1.00  0.00     0.063 C 
ATOM     23  C   UNL A   1      33.233  25.523  24.392  1.00  0.00    -0.036 A 
ATOM     24  C   UNL A   1      32.102  27.630  24.911  1.00  0.00    -0.036 A 
ATOM     25  O   UNL A   1      31.237  23.108  27.257  1.00  0.00    -0.274 OA
ATOM     26  C   UNL A   1      33.475  25.318  25.777  1.00  0.00    -0.036 A 
ATOM     27  C   UNL A   1      32.301  27.404  26.302  1.00  0.00    -0.036 A 
ATOM     28  C   UNL A   1      34.059  24.932  23.446  1.00  0.00     0.005 A 
ATOM     29  C   UNL A   1      32.045  28.913  24.389  1.00  0.00     0.005 A 
ATOM     30  C   UNL A   1      34.544  24.547  26.214  1.00  0.00     0.004 A 
ATOM     31  C   UNL A   1      32.447  28.479  27.165  1.00  0.00     0.004 A 
ATOM     32  C   UNL A   1      35.128  24.145  23.888  1.00  0.00     0.000 A 
ATOM     33  C   UNL A   1      32.186  29.988  25.263  1.00  0.00     0.000 A 
ATOM     34  C   UNL A   1      35.371  23.959  25.258  1.00  0.00     0.000 A 
ATOM     35  C   UNL A   1      32.385  29.773  26.636  1.00  0.00     0.000 A 
ENDBRANCH   9  14
ENDBRANCH   5   8
ENDBRANCH   3   4
ENDBRANCH   2   3
ENDBRANCH   1   2
BRANCH   1  36
ATOM     36  C   UNL A   1      37.257  20.756  25.105  1.00  0.00     0.116 C 
BRANCH  36  37
ATOM     37  N   UNL A   1      38.386  19.844  25.256  1.00  0.00    -0.352 N 
ATOM     38  C   UNL A   1      39.596  20.054  25.882  1.00  0.00     0.251 C 
ATOM     39  H   UNL A   1      38.267  18.953  24.854  1.00  0.00     0.163 HD
ATOM     40  O   UNL A   1      40.453  19.179  25.883  1.00  0.00    -0.269 OA
BRANCH  38  41
ATOM     41  C   UNL A   1      39.863  21.375  26.488  1.00  0.00     0.039 A 
ATOM     42  C   UNL A   1      39.205  22.510  26.014  1.00  0.00     0.014 A 
ATOM     43  C   UNL A   1      40.877  21.487  27.440  1.00  0.00     0.014 A 
ATOM     44  C   UNL A   1      39.718  23.764  26.318  1.00  0.00     0.010 A 
ATOM     45  C   UNL A   1      41.323  22.754  27.822  1.00  0.00     0.010 A 
ATOM     46  C   UNL A   1      40.800  23.901  27.205  1.00  0.00    -0.014 A 
BRANCH  46  47
ATOM     47  C   UNL A   1      41.392  25.246  27.433  1.00  0.00     0.031 A 
ATOM     48  C   UNL A   1      40.645  26.293  28.218  1.00  0.00     0.074 A 
ATOM     49  C   UNL A   1      42.642  25.494  26.995  1.00  0.00     0.049 A 
ATOM     50  N   UNL A   1      41.019  27.507  28.533  1.00  0.00    -0.248 NA
ATOM     51  C   UNL A   1      39.305  25.938  28.713  1.00  0.00     0.031 C 
ATOM     52  C   UNL A   1      43.466  24.544  26.250  1.00  0.00     0.029 A 
ATOM     53  N   UNL A   1      43.448  26.595  27.138  1.00  0.00    -0.354 N 
ATOM     54  C   UNL A   1      39.960  28.064  29.244  1.00  0.00     0.074 A 
ATOM     55  C   UNL A   1      38.912  27.068  29.284  1.00  0.00     0.031 C 
ATOM     56  C   UNL A   1      44.682  25.072  26.061  1.00  0.00     0.029 A 
ATOM     57  C   UNL A   1      44.701  26.431  26.595  1.00  0.00     0.049 A 
ATOM     58  H   UNL A   1      43.157  27.423  27.586  1.00  0.00     0.167 HD
ATOM     59  C   UNL A   1      39.878  29.285  29.824  1.00  0.00     0.034 A 
ATOM     60  C   UNL A   1      45.746  27.280  26.523  1.00  0.00     0.034 A 
ATOM     61  C   UNL A   1      40.942  30.259  29.796  1.00  0.00     0.049 A 
ATOM     62  C   UNL A   1      45.615  28.648  27.137  1.00  0.00     0.074 A 
ATOM     63  C   UNL A   1      40.958  31.522  30.358  1.00  0.00     0.029 A 
ATOM     64  N   UNL A   1      42.176  30.077  29.188  1.00  0.00    -0.354 N 
ATOM     65  N   UNL A   1      44.609  29.154  27.810  1.00  0.00    -0.248 NA
ATOM     66  C   UNL A   1      46.751  29.565  26.978  1.00  0.00     0.031 C 
ATOM     67  C   UNL A   1      42.177  32.124  30.046  1.00  0.00     0.029 A 
ATOM     68  C   UNL A   1      42.952  31.214  29.346  1.00  0.00     0.049 A 
ATOM     69  H   UNL A   1      42.459  29.261  28.716  1.00  0.00     0.167 HD
ATOM     70  C   UNL A   1      44.996  30.442  28.168  1.00  0.00     0.074 A 
ATOM     71  C   UNL A   1      46.339  30.627  27.660  1.00  0.00     0.031 C 
ATOM     72  C   UNL A   1      44.296  31.385  28.846  1.00  0.00     0.034 A 
BRANCH  59  73
ATOM     73  C   UNL A   1      38.611  29.657  30.557  1.00  0.00     0.023 A 
ATOM     74  C   UNL A   1      37.672  30.515  29.954  1.00  0.00     0.031 A 
ATOM     75  C   UNL A   1      38.395  29.267  31.891  1.00  0.00     0.131 A 
ATOM     76  C   UNL A   1      36.577  30.980  30.694  1.00  0.00     0.055 A 
ATOM     77  C   UNL A   1      37.282  29.703  32.611  1.00  0.00     0.041 A 
ATOM     78  F   UNL A   1      39.261  28.449  32.511  1.00  0.00    -0.206 F 
ATOM     79  C   UNL A   1      36.374  30.574  32.017  1.00  0.00     0.022 A 
BRANCH  76  80
ATOM     80  S   UNL A   1      35.407  32.177  29.993  1.00  0.00     0.124 S 
ATOM     81  O   UNL A   1      36.288  33.293  29.656  1.00  0.00    -0.237 OA
ATOM     82  O   UNL A   1      34.867  31.443  28.852  1.00  0.00    -0.237 OA
ATOM     83  O   UNL A   1      34.470  32.432  31.081  1.00  0.00    -0.744 OA
ENDBRANCH  76  80
ENDBRANCH  59  73
BRANCH  60  84
ATOM     84  C   UNL A   1      47.009  26.815  25.877  1.00  0.00     0.023 A 
ATOM     85  C   UNL A   1      47.998  26.147  26.622  1.00  0.00     0.031 A 
ATOM     86  C   UNL A   1      47.301  27.152  24.545  1.00  0.00     0.131 A 
ATOM     87  C   UNL A   1      49.259  25.916  26.059  1.00  0.00     0.055 A 
ATOM     88  C   UNL A   1      48.532  26.849  23.963  1.00  0.00     0.041 A 
ATOM     89  F   UNL A   1      46.394  27.800  23.798  1.00  0.00    -0.206 F 
ATOM     90  C   UNL A   1      49.527  26.248  24.728  1.00  0.00     0.022 A 
BRANCH  87  91
ATOM     91  S   UNL A   1      50.637  25.325  27.081  1.00  0.00     0.124 S 
ATOM     92  O   UNL A   1      49.995  24.294  27.890  1.00  0.00    -0.237 OA
ATOM     93  O   UNL A   1      51.574  24.842  26.069  1.00  0.00    -0.237 OA
ATOM     94  O   UNL A   1      51.067  26.518  27.803  1.00  0.00    -0.744 OA
ENDBRANCH  87  91
ENDBRANCH  60  84
BRANCH  72  95
ATOM     95  C   UNL A   1      44.946  32.724  29.097  1.00  0.00     0.023 A 
ATOM     96  C   UNL A   1      44.951  33.704  28.087  1.00  0.00     0.031 A 
ATOM     97  C   UNL A   1      45.690  32.964  30.265  1.00  0.00     0.131 A 
ATOM     98  C   UNL A   1      45.724  34.861  28.245  1.00  0.00     0.055 A 
ATOM     99  C   UNL A   1      46.423  34.140  30.436  1.00  0.00     0.041 A 
ATOM    100  F   UNL A   1      45.724  32.054  31.251  1.00  0.00    -0.206 F 
ATOM    101  C   UNL A   1      46.454  35.088  29.417  1.00  0.00     0.022 A 
BRANCH  98 102
ATOM    102  S   UNL A   1      45.882  36.073  26.903  1.00  0.00     0.124 S 
ATOM    103  O   UNL A   1      45.946  35.211  25.724  1.00  0.00    -0.237 OA
ATOM    104  O   UNL A   1      44.652  36.848  27.043  1.00  0.00    -0.237 OA
ATOM    105  O   UNL A   1      47.114  36.788  27.217  1.00  0.00    -0.744 OA
ENDBRANCH  98 102
ENDBRANCH  72  95
ENDBRANCH  46  47
ENDBRANCH  38  41
ENDBRANCH  36  37
ENDBRANCH   1  36
TORSDOF 15
ENDMDL
MODEL 3
REMARK VINA RESULT:     -14.5      1.532      1.872
REMARK SMILES C[C@]12C(=O)N(c3ccc(C(=O)NCCCCNC(=O)c4ccc(-c5c6nc(c(-c7cc(S(=O)(=O)[O-])ccc7F)c7ccc([nH]7)c(-c7cc(S(=O)(=O)[O-])ccc7F)c7nc(c(-c8cc(S(=O)(=O)[O-])ccc8F)c8ccc5[nH]8)C=C7)C=C6)cc4)cc3)C(=O)[C@H]1[C@H]1c3ccccc3[C@@H]2c2ccccc21
REMARK SMILES IDX 15 1 14 2 13 3 12 4 10 5 11 6 9 8 6 9 7 10 84 11 8 12 83 13
REMARK SMILES IDX 5 14 1 15 2 16 3 17 87 18 95 19 4 20 85 21 88 22 94 23 96 24
REMARK SMILES IDX 86 25 89 26 101 27 93 28 97 29 90 30 100 31 92 32 98 33
REMARK SMILES IDX 91 34 99 35 16 36 17 37 18 38 19 40 20 41 21 42 82 43 22 44
REMARK SMILES IDX 81 45 23 46 24 47 25 48 75 49 26 50 80 51 74 52 76 53 27 54
REMARK SMILES IDX 79 55 73 56 72 57 28 59 60 60 40 61 59 62 41 63 44 64 58 65
REMARK SMILES IDX 77 66 42 67 43 68 57 70 78 71 45 72 29 73 30 74 38 75 31 76
REMARK SMILES IDX 37 77 39 78 36 79 32 80 33 81 34 82 35 83 61 84 62 85 70 86
REMARK SMILES IDX 63 87 69 88 71 89 68 90 64 91 65 92 66 93 67 94 46 95 47 96
REMARK SMILES IDX 55 97 48 98 54 99 56 100 53 101 49 102 50 103 51 104 52 105
REMARK H PARENT 12 7 17 39 76 58 44 69
REMARK Flexibility Score: inf
ROOT
ATOM      1  C   UNL A   1      37.627  19.556  24.436  1.00  0.00     0.023 C 
ENDROOT
BRANCH   1   2
ATOM      2  C   UNL A   1      36.118  19.535  24.643  1.00  0.00     0.023 C 
BRANCH   2   3
ATOM      3  C   UNL A   1      35.527  18.180  25.012  1.00  0.00     0.116 C 
BRANCH   3   4
ATOM      4  N   UNL A   1      34.718  17.601  23.954  1.00  0.00    -0.352 N 
ATOM      5  C   UNL A   1      33.526  18.019  23.423  1.00  0.00     0.251 C 
ATOM      6  O   UNL A   1      32.951  17.327  22.586  1.00  0.00    -0.269 OA
ATOM      7  H   UNL A   1      35.086  16.779  23.555  1.00  0.00     0.163 HD
BRANCH   5   8
ATOM      8  C   UNL A   1      32.902  19.286  23.860  1.00  0.00     0.039 A 
ATOM      9  C   UNL A   1      31.767  21.769  24.623  1.00  0.00     0.052 A 
ATOM     10  C   UNL A   1      32.101  21.491  23.284  1.00  0.00     0.027 A 
ATOM     11  C   UNL A   1      32.020  20.763  25.567  1.00  0.00     0.027 A 
ATOM     12  C   UNL A   1      32.662  20.268  22.904  1.00  0.00     0.016 A 
ATOM     13  C   UNL A   1      32.618  19.554  25.198  1.00  0.00     0.016 A 
BRANCH   9  14
ATOM     14  N   UNL A   1      31.383  23.081  25.034  1.00  0.00    -0.250 N 
ATOM     15  C   UNL A   1      30.031  26.314  24.635  1.00  0.00     0.024 C 
ATOM     16  C   UNL A   1      31.254  25.393  24.717  1.00  0.00     0.071 C 
ATOM     17  C   UNL A   1      30.890  24.036  24.173  1.00  0.00     0.241 C 
ATOM     18  C   UNL A   1      31.653  25.116  26.193  1.00  0.00     0.107 C 
ATOM     19  C   UNL A   1      32.502  25.911  23.915  1.00  0.00     0.066 C 
ATOM     20  O   UNL A   1      30.277  23.898  23.127  1.00  0.00    -0.273 OA
ATOM     21  C   UNL A   1      31.567  23.610  26.296  1.00  0.00     0.238 C 
ATOM     22  C   UNL A   1      33.110  25.614  26.466  1.00  0.00     0.063 C 
ATOM     23  C   UNL A   1      33.676  24.946  24.163  1.00  0.00    -0.036 A 
ATOM     24  C   UNL A   1      32.880  27.219  24.600  1.00  0.00    -0.036 A 
ATOM     25  O   UNL A   1      31.663  23.034  27.374  1.00  0.00    -0.274 OA
ATOM     26  C   UNL A   1      34.019  24.809  25.535  1.00  0.00    -0.036 A 
ATOM     27  C   UNL A   1      33.179  27.067  25.982  1.00  0.00    -0.036 A 
ATOM     28  C   UNL A   1      34.327  24.183  23.203  1.00  0.00     0.005 A 
ATOM     29  C   UNL A   1      32.941  28.458  23.980  1.00  0.00     0.005 A 
ATOM     30  C   UNL A   1      35.015  23.932  25.943  1.00  0.00     0.004 A 
ATOM     31  C   UNL A   1      33.543  28.170  26.738  1.00  0.00     0.004 A 
ATOM     32  C   UNL A   1      35.322  23.291  23.618  1.00  0.00     0.000 A 
ATOM     33  C   UNL A   1      33.301  29.562  24.747  1.00  0.00     0.000 A 
ATOM     34  C   UNL A   1      35.667  23.171  24.973  1.00  0.00     0.000 A 
ATOM     35  C   UNL A   1      33.598  29.420  26.112  1.00  0.00     0.000 A 
ENDBRANCH   9  14
ENDBRANCH   5   8
ENDBRANCH   3   4
ENDBRANCH   2   3
ENDBRANCH   1   2
BRANCH   1  36
ATOM     36  C   UNL A   1      38.443  20.174  25.563  1.00  0.00     0.116 C 
BRANCH  36  37
ATOM     37  N   UNL A   1      39.695  19.481  25.846  1.00  0.00    -0.352 N 
ATOM     38  C   UNL A   1      40.820  19.949  26.491  1.00  0.00     0.251 C 
ATOM     39  H   UNL A   1      39.743  18.549  25.534  1.00  0.00     0.163 HD
ATOM     40  O   UNL A   1      41.807  19.232  26.612  1.00  0.00    -0.269 OA
BRANCH  38  41
ATOM     41  C   UNL A   1      40.838  21.347  26.967  1.00  0.00     0.039 A 
ATOM     42  C   UNL A   1      40.429  22.380  26.124  1.00  0.00     0.014 A 
ATOM     43  C   UNL A   1      41.396  21.627  28.216  1.00  0.00     0.014 A 
ATOM     44  C   UNL A   1      40.791  23.685  26.431  1.00  0.00     0.010 A 
ATOM     45  C   UNL A   1      41.666  22.952  28.565  1.00  0.00     0.010 A 
ATOM     46  C   UNL A   1      41.437  23.984  27.643  1.00  0.00    -0.014 A 
BRANCH  46  47
ATOM     47  C   UNL A   1      41.903  25.374  27.899  1.00  0.00     0.031 A 
ATOM     48  C   UNL A   1      43.223  25.856  27.357  1.00  0.00     0.074 A 
ATOM     49  C   UNL A   1      41.093  26.224  28.559  1.00  0.00     0.049 A 
ATOM     50  N   UNL A   1      43.773  27.039  27.463  1.00  0.00    -0.248 NA
ATOM     51  C   UNL A   1      44.035  24.890  26.600  1.00  0.00     0.031 C 
ATOM     52  C   UNL A   1      39.782  25.871  29.103  1.00  0.00     0.029 A 
ATOM     53  N   UNL A   1      41.229  27.557  28.856  1.00  0.00    -0.354 N 
ATOM     54  C   UNL A   1      44.996  26.955  26.805  1.00  0.00     0.074 A 
ATOM     55  C   UNL A   1      45.127  25.595  26.333  1.00  0.00     0.031 C 
ATOM     56  C   UNL A   1      39.205  26.971  29.603  1.00  0.00     0.029 A 
ATOM     57  C   UNL A   1      40.136  28.091  29.495  1.00  0.00     0.049 A 
ATOM     58  H   UNL A   1      42.034  28.080  28.632  1.00  0.00     0.167 HD
ATOM     59  C   UNL A   1      45.916  27.929  26.599  1.00  0.00     0.034 A 
ATOM     60  C   UNL A   1      39.907  29.338  29.956  1.00  0.00     0.034 A 
ATOM     61  C   UNL A   1      45.761  29.287  27.056  1.00  0.00     0.049 A 
ATOM     62  C   UNL A   1      40.964  30.391  29.753  1.00  0.00     0.074 A 
ATOM     63  C   UNL A   1      46.633  30.348  26.892  1.00  0.00     0.029 A 
ATOM     64  N   UNL A   1      44.663  29.777  27.749  1.00  0.00    -0.354 N 
ATOM     65  N   UNL A   1      42.110  30.296  29.123  1.00  0.00    -0.248 NA
ATOM     66  C   UNL A   1      40.705  31.717  30.328  1.00  0.00     0.031 C 
ATOM     67  C   UNL A   1      46.090  31.463  27.532  1.00  0.00     0.029 A 
ATOM     68  C   UNL A   1      44.847  31.119  28.038  1.00  0.00     0.049 A 
ATOM     69  H   UNL A   1      43.870  29.249  27.998  1.00  0.00     0.167 HD
ATOM     70  C   UNL A   1      42.703  31.551  29.212  1.00  0.00     0.074 A 
ATOM     71  C   UNL A   1      41.775  32.396  29.933  1.00  0.00     0.031 C 
ATOM     72  C   UNL A   1      43.911  31.959  28.747  1.00  0.00     0.034 A 
BRANCH  59  73
ATOM     73  C   UNL A   1      47.174  27.588  25.838  1.00  0.00     0.023 A 
ATOM     74  C   UNL A   1      47.261  27.859  24.459  1.00  0.00     0.031 A 
ATOM     75  C   UNL A   1      48.231  26.884  26.444  1.00  0.00     0.131 A 
ATOM     76  C   UNL A   1      48.365  27.402  23.726  1.00  0.00     0.055 A 
ATOM     77  C   UNL A   1      49.346  26.465  25.717  1.00  0.00     0.041 A 
ATOM     78  F   UNL A   1      48.196  26.602  27.757  1.00  0.00    -0.206 F 
ATOM     79  C   UNL A   1      49.410  26.712  24.349  1.00  0.00     0.022 A 
BRANCH  76  80
ATOM     80  S   UNL A   1      48.460  27.630  21.929  1.00  0.00     0.124 S 
ATOM     81  O   UNL A   1      48.664  26.259  21.465  1.00  0.00    -0.237 OA
ATOM     82  O   UNL A   1      47.153  28.203  21.623  1.00  0.00    -0.237 OA
ATOM     83  O   UNL A   1      49.600  28.522  21.747  1.00  0.00    -0.744 OA
ENDBRANCH  76  80
ENDBRANCH  59  73
BRANCH  60  84
ATOM     84  C   UNL A   1      38.598  29.638  30.607  1.00  0.00     0.023 A 
ATOM     85  C   UNL A   1      37.631  30.424  29.955  1.00  0.00     0.031 A 
ATOM     86  C   UNL A   1      38.354  29.258  31.937  1.00  0.00     0.131 A 
ATOM     87  C   UNL A   1      36.509  30.878  30.661  1.00  0.00     0.055 A 
ATOM     88  C   UNL A   1      37.196  29.647  32.611  1.00  0.00     0.041 A 
ATOM     89  F   UNL A   1      39.253  28.518  32.604  1.00  0.00    -0.206 F 
ATOM     90  C   UNL A   1      36.277  30.480  31.980  1.00  0.00     0.022 A 
BRANCH  87  91
ATOM     91  S   UNL A   1      35.401  32.123  29.941  1.00  0.00     0.124 S 
ATOM     92  O   UNL A   1      34.920  31.444  28.742  1.00  0.00    -0.237 OA
ATOM     93  O   UNL A   1      34.418  32.297  31.007  1.00  0.00    -0.237 OA
ATOM     94  O   UNL A   1      36.275  33.269  29.711  1.00  0.00    -0.744 OA
ENDBRANCH  87  91
ENDBRANCH  60  84
BRANCH  72  95
ATOM     95  C   UNL A   1      44.330  33.389  28.989  1.00  0.00     0.023 A 
ATOM     96  C   UNL A   1      43.766  34.427  28.225  1.00  0.00     0.031 A 
ATOM     97  C   UNL A   1      45.393  33.698  29.855  1.00  0.00     0.131 A 
ATOM     98  C   UNL A   1      44.298  35.720  28.307  1.00  0.00     0.055 A 
ATOM     99  C   UNL A   1      45.890  34.998  29.967  1.00  0.00     0.041 A 
ATOM    100  F   UNL A   1      45.970  32.740  30.596  1.00  0.00    -0.206 F 
ATOM    101  C   UNL A   1      45.351  36.012  29.180  1.00  0.00     0.022 A 
BRANCH  98 102
ATOM    102  S   UNL A   1      43.703  37.049  27.224  1.00  0.00     0.124 S 
ATOM    103  O   UNL A   1      44.951  37.707  26.841  1.00  0.00    -0.237 OA
ATOM    104  O   UNL A   1      43.040  36.303  26.159  1.00  0.00    -0.237 OA
ATOM    105  O   UNL A   1      42.824  37.835  28.082  1.00  0.00    -0.744 OA
ENDBRANCH  98 102
ENDBRANCH  72  95
ENDBRANCH  46  47
ENDBRANCH  38  41
ENDBRANCH  36  37
ENDBRANCH   1  36
TORSDOF 15
ENDMDL
