MODEL 1
REMARK VINA RESULT:     -10.9      0.000      0.000
REMARK SMILES Cc1occc1C(=O)N[C@@H](C)CC(=O)NCCCCNC(=O)c1ccc(-c2c3nc(c(-c4cc(S(=O)(=O)[O-])ccc4F)c4ccc([nH]4)c(-c4cc(S(=O)(=O)[O-])ccc4F)c4nc(c(-c5cc(S(=O)(=O)[O-])ccc5F)c5ccc2[nH]5)C=C4)C=C3)cc1
REMARK SMILES IDX 17 1 16 2 15 3 13 4 14 5 12 7 10 8 11 9 9 10 7 11 8 12 6 14
REMARK SMILES IDX 1 15 2 16 3 17 4 18 5 19 18 20 19 21 20 22 21 23 22 25 23 26
REMARK SMILES IDX 24 27 85 28 25 29 84 30 26 31 27 32 28 33 78 34 29 35 83 36
REMARK SMILES IDX 77 37 79 38 30 39 82 40 76 41 75 42 31 44 63 45 43 46 62 47
REMARK SMILES IDX 44 48 47 49 61 50 80 51 45 52 46 53 60 55 81 56 48 57 32 58
REMARK SMILES IDX 33 59 41 60 34 61 40 62 42 63 39 64 35 65 36 66 37 67 38 68
REMARK SMILES IDX 64 69 65 70 73 71 66 72 72 73 74 74 71 75 67 76 68 77 69 78
REMARK SMILES IDX 70 79 49 80 50 81 58 82 51 83 57 84 59 85 56 86 52 87 53 88
REMARK SMILES IDX 54 89 55 90
REMARK H PARENT 15 6 9 13 20 24 79 43 47 54
REMARK Flexibility Score: inf
ROOT
ATOM      1  C   UNL A   1      31.431  31.026  25.796  1.00  0.00     0.023 C 
ENDROOT
BRANCH   1   2
ATOM      2  C   UNL A   1      32.443  29.991  26.273  1.00  0.00     0.116 C 
BRANCH   2   3
ATOM      3  N   UNL A   1      31.774  28.803  26.767  1.00  0.00    -0.356 N 
ATOM      4  C   UNL A   1      32.172  27.505  26.690  1.00  0.00     0.222 C 
ATOM      5  O   UNL A   1      31.402  26.617  27.061  1.00  0.00    -0.275 OA
ATOM      6  H   UNL A   1      30.913  28.958  27.220  1.00  0.00     0.163 HD
BRANCH   4   7
ATOM      7  C   UNL A   1      33.547  27.157  26.163  1.00  0.00     0.124 C 
BRANCH   7   8
ATOM      8  C   UNL A   1      33.491  25.980  25.183  1.00  0.00     0.088 C 
ATOM      9  C   UNL A   1      34.524  24.928  25.595  1.00  0.00     0.031 C 
BRANCH   8  10
ATOM     10  N   UNL A   1      33.806  26.363  23.811  1.00  0.00    -0.349 N 
ATOM     11  C   UNL A   1      33.088  26.937  22.794  1.00  0.00     0.255 C 
ATOM     12  O   UNL A   1      33.682  27.029  21.717  1.00  0.00    -0.269 OA
ATOM     13  H   UNL A   1      34.738  26.167  23.561  1.00  0.00     0.164 HD
BRANCH  11  14
ATOM     14  C   UNL A   1      31.773  27.541  22.957  1.00  0.00     0.080 A 
ATOM     15  C   UNL A   1      30.004  25.743  23.813  1.00  0.00     0.088 C 
ATOM     16  C   UNL A   1      30.546  27.046  23.377  1.00  0.00     0.113 A 
ATOM     17  O   UNL A   1      29.594  28.026  23.320  1.00  0.00    -0.469 OA
ATOM     18  C   UNL A   1      30.173  29.139  22.823  1.00  0.00     0.196 A 
ATOM     19  C   UNL A   1      31.496  28.898  22.563  1.00  0.00     0.056 A 
ENDBRANCH  11  14
ENDBRANCH   8  10
ENDBRANCH   7   8
ENDBRANCH   4   7
ENDBRANCH   2   3
ENDBRANCH   1   2
BRANCH   1  20
ATOM     20  C   UNL A   1      31.297  32.262  26.677  1.00  0.00     0.023 C 
BRANCH  20  21
ATOM     21  C   UNL A   1      32.609  32.852  27.165  1.00  0.00     0.116 C 
BRANCH  21  22
ATOM     22  N   UNL A   1      32.477  34.174  27.763  1.00  0.00    -0.352 N 
ATOM     23  C   UNL A   1      33.274  34.750  28.725  1.00  0.00     0.251 C 
ATOM     24  H   UNL A   1      31.726  34.722  27.438  1.00  0.00     0.163 HD
ATOM     25  O   UNL A   1      32.997  35.854  29.183  1.00  0.00    -0.269 OA
BRANCH  23  26
ATOM     26  C   UNL A   1      34.433  33.987  29.231  1.00  0.00     0.039 A 
ATOM     27  C   UNL A   1      35.718  34.379  28.853  1.00  0.00     0.014 A 
ATOM     28  C   UNL A   1      34.245  32.960  30.159  1.00  0.00     0.014 A 
ATOM     29  C   UNL A   1      36.823  33.796  29.477  1.00  0.00     0.010 A 
ATOM     30  C   UNL A   1      35.342  32.446  30.840  1.00  0.00     0.010 A 
ATOM     31  C   UNL A   1      36.642  32.862  30.510  1.00  0.00    -0.014 A 
BRANCH  31  32
ATOM     32  C   UNL A   1      37.792  32.285  31.250  1.00  0.00     0.031 A 
ATOM     33  C   UNL A   1      38.552  31.133  30.651  1.00  0.00     0.074 A 
ATOM     34  C   UNL A   1      38.100  32.740  32.480  1.00  0.00     0.049 A 
ATOM     35  N   UNL A   1      39.488  30.390  31.181  1.00  0.00    -0.248 NA
ATOM     36  C   UNL A   1      38.171  30.739  29.285  1.00  0.00     0.031 C 
ATOM     37  C   UNL A   1      37.413  33.826  33.183  1.00  0.00     0.029 A 
ATOM     38  N   UNL A   1      39.069  32.338  33.366  1.00  0.00    -0.354 N 
ATOM     39  C   UNL A   1      39.797  29.432  30.221  1.00  0.00     0.074 A 
ATOM     40  C   UNL A   1      38.896  29.645  29.110  1.00  0.00     0.031 C 
ATOM     41  C   UNL A   1      37.999  34.022  34.375  1.00  0.00     0.029 A 
ATOM     42  C   UNL A   1      39.072  33.048  34.546  1.00  0.00     0.049 A 
ATOM     43  H   UNL A   1      39.703  31.610  33.176  1.00  0.00     0.167 HD
ATOM     44  C   UNL A   1      40.763  28.482  30.251  1.00  0.00     0.034 A 
ATOM     45  C   UNL A   1      39.848  32.919  35.641  1.00  0.00     0.034 A 
ATOM     46  C   UNL A   1      41.671  28.299  31.356  1.00  0.00     0.049 A 
ATOM     47  C   UNL A   1      40.910  31.847  35.653  1.00  0.00     0.074 A 
ATOM     48  C   UNL A   1      42.703  27.386  31.486  1.00  0.00     0.029 A 
ATOM     49  N   UNL A   1      41.661  29.056  32.520  1.00  0.00    -0.354 N 
ATOM     50  N   UNL A   1      41.201  30.960  34.730  1.00  0.00    -0.248 NA
ATOM     51  C   UNL A   1      41.754  31.766  36.853  1.00  0.00     0.031 C 
ATOM     52  C   UNL A   1      43.289  27.564  32.745  1.00  0.00     0.029 A 
ATOM     53  C   UNL A   1      42.662  28.626  33.376  1.00  0.00     0.049 A 
ATOM     54  H   UNL A   1      41.034  29.791  32.710  1.00  0.00     0.167 HD
ATOM     55  C   UNL A   1      42.285  30.242  35.224  1.00  0.00     0.074 A 
ATOM     56  C   UNL A   1      42.603  30.806  36.520  1.00  0.00     0.031 C 
ATOM     57  C   UNL A   1      42.963  29.210  34.660  1.00  0.00     0.034 A 
BRANCH  44  58
ATOM     58  C   UNL A   1      40.869  27.573  29.052  1.00  0.00     0.023 A 
ATOM     59  C   UNL A   1      41.809  27.815  28.033  1.00  0.00     0.031 A 
ATOM     60  C   UNL A   1      39.996  26.483  28.897  1.00  0.00     0.131 A 
ATOM     61  C   UNL A   1      41.795  27.034  26.869  1.00  0.00     0.055 A 
ATOM     62  C   UNL A   1      40.045  25.656  27.773  1.00  0.00     0.041 A 
ATOM     63  F   UNL A   1      39.065  26.216  29.826  1.00  0.00    -0.206 F 
ATOM     64  C   UNL A   1      40.937  25.939  26.742  1.00  0.00     0.022 A 
BRANCH  61  65
ATOM     65  S   UNL A   1      42.814  27.560  25.465  1.00  0.00     0.124 S 
ATOM     66  O   UNL A   1      42.801  26.361  24.629  1.00  0.00    -0.237 OA
ATOM     67  O   UNL A   1      42.076  28.705  24.948  1.00  0.00    -0.237 OA
ATOM     68  O   UNL A   1      44.105  27.872  26.074  1.00  0.00    -0.744 OA
ENDBRANCH  61  65
ENDBRANCH  44  58
BRANCH  45  69
ATOM     69  C   UNL A   1      39.664  33.813  36.820  1.00  0.00     0.023 A 
ATOM     70  C   UNL A   1      39.070  33.332  37.998  1.00  0.00     0.031 A 
ATOM     71  C   UNL A   1      40.014  35.173  36.766  1.00  0.00     0.131 A 
ATOM     72  C   UNL A   1      38.788  34.215  39.051  1.00  0.00     0.055 A 
ATOM     73  C   UNL A   1      39.780  36.037  37.838  1.00  0.00     0.041 A 
ATOM     74  F   UNL A   1      40.591  35.683  35.667  1.00  0.00    -0.206 F 
ATOM     75  C   UNL A   1      39.148  35.563  38.984  1.00  0.00     0.022 A 
BRANCH  72  76
ATOM     76  S   UNL A   1      37.844  33.596  40.471  1.00  0.00     0.124 S 
ATOM     77  O   UNL A   1      38.745  32.584  41.010  1.00  0.00    -0.237 OA
ATOM     78  O   UNL A   1      37.680  34.804  41.272  1.00  0.00    -0.237 OA
ATOM     79  O   UNL A   1      36.617  33.081  39.865  1.00  0.00    -0.744 OA
ENDBRANCH  72  76
ENDBRANCH  45  69
BRANCH  57  80
ATOM     80  C   UNL A   1      44.147  28.677  35.422  1.00  0.00     0.023 A 
ATOM     81  C   UNL A   1      44.016  27.639  36.361  1.00  0.00     0.031 A 
ATOM     82  C   UNL A   1      45.424  29.226  35.210  1.00  0.00     0.131 A 
ATOM     83  C   UNL A   1      45.135  27.217  37.093  1.00  0.00     0.055 A 
ATOM     84  C   UNL A   1      46.543  28.767  35.905  1.00  0.00     0.041 A 
ATOM     85  F   UNL A   1      45.601  30.218  34.323  1.00  0.00    -0.206 F 
ATOM     86  C   UNL A   1      46.400  27.766  36.861  1.00  0.00     0.022 A 
BRANCH  83  87
ATOM     87  S   UNL A   1      44.903  25.990  38.408  1.00  0.00     0.124 S 
ATOM     88  O   UNL A   1      46.222  25.963  39.034  1.00  0.00    -0.237 OA
ATOM     89  O   UNL A   1      43.832  26.583  39.203  1.00  0.00    -0.237 OA
ATOM     90  O   UNL A   1      44.535  24.776  37.683  1.00  0.00    -0.744 OA
ENDBRANCH  83  87
ENDBRANCH  57  80
ENDBRANCH  31  32
ENDBRANCH  23  26
ENDBRANCH  21  22
ENDBRANCH  20  21
ENDBRANCH   1  20
TORSDOF 17
ENDMDL
MODEL 2
REMARK VINA RESULT:     -10.9      5.876      8.818
REMARK SMILES Cc1occc1C(=O)N[C@@H](C)CC(=O)NCCCCNC(=O)c1ccc(-c2c3nc(c(-c4cc(S(=O)(=O)[O-])ccc4F)c4ccc([nH]4)c(-c4cc(S(=O)(=O)[O-])ccc4F)c4nc(c(-c5cc(S(=O)(=O)[O-])ccc5F)c5ccc2[nH]5)C=C4)C=C3)cc1
REMARK SMILES IDX 17 1 16 2 15 3 13 4 14 5 12 7 10 8 11 9 9 10 7 11 8 12 6 14
REMARK SMILES IDX 1 15 2 16 3 17 4 18 5 19 18 20 19 21 20 22 21 23 22 25 23 26
REMARK SMILES IDX 24 27 85 28 25 29 84 30 26 31 27 32 28 33 78 34 29 35 83 36
REMARK SMILES IDX 77 37 79 38 30 39 82 40 76 41 75 42 31 44 63 45 43 46 62 47
REMARK SMILES IDX 44 48 47 49 61 50 80 51 45 52 46 53 60 55 81 56 48 57 32 58
REMARK SMILES IDX 33 59 41 60 34 61 40 62 42 63 39 64 35 65 36 66 37 67 38 68
REMARK SMILES IDX 64 69 65 70 73 71 66 72 72 73 74 74 71 75 67 76 68 77 69 78
REMARK SMILES IDX 70 79 49 80 50 81 58 82 51 83 57 84 59 85 56 86 52 87 53 88
REMARK SMILES IDX 54 89 55 90
REMARK H PARENT 15 6 9 13 20 24 79 43 47 54
REMARK Flexibility Score: inf
ROOT
ATOM      1  C   UNL A   1      36.370  22.951  23.424  1.00  0.00     0.023 C 
ENDROOT
BRANCH   1   2
ATOM      2  C   UNL A   1      34.979  23.573  23.455  1.00  0.00     0.116 C 
BRANCH   2   3
ATOM      3  N   UNL A   1      34.814  24.413  24.625  1.00  0.00    -0.356 N 
ATOM      4  C   UNL A   1      33.925  25.421  24.833  1.00  0.00     0.222 C 
ATOM      5  O   UNL A   1      34.021  26.107  25.852  1.00  0.00    -0.275 OA
ATOM      6  H   UNL A   1      35.430  24.228  25.371  1.00  0.00     0.163 HD
BRANCH   4   7
ATOM      7  C   UNL A   1      32.825  25.691  23.829  1.00  0.00     0.124 C 
BRANCH   7   8
ATOM      8  C   UNL A   1      31.665  24.704  23.988  1.00  0.00     0.088 C 
ATOM      9  C   UNL A   1      30.436  25.244  23.252  1.00  0.00     0.031 C 
BRANCH   8  10
ATOM     10  N   UNL A   1      31.269  24.507  25.379  1.00  0.00    -0.349 N 
ATOM     11  C   UNL A   1      31.373  23.463  26.260  1.00  0.00     0.255 C 
ATOM     12  O   UNL A   1      30.829  23.639  27.352  1.00  0.00    -0.269 OA
ATOM     13  H   UNL A   1      30.830  25.297  25.770  1.00  0.00     0.164 HD
BRANCH  11  14
ATOM     14  C   UNL A   1      32.179  22.272  26.028  1.00  0.00     0.080 A 
ATOM     15  C   UNL A   1      34.283  22.220  27.661  1.00  0.00     0.088 C 
ATOM     16  C   UNL A   1      33.342  21.785  26.609  1.00  0.00     0.113 A 
ATOM     17  O   UNL A   1      33.726  20.621  26.002  1.00  0.00    -0.469 OA
ATOM     18  C   UNL A   1      32.855  20.369  25.001  1.00  0.00     0.196 A 
ATOM     19  C   UNL A   1      31.903  21.353  24.956  1.00  0.00     0.056 A 
ENDBRANCH  11  14
ENDBRANCH   8  10
ENDBRANCH   7   8
ENDBRANCH   4   7
ENDBRANCH   2   3
ENDBRANCH   1   2
BRANCH   1  20
ATOM     20  C   UNL A   1      36.565  21.744  24.333  1.00  0.00     0.023 C 
BRANCH  20  21
ATOM     21  C   UNL A   1      37.388  22.006  25.584  1.00  0.00     0.116 C 
BRANCH  21  22
ATOM     22  N   UNL A   1      38.505  21.088  25.760  1.00  0.00    -0.352 N 
ATOM     23  C   UNL A   1      39.730  21.347  26.331  1.00  0.00     0.251 C 
ATOM     24  H   UNL A   1      38.366  20.170  25.431  1.00  0.00     0.163 HD
ATOM     25  O   UNL A   1      40.603  20.485  26.348  1.00  0.00    -0.269 OA
BRANCH  23  26
ATOM     26  C   UNL A   1      39.987  22.698  26.867  1.00  0.00     0.039 A 
ATOM     27  C   UNL A   1      40.897  22.848  27.915  1.00  0.00     0.014 A 
ATOM     28  C   UNL A   1      39.410  23.816  26.259  1.00  0.00     0.014 A 
ATOM     29  C   UNL A   1      41.296  24.130  28.296  1.00  0.00     0.010 A 
ATOM     30  C   UNL A   1      39.875  25.084  26.581  1.00  0.00     0.010 A 
ATOM     31  C   UNL A   1      40.826  25.256  27.599  1.00  0.00    -0.014 A 
BRANCH  31  32
ATOM     32  C   UNL A   1      41.295  26.626  27.924  1.00  0.00     0.031 A 
ATOM     33  C   UNL A   1      42.716  27.012  27.615  1.00  0.00     0.074 A 
ATOM     34  C   UNL A   1      40.478  27.486  28.563  1.00  0.00     0.049 A 
ATOM     35  N   UNL A   1      43.372  28.095  27.941  1.00  0.00    -0.248 NA
ATOM     36  C   UNL A   1      43.516  26.023  26.876  1.00  0.00     0.031 C 
ATOM     37  C   UNL A   1      39.092  27.214  28.951  1.00  0.00     0.029 A 
ATOM     38  N   UNL A   1      40.697  28.766  29.008  1.00  0.00    -0.354 N 
ATOM     39  C   UNL A   1      44.665  27.911  27.462  1.00  0.00     0.074 A 
ATOM     40  C   UNL A   1      44.715  26.583  26.891  1.00  0.00     0.031 C 
ATOM     41  C   UNL A   1      38.578  28.301  29.548  1.00  0.00     0.029 A 
ATOM     42  C   UNL A   1      39.607  29.332  29.630  1.00  0.00     0.049 A 
ATOM     43  H   UNL A   1      41.554  29.236  28.894  1.00  0.00     0.167 HD
ATOM     44  C   UNL A   1      45.705  28.780  27.470  1.00  0.00     0.034 A 
ATOM     45  C   UNL A   1      39.462  30.542  30.208  1.00  0.00     0.034 A 
ATOM     46  C   UNL A   1      45.631  30.111  28.020  1.00  0.00     0.049 A 
ATOM     47  C   UNL A   1      40.637  31.488  30.212  1.00  0.00     0.074 A 
ATOM     48  C   UNL A   1      46.612  31.085  28.063  1.00  0.00     0.029 A 
ATOM     49  N   UNL A   1      44.501  30.657  28.616  1.00  0.00    -0.354 N 
ATOM     50  N   UNL A   1      41.848  31.304  29.739  1.00  0.00    -0.248 NA
ATOM     51  C   UNL A   1      40.422  32.807  30.821  1.00  0.00     0.031 C 
ATOM     52  C   UNL A   1      46.089  32.205  28.720  1.00  0.00     0.029 A 
ATOM     53  C   UNL A   1      44.764  31.951  29.036  1.00  0.00     0.049 A 
ATOM     54  H   UNL A   1      43.640  30.193  28.725  1.00  0.00     0.167 HD
ATOM     55  C   UNL A   1      42.526  32.499  29.961  1.00  0.00     0.074 A 
ATOM     56  C   UNL A   1      41.586  33.398  30.600  1.00  0.00     0.031 C 
ATOM     57  C   UNL A   1      43.808  32.830  29.664  1.00  0.00     0.034 A 
BRANCH  44  58
ATOM     58  C   UNL A   1      47.004  28.302  26.871  1.00  0.00     0.023 A 
ATOM     59  C   UNL A   1      47.205  28.290  25.478  1.00  0.00     0.031 A 
ATOM     60  C   UNL A   1      48.034  27.808  27.689  1.00  0.00     0.131 A 
ATOM     61  C   UNL A   1      48.367  27.718  24.943  1.00  0.00     0.055 A 
ATOM     62  C   UNL A   1      49.226  27.317  27.153  1.00  0.00     0.041 A 
ATOM     63  F   UNL A   1      47.891  27.774  29.022  1.00  0.00    -0.206 F 
ATOM     64  C   UNL A   1      49.392  27.254  25.771  1.00  0.00     0.022 A 
BRANCH  61  65
ATOM     65  S   UNL A   1      48.454  27.455  23.152  1.00  0.00     0.124 S 
ATOM     66  O   UNL A   1      49.743  28.064  22.830  1.00  0.00    -0.237 OA
ATOM     67  O   UNL A   1      48.390  26.003  23.040  1.00  0.00    -0.237 OA
ATOM     68  O   UNL A   1      47.289  28.173  22.642  1.00  0.00    -0.744 OA
ENDBRANCH  61  65
ENDBRANCH  44  58
BRANCH  45  69
ATOM     69  C   UNL A   1      38.168  30.942  30.832  1.00  0.00     0.023 A 
ATOM     70  C   UNL A   1      37.196  31.631  30.088  1.00  0.00     0.031 A 
ATOM     71  C   UNL A   1      37.909  30.704  32.193  1.00  0.00     0.131 A 
ATOM     72  C   UNL A   1      36.040  32.111  30.721  1.00  0.00     0.055 A 
ATOM     73  C   UNL A   1      36.732  31.138  32.806  1.00  0.00     0.041 A 
ATOM     74  F   UNL A   1      38.801  30.044  32.948  1.00  0.00    -0.206 F 
ATOM     75  C   UNL A   1      35.796  31.861  32.073  1.00  0.00     0.022 A 
BRANCH  72  76
ATOM     76  S   UNL A   1      34.908  33.164  29.772  1.00  0.00     0.124 S 
ATOM     77  O   UNL A   1      34.276  32.197  28.882  1.00  0.00    -0.237 OA
ATOM     78  O   UNL A   1      34.061  33.718  30.824  1.00  0.00    -0.237 OA
ATOM     79  O   UNL A   1      35.799  34.123  29.122  1.00  0.00    -0.744 OA
ENDBRANCH  72  76
ENDBRANCH  45  69
BRANCH  57  80
ATOM     80  C   UNL A   1      44.236  34.239  29.973  1.00  0.00     0.023 A 
ATOM     81  C   UNL A   1      44.078  35.281  29.042  1.00  0.00     0.031 A 
ATOM     82  C   UNL A   1      44.822  34.540  31.215  1.00  0.00     0.131 A 
ATOM     83  C   UNL A   1      44.549  36.565  29.349  1.00  0.00     0.055 A 
ATOM     84  C   UNL A   1      45.242  35.831  31.535  1.00  0.00     0.041 A 
ATOM     85  F   UNL A   1      44.994  33.579  32.138  1.00  0.00    -0.206 F 
ATOM     86  C   UNL A   1      45.117  36.850  30.594  1.00  0.00     0.022 A 
BRANCH  83  87
ATOM     87  S   UNL A   1      44.476  37.849  28.070  1.00  0.00     0.124 S 
ATOM     88  O   UNL A   1      45.688  37.582  27.302  1.00  0.00    -0.237 OA
ATOM     89  O   UNL A   1      43.216  37.547  27.397  1.00  0.00    -0.237 OA
ATOM     90  O   UNL A   1      44.487  39.095  28.833  1.00  0.00    -0.744 OA
ENDBRANCH  83  87
ENDBRANCH  57  80
ENDBRANCH  31  32
ENDBRANCH  23  26
ENDBRANCH  21  22
ENDBRANCH  20  21
ENDBRANCH   1  20
TORSDOF 17
ENDMDL
MODEL 3
REMARK VINA RESULT:     -10.9      1.865      8.029
REMARK SMILES Cc1occc1C(=O)N[C@@H](C)CC(=O)NCCCCNC(=O)c1ccc(-c2c3nc(c(-c4cc(S(=O)(=O)[O-])ccc4F)c4ccc([nH]4)c(-c4cc(S(=O)(=O)[O-])ccc4F)c4nc(c(-c5cc(S(=O)(=O)[O-])ccc5F)c5ccc2[nH]5)C=C4)C=C3)cc1
REMARK SMILES IDX 17 1 16 2 15 3 13 4 14 5 12 7 10 8 11 9 9 10 7 11 8 12 6 14
REMARK SMILES IDX 1 15 2 16 3 17 4 18 5 19 18 20 19 21 20 22 21 23 22 25 23 26
REMARK SMILES IDX 24 27 85 28 25 29 84 30 26 31 27 32 28 33 78 34 29 35 83 36
REMARK SMILES IDX 77 37 79 38 30 39 82 40 76 41 75 42 31 44 63 45 43 46 62 47
REMARK SMILES IDX 44 48 47 49 61 50 80 51 45 52 46 53 60 55 81 56 48 57 32 58
REMARK SMILES IDX 33 59 41 60 34 61 40 62 42 63 39 64 35 65 36 66 37 67 38 68
REMARK SMILES IDX 64 69 65 70 73 71 66 72 72 73 74 74 71 75 67 76 68 77 69 78
REMARK SMILES IDX 70 79 49 80 50 81 58 82 51 83 57 84 59 85 56 86 52 87 53 88
REMARK SMILES IDX 54 89 55 90
REMARK H PARENT 15 6 9 13 20 24 79 43 47 54
REMARK Flexibility Score: inf
ROOT
ATOM      1  C   UNL A   1      31.269  31.009  26.072  1.00  0.00     0.023 C 
ENDROOT
BRANCH   1   2
ATOM      2  C   UNL A   1      32.373  30.107  26.609  1.00  0.00     0.116 C 
BRANCH   2   3
ATOM      3  N   UNL A   1      31.819  28.893  27.176  1.00  0.00    -0.356 N 
ATOM      4  C   UNL A   1      31.656  27.675  26.592  1.00  0.00     0.222 C 
ATOM      5  O   UNL A   1      31.048  26.793  27.200  1.00  0.00    -0.275 OA
ATOM      6  H   UNL A   1      31.520  28.959  28.112  1.00  0.00     0.163 HD
BRANCH   4   7
ATOM      7  C   UNL A   1      32.224  27.405  25.215  1.00  0.00     0.124 C 
BRANCH   7   8
ATOM      8  C   UNL A   1      31.116  27.301  24.162  1.00  0.00     0.088 C 
ATOM      9  C   UNL A   1      31.227  25.954  23.443  1.00  0.00     0.031 C 
BRANCH   8  10
ATOM     10  N   UNL A   1      31.205  28.334  23.135  1.00  0.00    -0.349 N 
ATOM     11  C   UNL A   1      30.281  29.103  22.477  1.00  0.00     0.255 C 
ATOM     12  O   UNL A   1      30.736  29.824  21.585  1.00  0.00    -0.269 OA
ATOM     13  H   UNL A   1      32.130  28.518  22.853  1.00  0.00     0.164 HD
BRANCH  11  14
ATOM     14  C   UNL A   1      28.880  29.209  22.859  1.00  0.00     0.080 A 
ATOM     15  C   UNL A   1      28.198  31.752  23.264  1.00  0.00     0.088 C 
ATOM     16  C   UNL A   1      28.057  30.285  23.163  1.00  0.00     0.113 A 
ATOM     17  O   UNL A   1      26.806  29.847  23.499  1.00  0.00    -0.469 OA
ATOM     18  C   UNL A   1      26.816  28.497  23.465  1.00  0.00     0.196 A 
ATOM     19  C   UNL A   1      28.059  28.052  23.102  1.00  0.00     0.056 A 
ENDBRANCH  11  14
ENDBRANCH   8  10
ENDBRANCH   7   8
ENDBRANCH   4   7
ENDBRANCH   2   3
ENDBRANCH   1   2
BRANCH   1  20
ATOM     20  C   UNL A   1      31.310  32.452  26.559  1.00  0.00     0.023 C 
BRANCH  20  21
ATOM     21  C   UNL A   1      32.689  32.963  26.944  1.00  0.00     0.116 C 
BRANCH  21  22
ATOM     22  N   UNL A   1      32.665  34.180  27.745  1.00  0.00    -0.352 N 
ATOM     23  C   UNL A   1      33.529  34.545  28.752  1.00  0.00     0.251 C 
ATOM     24  H   UNL A   1      31.944  34.818  27.541  1.00  0.00     0.163 HD
ATOM     25  O   UNL A   1      33.343  35.578  29.388  1.00  0.00    -0.269 OA
BRANCH  23  26
ATOM     26  C   UNL A   1      34.647  33.640  29.086  1.00  0.00     0.039 A 
ATOM     27  C   UNL A   1      35.946  34.012  28.735  1.00  0.00     0.014 A 
ATOM     28  C   UNL A   1      34.415  32.486  29.837  1.00  0.00     0.014 A 
ATOM     29  C   UNL A   1      37.025  33.268  29.216  1.00  0.00     0.010 A 
ATOM     30  C   UNL A   1      35.491  31.801  30.386  1.00  0.00     0.010 A 
ATOM     31  C   UNL A   1      36.808  32.186  30.086  1.00  0.00    -0.014 A 
BRANCH  31  32
ATOM     32  C   UNL A   1      37.935  31.426  30.681  1.00  0.00     0.031 A 
ATOM     33  C   UNL A   1      38.390  31.754  32.078  1.00  0.00     0.074 A 
ATOM     34  C   UNL A   1      38.594  30.509  29.947  1.00  0.00     0.049 A 
ATOM     35  N   UNL A   1      39.434  31.321  32.734  1.00  0.00    -0.248 NA
ATOM     36  C   UNL A   1      37.579  32.736  32.815  1.00  0.00     0.031 C 
ATOM     37  C   UNL A   1      38.272  30.132  28.568  1.00  0.00     0.029 A 
ATOM     38  N   UNL A   1      39.682  29.729  30.254  1.00  0.00    -0.354 N 
ATOM     39  C   UNL A   1      39.416  31.989  33.954  1.00  0.00     0.074 A 
ATOM     40  C   UNL A   1      38.299  32.908  33.912  1.00  0.00     0.031 C 
ATOM     41  C   UNL A   1      39.123  29.175  28.162  1.00  0.00     0.029 A 
ATOM     42  C   UNL A   1      40.080  28.902  29.228  1.00  0.00     0.049 A 
ATOM     43  H   UNL A   1      40.135  29.758  31.127  1.00  0.00     0.167 HD
ATOM     44  C   UNL A   1      40.235  31.829  35.022  1.00  0.00     0.034 A 
ATOM     45  C   UNL A   1      41.107  28.031  29.158  1.00  0.00     0.034 A 
ATOM     46  C   UNL A   1      41.328  30.890  35.057  1.00  0.00     0.049 A 
ATOM     47  C   UNL A   1      42.011  27.879  30.356  1.00  0.00     0.074 A 
ATOM     48  C   UNL A   1      42.208  30.625  36.091  1.00  0.00     0.029 A 
ATOM     49  N   UNL A   1      41.682  30.050  34.009  1.00  0.00    -0.354 N 
ATOM     50  N   UNL A   1      41.969  28.506  31.509  1.00  0.00    -0.248 NA
ATOM     51  C   UNL A   1      43.095  26.893  30.246  1.00  0.00     0.031 C 
ATOM     52  C   UNL A   1      43.120  29.657  35.654  1.00  0.00     0.029 A 
ATOM     53  C   UNL A   1      42.772  29.274  34.369  1.00  0.00     0.049 A 
ATOM     54  H   UNL A   1      41.227  30.012  33.137  1.00  0.00     0.167 HD
ATOM     55  C   UNL A   1      42.998  27.963  32.272  1.00  0.00     0.074 A 
ATOM     56  C   UNL A   1      43.635  26.951  31.453  1.00  0.00     0.031 C 
ATOM     57  C   UNL A   1      43.384  28.267  33.537  1.00  0.00     0.034 A 
BRANCH  44  58
ATOM     58  C   UNL A   1      39.973  32.699  36.225  1.00  0.00     0.023 A 
ATOM     59  C   UNL A   1      39.115  32.279  37.258  1.00  0.00     0.031 A 
ATOM     60  C   UNL A   1      40.541  33.980  36.323  1.00  0.00     0.131 A 
ATOM     61  C   UNL A   1      38.784  33.159  38.297  1.00  0.00     0.055 A 
ATOM     62  C   UNL A   1      40.275  34.822  37.406  1.00  0.00     0.041 A 
ATOM     63  F   UNL A   1      41.350  34.445  35.359  1.00  0.00    -0.206 F 
ATOM     64  C   UNL A   1      39.378  34.420  38.393  1.00  0.00     0.022 A 
BRANCH  61  65
ATOM     65  S   UNL A   1      37.457  32.690  39.438  1.00  0.00     0.124 S 
ATOM     66  O   UNL A   1      37.519  33.771  40.420  1.00  0.00    -0.237 OA
ATOM     67  O   UNL A   1      36.283  32.680  38.574  1.00  0.00    -0.237 OA
ATOM     68  O   UNL A   1      37.877  31.381  39.934  1.00  0.00    -0.744 OA
ENDBRANCH  61  65
ENDBRANCH  44  58
BRANCH  45  69
ATOM     69  C   UNL A   1      41.351  27.234  27.921  1.00  0.00     0.023 A 
ATOM     70  C   UNL A   1      41.029  25.867  27.876  1.00  0.00     0.031 A 
ATOM     71  C   UNL A   1      41.967  27.803  26.794  1.00  0.00     0.131 A 
ATOM     72  C   UNL A   1      41.381  25.102  26.754  1.00  0.00     0.055 A 
ATOM     73  C   UNL A   1      42.266  27.049  25.657  1.00  0.00     0.041 A 
ATOM     74  F   UNL A   1      42.288  29.107  26.782  1.00  0.00    -0.206 F 
ATOM     75  C   UNL A   1      41.987  25.686  25.639  1.00  0.00     0.022 A 
BRANCH  72  76
ATOM     76  S   UNL A   1      41.128  23.307  26.815  1.00  0.00     0.124 S 
ATOM     77  O   UNL A   1      41.659  22.976  28.133  1.00  0.00    -0.237 OA
ATOM     78  O   UNL A   1      39.681  23.201  26.660  1.00  0.00    -0.237 OA
ATOM     79  O   UNL A   1      41.912  22.814  25.685  1.00  0.00    -0.744 OA
ENDBRANCH  72  76
ENDBRANCH  45  69
BRANCH  57  80
ATOM     80  C   UNL A   1      44.505  27.450  34.121  1.00  0.00     0.023 A 
ATOM     81  C   UNL A   1      44.260  26.277  34.856  1.00  0.00     0.031 A 
ATOM     82  C   UNL A   1      45.839  27.860  33.947  1.00  0.00     0.131 A 
ATOM     83  C   UNL A   1      45.331  25.582  35.435  1.00  0.00     0.055 A 
ATOM     84  C   UNL A   1      46.904  27.136  34.483  1.00  0.00     0.041 A 
ATOM     85  F   UNL A   1      46.124  28.973  33.253  1.00  0.00    -0.206 F 
ATOM     86  C   UNL A   1      46.652  25.997  35.242  1.00  0.00     0.022 A 
BRANCH  83  87
ATOM     87  S   UNL A   1      44.972  24.166  36.509  1.00  0.00     0.124 S 
ATOM     88  O   UNL A   1      44.279  24.799  37.627  1.00  0.00    -0.237 OA
ATOM     89  O   UNL A   1      44.151  23.321  35.647  1.00  0.00    -0.237 OA
ATOM     90  O   UNL A   1      46.294  23.628  36.823  1.00  0.00    -0.744 OA
ENDBRANCH  83  87
ENDBRANCH  57  80
ENDBRANCH  31  32
ENDBRANCH  23  26
ENDBRANCH  21  22
ENDBRANCH  20  21
ENDBRANCH   1  20
TORSDOF 17
ENDMDL
