MODEL 1
REMARK VINA RESULT:      -9.4      0.000      0.000
REMARK SMILES CCN(CC)C(=O)C[N@@H+](C)[C@@H](C)c1ccc(C(=O)NCCCCNC(=O)c2ccc(-c3c4nc(c(-c5cc(S(=O)(=O)[O-])ccc5F)c5ccc([nH]5)c(-c5cc(S(=O)(=O)[O-])ccc5F)c5nc(c(-c6cc(S(=O)(=O)[O-])ccc6F)c6ccc3[nH]6)C=C5)C=C4)cc2)o1
REMARK SMILES IDX 20 1 19 2 17 3 18 4 16 6 13 7 14 8 90 9 15 10 11 11 12 12
REMARK SMILES IDX 9 13 10 14 8 16 6 17 3 18 7 19 2 20 1 21 4 22 5 23 21 24
REMARK SMILES IDX 22 25 23 26 24 27 25 28 26 30 27 31 28 32 89 33 29 34 88 35
REMARK SMILES IDX 30 36 31 37 32 38 82 39 33 40 87 41 81 42 83 43 34 44 86 45
REMARK SMILES IDX 80 46 79 47 35 49 67 50 47 51 66 52 48 53 51 54 65 55 84 56
REMARK SMILES IDX 49 57 50 58 64 60 85 61 52 62 36 63 37 64 45 65 38 66 44 67
REMARK SMILES IDX 46 68 43 69 39 70 40 71 41 72 42 73 68 74 69 75 77 76 70 77
REMARK SMILES IDX 76 78 78 79 75 80 71 81 72 82 73 83 74 84 53 85 54 86 62 87
REMARK SMILES IDX 55 88 61 89 63 90 60 91 56 92 57 93 58 94 59 95
REMARK H PARENT 19 5 9 15 24 29 83 48 51 59
REMARK Flexibility Score: inf
ROOT
ATOM      1  C   UNL A   1      39.273  22.509  26.500  1.00  0.00     0.116 C 
ENDROOT
BRANCH   1   2
ATOM      2  N   UNL A   1      39.158  21.288  25.747  1.00  0.00    -0.349 N 
ATOM      3  C   UNL A   1      38.055  20.695  25.184  1.00  0.00     0.287 C 
ATOM      4  O   UNL A   1      38.175  19.485  24.986  1.00  0.00    -0.266 OA
ATOM      5  H   UNL A   1      40.003  20.800  25.615  1.00  0.00     0.163 HD
BRANCH   3   6
ATOM      6  C   UNL A   1      36.889  21.467  24.787  1.00  0.00     0.191 A 
ATOM      7  C   UNL A   1      34.694  21.812  24.821  1.00  0.00     0.161 A 
ATOM      8  C   UNL A   1      35.211  22.672  23.876  1.00  0.00     0.053 A 
ATOM      9  O   UNL A   1      35.708  21.126  25.403  1.00  0.00    -0.450 OA
ATOM     10  C   UNL A   1      36.616  22.482  23.887  1.00  0.00     0.057 A 
BRANCH   7  11
ATOM     11  C   UNL A   1      33.294  21.608  25.330  1.00  0.00     0.248 C 
ATOM     12  C   UNL A   1      32.411  21.092  24.182  1.00  0.00     0.084 C 
BRANCH  11  13
ATOM     13  N   UNL A   1      32.730  22.706  26.161  1.00  0.00    -0.321 N 
ATOM     14  C   UNL A   1      33.026  22.482  27.580  1.00  0.00     0.333 C 
ATOM     15  H   UNL A   1      33.192  23.543  25.802  1.00  0.00     0.348 HD
BRANCH  13  16
ATOM     16  C   UNL A   1      31.273  22.951  26.013  1.00  0.00     0.364 C 
BRANCH  16  17
ATOM     17  C   UNL A   1      30.846  24.423  25.884  1.00  0.00     0.277 C 
ATOM     18  N   UNL A   1      30.367  24.929  24.676  1.00  0.00    -0.338 N 
ATOM     19  O   UNL A   1      31.070  25.167  26.845  1.00  0.00    -0.268 OA
BRANCH  18  20
ATOM     20  C   UNL A   1      29.745  26.256  24.674  1.00  0.00     0.116 C 
ATOM     21  C   UNL A   1      30.670  27.322  24.095  1.00  0.00     0.027 C 
ENDBRANCH  18  20
BRANCH  18  22
ATOM     22  C   UNL A   1      30.625  24.319  23.374  1.00  0.00     0.116 C 
ATOM     23  C   UNL A   1      32.068  24.527  22.939  1.00  0.00     0.027 C 
ENDBRANCH  18  22
ENDBRANCH  16  17
ENDBRANCH  13  16
ENDBRANCH  11  13
ENDBRANCH   7  11
ENDBRANCH   3   6
ENDBRANCH   1   2
BRANCH   1  24
ATOM     24  C   UNL A   1      40.425  22.361  27.492  1.00  0.00     0.023 C 
BRANCH  24  25
ATOM     25  C   UNL A   1      41.792  22.294  26.800  1.00  0.00     0.023 C 
BRANCH  25  26
ATOM     26  C   UNL A   1      41.998  23.348  25.717  1.00  0.00     0.116 C 
BRANCH  26  27
ATOM     27  N   UNL A   1      43.318  23.260  25.108  1.00  0.00    -0.352 N 
ATOM     28  C   UNL A   1      44.297  24.216  25.053  1.00  0.00     0.251 C 
ATOM     29  H   UNL A   1      43.535  22.399  24.681  1.00  0.00     0.163 HD
ATOM     30  O   UNL A   1      45.287  24.046  24.347  1.00  0.00    -0.269 OA
BRANCH  28  31
ATOM     31  C   UNL A   1      44.125  25.450  25.836  1.00  0.00     0.039 A 
ATOM     32  C   UNL A   1      44.497  25.456  27.181  1.00  0.00     0.014 A 
ATOM     33  C   UNL A   1      43.631  26.605  25.223  1.00  0.00     0.014 A 
ATOM     34  C   UNL A   1      44.415  26.643  27.906  1.00  0.00     0.010 A 
ATOM     35  C   UNL A   1      43.609  27.800  25.930  1.00  0.00     0.010 A 
ATOM     36  C   UNL A   1      43.994  27.827  27.278  1.00  0.00    -0.014 A 
BRANCH  36  37
ATOM     37  C   UNL A   1      43.928  29.105  28.027  1.00  0.00     0.031 A 
ATOM     38  C   UNL A   1      45.158  29.959  28.149  1.00  0.00     0.074 A 
ATOM     39  C   UNL A   1      42.782  29.454  28.643  1.00  0.00     0.049 A 
ATOM     40  N   UNL A   1      45.332  31.069  28.817  1.00  0.00    -0.248 NA
ATOM     41  C   UNL A   1      46.363  29.479  27.454  1.00  0.00     0.031 C 
ATOM     42  C   UNL A   1      41.543  28.672  28.630  1.00  0.00     0.029 A 
ATOM     43  N   UNL A   1      42.475  30.549  29.408  1.00  0.00    -0.354 N 
ATOM     44  C   UNL A   1      46.668  31.412  28.638  1.00  0.00     0.074 A 
ATOM     45  C   UNL A   1      47.270  30.358  27.850  1.00  0.00     0.031 C 
ATOM     46  C   UNL A   1      40.606  29.323  29.338  1.00  0.00     0.029 A 
ATOM     47  C   UNL A   1      41.184  30.545  29.885  1.00  0.00     0.049 A 
ATOM     48  H   UNL A   1      43.117  31.270  29.599  1.00  0.00     0.167 HD
ATOM     49  C   UNL A   1      47.324  32.516  29.074  1.00  0.00     0.034 A 
ATOM     50  C   UNL A   1      40.547  31.427  30.680  1.00  0.00     0.034 A 
ATOM     51  C   UNL A   1      46.695  33.562  29.842  1.00  0.00     0.049 A 
ATOM     52  C   UNL A   1      41.294  32.651  31.145  1.00  0.00     0.074 A 
ATOM     53  C   UNL A   1      47.241  34.753  30.286  1.00  0.00     0.029 A 
ATOM     54  N   UNL A   1      45.378  33.540  30.286  1.00  0.00    -0.354 N 
ATOM     55  N   UNL A   1      42.543  32.992  30.919  1.00  0.00    -0.248 NA
ATOM     56  C   UNL A   1      40.542  33.616  31.956  1.00  0.00     0.031 C 
ATOM     57  C   UNL A   1      46.275  35.422  31.047  1.00  0.00     0.029 A 
ATOM     58  C   UNL A   1      45.102  34.684  31.018  1.00  0.00     0.049 A 
ATOM     59  H   UNL A   1      44.735  32.817  30.106  1.00  0.00     0.167 HD
ATOM     60  C   UNL A   1      42.714  34.227  31.537  1.00  0.00     0.074 A 
ATOM     61  C   UNL A   1      41.438  34.575  32.130  1.00  0.00     0.031 C 
ATOM     62  C   UNL A   1      43.824  35.006  31.608  1.00  0.00     0.034 A 
BRANCH  49  63
ATOM     63  C   UNL A   1      48.792  32.625  28.745  1.00  0.00     0.023 A 
ATOM     64  C   UNL A   1      49.238  33.080  27.491  1.00  0.00     0.031 A 
ATOM     65  C   UNL A   1      49.763  32.236  29.685  1.00  0.00     0.131 A 
ATOM     66  C   UNL A   1      50.607  33.060  27.183  1.00  0.00     0.055 A 
ATOM     67  C   UNL A   1      51.129  32.297  29.401  1.00  0.00     0.041 A 
ATOM     68  F   UNL A   1      49.399  31.773  30.892  1.00  0.00    -0.206 F 
ATOM     69  C   UNL A   1      51.558  32.696  28.139  1.00  0.00     0.022 A 
BRANCH  66  70
ATOM     70  S   UNL A   1      51.114  33.380  25.471  1.00  0.00     0.124 S 
ATOM     71  O   UNL A   1      51.077  32.037  24.898  1.00  0.00    -0.237 OA
ATOM     72  O   UNL A   1      50.086  34.304  25.004  1.00  0.00    -0.237 OA
ATOM     73  O   UNL A   1      52.451  33.953  25.612  1.00  0.00    -0.744 OA
ENDBRANCH  66  70
ENDBRANCH  49  63
BRANCH  50  74
ATOM     74  C   UNL A   1      39.134  31.191  31.090  1.00  0.00     0.023 A 
ATOM     75  C   UNL A   1      38.069  31.743  30.362  1.00  0.00     0.031 A 
ATOM     76  C   UNL A   1      38.829  30.440  32.239  1.00  0.00     0.131 A 
ATOM     77  C   UNL A   1      36.750  31.580  30.817  1.00  0.00     0.055 A 
ATOM     78  C   UNL A   1      37.513  30.237  32.660  1.00  0.00     0.041 A 
ATOM     79  F   UNL A   1      39.811  29.881  32.965  1.00  0.00    -0.206 F 
ATOM     80  C   UNL A   1      36.466  30.821  31.955  1.00  0.00     0.022 A 
BRANCH  77  81
ATOM     81  S   UNL A   1      35.418  32.446  29.944  1.00  0.00     0.124 S 
ATOM     82  O   UNL A   1      36.090  33.667  29.511  1.00  0.00    -0.237 OA
ATOM     83  O   UNL A   1      35.077  31.494  28.892  1.00  0.00    -0.237 OA
ATOM     84  O   UNL A   1      34.397  32.626  30.974  1.00  0.00    -0.744 OA
ENDBRANCH  77  81
ENDBRANCH  50  74
BRANCH  62  85
ATOM     85  C   UNL A   1      43.681  36.331  32.315  1.00  0.00     0.023 A 
ATOM     86  C   UNL A   1      43.652  37.545  31.610  1.00  0.00     0.031 A 
ATOM     87  C   UNL A   1      43.587  36.374  33.717  1.00  0.00     0.131 A 
ATOM     88  C   UNL A   1      43.591  38.758  32.313  1.00  0.00     0.055 A 
ATOM     89  C   UNL A   1      43.467  37.581  34.407  1.00  0.00     0.041 A 
ATOM     90  F   UNL A   1      43.611  35.242  34.440  1.00  0.00    -0.206 F 
ATOM     91  C   UNL A   1      43.482  38.782  33.705  1.00  0.00     0.022 A 
BRANCH  88  92
ATOM     92  S   UNL A   1      43.747  40.310  31.386  1.00  0.00     0.124 S 
ATOM     93  O   UNL A   1      43.225  41.285  32.337  1.00  0.00    -0.237 OA
ATOM     94  O   UNL A   1      45.181  40.375  31.127  1.00  0.00    -0.237 OA
ATOM     95  O   UNL A   1      42.915  40.088  30.205  1.00  0.00    -0.744 OA
ENDBRANCH  88  92
ENDBRANCH  62  85
ENDBRANCH  36  37
ENDBRANCH  28  31
ENDBRANCH  26  27
ENDBRANCH  25  26
ENDBRANCH  24  25
ENDBRANCH   1  24
TORSDOF 20
ENDMDL
MODEL 2
REMARK VINA RESULT:      -9.3      4.380      8.121
REMARK SMILES CCN(CC)C(=O)C[N@@H+](C)[C@@H](C)c1ccc(C(=O)NCCCCNC(=O)c2ccc(-c3c4nc(c(-c5cc(S(=O)(=O)[O-])ccc5F)c5ccc([nH]5)c(-c5cc(S(=O)(=O)[O-])ccc5F)c5nc(c(-c6cc(S(=O)(=O)[O-])ccc6F)c6ccc3[nH]6)C=C5)C=C4)cc2)o1
REMARK SMILES IDX 20 1 19 2 17 3 18 4 16 6 13 7 14 8 90 9 15 10 11 11 12 12
REMARK SMILES IDX 9 13 10 14 8 16 6 17 3 18 7 19 2 20 1 21 4 22 5 23 21 24
REMARK SMILES IDX 22 25 23 26 24 27 25 28 26 30 27 31 28 32 89 33 29 34 88 35
REMARK SMILES IDX 30 36 31 37 32 38 82 39 33 40 87 41 81 42 83 43 34 44 86 45
REMARK SMILES IDX 80 46 79 47 35 49 67 50 47 51 66 52 48 53 51 54 65 55 84 56
REMARK SMILES IDX 49 57 50 58 64 60 85 61 52 62 36 63 37 64 45 65 38 66 44 67
REMARK SMILES IDX 46 68 43 69 39 70 40 71 41 72 42 73 68 74 69 75 77 76 70 77
REMARK SMILES IDX 76 78 78 79 75 80 71 81 72 82 73 83 74 84 53 85 54 86 62 87
REMARK SMILES IDX 55 88 61 89 63 90 60 91 56 92 57 93 58 94 59 95
REMARK H PARENT 19 5 9 15 24 29 83 48 51 59
REMARK Flexibility Score: inf
ROOT
ATOM      1  C   UNL A   1      34.811  32.059  29.683  1.00  0.00     0.116 C 
ENDROOT
BRANCH   1   2
ATOM      2  N   UNL A   1      35.762  31.610  28.700  1.00  0.00    -0.349 N 
ATOM      3  C   UNL A   1      35.662  30.612  27.762  1.00  0.00     0.287 C 
ATOM      4  O   UNL A   1      36.745  30.177  27.368  1.00  0.00    -0.266 OA
ATOM      5  H   UNL A   1      36.619  32.094  28.700  1.00  0.00     0.163 HD
BRANCH   3   6
ATOM      6  C   UNL A   1      34.377  30.182  27.234  1.00  0.00     0.191 A 
ATOM      7  C   UNL A   1      33.147  28.741  26.074  1.00  0.00     0.161 A 
ATOM      8  C   UNL A   1      32.337  29.827  26.335  1.00  0.00     0.053 A 
ATOM      9  O   UNL A   1      34.355  28.935  26.658  1.00  0.00    -0.450 OA
ATOM     10  C   UNL A   1      33.110  30.725  27.114  1.00  0.00     0.057 A 
BRANCH   7  11
ATOM     11  C   UNL A   1      32.879  27.437  25.376  1.00  0.00     0.248 C 
ATOM     12  C   UNL A   1      33.601  27.435  24.019  1.00  0.00     0.084 C 
BRANCH  11  13
ATOM     13  N   UNL A   1      31.467  26.967  25.378  1.00  0.00    -0.321 N 
ATOM     14  C   UNL A   1      31.307  25.819  26.278  1.00  0.00     0.333 C 
ATOM     15  H   UNL A   1      30.942  27.781  25.701  1.00  0.00     0.348 HD
BRANCH  13  16
ATOM     16  C   UNL A   1      30.897  26.615  24.053  1.00  0.00     0.364 C 
BRANCH  16  17
ATOM     17  C   UNL A   1      29.463  27.102  23.785  1.00  0.00     0.277 C 
ATOM     18  N   UNL A   1      29.219  28.388  23.304  1.00  0.00    -0.338 N 
ATOM     19  O   UNL A   1      28.535  26.364  24.137  1.00  0.00    -0.268 OA
BRANCH  18  20
ATOM     20  C   UNL A   1      27.869  28.712  22.833  1.00  0.00     0.116 C 
ATOM     21  C   UNL A   1      27.485  30.155  23.140  1.00  0.00     0.027 C 
ENDBRANCH  18  20
BRANCH  18  22
ATOM     22  C   UNL A   1      30.159  29.499  23.428  1.00  0.00     0.116 C 
ATOM     23  C   UNL A   1      31.061  29.604  22.207  1.00  0.00     0.027 C 
ENDBRANCH  18  22
ENDBRANCH  16  17
ENDBRANCH  13  16
ENDBRANCH  11  13
ENDBRANCH   7  11
ENDBRANCH   3   6
ENDBRANCH   1   2
BRANCH   1  24
ATOM     24  C   UNL A   1      35.505  33.050  30.613  1.00  0.00     0.023 C 
BRANCH  24  25
ATOM     25  C   UNL A   1      35.361  32.669  32.092  1.00  0.00     0.023 C 
BRANCH  25  26
ATOM     26  C   UNL A   1      36.653  32.185  32.743  1.00  0.00     0.116 C 
BRANCH  26  27
ATOM     27  N   UNL A   1      36.662  30.743  32.941  1.00  0.00    -0.352 N 
ATOM     28  C   UNL A   1      37.575  29.826  32.493  1.00  0.00     0.251 C 
ATOM     29  H   UNL A   1      35.913  30.379  33.467  1.00  0.00     0.163 HD
ATOM     30  O   UNL A   1      37.345  28.625  32.594  1.00  0.00    -0.269 OA
BRANCH  28  31
ATOM     31  C   UNL A   1      38.820  30.312  31.875  1.00  0.00     0.039 A 
ATOM     32  C   UNL A   1      38.902  30.384  30.484  1.00  0.00     0.014 A 
ATOM     33  C   UNL A   1      39.885  30.728  32.680  1.00  0.00     0.014 A 
ATOM     34  C   UNL A   1      40.045  30.920  29.896  1.00  0.00     0.010 A 
ATOM     35  C   UNL A   1      40.997  31.319  32.093  1.00  0.00     0.010 A 
ATOM     36  C   UNL A   1      41.089  31.413  30.697  1.00  0.00    -0.014 A 
BRANCH  36  37
ATOM     37  C   UNL A   1      42.300  32.013  30.088  1.00  0.00     0.031 A 
ATOM     38  C   UNL A   1      43.531  31.171  29.899  1.00  0.00     0.074 A 
ATOM     39  C   UNL A   1      42.305  33.321  29.771  1.00  0.00     0.049 A 
ATOM     40  N   UNL A   1      44.710  31.518  29.457  1.00  0.00    -0.248 NA
ATOM     41  C   UNL A   1      43.427  29.758  30.296  1.00  0.00     0.031 C 
ATOM     42  C   UNL A   1      41.179  34.241  29.961  1.00  0.00     0.029 A 
ATOM     43  N   UNL A   1      43.289  34.109  29.233  1.00  0.00    -0.354 N 
ATOM     44  C   UNL A   1      45.495  30.372  29.536  1.00  0.00     0.074 A 
ATOM     45  C   UNL A   1      44.671  29.340  30.127  1.00  0.00     0.031 C 
ATOM     46  C   UNL A   1      41.533  35.462  29.528  1.00  0.00     0.029 A 
ATOM     47  C   UNL A   1      42.917  35.423  29.067  1.00  0.00     0.049 A 
ATOM     48  H   UNL A   1      44.180  33.767  28.990  1.00  0.00     0.167 HD
ATOM     49  C   UNL A   1      46.777  30.196  29.132  1.00  0.00     0.034 A 
ATOM     50  C   UNL A   1      43.618  36.475  28.601  1.00  0.00     0.034 A 
ATOM     51  C   UNL A   1      47.571  31.237  28.528  1.00  0.00     0.049 A 
ATOM     52  C   UNL A   1      45.039  36.252  28.150  1.00  0.00     0.074 A 
ATOM     53  C   UNL A   1      48.858  31.159  28.025  1.00  0.00     0.029 A 
ATOM     54  N   UNL A   1      47.154  32.551  28.348  1.00  0.00    -0.354 N 
ATOM     55  N   UNL A   1      45.751  35.148  28.176  1.00  0.00    -0.248 NA
ATOM     56  C   UNL A   1      45.745  37.411  27.591  1.00  0.00     0.031 C 
ATOM     57  C   UNL A   1      49.239  32.437  27.596  1.00  0.00     0.029 A 
ATOM     58  C   UNL A   1      48.166  33.297  27.766  1.00  0.00     0.049 A 
ATOM     59  H   UNL A   1      46.268  32.900  28.599  1.00  0.00     0.167 HD
ATOM     60  C   UNL A   1      46.979  35.476  27.609  1.00  0.00     0.074 A 
ATOM     61  C   UNL A   1      46.903  36.875  27.237  1.00  0.00     0.031 C 
ATOM     62  C   UNL A   1      48.071  34.694  27.411  1.00  0.00     0.034 A 
BRANCH  49  63
ATOM     63  C   UNL A   1      47.394  28.837  29.356  1.00  0.00     0.023 A 
ATOM     64  C   UNL A   1      47.308  27.817  28.391  1.00  0.00     0.031 A 
ATOM     65  C   UNL A   1      48.047  28.542  30.566  1.00  0.00     0.131 A 
ATOM     66  C   UNL A   1      47.794  26.533  28.681  1.00  0.00     0.055 A 
ATOM     67  C   UNL A   1      48.603  27.285  30.816  1.00  0.00     0.041 A 
ATOM     68  F   UNL A   1      48.143  29.467  31.534  1.00  0.00    -0.206 F 
ATOM     69  C   UNL A   1      48.464  26.267  29.877  1.00  0.00     0.022 A 
BRANCH  66  70
ATOM     70  S   UNL A   1      47.411  25.182  27.533  1.00  0.00     0.124 S 
ATOM     71  O   UNL A   1      46.528  24.348  28.345  1.00  0.00    -0.237 OA
ATOM     72  O   UNL A   1      46.783  25.883  26.419  1.00  0.00    -0.237 OA
ATOM     73  O   UNL A   1      48.719  24.597  27.245  1.00  0.00    -0.744 OA
ENDBRANCH  66  70
ENDBRANCH  49  63
BRANCH  50  74
ATOM     74  C   UNL A   1      42.998  37.828  28.538  1.00  0.00     0.023 A 
ATOM     75  C   UNL A   1      43.168  38.750  29.582  1.00  0.00     0.031 A 
ATOM     76  C   UNL A   1      42.194  38.206  27.447  1.00  0.00     0.131 A 
ATOM     77  C   UNL A   1      42.502  39.986  29.540  1.00  0.00     0.055 A 
ATOM     78  C   UNL A   1      41.575  39.456  27.386  1.00  0.00     0.041 A 
ATOM     79  F   UNL A   1      42.009  37.365  26.418  1.00  0.00    -0.206 F 
ATOM     80  C   UNL A   1      41.717  40.349  28.443  1.00  0.00     0.022 A 
BRANCH  77  81
ATOM     81  S   UNL A   1      42.614  41.080  30.982  1.00  0.00     0.124 S 
ATOM     82  O   UNL A   1      43.253  40.213  31.966  1.00  0.00    -0.237 OA
ATOM     83  O   UNL A   1      43.427  42.176  30.468  1.00  0.00    -0.237 OA
ATOM     84  O   UNL A   1      41.219  41.418  31.260  1.00  0.00    -0.744 OA
ENDBRANCH  77  81
ENDBRANCH  50  74
BRANCH  62  85
ATOM     85  C   UNL A   1      49.248  35.333  26.718  1.00  0.00     0.023 A 
ATOM     86  C   UNL A   1      50.282  35.953  27.439  1.00  0.00     0.031 A 
ATOM     87  C   UNL A   1      49.325  35.333  25.314  1.00  0.00     0.131 A 
ATOM     88  C   UNL A   1      51.322  36.598  26.753  1.00  0.00     0.055 A 
ATOM     89  C   UNL A   1      50.392  35.926  24.638  1.00  0.00     0.041 A 
ATOM     90  F   UNL A   1      48.362  34.757  24.577  1.00  0.00    -0.206 F 
ATOM     91  C   UNL A   1      51.391  36.575  25.358  1.00  0.00     0.022 A 
BRANCH  88  92
ATOM     92  S   UNL A   1      52.536  37.549  27.708  1.00  0.00     0.124 S 
ATOM     93  O   UNL A   1      53.748  36.755  27.534  1.00  0.00    -0.237 OA
ATOM     94  O   UNL A   1      52.519  38.843  27.033  1.00  0.00    -0.237 OA
ATOM     95  O   UNL A   1      51.984  37.549  29.061  1.00  0.00    -0.744 OA
ENDBRANCH  88  92
ENDBRANCH  62  85
ENDBRANCH  36  37
ENDBRANCH  28  31
ENDBRANCH  26  27
ENDBRANCH  25  26
ENDBRANCH  24  25
ENDBRANCH   1  24
TORSDOF 20
ENDMDL
MODEL 3
REMARK VINA RESULT:      -9.2      2.248      2.762
REMARK SMILES CCN(CC)C(=O)C[N@@H+](C)[C@@H](C)c1ccc(C(=O)NCCCCNC(=O)c2ccc(-c3c4nc(c(-c5cc(S(=O)(=O)[O-])ccc5F)c5ccc([nH]5)c(-c5cc(S(=O)(=O)[O-])ccc5F)c5nc(c(-c6cc(S(=O)(=O)[O-])ccc6F)c6ccc3[nH]6)C=C5)C=C4)cc2)o1
REMARK SMILES IDX 20 1 19 2 17 3 18 4 16 6 13 7 14 8 90 9 15 10 11 11 12 12
REMARK SMILES IDX 9 13 10 14 8 16 6 17 3 18 7 19 2 20 1 21 4 22 5 23 21 24
REMARK SMILES IDX 22 25 23 26 24 27 25 28 26 30 27 31 28 32 89 33 29 34 88 35
REMARK SMILES IDX 30 36 31 37 32 38 82 39 33 40 87 41 81 42 83 43 34 44 86 45
REMARK SMILES IDX 80 46 79 47 35 49 67 50 47 51 66 52 48 53 51 54 65 55 84 56
REMARK SMILES IDX 49 57 50 58 64 60 85 61 52 62 36 63 37 64 45 65 38 66 44 67
REMARK SMILES IDX 46 68 43 69 39 70 40 71 41 72 42 73 68 74 69 75 77 76 70 77
REMARK SMILES IDX 76 78 78 79 75 80 71 81 72 82 73 83 74 84 53 85 54 86 62 87
REMARK SMILES IDX 55 88 61 89 63 90 60 91 56 92 57 93 58 94 59 95
REMARK H PARENT 19 5 9 15 24 29 83 48 51 59
REMARK Flexibility Score: inf
ROOT
ATOM      1  C   UNL A   1      38.259  24.198  26.561  1.00  0.00     0.116 C 
ENDROOT
BRANCH   1   2
ATOM      2  N   UNL A   1      38.606  22.914  26.012  1.00  0.00    -0.349 N 
ATOM      3  C   UNL A   1      37.843  22.016  25.308  1.00  0.00     0.287 C 
ATOM      4  O   UNL A   1      38.260  20.858  25.343  1.00  0.00    -0.266 OA
ATOM      5  H   UNL A   1      39.538  22.636  26.165  1.00  0.00     0.163 HD
BRANCH   3   6
ATOM      6  C   UNL A   1      36.691  22.436  24.526  1.00  0.00     0.191 A 
ATOM      7  C   UNL A   1      34.493  22.523  24.211  1.00  0.00     0.161 A 
ATOM      8  C   UNL A   1      35.074  22.993  23.052  1.00  0.00     0.053 A 
ATOM      9  O   UNL A   1      35.465  22.237  25.113  1.00  0.00    -0.450 OA
ATOM     10  C   UNL A   1      36.475  22.979  23.271  1.00  0.00     0.057 A 
BRANCH   7  11
ATOM     11  C   UNL A   1      33.055  22.383  24.626  1.00  0.00     0.248 C 
ATOM     12  C   UNL A   1      32.212  22.005  23.397  1.00  0.00     0.084 C 
BRANCH  11  13
ATOM     13  N   UNL A   1      32.514  23.461  25.497  1.00  0.00    -0.321 N 
ATOM     14  C   UNL A   1      31.804  22.887  26.646  1.00  0.00     0.333 C 
ATOM     15  H   UNL A   1      33.344  23.981  25.783  1.00  0.00     0.348 HD
BRANCH  13  16
ATOM     16  C   UNL A   1      31.624  24.448  24.835  1.00  0.00     0.364 C 
BRANCH  16  17
ATOM     17  C   UNL A   1      32.004  25.927  25.016  1.00  0.00     0.277 C 
ATOM     18  N   UNL A   1      31.399  26.924  24.250  1.00  0.00    -0.338 N 
ATOM     19  O   UNL A   1      32.954  26.184  25.764  1.00  0.00    -0.268 OA
BRANCH  18  20
ATOM     20  C   UNL A   1      31.612  28.322  24.634  1.00  0.00     0.116 C 
ATOM     21  C   UNL A   1      30.649  29.266  23.921  1.00  0.00     0.027 C 
ENDBRANCH  18  20
BRANCH  18  22
ATOM     22  C   UNL A   1      30.737  26.683  22.971  1.00  0.00     0.116 C 
ATOM     23  C   UNL A   1      31.745  26.396  21.868  1.00  0.00     0.027 C 
ENDBRANCH  18  22
ENDBRANCH  16  17
ENDBRANCH  13  16
ENDBRANCH  11  13
ENDBRANCH   7  11
ENDBRANCH   3   6
ENDBRANCH   1   2
BRANCH   1  24
ATOM     24  C   UNL A   1      39.147  24.464  27.775  1.00  0.00     0.023 C 
BRANCH  24  25
ATOM     25  C   UNL A   1      40.621  24.653  27.394  1.00  0.00     0.023 C 
BRANCH  25  26
ATOM     26  C   UNL A   1      40.847  25.587  26.210  1.00  0.00     0.116 C 
BRANCH  26  27
ATOM     27  N   UNL A   1      42.124  25.345  25.555  1.00  0.00    -0.352 N 
ATOM     28  C   UNL A   1      43.228  26.155  25.512  1.00  0.00     0.251 C 
ATOM     29  H   UNL A   1      42.205  24.485  25.081  1.00  0.00     0.163 HD
ATOM     30  O   UNL A   1      44.165  25.883  24.767  1.00  0.00    -0.269 OA
BRANCH  28  31
ATOM     31  C   UNL A   1      43.254  27.360  26.357  1.00  0.00     0.039 A 
ATOM     32  C   UNL A   1      44.074  27.377  27.486  1.00  0.00     0.014 A 
ATOM     33  C   UNL A   1      42.494  28.479  26.004  1.00  0.00     0.014 A 
ATOM     34  C   UNL A   1      44.167  28.543  28.243  1.00  0.00     0.010 A 
ATOM     35  C   UNL A   1      42.636  29.658  26.724  1.00  0.00     0.010 A 
ATOM     36  C   UNL A   1      43.468  29.698  27.853  1.00  0.00    -0.014 A 
BRANCH  36  37
ATOM     37  C   UNL A   1      43.577  30.954  28.631  1.00  0.00     0.031 A 
ATOM     38  C   UNL A   1      44.636  31.959  28.274  1.00  0.00     0.074 A 
ATOM     39  C   UNL A   1      42.767  31.153  29.688  1.00  0.00     0.049 A 
ATOM     40  N   UNL A   1      44.947  33.080  28.869  1.00  0.00    -0.248 NA
ATOM     41  C   UNL A   1      45.481  31.638  27.113  1.00  0.00     0.031 C 
ATOM     42  C   UNL A   1      41.737  30.218  30.151  1.00  0.00     0.029 A 
ATOM     43  N   UNL A   1      42.687  32.198  30.572  1.00  0.00    -0.354 N 
ATOM     44  C   UNL A   1      46.032  33.592  28.166  1.00  0.00     0.074 A 
ATOM     45  C   UNL A   1      46.362  32.626  27.141  1.00  0.00     0.031 C 
ATOM     46  C   UNL A   1      41.118  30.742  31.222  1.00  0.00     0.029 A 
ATOM     47  C   UNL A   1      41.729  32.028  31.544  1.00  0.00     0.049 A 
ATOM     48  H   UNL A   1      43.262  32.995  30.516  1.00  0.00     0.167 HD
ATOM     49  C   UNL A   1      46.679  34.771  28.349  1.00  0.00     0.034 A 
ATOM     50  C   UNL A   1      41.390  32.819  32.581  1.00  0.00     0.034 A 
ATOM     51  C   UNL A   1      46.318  35.726  29.367  1.00  0.00     0.049 A 
ATOM     52  C   UNL A   1      42.116  34.128  32.757  1.00  0.00     0.074 A 
ATOM     53  C   UNL A   1      46.859  36.976  29.607  1.00  0.00     0.029 A 
ATOM     54  N   UNL A   1      45.323  35.535  30.319  1.00  0.00    -0.354 N 
ATOM     55  N   UNL A   1      43.104  34.627  32.049  1.00  0.00    -0.248 NA
ATOM     56  C   UNL A   1      41.672  34.987  33.862  1.00  0.00     0.031 C 
ATOM     57  C   UNL A   1      46.234  37.515  30.739  1.00  0.00     0.029 A 
ATOM     58  C   UNL A   1      45.253  36.632  31.162  1.00  0.00     0.049 A 
ATOM     59  H   UNL A   1      44.752  34.735  30.385  1.00  0.00     0.167 HD
ATOM     60  C   UNL A   1      43.377  35.872  32.607  1.00  0.00     0.074 A 
ATOM     61  C   UNL A   1      42.440  36.053  33.697  1.00  0.00     0.031 C 
ATOM     62  C   UNL A   1      44.315  36.787  32.250  1.00  0.00     0.034 A 
BRANCH  49  63
ATOM     63  C   UNL A   1      47.848  35.067  27.442  1.00  0.00     0.023 A 
ATOM     64  C   UNL A   1      49.165  34.724  27.797  1.00  0.00     0.031 A 
ATOM     65  C   UNL A   1      47.650  35.732  26.219  1.00  0.00     0.131 A 
ATOM     66  C   UNL A   1      50.237  35.116  26.981  1.00  0.00     0.055 A 
ATOM     67  C   UNL A   1      48.714  36.047  25.370  1.00  0.00     0.041 A 
ATOM     68  F   UNL A   1      46.418  36.104  25.834  1.00  0.00    -0.206 F 
ATOM     69  C   UNL A   1      50.019  35.752  25.757  1.00  0.00     0.022 A 
BRANCH  66  70
ATOM     70  S   UNL A   1      51.925  34.910  27.610  1.00  0.00     0.124 S 
ATOM     71  O   UNL A   1      51.851  35.615  28.887  1.00  0.00    -0.237 OA
ATOM     72  O   UNL A   1      52.059  33.460  27.688  1.00  0.00    -0.237 OA
ATOM     73  O   UNL A   1      52.751  35.559  26.594  1.00  0.00    -0.744 OA
ENDBRANCH  66  70
ENDBRANCH  49  63
BRANCH  50  74
ATOM     74  C   UNL A   1      40.320  32.403  33.530  1.00  0.00     0.023 A 
ATOM     75  C   UNL A   1      39.029  32.947  33.447  1.00  0.00     0.031 A 
ATOM     76  C   UNL A   1      40.583  31.483  34.560  1.00  0.00     0.131 A 
ATOM     77  C   UNL A   1      38.062  32.605  34.407  1.00  0.00     0.055 A 
ATOM     78  C   UNL A   1      39.604  31.107  35.482  1.00  0.00     0.041 A 
ATOM     79  F   UNL A   1      41.799  30.926  34.678  1.00  0.00    -0.206 F 
ATOM     80  C   UNL A   1      38.338  31.680  35.416  1.00  0.00     0.022 A 
BRANCH  77  81
ATOM     81  S   UNL A   1      36.460  33.453  34.362  1.00  0.00     0.124 S 
ATOM     82  O   UNL A   1      36.835  34.774  33.869  1.00  0.00    -0.237 OA
ATOM     83  O   UNL A   1      35.699  32.616  33.441  1.00  0.00    -0.237 OA
ATOM     84  O   UNL A   1      36.014  33.410  35.754  1.00  0.00    -0.744 OA
ENDBRANCH  77  81
ENDBRANCH  50  74
BRANCH  62  85
ATOM     85  C   UNL A   1      44.333  38.081  33.025  1.00  0.00     0.023 A 
ATOM     86  C   UNL A   1      43.495  39.156  32.686  1.00  0.00     0.031 A 
ATOM     87  C   UNL A   1      45.213  38.240  34.109  1.00  0.00     0.131 A 
ATOM     88  C   UNL A   1      43.596  40.366  33.388  1.00  0.00     0.055 A 
ATOM     89  C   UNL A   1      45.266  39.427  34.842  1.00  0.00     0.041 A 
ATOM     90  F   UNL A   1      46.036  37.244  34.475  1.00  0.00    -0.206 F 
ATOM     91  C   UNL A   1      44.465  40.503  34.473  1.00  0.00     0.022 A 
BRANCH  88  92
ATOM     92  S   UNL A   1      42.639  41.793  32.805  1.00  0.00     0.124 S 
ATOM     93  O   UNL A   1      41.964  42.225  34.024  1.00  0.00    -0.237 OA
ATOM     94  O   UNL A   1      43.680  42.682  32.302  1.00  0.00    -0.237 OA
ATOM     95  O   UNL A   1      41.764  41.224  31.781  1.00  0.00    -0.744 OA
ENDBRANCH  88  92
ENDBRANCH  62  85
ENDBRANCH  36  37
ENDBRANCH  28  31
ENDBRANCH  26  27
ENDBRANCH  25  26
ENDBRANCH  24  25
ENDBRANCH   1  24
TORSDOF 20
ENDMDL
