MODEL 1
REMARK VINA RESULT:      -9.9      0.000      0.000
REMARK SMILES CC1=C(C(=O)NCCCCNC(=O)c2ccc(-c3c4nc(c(-c5cc(S(=O)(=O)[O-])ccc5F)c5ccc([nH]5)c(-c5cc(S(=O)(=O)[O-])ccc5F)c5nc(c(-c6cc(S(=O)(=O)[O-])ccc6F)c6ccc3[nH]6)C=C5)C=C4)cc2)N2C(=O)[C@H](NC(=O)c3cc(C(F)(F)F)nn3C)[C@@H]2SC1
REMARK SMILES IDX 8 1 7 2 6 3 4 4 5 5 3 7 1 8 2 9 96 10 77 11 95 12 78 13
REMARK SMILES IDX 94 14 79 15 80 16 81 17 82 18 83 20 84 21 85 22 92 23 86 24
REMARK SMILES IDX 91 25 93 26 87 27 88 28 89 29 90 30 9 31 10 32 11 33 12 34
REMARK SMILES IDX 13 36 14 37 15 38 76 39 16 40 75 41 17 42 18 43 19 44 69 45
REMARK SMILES IDX 20 46 74 47 68 48 70 49 21 50 73 51 67 52 66 53 22 55 54 56
REMARK SMILES IDX 34 57 53 58 35 59 38 60 52 61 71 62 36 63 37 64 51 66 72 67
REMARK SMILES IDX 39 68 23 69 24 70 32 71 25 72 31 73 33 74 30 75 26 76 27 77
REMARK SMILES IDX 28 78 29 79 55 80 56 81 64 82 57 83 63 84 65 85 62 86 58 87
REMARK SMILES IDX 59 88 60 89 61 90 40 91 41 92 49 93 42 94 48 95 50 96 47 97
REMARK SMILES IDX 43 98 44 99 45 100 46 101
REMARK H PARENT 6 6 81 19 11 35 70 54 38 65
REMARK Flexibility Score: inf
ROOT
ATOM      1  C   UNL A   1      43.180  23.892  28.225  1.00  0.00     0.023 C 
ENDROOT
BRANCH   1   2
ATOM      2  C   UNL A   1      44.651  23.943  28.658  1.00  0.00     0.116 C 
BRANCH   2   3
ATOM      3  N   UNL A   1      45.443  23.211  27.696  1.00  0.00    -0.351 N 
ATOM      4  C   UNL A   1      45.889  23.533  26.457  1.00  0.00     0.268 C 
ATOM      5  O   UNL A   1      46.243  22.606  25.721  1.00  0.00    -0.268 OA
ATOM      6  H   UNL A   1      45.708  22.311  27.996  1.00  0.00     0.163 HD
BRANCH   4   7
ATOM      7  C   UNL A   1      46.059  24.951  25.948  1.00  0.00     0.110 C 
ATOM      8  C   UNL A   1      43.715  25.447  25.099  1.00  0.00     0.043 C 
ATOM      9  C   UNL A   1      45.148  25.788  25.388  1.00  0.00    -0.034 C 
ATOM     10  C   UNL A   1      45.453  27.199  24.892  1.00  0.00     0.104 C 
ATOM     11  N   UNL A   1      47.366  25.332  25.889  1.00  0.00    -0.290 N 
ATOM     12  S   UNL A   1      47.158  27.783  25.061  1.00  0.00    -0.129 SA
ATOM     13  C   UNL A   1      48.547  25.000  26.449  1.00  0.00     0.253 C 
ATOM     14  C   UNL A   1      47.880  26.142  24.816  1.00  0.00     0.181 C 
ATOM     15  O   UNL A   1      48.858  24.343  27.411  1.00  0.00    -0.272 OA
ATOM     16  C   UNL A   1      49.297  25.881  25.401  1.00  0.00     0.206 C 
BRANCH  16  17
ATOM     17  N   UNL A   1      50.023  27.064  25.920  1.00  0.00    -0.336 N 
ATOM     18  C   UNL A   1      50.879  27.901  25.253  1.00  0.00     0.270 C 
ATOM     19  H   UNL A   1      49.869  27.279  26.869  1.00  0.00     0.164 HD
ATOM     20  O   UNL A   1      51.413  28.816  25.874  1.00  0.00    -0.268 OA
BRANCH  18  21
ATOM     21  C   UNL A   1      51.155  27.635  23.864  1.00  0.00     0.126 A 
ATOM     22  C   UNL A   1      50.519  28.066  22.712  1.00  0.00     0.069 A 
ATOM     23  N   UNL A   1      52.209  26.878  23.419  1.00  0.00    -0.262 N 
ATOM     24  C   UNL A   1      51.198  27.449  21.628  1.00  0.00     0.167 A 
ATOM     25  N   UNL A   1      52.239  26.726  22.079  1.00  0.00    -0.168 NA
ATOM     26  C   UNL A   1      53.199  26.178  24.206  1.00  0.00     0.174 C 
BRANCH  24  27
ATOM     27  C   UNL A   1      50.842  27.543  20.166  1.00  0.00     0.435 C 
ATOM     28  F   UNL A   1      49.565  27.153  19.910  1.00  0.00    -0.164 F 
ATOM     29  F   UNL A   1      50.983  28.802  19.675  1.00  0.00    -0.164 F 
ATOM     30  F   UNL A   1      51.646  26.746  19.406  1.00  0.00    -0.164 F 
ENDBRANCH  24  27
ENDBRANCH  18  21
ENDBRANCH  16  17
ENDBRANCH   4   7
ENDBRANCH   2   3
ENDBRANCH   1   2
BRANCH   1  31
ATOM     31  C   UNL A   1      42.722  22.574  27.613  1.00  0.00     0.023 C 
BRANCH  31  32
ATOM     32  C   UNL A   1      42.225  22.689  26.185  1.00  0.00     0.116 C 
BRANCH  32  33
ATOM     33  N   UNL A   1      40.847  22.246  26.012  1.00  0.00    -0.352 N 
ATOM     34  C   UNL A   1      39.691  22.916  26.337  1.00  0.00     0.251 C 
ATOM     35  H   UNL A   1      40.730  21.354  25.611  1.00  0.00     0.163 HD
ATOM     36  O   UNL A   1      38.602  22.365  26.217  1.00  0.00    -0.269 OA
BRANCH  34  37
ATOM     37  C   UNL A   1      39.799  24.284  26.882  1.00  0.00     0.039 A 
ATOM     38  C   UNL A   1      39.585  24.488  28.247  1.00  0.00     0.014 A 
ATOM     39  C   UNL A   1      40.210  25.336  26.062  1.00  0.00     0.014 A 
ATOM     40  C   UNL A   1      39.865  25.737  28.802  1.00  0.00     0.010 A 
ATOM     41  C   UNL A   1      40.584  26.544  26.633  1.00  0.00     0.010 A 
ATOM     42  C   UNL A   1      40.411  26.760  28.009  1.00  0.00    -0.014 A 
BRANCH  42  43
ATOM     43  C   UNL A   1      40.791  28.073  28.590  1.00  0.00     0.031 A 
ATOM     44  C   UNL A   1      42.246  28.426  28.737  1.00  0.00     0.074 A 
ATOM     45  C   UNL A   1      39.836  28.910  29.042  1.00  0.00     0.049 A 
ATOM     46  N   UNL A   1      42.791  29.476  29.294  1.00  0.00    -0.248 NA
ATOM     47  C   UNL A   1      43.217  27.446  28.224  1.00  0.00     0.031 C 
ATOM     48  C   UNL A   1      38.393  28.653  28.997  1.00  0.00     0.029 A 
ATOM     49  N   UNL A   1      39.931  30.143  29.635  1.00  0.00    -0.354 N 
ATOM     50  C   UNL A   1      44.165  29.277  29.211  1.00  0.00     0.074 A 
ATOM     51  C   UNL A   1      44.365  27.971  28.620  1.00  0.00     0.031 C 
ATOM     52  C   UNL A   1      37.741  29.710  29.508  1.00  0.00     0.029 A 
ATOM     53  C   UNL A   1      38.714  30.699  29.962  1.00  0.00     0.049 A 
ATOM     54  H   UNL A   1      40.790  30.591  29.810  1.00  0.00     0.167 HD
ATOM     55  C   UNL A   1      45.167  30.118  29.564  1.00  0.00     0.034 A 
ATOM     56  C   UNL A   1      38.420  31.866  30.568  1.00  0.00     0.034 A 
ATOM     57  C   UNL A   1      44.946  31.424  30.133  1.00  0.00     0.049 A 
ATOM     58  C   UNL A   1      39.553  32.777  30.972  1.00  0.00     0.074 A 
ATOM     59  C   UNL A   1      45.883  32.382  30.479  1.00  0.00     0.029 A 
ATOM     60  N   UNL A   1      43.701  31.954  30.444  1.00  0.00    -0.354 N 
ATOM     61  N   UNL A   1      40.847  32.598  30.835  1.00  0.00    -0.248 NA
ATOM     62  C   UNL A   1      39.186  34.051  31.601  1.00  0.00     0.031 C 
ATOM     63  C   UNL A   1      45.209  33.461  31.061  1.00  0.00     0.029 A 
ATOM     64  C   UNL A   1      43.847  33.213  31.006  1.00  0.00     0.049 A 
ATOM     65  H   UNL A   1      42.840  31.502  30.291  1.00  0.00     0.167 HD
ATOM     66  C   UNL A   1      41.444  33.754  31.331  1.00  0.00     0.074 A 
ATOM     67  C   UNL A   1      40.369  34.627  31.752  1.00  0.00     0.031 C 
ATOM     68  C   UNL A   1      42.762  34.068  31.426  1.00  0.00     0.034 A 
BRANCH  55  69
ATOM     69  C   UNL A   1      46.583  29.636  29.357  1.00  0.00     0.023 A 
ATOM     70  C   UNL A   1      47.226  28.810  30.296  1.00  0.00     0.031 A 
ATOM     71  C   UNL A   1      47.314  30.033  28.223  1.00  0.00     0.131 A 
ATOM     72  C   UNL A   1      48.577  28.474  30.126  1.00  0.00     0.055 A 
ATOM     73  C   UNL A   1      48.632  29.622  28.015  1.00  0.00     0.041 A 
ATOM     74  F   UNL A   1      46.763  30.840  27.303  1.00  0.00    -0.206 F 
ATOM     75  C   UNL A   1      49.277  28.852  28.978  1.00  0.00     0.022 A 
BRANCH  72  76
ATOM     76  S   UNL A   1      49.446  27.666  31.498  1.00  0.00     0.124 S 
ATOM     77  O   UNL A   1      50.606  27.095  30.817  1.00  0.00    -0.237 OA
ATOM     78  O   UNL A   1      49.719  28.779  32.399  1.00  0.00    -0.237 OA
ATOM     79  O   UNL A   1      48.477  26.688  31.988  1.00  0.00    -0.744 OA
ENDBRANCH  72  76
ENDBRANCH  55  69
BRANCH  56  80
ATOM     80  C   UNL A   1      37.003  32.248  30.839  1.00  0.00     0.023 A 
ATOM     81  C   UNL A   1      36.193  32.787  29.827  1.00  0.00     0.031 A 
ATOM     82  C   UNL A   1      36.452  32.132  32.129  1.00  0.00     0.131 A 
ATOM     83  C   UNL A   1      34.900  33.240  30.130  1.00  0.00     0.055 A 
ATOM     84  C   UNL A   1      35.145  32.530  32.413  1.00  0.00     0.041 A 
ATOM     85  F   UNL A   1      37.181  31.618  33.134  1.00  0.00    -0.206 F 
ATOM     86  C   UNL A   1      34.366  33.104  31.413  1.00  0.00     0.022 A 
BRANCH  83  87
ATOM     87  S   UNL A   1      33.958  34.105  28.842  1.00  0.00     0.124 S 
ATOM     88  O   UNL A   1      34.935  35.078  28.365  1.00  0.00    -0.237 OA
ATOM     89  O   UNL A   1      33.633  33.018  27.925  1.00  0.00    -0.237 OA
ATOM     90  O   UNL A   1      32.823  34.666  29.571  1.00  0.00    -0.744 OA
ENDBRANCH  83  87
ENDBRANCH  56  80
BRANCH  68  91
ATOM     91  C   UNL A   1      43.104  35.436  31.965  1.00  0.00     0.023 A 
ATOM     92  C   UNL A   1      43.454  36.501  31.117  1.00  0.00     0.031 A 
ATOM     93  C   UNL A   1      43.083  35.673  33.351  1.00  0.00     0.131 A 
ATOM     94  C   UNL A   1      43.825  37.737  31.666  1.00  0.00     0.055 A 
ATOM     95  C   UNL A   1      43.389  36.924  33.887  1.00  0.00     0.041 A 
ATOM     96  F   UNL A   1      42.756  34.691  34.208  1.00  0.00    -0.206 F 
ATOM     97  C   UNL A   1      43.776  37.961  33.045  1.00  0.00     0.022 A 
BRANCH  94  98
ATOM     98  S   UNL A   1      44.462  39.025  30.559  1.00  0.00     0.124 S 
ATOM     99  O   UNL A   1      43.485  39.004  29.476  1.00  0.00    -0.237 OA
ATOM    100  O   UNL A   1      44.444  40.208  31.412  1.00  0.00    -0.237 OA
ATOM    101  O   UNL A   1      45.794  38.540  30.201  1.00  0.00    -0.744 OA
ENDBRANCH  94  98
ENDBRANCH  68  91
ENDBRANCH  42  43
ENDBRANCH  34  37
ENDBRANCH  32  33
ENDBRANCH  31  32
ENDBRANCH   1  31
TORSDOF 17
ENDMDL
MODEL 2
REMARK VINA RESULT:      -9.7      9.045     13.057
REMARK SMILES CC1=C(C(=O)NCCCCNC(=O)c2ccc(-c3c4nc(c(-c5cc(S(=O)(=O)[O-])ccc5F)c5ccc([nH]5)c(-c5cc(S(=O)(=O)[O-])ccc5F)c5nc(c(-c6cc(S(=O)(=O)[O-])ccc6F)c6ccc3[nH]6)C=C5)C=C4)cc2)N2C(=O)[C@H](NC(=O)c3cc(C(F)(F)F)nn3C)[C@@H]2SC1
REMARK SMILES IDX 8 1 7 2 6 3 4 4 5 5 3 7 1 8 2 9 96 10 77 11 95 12 78 13
REMARK SMILES IDX 94 14 79 15 80 16 81 17 82 18 83 20 84 21 85 22 92 23 86 24
REMARK SMILES IDX 91 25 93 26 87 27 88 28 89 29 90 30 9 31 10 32 11 33 12 34
REMARK SMILES IDX 13 36 14 37 15 38 76 39 16 40 75 41 17 42 18 43 19 44 69 45
REMARK SMILES IDX 20 46 74 47 68 48 70 49 21 50 73 51 67 52 66 53 22 55 54 56
REMARK SMILES IDX 34 57 53 58 35 59 38 60 52 61 71 62 36 63 37 64 51 66 72 67
REMARK SMILES IDX 39 68 23 69 24 70 32 71 25 72 31 73 33 74 30 75 26 76 27 77
REMARK SMILES IDX 28 78 29 79 55 80 56 81 64 82 57 83 63 84 65 85 62 86 58 87
REMARK SMILES IDX 59 88 60 89 61 90 40 91 41 92 49 93 42 94 48 95 50 96 47 97
REMARK SMILES IDX 43 98 44 99 45 100 46 101
REMARK H PARENT 6 6 81 19 11 35 70 54 38 65
REMARK Flexibility Score: inf
ROOT
ATOM      1  C   UNL A   1      46.016  39.771  25.902  1.00  0.00     0.023 C 
ENDROOT
BRANCH   1   2
ATOM      2  C   UNL A   1      46.246  40.740  24.735  1.00  0.00     0.116 C 
BRANCH   2   3
ATOM      3  N   UNL A   1      45.213  41.750  24.760  1.00  0.00    -0.351 N 
ATOM      4  C   UNL A   1      45.083  42.930  24.103  1.00  0.00     0.268 C 
ATOM      5  O   UNL A   1      44.285  43.753  24.565  1.00  0.00    -0.268 OA
ATOM      6  H   UNL A   1      44.465  41.545  25.367  1.00  0.00     0.163 HD
BRANCH   4   7
ATOM      7  C   UNL A   1      45.784  43.269  22.803  1.00  0.00     0.110 C 
ATOM      8  C   UNL A   1      48.065  43.996  23.656  1.00  0.00     0.043 C 
ATOM      9  C   UNL A   1      47.053  43.703  22.588  1.00  0.00    -0.034 C 
ATOM     10  C   UNL A   1      47.638  44.034  21.217  1.00  0.00     0.104 C 
ATOM     11  N   UNL A   1      44.928  43.314  21.744  1.00  0.00    -0.290 N 
ATOM     12  S   UNL A   1      46.549  43.838  19.785  1.00  0.00    -0.129 SA
ATOM     13  C   UNL A   1      43.722  42.827  21.392  1.00  0.00     0.253 C 
ATOM     14  C   UNL A   1      45.054  44.294  20.698  1.00  0.00     0.181 C 
ATOM     15  O   UNL A   1      43.012  41.957  21.834  1.00  0.00    -0.272 OA
ATOM     16  C   UNL A   1      43.691  43.780  20.155  1.00  0.00     0.206 C 
BRANCH  16  17
ATOM     17  N   UNL A   1      43.713  43.141  18.819  1.00  0.00    -0.336 N 
ATOM     18  C   UNL A   1      43.396  43.691  17.604  1.00  0.00     0.270 C 
ATOM     19  H   UNL A   1      43.994  42.197  18.800  1.00  0.00     0.164 HD
ATOM     20  O   UNL A   1      43.445  42.981  16.604  1.00  0.00    -0.268 OA
BRANCH  18  21
ATOM     21  C   UNL A   1      42.968  45.066  17.564  1.00  0.00     0.126 A 
ATOM     22  C   UNL A   1      43.652  46.223  17.229  1.00  0.00     0.069 A 
ATOM     23  N   UNL A   1      41.690  45.483  17.839  1.00  0.00    -0.262 N 
ATOM     24  C   UNL A   1      42.739  47.294  17.416  1.00  0.00     0.167 A 
ATOM     25  N   UNL A   1      41.535  46.823  17.786  1.00  0.00    -0.168 NA
ATOM     26  C   UNL A   1      40.560  44.682  18.250  1.00  0.00     0.174 C 
BRANCH  24  27
ATOM     27  C   UNL A   1      43.025  48.765  17.254  1.00  0.00     0.435 C 
ATOM     28  F   UNL A   1      44.342  49.066  17.409  1.00  0.00    -0.164 F 
ATOM     29  F   UNL A   1      42.646  49.238  16.037  1.00  0.00    -0.164 F 
ATOM     30  F   UNL A   1      42.351  49.508  18.177  1.00  0.00    -0.164 F 
ENDBRANCH  24  27
ENDBRANCH  18  21
ENDBRANCH  16  17
ENDBRANCH   4   7
ENDBRANCH   2   3
ENDBRANCH   1   2
BRANCH   1  31
ATOM     31  C   UNL A   1      46.928  38.551  25.931  1.00  0.00     0.023 C 
BRANCH  31  32
ATOM     32  C   UNL A   1      46.270  37.293  26.463  1.00  0.00     0.116 C 
BRANCH  32  33
ATOM     33  N   UNL A   1      46.092  36.258  25.452  1.00  0.00    -0.352 N 
ATOM     34  C   UNL A   1      45.279  35.149  25.504  1.00  0.00     0.251 C 
ATOM     35  H   UNL A   1      46.621  36.366  24.629  1.00  0.00     0.163 HD
ATOM     36  O   UNL A   1      45.313  34.316  24.606  1.00  0.00    -0.269 OA
BRANCH  34  37
ATOM     37  C   UNL A   1      44.414  34.965  26.686  1.00  0.00     0.039 A 
ATOM     38  C   UNL A   1      44.314  33.696  27.261  1.00  0.00     0.014 A 
ATOM     39  C   UNL A   1      43.790  36.065  27.278  1.00  0.00     0.014 A 
ATOM     40  C   UNL A   1      43.651  33.549  28.479  1.00  0.00     0.010 A 
ATOM     41  C   UNL A   1      43.222  35.934  28.537  1.00  0.00     0.010 A 
ATOM     42  C   UNL A   1      43.141  34.674  29.149  1.00  0.00    -0.014 A 
BRANCH  42  43
ATOM     43  C   UNL A   1      42.500  34.557  30.484  1.00  0.00     0.031 A 
ATOM     44  C   UNL A   1      43.360  34.466  31.715  1.00  0.00     0.074 A 
ATOM     45  C   UNL A   1      41.159  34.464  30.580  1.00  0.00     0.049 A 
ATOM     46  N   UNL A   1      43.008  34.274  32.959  1.00  0.00    -0.248 NA
ATOM     47  C   UNL A   1      44.814  34.566  31.511  1.00  0.00     0.031 C 
ATOM     48  C   UNL A   1      40.224  34.491  29.451  1.00  0.00     0.029 A 
ATOM     49  N   UNL A   1      40.345  34.323  31.676  1.00  0.00    -0.354 N 
ATOM     50  C   UNL A   1      44.194  34.216  33.683  1.00  0.00     0.074 A 
ATOM     51  C   UNL A   1      45.275  34.316  32.726  1.00  0.00     0.031 C 
ATOM     52  C   UNL A   1      38.967  34.403  29.916  1.00  0.00     0.029 A 
ATOM     53  C   UNL A   1      39.004  34.265  31.369  1.00  0.00     0.049 A 
ATOM     54  H   UNL A   1      40.688  34.269  32.597  1.00  0.00     0.167 HD
ATOM     55  C   UNL A   1      44.367  34.122  35.024  1.00  0.00     0.034 A 
ATOM     56  C   UNL A   1      37.930  34.109  32.167  1.00  0.00     0.034 A 
ATOM     57  C   UNL A   1      43.275  34.042  35.963  1.00  0.00     0.049 A 
ATOM     58  C   UNL A   1      38.147  33.983  33.656  1.00  0.00     0.074 A 
ATOM     59  C   UNL A   1      43.330  33.997  37.344  1.00  0.00     0.029 A 
ATOM     60  N   UNL A   1      41.932  33.992  35.615  1.00  0.00    -0.354 N 
ATOM     61  N   UNL A   1      39.275  33.986  34.330  1.00  0.00    -0.248 NA
ATOM     62  C   UNL A   1      36.948  33.844  34.491  1.00  0.00     0.031 C 
ATOM     63  C   UNL A   1      42.026  33.852  37.828  1.00  0.00     0.029 A 
ATOM     64  C   UNL A   1      41.150  33.887  36.755  1.00  0.00     0.049 A 
ATOM     65  H   UNL A   1      41.585  34.026  34.695  1.00  0.00     0.167 HD
ATOM     66  C   UNL A   1      38.915  33.884  35.671  1.00  0.00     0.074 A 
ATOM     67  C   UNL A   1      37.468  33.840  35.709  1.00  0.00     0.031 C 
ATOM     68  C   UNL A   1      39.707  33.837  36.773  1.00  0.00     0.034 A 
BRANCH  55  69
ATOM     69  C   UNL A   1      45.785  34.082  35.540  1.00  0.00     0.023 A 
ATOM     70  C   UNL A   1      46.525  35.258  35.757  1.00  0.00     0.031 A 
ATOM     71  C   UNL A   1      46.419  32.852  35.789  1.00  0.00     0.131 A 
ATOM     72  C   UNL A   1      47.875  35.179  36.130  1.00  0.00     0.055 A 
ATOM     73  C   UNL A   1      47.738  32.783  36.246  1.00  0.00     0.041 A 
ATOM     74  F   UNL A   1      45.773  31.694  35.579  1.00  0.00    -0.206 F 
ATOM     75  C   UNL A   1      48.479  33.950  36.403  1.00  0.00     0.022 A 
BRANCH  72  76
ATOM     76  S   UNL A   1      48.868  36.697  36.107  1.00  0.00     0.124 S 
ATOM     77  O   UNL A   1      49.316  36.777  37.495  1.00  0.00    -0.237 OA
ATOM     78  O   UNL A   1      49.896  36.387  35.120  1.00  0.00    -0.237 OA
ATOM     79  O   UNL A   1      47.910  37.726  35.709  1.00  0.00    -0.744 OA
ENDBRANCH  72  76
ENDBRANCH  55  69
BRANCH  56  80
ATOM     80  C   UNL A   1      36.554  34.054  31.592  1.00  0.00     0.023 A 
ATOM     81  C   UNL A   1      35.648  35.110  31.783  1.00  0.00     0.031 A 
ATOM     82  C   UNL A   1      36.103  32.921  30.890  1.00  0.00     0.131 A 
ATOM     83  C   UNL A   1      34.326  34.991  31.328  1.00  0.00     0.055 A 
ATOM     84  C   UNL A   1      34.804  32.831  30.388  1.00  0.00     0.041 A 
ATOM     85  F   UNL A   1      36.928  31.883  30.675  1.00  0.00    -0.206 F 
ATOM     86  C   UNL A   1      33.902  33.864  30.621  1.00  0.00     0.022 A 
BRANCH  83  87
ATOM     87  S   UNL A   1      33.138  36.292  31.762  1.00  0.00     0.124 S 
ATOM     88  O   UNL A   1      32.764  36.802  30.448  1.00  0.00    -0.237 OA
ATOM     89  O   UNL A   1      32.112  35.537  32.475  1.00  0.00    -0.237 OA
ATOM     90  O   UNL A   1      33.923  37.206  32.587  1.00  0.00    -0.744 OA
ENDBRANCH  83  87
ENDBRANCH  56  80
BRANCH  68  91
ATOM     91  C   UNL A   1      39.014  33.780  38.113  1.00  0.00     0.023 A 
ATOM     92  C   UNL A   1      38.432  32.596  38.598  1.00  0.00     0.031 A 
ATOM     93  C   UNL A   1      38.933  34.933  38.914  1.00  0.00     0.131 A 
ATOM     94  C   UNL A   1      37.744  32.606  39.820  1.00  0.00     0.055 A 
ATOM     95  C   UNL A   1      38.305  34.920  40.159  1.00  0.00     0.041 A 
ATOM     96  F   UNL A   1      39.472  36.092  38.500  1.00  0.00    -0.206 F 
ATOM     97  C   UNL A   1      37.693  33.756  40.613  1.00  0.00     0.022 A 
BRANCH  94  98
ATOM     98  S   UNL A   1      36.835  31.117  40.319  1.00  0.00     0.124 S 
ATOM     99  O   UNL A   1      35.719  31.682  41.070  1.00  0.00    -0.237 OA
ATOM    100  O   UNL A   1      36.497  30.512  39.035  1.00  0.00    -0.237 OA
ATOM    101  O   UNL A   1      37.808  30.374  41.117  1.00  0.00    -0.744 OA
ENDBRANCH  94  98
ENDBRANCH  68  91
ENDBRANCH  42  43
ENDBRANCH  34  37
ENDBRANCH  32  33
ENDBRANCH  31  32
ENDBRANCH   1  31
TORSDOF 17
ENDMDL
MODEL 3
REMARK VINA RESULT:      -9.5      7.902     14.074
REMARK SMILES CC1=C(C(=O)NCCCCNC(=O)c2ccc(-c3c4nc(c(-c5cc(S(=O)(=O)[O-])ccc5F)c5ccc([nH]5)c(-c5cc(S(=O)(=O)[O-])ccc5F)c5nc(c(-c6cc(S(=O)(=O)[O-])ccc6F)c6ccc3[nH]6)C=C5)C=C4)cc2)N2C(=O)[C@H](NC(=O)c3cc(C(F)(F)F)nn3C)[C@@H]2SC1
REMARK SMILES IDX 8 1 7 2 6 3 4 4 5 5 3 7 1 8 2 9 96 10 77 11 95 12 78 13
REMARK SMILES IDX 94 14 79 15 80 16 81 17 82 18 83 20 84 21 85 22 92 23 86 24
REMARK SMILES IDX 91 25 93 26 87 27 88 28 89 29 90 30 9 31 10 32 11 33 12 34
REMARK SMILES IDX 13 36 14 37 15 38 76 39 16 40 75 41 17 42 18 43 19 44 69 45
REMARK SMILES IDX 20 46 74 47 68 48 70 49 21 50 73 51 67 52 66 53 22 55 54 56
REMARK SMILES IDX 34 57 53 58 35 59 38 60 52 61 71 62 36 63 37 64 51 66 72 67
REMARK SMILES IDX 39 68 23 69 24 70 32 71 25 72 31 73 33 74 30 75 26 76 27 77
REMARK SMILES IDX 28 78 29 79 55 80 56 81 64 82 57 83 63 84 65 85 62 86 58 87
REMARK SMILES IDX 59 88 60 89 61 90 40 91 41 92 49 93 42 94 48 95 50 96 47 97
REMARK SMILES IDX 43 98 44 99 45 100 46 101
REMARK H PARENT 6 6 81 19 11 35 70 54 38 65
REMARK Flexibility Score: inf
ROOT
ATOM      1  C   UNL A   1      46.162  38.075  26.819  1.00  0.00     0.023 C 
ENDROOT
BRANCH   1   2
ATOM      2  C   UNL A   1      46.643  39.513  26.587  1.00  0.00     0.116 C 
BRANCH   2   3
ATOM      3  N   UNL A   1      45.871  40.093  25.512  1.00  0.00    -0.351 N 
ATOM      4  C   UNL A   1      45.167  41.249  25.423  1.00  0.00     0.268 C 
ATOM      5  O   UNL A   1      44.324  41.334  24.524  1.00  0.00    -0.268 OA
ATOM      6  H   UNL A   1      45.850  39.548  24.692  1.00  0.00     0.163 HD
BRANCH   4   7
ATOM      7  C   UNL A   1      45.404  42.466  26.295  1.00  0.00     0.110 C 
ATOM      8  C   UNL A   1      47.184  43.687  24.952  1.00  0.00     0.043 C 
ATOM      9  C   UNL A   1      46.238  43.521  26.105  1.00  0.00    -0.034 C 
ATOM     10  C   UNL A   1      46.402  44.685  27.080  1.00  0.00     0.104 C 
ATOM     11  N   UNL A   1      44.820  42.352  27.521  1.00  0.00    -0.290 N 
ATOM     12  S   UNL A   1      45.416  44.639  28.596  1.00  0.00    -0.129 SA
ATOM     13  C   UNL A   1      43.815  41.673  28.107  1.00  0.00     0.253 C 
ATOM     14  C   UNL A   1      45.455  42.834  28.719  1.00  0.00     0.181 C 
ATOM     15  O   UNL A   1      42.884  41.032  27.686  1.00  0.00    -0.272 OA
ATOM     16  C   UNL A   1      44.313  42.138  29.512  1.00  0.00     0.206 C 
BRANCH  16  17
ATOM     17  N   UNL A   1      43.409  43.027  30.280  1.00  0.00    -0.336 N 
ATOM     18  C   UNL A   1      43.013  42.917  31.588  1.00  0.00     0.270 C 
ATOM     19  H   UNL A   1      43.045  43.797  29.787  1.00  0.00     0.164 HD
ATOM     20  O   UNL A   1      42.224  43.744  32.037  1.00  0.00    -0.268 OA
BRANCH  18  21
ATOM     21  C   UNL A   1      43.502  41.805  32.362  1.00  0.00     0.126 A 
ATOM     22  C   UNL A   1      43.137  40.469  32.366  1.00  0.00     0.069 A 
ATOM     23  N   UNL A   1      44.524  41.891  33.273  1.00  0.00    -0.262 N 
ATOM     24  C   UNL A   1      43.925  39.844  33.368  1.00  0.00     0.167 A 
ATOM     25  N   UNL A   1      44.777  40.730  33.914  1.00  0.00    -0.168 NA
ATOM     26  C   UNL A   1      45.270  43.063  33.670  1.00  0.00     0.174 C 
BRANCH  24  27
ATOM     27  C   UNL A   1      43.850  38.405  33.811  1.00  0.00     0.435 C 
ATOM     28  F   UNL A   1      43.093  37.638  32.982  1.00  0.00    -0.164 F 
ATOM     29  F   UNL A   1      45.074  37.821  33.892  1.00  0.00    -0.164 F 
ATOM     30  F   UNL A   1      43.293  38.294  35.051  1.00  0.00    -0.164 F 
ENDBRANCH  24  27
ENDBRANCH  18  21
ENDBRANCH  16  17
ENDBRANCH   4   7
ENDBRANCH   2   3
ENDBRANCH   1   2
BRANCH   1  31
ATOM     31  C   UNL A   1      46.956  36.993  26.099  1.00  0.00     0.023 C 
BRANCH  31  32
ATOM     32  C   UNL A   1      46.438  35.585  26.324  1.00  0.00     0.116 C 
BRANCH  32  33
ATOM     33  N   UNL A   1      45.289  35.249  25.492  1.00  0.00    -0.352 N 
ATOM     34  C   UNL A   1      44.033  34.859  25.896  1.00  0.00     0.251 C 
ATOM     35  H   UNL A   1      45.430  35.309  24.520  1.00  0.00     0.163 HD
ATOM     36  O   UNL A   1      43.197  34.516  25.067  1.00  0.00    -0.269 OA
BRANCH  34  37
ATOM     37  C   UNL A   1      43.740  34.811  27.341  1.00  0.00     0.039 A 
ATOM     38  C   UNL A   1      43.294  35.969  27.981  1.00  0.00     0.014 A 
ATOM     39  C   UNL A   1      43.810  33.599  28.032  1.00  0.00     0.014 A 
ATOM     40  C   UNL A   1      42.840  35.891  29.297  1.00  0.00     0.010 A 
ATOM     41  C   UNL A   1      43.263  33.504  29.305  1.00  0.00     0.010 A 
ATOM     42  C   UNL A   1      42.777  34.649  29.953  1.00  0.00    -0.014 A 
BRANCH  42  43
ATOM     43  C   UNL A   1      42.225  34.525  31.326  1.00  0.00     0.031 A 
ATOM     44  C   UNL A   1      40.736  34.458  31.524  1.00  0.00     0.074 A 
ATOM     45  C   UNL A   1      43.055  34.541  32.389  1.00  0.00     0.049 A 
ATOM     46  N   UNL A   1      40.048  34.435  32.636  1.00  0.00    -0.248 NA
ATOM     47  C   UNL A   1      39.909  34.456  30.307  1.00  0.00     0.031 C 
ATOM     48  C   UNL A   1      44.515  34.651  32.322  1.00  0.00     0.029 A 
ATOM     49  N   UNL A   1      42.793  34.470  33.733  1.00  0.00    -0.354 N 
ATOM     50  C   UNL A   1      38.711  34.430  32.253  1.00  0.00     0.074 A 
ATOM     51  C   UNL A   1      38.687  34.531  30.809  1.00  0.00     0.031 C 
ATOM     52  C   UNL A   1      45.019  34.608  33.567  1.00  0.00     0.029 A 
ATOM     53  C   UNL A   1      43.920  34.516  34.523  1.00  0.00     0.049 A 
ATOM     54  H   UNL A   1      41.883  34.393  34.100  1.00  0.00     0.167 HD
ATOM     55  C   UNL A   1      37.606  34.319  33.029  1.00  0.00     0.034 A 
ATOM     56  C   UNL A   1      44.050  34.495  35.864  1.00  0.00     0.034 A 
ATOM     57  C   UNL A   1      37.652  34.199  34.466  1.00  0.00     0.049 A 
ATOM     58  C   UNL A   1      42.804  34.393  36.710  1.00  0.00     0.074 A 
ATOM     59  C   UNL A   1      36.601  34.027  35.349  1.00  0.00     0.029 A 
ATOM     60  N   UNL A   1      38.811  34.243  35.229  1.00  0.00    -0.354 N 
ATOM     61  N   UNL A   1      41.548  34.334  36.329  1.00  0.00    -0.248 NA
ATOM     62  C   UNL A   1      42.993  34.344  38.165  1.00  0.00     0.031 C 
ATOM     63  C   UNL A   1      37.117  34.036  36.649  1.00  0.00     0.029 A 
ATOM     64  C   UNL A   1      38.498  34.132  36.575  1.00  0.00     0.049 A 
ATOM     65  H   UNL A   1      39.721  34.341  34.869  1.00  0.00     0.167 HD
ATOM     66  C   UNL A   1      40.803  34.206  37.498  1.00  0.00     0.074 A 
ATOM     67  C   UNL A   1      41.751  34.179  38.592  1.00  0.00     0.031 C 
ATOM     68  C   UNL A   1      39.457  34.113  37.654  1.00  0.00     0.034 A 
BRANCH  55  69
ATOM     69  C   UNL A   1      36.265  34.340  32.336  1.00  0.00     0.023 A 
ATOM     70  C   UNL A   1      35.459  35.493  32.322  1.00  0.00     0.031 A 
ATOM     71  C   UNL A   1      35.767  33.184  31.709  1.00  0.00     0.131 A 
ATOM     72  C   UNL A   1      34.173  35.443  31.765  1.00  0.00     0.055 A 
ATOM     73  C   UNL A   1      34.521  33.167  31.079  1.00  0.00     0.041 A 
ATOM     74  F   UNL A   1      36.479  32.046  31.709  1.00  0.00    -0.206 F 
ATOM     75  C   UNL A   1      33.708  34.296  31.120  1.00  0.00     0.022 A 
BRANCH  72  76
ATOM     76  S   UNL A   1      33.061  36.852  32.033  1.00  0.00     0.124 S 
ATOM     77  O   UNL A   1      33.013  37.446  30.699  1.00  0.00    -0.237 OA
ATOM     78  O   UNL A   1      31.836  36.205  32.488  1.00  0.00    -0.237 OA
ATOM     79  O   UNL A   1      33.758  37.651  33.039  1.00  0.00    -0.744 OA
ENDBRANCH  72  76
ENDBRANCH  55  69
BRANCH  56  80
ATOM     80  C   UNL A   1      45.397  34.579  36.501  1.00  0.00     0.023 A 
ATOM     81  C   UNL A   1      46.144  33.420  36.767  1.00  0.00     0.031 A 
ATOM     82  C   UNL A   1      45.935  35.814  36.905  1.00  0.00     0.131 A 
ATOM     83  C   UNL A   1      47.358  33.512  37.464  1.00  0.00     0.055 A 
ATOM     84  C   UNL A   1      47.172  35.906  37.547  1.00  0.00     0.041 A 
ATOM     85  F   UNL A   1      45.266  36.955  36.672  1.00  0.00    -0.206 F 
ATOM     86  C   UNL A   1      47.883  34.749  37.845  1.00  0.00     0.022 A 
BRANCH  83  87
ATOM     87  S   UNL A   1      48.196  31.980  37.957  1.00  0.00     0.124 S 
ATOM     88  O   UNL A   1      47.322  31.493  39.019  1.00  0.00    -0.237 OA
ATOM     89  O   UNL A   1      48.183  31.216  36.714  1.00  0.00    -0.237 OA
ATOM     90  O   UNL A   1      49.513  32.438  38.392  1.00  0.00    -0.744 OA
ENDBRANCH  83  87
ENDBRANCH  56  80
BRANCH  68  91
ATOM     91  C   UNL A   1      38.941  33.926  39.061  1.00  0.00     0.023 A 
ATOM     92  C   UNL A   1      38.485  32.680  39.524  1.00  0.00     0.031 A 
ATOM     93  C   UNL A   1      38.901  35.017  39.947  1.00  0.00     0.131 A 
ATOM     94  C   UNL A   1      37.956  32.567  40.817  1.00  0.00     0.055 A 
ATOM     95  C   UNL A   1      38.434  34.884  41.255  1.00  0.00     0.041 A 
ATOM     96  F   UNL A   1      39.323  36.231  39.557  1.00  0.00    -0.206 F 
ATOM     97  C   UNL A   1      37.945  33.657  41.693  1.00  0.00     0.022 A 
BRANCH  94  98
ATOM     98  S   UNL A   1      37.194  30.998  41.312  1.00  0.00     0.124 S 
ATOM     99  O   UNL A   1      36.440  31.388  42.499  1.00  0.00    -0.237 OA
ATOM    100  O   UNL A   1      36.400  30.651  40.138  1.00  0.00    -0.237 OA
ATOM    101  O   UNL A   1      38.340  30.126  41.564  1.00  0.00    -0.744 OA
ENDBRANCH  94  98
ENDBRANCH  68  91
ENDBRANCH  42  43
ENDBRANCH  34  37
ENDBRANCH  32  33
ENDBRANCH  31  32
ENDBRANCH   1  31
TORSDOF 17
ENDMDL
