MODEL 1
REMARK VINA RESULT:     -12.9      0.000      0.000
REMARK SMILES CCc1ccc(S(=O)(=O)N2CCC3(CC2)NC(=O)C[C@H]3C(=O)NCCCCNC(=O)c2ccc(-c3c4nc(c(-c5cc(S(=O)(=O)[O-])ccc5F)c5ccc([nH]5)c(-c5cc(S(=O)(=O)[O-])ccc5F)c5nc(c(-c6cc(S(=O)(=O)[O-])ccc6F)c6ccc3[nH]6)C=C5)C=C4)cc2)s1
REMARK SMILES IDX 25 1 24 2 23 3 21 4 22 5 20 7 10 8 11 9 15 10 12 11 14 12
REMARK SMILES IDX 13 13 16 14 17 15 19 17 18 18 7 19 8 20 9 21 6 22 3 23 4 24
REMARK SMILES IDX 94 25 5 26 2 27 1 28 26 29 27 30 28 31 29 32 30 34 31 35
REMARK SMILES IDX 32 36 93 37 33 38 92 39 34 40 35 41 36 42 86 43 37 44 91 45
REMARK SMILES IDX 85 46 87 47 38 48 90 49 84 50 83 51 39 53 71 54 51 55 70 56
REMARK SMILES IDX 52 57 55 58 69 59 88 60 53 61 54 62 68 64 89 65 56 66 40 67
REMARK SMILES IDX 41 68 49 69 42 70 48 71 50 72 47 73 43 74 44 75 45 76 46 77
REMARK SMILES IDX 72 78 73 79 81 80 74 81 80 82 82 83 79 84 75 85 76 86 77 87
REMARK SMILES IDX 78 88 57 89 58 90 66 91 59 92 65 93 67 94 64 95 60 96 61 97
REMARK SMILES IDX 62 98 63 99
REMARK H PARENT 23 6 16 16 28 33 87 52 55 63
REMARK Flexibility Score: inf
ROOT
ATOM      1  C   UNL A   1      32.186  30.139  26.874  1.00  0.00     0.023 C 
ENDROOT
BRANCH   1   2
ATOM      2  C   UNL A   1      33.040  29.605  25.722  1.00  0.00     0.116 C 
BRANCH   2   3
ATOM      3  N   UNL A   1      32.309  29.455  24.472  1.00  0.00    -0.356 N 
ATOM      4  C   UNL A   1      32.324  28.551  23.461  1.00  0.00     0.226 C 
ATOM      5  O   UNL A   1      31.521  28.751  22.541  1.00  0.00    -0.275 OA
ATOM      6  H   UNL A   1      31.654  30.177  24.327  1.00  0.00     0.163 HD
BRANCH   4   7
ATOM      7  C   UNL A   1      33.248  27.337  23.354  1.00  0.00     0.113 C 
ATOM      8  N   UNL A   1      32.662  24.573  26.400  1.00  0.00    -0.197 NA
ATOM      9  C   UNL A   1      33.979  24.636  25.776  1.00  0.00     0.105 C 
ATOM     10  C   UNL A   1      31.902  25.810  26.273  1.00  0.00     0.105 C 
ATOM     11  C   UNL A   1      33.921  25.058  24.308  1.00  0.00     0.046 C 
ATOM     12  C   UNL A   1      31.543  26.009  24.818  1.00  0.00     0.046 C 
ATOM     13  C   UNL A   1      32.725  25.958  23.826  1.00  0.00     0.055 C 
ATOM     14  N   UNL A   1      32.292  25.411  22.540  1.00  0.00    -0.350 N 
ATOM     15  C   UNL A   1      32.975  25.924  21.460  1.00  0.00     0.221 C 
ATOM     16  H   UNL A   1      31.578  24.738  22.455  1.00  0.00     0.164 HD
ATOM     17  C   UNL A   1      33.761  27.115  21.922  1.00  0.00     0.116 C 
ATOM     18  O   UNL A   1      32.914  25.482  20.327  1.00  0.00    -0.275 OA
BRANCH   8  19
ATOM     19  S   UNL A   1      31.895  23.121  26.812  1.00  0.00     0.252 S 
ATOM     20  O   UNL A   1      30.478  23.329  26.723  1.00  0.00    -0.206 OA
ATOM     21  O   UNL A   1      32.529  22.614  28.020  1.00  0.00    -0.206 OA
BRANCH  19  22
ATOM     22  C   UNL A   1      32.291  21.888  25.576  1.00  0.00     0.135 A 
ATOM     23  C   UNL A   1      33.149  19.820  24.492  1.00  0.00     0.006 A 
ATOM     24  C   UNL A   1      32.481  20.641  23.609  1.00  0.00     0.017 A 
ATOM     25  S   UNL A   1      33.122  20.477  26.086  1.00  0.00    -0.127 S 
ATOM     26  C   UNL A   1      32.107  21.864  24.212  1.00  0.00     0.034 A 
BRANCH  23  27
ATOM     27  C   UNL A   1      33.867  18.528  24.212  1.00  0.00     0.043 C 
ATOM     28  C   UNL A   1      33.161  17.667  23.168  1.00  0.00     0.010 C 
ENDBRANCH  23  27
ENDBRANCH  19  22
ENDBRANCH   8  19
ENDBRANCH   4   7
ENDBRANCH   2   3
ENDBRANCH   1   2
BRANCH   1  29
ATOM     29  C   UNL A   1      31.987  31.655  26.877  1.00  0.00     0.023 C 
BRANCH  29  30
ATOM     30  C   UNL A   1      33.097  32.430  27.569  1.00  0.00     0.116 C 
BRANCH  30  31
ATOM     31  N   UNL A   1      32.762  33.828  27.795  1.00  0.00    -0.352 N 
ATOM     32  C   UNL A   1      33.304  34.695  28.712  1.00  0.00     0.251 C 
ATOM     33  H   UNL A   1      32.057  34.200  27.218  1.00  0.00     0.163 HD
ATOM     34  O   UNL A   1      32.827  35.815  28.860  1.00  0.00    -0.269 OA
BRANCH  32  35
ATOM     35  C   UNL A   1      34.435  34.235  29.542  1.00  0.00     0.039 A 
ATOM     36  C   UNL A   1      34.171  33.466  30.676  1.00  0.00     0.014 A 
ATOM     37  C   UNL A   1      35.750  34.504  29.152  1.00  0.00     0.014 A 
ATOM     38  C   UNL A   1      35.234  32.903  31.383  1.00  0.00     0.010 A 
ATOM     39  C   UNL A   1      36.800  33.874  29.806  1.00  0.00     0.010 A 
ATOM     40  C   UNL A   1      36.553  33.070  30.929  1.00  0.00    -0.014 A 
BRANCH  40  41
ATOM     41  C   UNL A   1      37.693  32.424  31.622  1.00  0.00     0.031 A 
ATOM     42  C   UNL A   1      38.423  31.291  30.955  1.00  0.00     0.074 A 
ATOM     43  C   UNL A   1      38.018  32.807  32.873  1.00  0.00     0.049 A 
ATOM     44  N   UNL A   1      39.381  30.533  31.423  1.00  0.00    -0.248 NA
ATOM     45  C   UNL A   1      37.988  30.940  29.595  1.00  0.00     0.031 C 
ATOM     46  C   UNL A   1      37.346  33.859  33.638  1.00  0.00     0.029 A 
ATOM     47  N   UNL A   1      38.992  32.351  33.724  1.00  0.00    -0.354 N 
ATOM     48  C   UNL A   1      39.651  29.606  30.422  1.00  0.00     0.074 A 
ATOM     49  C   UNL A   1      38.705  29.855  29.354  1.00  0.00     0.031 C 
ATOM     50  C   UNL A   1      37.947  33.989  34.832  1.00  0.00     0.029 A 
ATOM     51  C   UNL A   1      39.018  33.003  34.935  1.00  0.00     0.049 A 
ATOM     52  H   UNL A   1      39.615  31.626  33.490  1.00  0.00     0.167 HD
ATOM     53  C   UNL A   1      40.617  28.657  30.384  1.00  0.00     0.034 A 
ATOM     54  C   UNL A   1      39.814  32.822  36.006  1.00  0.00     0.034 A 
ATOM     55  C   UNL A   1      41.563  28.439  31.450  1.00  0.00     0.049 A 
ATOM     56  C   UNL A   1      40.882  31.760  35.943  1.00  0.00     0.074 A 
ATOM     57  C   UNL A   1      42.614  27.541  31.504  1.00  0.00     0.029 A 
ATOM     58  N   UNL A   1      41.573  29.132  32.655  1.00  0.00    -0.354 N 
ATOM     59  N   UNL A   1      41.154  30.919  34.971  1.00  0.00    -0.248 NA
ATOM     60  C   UNL A   1      41.756  31.631  37.114  1.00  0.00     0.031 C 
ATOM     61  C   UNL A   1      43.224  27.653  32.759  1.00  0.00     0.029 A 
ATOM     62  C   UNL A   1      42.596  28.667  33.465  1.00  0.00     0.049 A 
ATOM     63  H   UNL A   1      40.942  29.848  32.898  1.00  0.00     0.167 HD
ATOM     64  C   UNL A   1      42.252  30.183  35.405  1.00  0.00     0.074 A 
ATOM     65  C   UNL A   1      42.599  30.690  36.717  1.00  0.00     0.031 C 
ATOM     66  C   UNL A   1      42.919  29.180  34.775  1.00  0.00     0.034 A 
BRANCH  53  67
ATOM     67  C   UNL A   1      40.674  27.778  29.156  1.00  0.00     0.023 A 
ATOM     68  C   UNL A   1      41.615  28.003  28.135  1.00  0.00     0.031 A 
ATOM     69  C   UNL A   1      39.750  26.734  28.980  1.00  0.00     0.131 A 
ATOM     70  C   UNL A   1      41.555  27.256  26.950  1.00  0.00     0.055 A 
ATOM     71  C   UNL A   1      39.752  25.937  27.833  1.00  0.00     0.041 A 
ATOM     72  F   UNL A   1      38.815  26.484  29.909  1.00  0.00    -0.206 F 
ATOM     73  C   UNL A   1      40.647  26.207  26.802  1.00  0.00     0.022 A 
BRANCH  70  74
ATOM     74  S   UNL A   1      42.579  27.779  25.546  1.00  0.00     0.124 S 
ATOM     75  O   UNL A   1      43.859  28.043  26.200  1.00  0.00    -0.237 OA
ATOM     76  O   UNL A   1      42.535  26.614  24.673  1.00  0.00    -0.237 OA
ATOM     77  O   UNL A   1      41.889  28.965  25.043  1.00  0.00    -0.744 OA
ENDBRANCH  70  74
ENDBRANCH  53  67
BRANCH  54  78
ATOM     78  C   UNL A   1      39.644  33.660  37.227  1.00  0.00     0.023 A 
ATOM     79  C   UNL A   1      40.453  34.787  37.443  1.00  0.00     0.031 A 
ATOM     80  C   UNL A   1      38.697  33.327  38.211  1.00  0.00     0.131 A 
ATOM     81  C   UNL A   1      40.334  35.514  38.638  1.00  0.00     0.055 A 
ATOM     82  C   UNL A   1      38.549  34.082  39.376  1.00  0.00     0.041 A 
ATOM     83  F   UNL A   1      37.892  32.265  38.048  1.00  0.00    -0.206 F 
ATOM     84  C   UNL A   1      39.380  35.175  39.601  1.00  0.00     0.022 A 
BRANCH  81  85
ATOM     85  S   UNL A   1      41.502  36.867  38.949  1.00  0.00     0.124 S 
ATOM     86  O   UNL A   1      40.603  37.959  39.303  1.00  0.00    -0.237 OA
ATOM     87  O   UNL A   1      42.311  36.323  40.035  1.00  0.00    -0.237 OA
ATOM     88  O   UNL A   1      42.196  37.016  37.672  1.00  0.00    -0.744 OA
ENDBRANCH  81  85
ENDBRANCH  54  78
BRANCH  66  89
ATOM     89  C   UNL A   1      44.115  28.606  35.491  1.00  0.00     0.023 A 
ATOM     90  C   UNL A   1      43.981  27.604  36.466  1.00  0.00     0.031 A 
ATOM     91  C   UNL A   1      45.406  29.083  35.201  1.00  0.00     0.131 A 
ATOM     92  C   UNL A   1      45.113  27.149  37.159  1.00  0.00     0.055 A 
ATOM     93  C   UNL A   1      46.534  28.586  35.852  1.00  0.00     0.041 A 
ATOM     94  F   UNL A   1      45.589  30.040  34.278  1.00  0.00    -0.206 F 
ATOM     95  C   UNL A   1      46.390  27.623  36.847  1.00  0.00     0.022 A 
BRANCH  92  96
ATOM     96  S   UNL A   1      44.883  25.993  38.537  1.00  0.00     0.124 S 
ATOM     97  O   UNL A   1      46.172  26.073  39.218  1.00  0.00    -0.237 OA
ATOM     98  O   UNL A   1      43.750  26.577  39.248  1.00  0.00    -0.237 OA
ATOM     99  O   UNL A   1      44.609  24.719  37.875  1.00  0.00    -0.744 OA
ENDBRANCH  92  96
ENDBRANCH  66  89
ENDBRANCH  40  41
ENDBRANCH  32  35
ENDBRANCH  30  31
ENDBRANCH  29  30
ENDBRANCH   1  29
TORSDOF 17
ENDMDL
MODEL 2
REMARK VINA RESULT:     -12.6      1.887      2.215
REMARK SMILES CCc1ccc(S(=O)(=O)N2CCC3(CC2)NC(=O)C[C@H]3C(=O)NCCCCNC(=O)c2ccc(-c3c4nc(c(-c5cc(S(=O)(=O)[O-])ccc5F)c5ccc([nH]5)c(-c5cc(S(=O)(=O)[O-])ccc5F)c5nc(c(-c6cc(S(=O)(=O)[O-])ccc6F)c6ccc3[nH]6)C=C5)C=C4)cc2)s1
REMARK SMILES IDX 25 1 24 2 23 3 21 4 22 5 20 7 10 8 11 9 15 10 12 11 14 12
REMARK SMILES IDX 13 13 16 14 17 15 19 17 18 18 7 19 8 20 9 21 6 22 3 23 4 24
REMARK SMILES IDX 94 25 5 26 2 27 1 28 26 29 27 30 28 31 29 32 30 34 31 35
REMARK SMILES IDX 32 36 93 37 33 38 92 39 34 40 35 41 36 42 86 43 37 44 91 45
REMARK SMILES IDX 85 46 87 47 38 48 90 49 84 50 83 51 39 53 71 54 51 55 70 56
REMARK SMILES IDX 52 57 55 58 69 59 88 60 53 61 54 62 68 64 89 65 56 66 40 67
REMARK SMILES IDX 41 68 49 69 42 70 48 71 50 72 47 73 43 74 44 75 45 76 46 77
REMARK SMILES IDX 72 78 73 79 81 80 74 81 80 82 82 83 79 84 75 85 76 86 77 87
REMARK SMILES IDX 78 88 57 89 58 90 66 91 59 92 65 93 67 94 64 95 60 96 61 97
REMARK SMILES IDX 62 98 63 99
REMARK H PARENT 23 6 16 16 28 33 87 52 55 63
REMARK Flexibility Score: inf
ROOT
ATOM      1  C   UNL A   1      31.564  30.410  26.831  1.00  0.00     0.023 C 
ENDROOT
BRANCH   1   2
ATOM      2  C   UNL A   1      32.465  29.667  25.842  1.00  0.00     0.116 C 
BRANCH   2   3
ATOM      3  N   UNL A   1      31.885  29.521  24.516  1.00  0.00    -0.356 N 
ATOM      4  C   UNL A   1      32.063  28.655  23.487  1.00  0.00     0.226 C 
ATOM      5  O   UNL A   1      31.355  28.842  22.490  1.00  0.00    -0.275 OA
ATOM      6  H   UNL A   1      31.208  30.210  24.320  1.00  0.00     0.163 HD
BRANCH   4   7
ATOM      7  C   UNL A   1      33.063  27.499  23.448  1.00  0.00     0.113 C 
ATOM      8  N   UNL A   1      32.450  24.716  26.471  1.00  0.00    -0.197 NA
ATOM      9  C   UNL A   1      33.798  24.856  25.932  1.00  0.00     0.105 C 
ATOM     10  C   UNL A   1      31.627  25.904  26.286  1.00  0.00     0.105 C 
ATOM     11  C   UNL A   1      33.809  25.268  24.460  1.00  0.00     0.046 C 
ATOM     12  C   UNL A   1      31.350  26.075  24.810  1.00  0.00     0.046 C 
ATOM     13  C   UNL A   1      32.595  26.092  23.896  1.00  0.00     0.055 C 
ATOM     14  N   UNL A   1      32.279  25.516  22.589  1.00  0.00    -0.350 N 
ATOM     15  C   UNL A   1      32.997  26.065  21.551  1.00  0.00     0.221 C 
ATOM     16  H   UNL A   1      31.614  24.800  22.464  1.00  0.00     0.164 HD
ATOM     17  C   UNL A   1      33.679  27.303  22.054  1.00  0.00     0.116 C 
ATOM     18  O   UNL A   1      33.036  25.616  20.420  1.00  0.00    -0.275 OA
BRANCH   8  19
ATOM     19  S   UNL A   1      31.747  23.220  26.844  1.00  0.00     0.252 S 
ATOM     20  O   UNL A   1      30.322  23.371  26.763  1.00  0.00    -0.206 OA
ATOM     21  O   UNL A   1      32.405  22.709  28.037  1.00  0.00    -0.206 OA
BRANCH  19  22
ATOM     22  C   UNL A   1      32.193  22.040  25.574  1.00  0.00     0.135 A 
ATOM     23  C   UNL A   1      33.086  20.014  24.441  1.00  0.00     0.006 A 
ATOM     24  C   UNL A   1      32.468  20.880  23.565  1.00  0.00     0.017 A 
ATOM     25  S   UNL A   1      32.988  20.600  26.060  1.00  0.00    -0.127 S 
ATOM     26  C   UNL A   1      32.075  22.078  24.203  1.00  0.00     0.034 A 
BRANCH  23  27
ATOM     27  C   UNL A   1      33.807  18.729  24.138  1.00  0.00     0.043 C 
ATOM     28  C   UNL A   1      32.951  17.733  23.359  1.00  0.00     0.010 C 
ENDBRANCH  23  27
ENDBRANCH  19  22
ENDBRANCH   8  19
ENDBRANCH   4   7
ENDBRANCH   2   3
ENDBRANCH   1   2
BRANCH   1  29
ATOM     29  C   UNL A   1      31.516  31.926  26.643  1.00  0.00     0.023 C 
BRANCH  29  30
ATOM     30  C   UNL A   1      32.802  32.643  27.023  1.00  0.00     0.116 C 
BRANCH  30  31
ATOM     31  N   UNL A   1      32.570  33.922  27.680  1.00  0.00    -0.352 N 
ATOM     32  C   UNL A   1      33.237  34.461  28.753  1.00  0.00     0.251 C 
ATOM     33  H   UNL A   1      31.842  34.471  27.307  1.00  0.00     0.163 HD
ATOM     34  O   UNL A   1      32.840  35.500  29.267  1.00  0.00    -0.269 OA
BRANCH  32  35
ATOM     35  C   UNL A   1      34.403  33.739  29.298  1.00  0.00     0.039 A 
ATOM     36  C   UNL A   1      35.681  34.092  28.861  1.00  0.00     0.014 A 
ATOM     37  C   UNL A   1      34.230  32.769  30.290  1.00  0.00     0.014 A 
ATOM     38  C   UNL A   1      36.795  33.520  29.476  1.00  0.00     0.010 A 
ATOM     39  C   UNL A   1      35.339  32.266  30.956  1.00  0.00     0.010 A 
ATOM     40  C   UNL A   1      36.632  32.634  30.554  1.00  0.00    -0.014 A 
BRANCH  40  41
ATOM     41  C   UNL A   1      37.801  32.068  31.269  1.00  0.00     0.031 A 
ATOM     42  C   UNL A   1      38.597  30.963  30.633  1.00  0.00     0.074 A 
ATOM     43  C   UNL A   1      38.095  32.497  32.513  1.00  0.00     0.049 A 
ATOM     44  N   UNL A   1      39.591  30.269  31.123  1.00  0.00    -0.248 NA
ATOM     45  C   UNL A   1      38.192  30.557  29.278  1.00  0.00     0.031 C 
ATOM     46  C   UNL A   1      37.361  33.528  33.249  1.00  0.00     0.029 A 
ATOM     47  N   UNL A   1      39.086  32.115  33.380  1.00  0.00    -0.354 N 
ATOM     48  C   UNL A   1      39.919  29.336  30.146  1.00  0.00     0.074 A 
ATOM     49  C   UNL A   1      38.969  29.508  29.067  1.00  0.00     0.031 C 
ATOM     50  C   UNL A   1      37.945  33.717  34.444  1.00  0.00     0.029 A 
ATOM     51  C   UNL A   1      39.068  32.795  34.576  1.00  0.00     0.049 A 
ATOM     52  H   UNL A   1      39.750  31.420  33.167  1.00  0.00     0.167 HD
ATOM     53  C   UNL A   1      40.936  28.441  30.136  1.00  0.00     0.034 A 
ATOM     54  C   UNL A   1      39.864  32.681  35.656  1.00  0.00     0.034 A 
ATOM     55  C   UNL A   1      41.885  28.300  31.213  1.00  0.00     0.049 A 
ATOM     56  C   UNL A   1      40.989  31.678  35.623  1.00  0.00     0.074 A 
ATOM     57  C   UNL A   1      42.983  27.462  31.294  1.00  0.00     0.029 A 
ATOM     58  N   UNL A   1      41.847  29.019  32.402  1.00  0.00    -0.354 N 
ATOM     59  N   UNL A   1      41.315  30.833  34.673  1.00  0.00    -0.248 NA
ATOM     60  C   UNL A   1      41.861  31.625  36.803  1.00  0.00     0.031 C 
ATOM     61  C   UNL A   1      43.576  27.636  32.550  1.00  0.00     0.029 A 
ATOM     62  C   UNL A   1      42.889  28.629  33.228  1.00  0.00     0.049 A 
ATOM     63  H   UNL A   1      41.177  29.705  32.624  1.00  0.00     0.167 HD
ATOM     64  C   UNL A   1      42.448  30.168  35.130  1.00  0.00     0.074 A 
ATOM     65  C   UNL A   1      42.757  30.722  36.432  1.00  0.00     0.031 C 
ATOM     66  C   UNL A   1      43.173  29.189  34.528  1.00  0.00     0.034 A 
BRANCH  53  67
ATOM     67  C   UNL A   1      41.050  27.539  28.929  1.00  0.00     0.023 A 
ATOM     68  C   UNL A   1      42.042  27.741  27.952  1.00  0.00     0.031 A 
ATOM     69  C   UNL A   1      40.132  26.495  28.727  1.00  0.00     0.131 A 
ATOM     70  C   UNL A   1      42.038  26.973  26.779  1.00  0.00     0.055 A 
ATOM     71  C   UNL A   1      40.187  25.676  27.597  1.00  0.00     0.041 A 
ATOM     72  F   UNL A   1      39.151  26.265  29.613  1.00  0.00    -0.206 F 
ATOM     73  C   UNL A   1      41.133  25.924  26.606  1.00  0.00     0.022 A 
BRANCH  70  74
ATOM     74  S   UNL A   1      43.132  27.466  25.419  1.00  0.00     0.124 S 
ATOM     75  O   UNL A   1      43.551  26.168  24.895  1.00  0.00    -0.237 OA
ATOM     76  O   UNL A   1      42.242  28.243  24.565  1.00  0.00    -0.237 OA
ATOM     77  O   UNL A   1      44.184  28.229  26.085  1.00  0.00    -0.744 OA
ENDBRANCH  70  74
ENDBRANCH  53  67
BRANCH  54  78
ATOM     78  C   UNL A   1      39.640  33.536  36.856  1.00  0.00     0.023 A 
ATOM     79  C   UNL A   1      39.011  33.020  37.999  1.00  0.00     0.031 A 
ATOM     80  C   UNL A   1      40.016  34.891  36.864  1.00  0.00     0.131 A 
ATOM     81  C   UNL A   1      38.732  33.863  39.086  1.00  0.00     0.055 A 
ATOM     82  C   UNL A   1      39.781  35.714  37.967  1.00  0.00     0.041 A 
ATOM     83  F   UNL A   1      40.630  35.432  35.800  1.00  0.00    -0.206 F 
ATOM     84  C   UNL A   1      39.123  35.204  39.082  1.00  0.00     0.022 A 
BRANCH  81  85
ATOM     85  S   UNL A   1      37.780  33.197  40.479  1.00  0.00     0.124 S 
ATOM     86  O   UNL A   1      37.784  34.322  41.406  1.00  0.00    -0.237 OA
ATOM     87  O   UNL A   1      36.501  32.887  39.849  1.00  0.00    -0.237 OA
ATOM     88  O   UNL A   1      38.562  32.036  40.900  1.00  0.00    -0.744 OA
ENDBRANCH  81  85
ENDBRANCH  54  78
BRANCH  66  89
ATOM     89  C   UNL A   1      44.393  28.698  35.264  1.00  0.00     0.023 A 
ATOM     90  C   UNL A   1      45.657  29.282  35.073  1.00  0.00     0.031 A 
ATOM     91  C   UNL A   1      44.290  27.616  36.157  1.00  0.00     0.131 A 
ATOM     92  C   UNL A   1      46.778  28.746  35.723  1.00  0.00     0.055 A 
ATOM     93  C   UNL A   1      45.399  27.124  36.845  1.00  0.00     0.041 A 
ATOM     94  F   UNL A   1      43.106  27.021  36.375  1.00  0.00    -0.206 F 
ATOM     95  C   UNL A   1      46.654  27.681  36.619  1.00  0.00     0.022 A 
BRANCH  92  96
ATOM     96  S   UNL A   1      48.418  29.403  35.312  1.00  0.00     0.124 S 
ATOM     97  O   UNL A   1      48.630  30.378  36.378  1.00  0.00    -0.237 OA
ATOM     98  O   UNL A   1      49.255  28.209  35.365  1.00  0.00    -0.237 OA
ATOM     99  O   UNL A   1      48.236  29.972  33.978  1.00  0.00    -0.744 OA
ENDBRANCH  92  96
ENDBRANCH  66  89
ENDBRANCH  40  41
ENDBRANCH  32  35
ENDBRANCH  30  31
ENDBRANCH  29  30
ENDBRANCH   1  29
TORSDOF 17
ENDMDL
MODEL 3
REMARK VINA RESULT:     -12.4      1.876      7.664
REMARK SMILES CCc1ccc(S(=O)(=O)N2CCC3(CC2)NC(=O)C[C@H]3C(=O)NCCCCNC(=O)c2ccc(-c3c4nc(c(-c5cc(S(=O)(=O)[O-])ccc5F)c5ccc([nH]5)c(-c5cc(S(=O)(=O)[O-])ccc5F)c5nc(c(-c6cc(S(=O)(=O)[O-])ccc6F)c6ccc3[nH]6)C=C5)C=C4)cc2)s1
REMARK SMILES IDX 25 1 24 2 23 3 21 4 22 5 20 7 10 8 11 9 15 10 12 11 14 12
REMARK SMILES IDX 13 13 16 14 17 15 19 17 18 18 7 19 8 20 9 21 6 22 3 23 4 24
REMARK SMILES IDX 94 25 5 26 2 27 1 28 26 29 27 30 28 31 29 32 30 34 31 35
REMARK SMILES IDX 32 36 93 37 33 38 92 39 34 40 35 41 36 42 86 43 37 44 91 45
REMARK SMILES IDX 85 46 87 47 38 48 90 49 84 50 83 51 39 53 71 54 51 55 70 56
REMARK SMILES IDX 52 57 55 58 69 59 88 60 53 61 54 62 68 64 89 65 56 66 40 67
REMARK SMILES IDX 41 68 49 69 42 70 48 71 50 72 47 73 43 74 44 75 45 76 46 77
REMARK SMILES IDX 72 78 73 79 81 80 74 81 80 82 82 83 79 84 75 85 76 86 77 87
REMARK SMILES IDX 78 88 57 89 58 90 66 91 59 92 65 93 67 94 64 95 60 96 61 97
REMARK SMILES IDX 62 98 63 99
REMARK H PARENT 23 6 16 16 28 33 87 52 55 63
REMARK Flexibility Score: inf
ROOT
ATOM      1  C   UNL A   1      35.215  31.169  28.050  1.00  0.00     0.023 C 
ENDROOT
BRANCH   1   2
ATOM      2  C   UNL A   1      35.056  29.680  27.736  1.00  0.00     0.116 C 
BRANCH   2   3
ATOM      3  N   UNL A   1      33.712  29.173  27.967  1.00  0.00    -0.356 N 
ATOM      4  C   UNL A   1      32.768  28.586  27.190  1.00  0.00     0.226 C 
ATOM      5  O   UNL A   1      31.716  28.267  27.759  1.00  0.00    -0.275 OA
ATOM      6  H   UNL A   1      33.420  29.282  28.901  1.00  0.00     0.163 HD
BRANCH   4   7
ATOM      7  C   UNL A   1      32.882  28.309  25.690  1.00  0.00     0.113 C 
ATOM      8  N   UNL A   1      33.106  24.258  24.797  1.00  0.00    -0.197 NA
ATOM      9  C   UNL A   1      33.715  25.200  23.865  1.00  0.00     0.105 C 
ATOM     10  C   UNL A   1      32.983  24.782  26.151  1.00  0.00     0.105 C 
ATOM     11  C   UNL A   1      33.000  26.551  23.832  1.00  0.00     0.046 C 
ATOM     12  C   UNL A   1      31.971  25.906  26.145  1.00  0.00     0.046 C 
ATOM     13  C   UNL A   1      32.227  27.028  25.116  1.00  0.00     0.055 C 
ATOM     14  N   UNL A   1      30.962  27.593  24.647  1.00  0.00    -0.350 N 
ATOM     15  C   UNL A   1      31.036  28.929  24.323  1.00  0.00     0.221 C 
ATOM     16  H   UNL A   1      30.134  27.066  24.570  1.00  0.00     0.164 HD
ATOM     17  C   UNL A   1      32.339  29.467  24.836  1.00  0.00     0.116 C 
ATOM     18  O   UNL A   1      30.166  29.551  23.741  1.00  0.00    -0.275 OA
BRANCH   8  19
ATOM     19  S   UNL A   1      32.213  22.906  24.304  1.00  0.00     0.252 S 
ATOM     20  O   UNL A   1      31.961  23.032  22.897  1.00  0.00    -0.206 OA
ATOM     21  O   UNL A   1      31.140  22.710  25.269  1.00  0.00    -0.206 OA
BRANCH  19  22
ATOM     22  C   UNL A   1      33.227  21.443  24.495  1.00  0.00     0.135 A 
ATOM     23  C   UNL A   1      33.953  19.066  24.573  1.00  0.00     0.006 A 
ATOM     24  C   UNL A   1      34.989  19.942  24.810  1.00  0.00     0.017 A 
ATOM     25  S   UNL A   1      32.490  19.916  24.242  1.00  0.00    -0.127 S 
ATOM     26  C   UNL A   1      34.538  21.280  24.882  1.00  0.00     0.034 A 
BRANCH  23  27
ATOM     27  C   UNL A   1      33.970  17.561  24.605  1.00  0.00     0.043 C 
ATOM     28  C   UNL A   1      34.120  16.936  23.220  1.00  0.00     0.010 C 
ENDBRANCH  23  27
ENDBRANCH  19  22
ENDBRANCH   8  19
ENDBRANCH   4   7
ENDBRANCH   2   3
ENDBRANCH   1   2
BRANCH   1  29
ATOM     29  C   UNL A   1      33.924  31.984  27.974  1.00  0.00     0.023 C 
BRANCH  29  30
ATOM     30  C   UNL A   1      34.137  33.473  27.755  1.00  0.00     0.116 C 
BRANCH  30  31
ATOM     31  N   UNL A   1      33.364  34.302  28.669  1.00  0.00    -0.352 N 
ATOM     32  C   UNL A   1      33.557  34.492  30.015  1.00  0.00     0.251 C 
ATOM     33  H   UNL A   1      32.605  34.787  28.271  1.00  0.00     0.163 HD
ATOM     34  O   UNL A   1      32.742  35.130  30.672  1.00  0.00    -0.269 OA
BRANCH  32  35
ATOM     35  C   UNL A   1      34.735  33.876  30.656  1.00  0.00     0.039 A 
ATOM     36  C   UNL A   1      34.547  32.789  31.512  1.00  0.00     0.014 A 
ATOM     37  C   UNL A   1      36.021  34.329  30.350  1.00  0.00     0.014 A 
ATOM     38  C   UNL A   1      35.660  32.108  32.006  1.00  0.00     0.010 A 
ATOM     39  C   UNL A   1      37.123  33.599  30.774  1.00  0.00     0.010 A 
ATOM     40  C   UNL A   1      36.954  32.483  31.608  1.00  0.00    -0.014 A 
BRANCH  40  41
ATOM     41  C   UNL A   1      38.148  31.731  32.063  1.00  0.00     0.031 A 
ATOM     42  C   UNL A   1      38.799  32.091  33.370  1.00  0.00     0.074 A 
ATOM     43  C   UNL A   1      38.684  30.784  31.269  1.00  0.00     0.049 A 
ATOM     44  N   UNL A   1      39.897  31.625  33.905  1.00  0.00    -0.248 NA
ATOM     45  C   UNL A   1      38.145  33.145  34.161  1.00  0.00     0.031 C 
ATOM     46  C   UNL A   1      38.168  30.387  29.956  1.00  0.00     0.029 A 
ATOM     47  N   UNL A   1      39.785  29.986  31.445  1.00  0.00    -0.354 N 
ATOM     48  C   UNL A   1      40.076  32.340  35.084  1.00  0.00     0.074 A 
ATOM     49  C   UNL A   1      39.010  33.318  35.146  1.00  0.00     0.031 C 
ATOM     50  C   UNL A   1      38.933  29.401  29.461  1.00  0.00     0.029 A 
ATOM     51  C   UNL A   1      40.016  29.123  30.398  1.00  0.00     0.049 A 
ATOM     52  H   UNL A   1      40.356  30.025  32.245  1.00  0.00     0.167 HD
ATOM     53  C   UNL A   1      41.022  32.175  36.041  1.00  0.00     0.034 A 
ATOM     54  C   UNL A   1      40.995  28.216  30.216  1.00  0.00     0.034 A 
ATOM     55  C   UNL A   1      42.062  31.180  35.969  1.00  0.00     0.049 A 
ATOM     56  C   UNL A   1      42.037  28.049  31.292  1.00  0.00     0.074 A 
ATOM     57  C   UNL A   1      43.045  30.888  36.899  1.00  0.00     0.029 A 
ATOM     58  N   UNL A   1      42.255  30.309  34.903  1.00  0.00    -0.354 N 
ATOM     59  N   UNL A   1      42.167  28.702  32.424  1.00  0.00    -0.248 NA
ATOM     60  C   UNL A   1      43.054  27.015  31.073  1.00  0.00     0.031 C 
ATOM     61  C   UNL A   1      43.862  29.881  36.372  1.00  0.00     0.029 A 
ATOM     62  C   UNL A   1      43.351  29.496  35.142  1.00  0.00     0.049 A 
ATOM     63  H   UNL A   1      41.694  30.276  34.094  1.00  0.00     0.167 HD
ATOM     64  C   UNL A   1      43.265  28.135  33.064  1.00  0.00     0.074 A 
ATOM     65  C   UNL A   1      43.748  27.079  32.199  1.00  0.00     0.031 C 
ATOM     66  C   UNL A   1      43.823  28.454  34.261  1.00  0.00     0.034 A 
BRANCH  53  67
ATOM     67  C   UNL A   1      40.974  33.109  37.227  1.00  0.00     0.023 A 
ATOM     68  C   UNL A   1      40.336  32.741  38.426  1.00  0.00     0.031 A 
ATOM     69  C   UNL A   1      41.529  34.397  37.146  1.00  0.00     0.131 A 
ATOM     70  C   UNL A   1      40.192  33.678  39.460  1.00  0.00     0.055 A 
ATOM     71  C   UNL A   1      41.458  35.297  38.213  1.00  0.00     0.041 A 
ATOM     72  F   UNL A   1      42.132  34.813  36.022  1.00  0.00    -0.206 F 
ATOM     73  C   UNL A   1      40.771  34.945  39.372  1.00  0.00     0.022 A 
BRANCH  70  74
ATOM     74  S   UNL A   1      39.105  33.268  40.852  1.00  0.00     0.124 S 
ATOM     75  O   UNL A   1      38.982  31.819  40.711  1.00  0.00    -0.237 OA
ATOM     76  O   UNL A   1      39.872  33.736  42.000  1.00  0.00    -0.237 OA
ATOM     77  O   UNL A   1      37.885  34.019  40.567  1.00  0.00    -0.744 OA
ENDBRANCH  70  74
ENDBRANCH  53  67
BRANCH  54  78
ATOM     78  C   UNL A   1      41.040  27.390  28.977  1.00  0.00     0.023 A 
ATOM     79  C   UNL A   1      42.012  27.625  27.991  1.00  0.00     0.031 A 
ATOM     80  C   UNL A   1      40.093  26.378  28.742  1.00  0.00     0.131 A 
ATOM     81  C   UNL A   1      41.985  26.893  26.794  1.00  0.00     0.055 A 
ATOM     82  C   UNL A   1      40.100  25.619  27.570  1.00  0.00     0.041 A 
ATOM     83  F   UNL A   1      39.149  26.106  29.657  1.00  0.00    -0.206 F 
ATOM     84  C   UNL A   1      41.043  25.884  26.582  1.00  0.00     0.022 A 
BRANCH  81  85
ATOM     85  S   UNL A   1      43.159  27.333  25.482  1.00  0.00     0.124 S 
ATOM     86  O   UNL A   1      43.520  26.023  24.955  1.00  0.00    -0.237 OA
ATOM     87  O   UNL A   1      42.340  28.172  24.614  1.00  0.00    -0.237 OA
ATOM     88  O   UNL A   1      44.222  28.033  26.200  1.00  0.00    -0.744 OA
ENDBRANCH  81  85
ENDBRANCH  54  78
BRANCH  66  89
ATOM     89  C   UNL A   1      44.990  27.614  34.712  1.00  0.00     0.023 A 
ATOM     90  C   UNL A   1      44.812  26.466  35.502  1.00  0.00     0.031 A 
ATOM     91  C   UNL A   1      46.301  27.980  34.358  1.00  0.00     0.131 A 
ATOM     92  C   UNL A   1      45.931  25.754  35.960  1.00  0.00     0.055 A 
ATOM     93  C   UNL A   1      47.406  27.236  34.769  1.00  0.00     0.041 A 
ATOM     94  F   UNL A   1      46.526  29.069  33.606  1.00  0.00    -0.206 F 
ATOM     95  C   UNL A   1      47.225  26.124  35.586  1.00  0.00     0.022 A 
BRANCH  92  96
ATOM     96  S   UNL A   1      45.676  24.391  37.128  1.00  0.00     0.124 S 
ATOM     97  O   UNL A   1      46.905  24.431  37.915  1.00  0.00    -0.237 OA
ATOM     98  O   UNL A   1      44.460  24.799  37.824  1.00  0.00    -0.237 OA
ATOM     99  O   UNL A   1      45.531  23.221  36.264  1.00  0.00    -0.744 OA
ENDBRANCH  92  96
ENDBRANCH  66  89
ENDBRANCH  40  41
ENDBRANCH  32  35
ENDBRANCH  30  31
ENDBRANCH  29  30
ENDBRANCH   1  29
TORSDOF 17
ENDMDL
