MODEL 1
REMARK VINA RESULT:     -10.8      0.000      0.000
REMARK SMILES O=C(NCCCCNC(=O)c1ccc(-n2cc(CSc3nc4ccccc4c(=O)n3-c3ccccc3)nn2)cc1)c1ccc(-c2c3nc(c(-c4cc(S(=O)(=O)[O-])ccc4F)c4ccc([nH]4)c(-c4cc(S(=O)(=O)[O-])ccc4F)c4nc(c(-c5cc(S(=O)(=O)[O-])ccc5F)c5ccc2[nH]5)C=C4)C=C3)cc1
REMARK SMILES IDX 6 1 5 2 4 3 3 4 1 5 2 6 41 8 42 9 103 10 43 11 102 12 44 13
REMARK SMILES IDX 45 14 46 15 96 16 47 17 101 18 95 19 97 20 48 21 100 22
REMARK SMILES IDX 94 23 93 24 49 26 81 27 61 28 80 29 62 30 65 31 79 32 98 33
REMARK SMILES IDX 63 34 64 35 78 37 99 38 66 39 50 40 51 41 59 42 52 43 58 44
REMARK SMILES IDX 60 45 57 46 53 47 54 48 55 49 56 50 82 51 83 52 91 53 84 54
REMARK SMILES IDX 90 55 92 56 89 57 85 58 86 59 87 60 88 61 67 62 68 63 76 64
REMARK SMILES IDX 69 65 75 66 77 67 74 68 70 69 71 70 72 71 73 72 7 73 8 74
REMARK SMILES IDX 9 75 10 77 11 78 12 79 40 80 13 81 39 82 14 83 15 84 16 85
REMARK SMILES IDX 38 86 17 87 37 88 18 89 19 90 20 91 21 92 30 93 22 94 28 95
REMARK SMILES IDX 23 96 27 97 29 98 24 99 26 100 25 101 31 102 32 103 36 104
REMARK SMILES IDX 33 105 35 106 34 107
REMARK H PARENT 3 7 97 25 65 36 8 76
REMARK Flexibility Score: inf
ROOT
ATOM      1  C   UNL A   1      36.614  32.591  32.975  1.00  0.00     0.023 C 
ENDROOT
BRANCH   1   2
ATOM      2  C   UNL A   1      35.693  33.553  32.212  1.00  0.00     0.023 C 
BRANCH   2   3
ATOM      3  C   UNL A   1      34.417  32.937  31.641  1.00  0.00     0.116 C 
BRANCH   3   4
ATOM      4  N   UNL A   1      34.359  32.899  30.194  1.00  0.00    -0.352 N 
ATOM      5  O   UNL A   1      34.568  32.326  28.080  1.00  0.00    -0.269 OA
ATOM      6  C   UNL A   1      35.056  32.249  29.213  1.00  0.00     0.251 C 
ATOM      7  H   UNL A   1      33.649  33.476  29.831  1.00  0.00     0.163 HD
BRANCH   6   8
ATOM      8  C   UNL A   1      36.350  31.527  29.388  1.00  0.00     0.039 A 
ATOM      9  C   UNL A   1      37.611  32.109  29.514  1.00  0.00     0.014 A 
ATOM     10  C   UNL A   1      36.264  30.118  29.402  1.00  0.00     0.014 A 
ATOM     11  C   UNL A   1      38.756  31.309  29.579  1.00  0.00     0.010 A 
ATOM     12  C   UNL A   1      37.402  29.317  29.471  1.00  0.00     0.010 A 
ATOM     13  C   UNL A   1      38.657  29.912  29.526  1.00  0.00    -0.014 A 
BRANCH  13  14
ATOM     14  C   UNL A   1      39.875  29.111  29.695  1.00  0.00     0.031 A 
ATOM     15  C   UNL A   1      40.280  28.889  31.117  1.00  0.00     0.074 A 
ATOM     16  C   UNL A   1      40.529  28.482  28.695  1.00  0.00     0.049 A 
ATOM     17  N   UNL A   1      41.376  29.241  31.705  1.00  0.00    -0.248 NA
ATOM     18  C   UNL A   1      39.291  28.287  32.026  1.00  0.00     0.031 C 
ATOM     19  C   UNL A   1      40.136  28.357  27.290  1.00  0.00     0.029 A 
ATOM     20  N   UNL A   1      41.672  27.731  28.754  1.00  0.00    -0.354 N 
ATOM     21  C   UNL A   1      41.304  28.748  33.007  1.00  0.00     0.074 A 
ATOM     22  C   UNL A   1      39.951  28.293  33.185  1.00  0.00     0.031 C 
ATOM     23  C   UNL A   1      40.899  27.413  26.688  1.00  0.00     0.029 A 
ATOM     24  C   UNL A   1      41.924  26.964  27.617  1.00  0.00     0.049 A 
ATOM     25  H   UNL A   1      42.267  27.731  29.538  1.00  0.00     0.167 HD
ATOM     26  C   UNL A   1      42.413  28.599  33.787  1.00  0.00     0.034 A 
ATOM     27  C   UNL A   1      42.879  26.005  27.456  1.00  0.00     0.034 A 
ATOM     28  C   UNL A   1      43.506  29.402  33.302  1.00  0.00     0.049 A 
ATOM     29  C   UNL A   1      43.932  26.269  28.466  1.00  0.00     0.074 A 
ATOM     30  C   UNL A   1      43.695  30.759  33.113  1.00  0.00     0.029 A 
ATOM     31  N   UNL A   1      44.493  28.796  32.560  1.00  0.00    -0.354 N 
ATOM     32  N   UNL A   1      44.688  27.331  28.450  1.00  0.00    -0.248 NA
ATOM     33  C   UNL A   1      43.824  25.604  29.756  1.00  0.00     0.031 C 
ATOM     34  C   UNL A   1      44.401  30.859  31.878  1.00  0.00     0.029 A 
ATOM     35  C   UNL A   1      44.673  29.563  31.434  1.00  0.00     0.049 A 
ATOM     36  H   UNL A   1      44.978  27.970  32.792  1.00  0.00     0.167 HD
ATOM     37  C   UNL A   1      44.787  27.719  29.776  1.00  0.00     0.074 A 
ATOM     38  C   UNL A   1      44.311  26.568  30.543  1.00  0.00     0.031 C 
ATOM     39  C   UNL A   1      44.983  29.026  30.123  1.00  0.00     0.034 A 
BRANCH  26  40
ATOM     40  C   UNL A   1      42.603  27.515  34.826  1.00  0.00     0.023 A 
ATOM     41  C   UNL A   1      43.377  26.388  34.484  1.00  0.00     0.031 A 
ATOM     42  C   UNL A   1      41.849  27.402  36.016  1.00  0.00     0.131 A 
ATOM     43  C   UNL A   1      43.328  25.212  35.258  1.00  0.00     0.055 A 
ATOM     44  C   UNL A   1      41.852  26.255  36.816  1.00  0.00     0.041 A 
ATOM     45  F   UNL A   1      40.996  28.352  36.420  1.00  0.00    -0.206 F 
ATOM     46  C   UNL A   1      42.573  25.141  36.426  1.00  0.00     0.022 A 
BRANCH  43  47
ATOM     47  S   UNL A   1      44.133  23.714  34.626  1.00  0.00     0.124 S 
ATOM     48  O   UNL A   1      44.663  23.121  35.849  1.00  0.00    -0.237 OA
ATOM     49  O   UNL A   1      43.016  23.013  34.002  1.00  0.00    -0.237 OA
ATOM     50  O   UNL A   1      45.137  24.233  33.702  1.00  0.00    -0.744 OA
ENDBRANCH  43  47
ENDBRANCH  26  40
BRANCH  27  51
ATOM     51  C   UNL A   1      42.747  24.698  26.744  1.00  0.00     0.023 A 
ATOM     52  C   UNL A   1      43.777  24.122  25.964  1.00  0.00     0.031 A 
ATOM     53  C   UNL A   1      41.648  23.864  27.051  1.00  0.00     0.131 A 
ATOM     54  C   UNL A   1      43.674  22.776  25.527  1.00  0.00     0.055 A 
ATOM     55  C   UNL A   1      41.555  22.539  26.620  1.00  0.00     0.041 A 
ATOM     56  F   UNL A   1      40.665  24.286  27.862  1.00  0.00    -0.206 F 
ATOM     57  C   UNL A   1      42.572  21.986  25.861  1.00  0.00     0.022 A 
BRANCH  54  58
ATOM     58  S   UNL A   1      45.021  21.991  24.573  1.00  0.00     0.124 S 
ATOM     59  O   UNL A   1      44.428  20.717  24.186  1.00  0.00    -0.237 OA
ATOM     60  O   UNL A   1      45.251  22.954  23.502  1.00  0.00    -0.237 OA
ATOM     61  O   UNL A   1      46.113  21.889  25.543  1.00  0.00    -0.744 OA
ENDBRANCH  54  58
ENDBRANCH  27  51
BRANCH  39  62
ATOM     62  C   UNL A   1      45.337  30.020  29.030  1.00  0.00     0.023 A 
ATOM     63  C   UNL A   1      46.654  30.378  28.655  1.00  0.00     0.031 A 
ATOM     64  C   UNL A   1      44.281  30.536  28.257  1.00  0.00     0.131 A 
ATOM     65  C   UNL A   1      46.869  31.232  27.553  1.00  0.00     0.055 A 
ATOM     66  C   UNL A   1      44.499  31.359  27.154  1.00  0.00     0.041 A 
ATOM     67  F   UNL A   1      43.009  30.215  28.543  1.00  0.00    -0.206 F 
ATOM     68  C   UNL A   1      45.795  31.716  26.800  1.00  0.00     0.022 A 
BRANCH  65  69
ATOM     69  S   UNL A   1      48.556  31.743  27.083  1.00  0.00     0.124 S 
ATOM     70  O   UNL A   1      48.334  32.819  26.126  1.00  0.00    -0.237 OA
ATOM     71  O   UNL A   1      49.138  32.133  28.364  1.00  0.00    -0.237 OA
ATOM     72  O   UNL A   1      49.130  30.525  26.505  1.00  0.00    -0.744 OA
ENDBRANCH  65  69
ENDBRANCH  39  62
ENDBRANCH  13  14
ENDBRANCH   6   8
ENDBRANCH   3   4
ENDBRANCH   2   3
ENDBRANCH   1   2
BRANCH   1  73
ATOM     73  C   UNL A   1      37.652  33.229  33.897  1.00  0.00     0.116 C 
BRANCH  73  74
ATOM     74  N   UNL A   1      38.398  32.261  34.683  1.00  0.00    -0.352 N 
ATOM     75  C   UNL A   1      39.742  31.968  34.685  1.00  0.00     0.251 C 
ATOM     76  H   UNL A   1      37.857  31.732  35.314  1.00  0.00     0.163 HD
ATOM     77  O   UNL A   1      40.179  31.076  35.392  1.00  0.00    -0.269 OA
BRANCH  75  78
ATOM     78  C   UNL A   1      40.671  32.722  33.815  1.00  0.00     0.039 A 
ATOM     79  C   UNL A   1      41.541  33.637  34.416  1.00  0.00     0.016 A 
ATOM     80  C   UNL A   1      40.640  32.585  32.424  1.00  0.00     0.016 A 
ATOM     81  C   UNL A   1      42.430  34.377  33.634  1.00  0.00     0.029 A 
ATOM     82  C   UNL A   1      41.507  33.347  31.635  1.00  0.00     0.029 A 
ATOM     83  C   UNL A   1      42.401  34.248  32.241  1.00  0.00     0.066 A 
BRANCH  83  84
ATOM     84  N   UNL A   1      43.222  35.088  31.455  1.00  0.00    -0.220 N 
ATOM     85  C   UNL A   1      43.259  36.459  31.468  1.00  0.00     0.141 A 
ATOM     86  N   UNL A   1      44.152  34.630  30.584  1.00  0.00    -0.062 NA
ATOM     87  C   UNL A   1      44.303  36.811  30.642  1.00  0.00     0.093 A 
ATOM     88  N   UNL A   1      44.791  35.673  30.061  1.00  0.00    -0.134 NA
BRANCH  87  89
ATOM     89  C   UNL A   1      44.739  38.159  30.218  1.00  0.00     0.138 C 
BRANCH  89  90
ATOM     90  S   UNL A   1      43.590  39.519  29.983  1.00  0.00    -0.081 SA
BRANCH  90  91
ATOM     91  C   UNL A   1      43.310  39.894  28.300  1.00  0.00     0.176 A 
ATOM     92  N   UNL A   1      43.888  41.010  27.955  1.00  0.00    -0.223 NA
ATOM     93  N   UNL A   1      42.599  39.127  27.386  1.00  0.00    -0.255 N 
ATOM     94  C   UNL A   1      43.681  41.504  26.663  1.00  0.00     0.079 A 
ATOM     95  C   UNL A   1      41.901  39.880  26.428  1.00  0.00     0.266 A 
ATOM     96  C   UNL A   1      44.500  42.502  26.132  1.00  0.00     0.029 A 
ATOM     97  C   UNL A   1      42.589  41.076  25.925  1.00  0.00     0.066 A 
ATOM     98  O   UNL A   1      40.780  39.634  25.987  1.00  0.00    -0.268 OA
ATOM     99  C   UNL A   1      44.180  43.102  24.908  1.00  0.00     0.002 A 
ATOM    100  C   UNL A   1      42.224  41.701  24.727  1.00  0.00     0.016 A 
ATOM    101  C   UNL A   1      43.023  42.727  24.224  1.00  0.00     0.001 A 
BRANCH  93 102
ATOM    102  C   UNL A   1      42.487  37.680  27.335  1.00  0.00     0.051 A 
ATOM    103  C   UNL A   1      41.543  37.014  28.145  1.00  0.00     0.027 A 
ATOM    104  C   UNL A   1      43.245  36.852  26.499  1.00  0.00     0.027 A 
ATOM    105  C   UNL A   1      41.523  35.622  28.286  1.00  0.00     0.002 A 
ATOM    106  C   UNL A   1      43.281  35.460  26.679  1.00  0.00     0.002 A 
ATOM    107  C   UNL A   1      42.443  34.848  27.601  1.00  0.00     0.000 A 
ENDBRANCH  93 102
ENDBRANCH  90  91
ENDBRANCH  89  90
ENDBRANCH  87  89
ENDBRANCH  83  84
ENDBRANCH  75  78
ENDBRANCH  73  74
ENDBRANCH   1  73
TORSDOF 19
ENDMDL
MODEL 2
REMARK VINA RESULT:     -10.8      4.709      9.864
REMARK SMILES O=C(NCCCCNC(=O)c1ccc(-n2cc(CSc3nc4ccccc4c(=O)n3-c3ccccc3)nn2)cc1)c1ccc(-c2c3nc(c(-c4cc(S(=O)(=O)[O-])ccc4F)c4ccc([nH]4)c(-c4cc(S(=O)(=O)[O-])ccc4F)c4nc(c(-c5cc(S(=O)(=O)[O-])ccc5F)c5ccc2[nH]5)C=C4)C=C3)cc1
REMARK SMILES IDX 6 1 5 2 4 3 3 4 1 5 2 6 41 8 42 9 103 10 43 11 102 12 44 13
REMARK SMILES IDX 45 14 46 15 96 16 47 17 101 18 95 19 97 20 48 21 100 22
REMARK SMILES IDX 94 23 93 24 49 26 81 27 61 28 80 29 62 30 65 31 79 32 98 33
REMARK SMILES IDX 63 34 64 35 78 37 99 38 66 39 50 40 51 41 59 42 52 43 58 44
REMARK SMILES IDX 60 45 57 46 53 47 54 48 55 49 56 50 82 51 83 52 91 53 84 54
REMARK SMILES IDX 90 55 92 56 89 57 85 58 86 59 87 60 88 61 67 62 68 63 76 64
REMARK SMILES IDX 69 65 75 66 77 67 74 68 70 69 71 70 72 71 73 72 7 73 8 74
REMARK SMILES IDX 9 75 10 77 11 78 12 79 40 80 13 81 39 82 14 83 15 84 16 85
REMARK SMILES IDX 38 86 17 87 37 88 18 89 19 90 20 91 21 92 30 93 22 94 28 95
REMARK SMILES IDX 23 96 27 97 29 98 24 99 26 100 25 101 31 102 32 103 36 104
REMARK SMILES IDX 33 105 35 106 34 107
REMARK H PARENT 3 7 97 25 65 36 8 76
REMARK Flexibility Score: inf
ROOT
ATOM      1  C   UNL A   1      33.812  27.414  25.917  1.00  0.00     0.023 C 
ENDROOT
BRANCH   1   2
ATOM      2  C   UNL A   1      33.697  28.912  26.229  1.00  0.00     0.023 C 
BRANCH   2   3
ATOM      3  C   UNL A   1      34.747  29.473  27.186  1.00  0.00     0.116 C 
BRANCH   3   4
ATOM      4  N   UNL A   1      34.810  30.919  27.235  1.00  0.00    -0.352 N 
ATOM      5  O   UNL A   1      35.453  33.003  27.526  1.00  0.00    -0.269 OA
ATOM      6  C   UNL A   1      35.572  31.834  27.909  1.00  0.00     0.251 C 
ATOM      7  H   UNL A   1      34.148  31.344  26.644  1.00  0.00     0.163 HD
BRANCH   6   8
ATOM      8  C   UNL A   1      36.462  31.547  29.072  1.00  0.00     0.039 A 
ATOM      9  C   UNL A   1      36.239  30.596  30.067  1.00  0.00     0.014 A 
ATOM     10  C   UNL A   1      37.623  32.344  29.161  1.00  0.00     0.014 A 
ATOM     11  C   UNL A   1      37.112  30.495  31.155  1.00  0.00     0.010 A 
ATOM     12  C   UNL A   1      38.497  32.244  30.242  1.00  0.00     0.010 A 
ATOM     13  C   UNL A   1      38.225  31.339  31.261  1.00  0.00    -0.014 A 
BRANCH  13  14
ATOM     14  C   UNL A   1      39.165  31.133  32.369  1.00  0.00     0.031 A 
ATOM     15  C   UNL A   1      38.884  31.959  33.584  1.00  0.00     0.074 A 
ATOM     16  C   UNL A   1      40.129  30.187  32.398  1.00  0.00     0.049 A 
ATOM     17  N   UNL A   1      39.640  32.843  34.147  1.00  0.00    -0.248 NA
ATOM     18  C   UNL A   1      37.545  31.857  34.187  1.00  0.00     0.031 C 
ATOM     19  C   UNL A   1      40.381  29.117  31.430  1.00  0.00     0.029 A 
ATOM     20  N   UNL A   1      41.055  29.932  33.373  1.00  0.00    -0.354 N 
ATOM     21  C   UNL A   1      38.960  33.283  35.281  1.00  0.00     0.074 A 
ATOM     22  C   UNL A   1      37.629  32.745  35.179  1.00  0.00     0.031 C 
ATOM     23  C   UNL A   1      41.238  28.215  31.964  1.00  0.00     0.029 A 
ATOM     24  C   UNL A   1      41.706  28.706  33.251  1.00  0.00     0.049 A 
ATOM     25  H   UNL A   1      41.244  30.564  34.103  1.00  0.00     0.167 HD
ATOM     26  C   UNL A   1      39.596  33.920  36.305  1.00  0.00     0.034 A 
ATOM     27  C   UNL A   1      42.540  28.114  34.152  1.00  0.00     0.034 A 
ATOM     28  C   UNL A   1      40.861  34.462  35.880  1.00  0.00     0.049 A 
ATOM     29  C   UNL A   1      43.065  29.189  35.028  1.00  0.00     0.074 A 
ATOM     30  C   UNL A   1      41.239  35.391  34.929  1.00  0.00     0.029 A 
ATOM     31  N   UNL A   1      42.011  33.773  36.186  1.00  0.00    -0.354 N 
ATOM     32  N   UNL A   1      43.847  30.140  34.601  1.00  0.00    -0.248 NA
ATOM     33  C   UNL A   1      42.341  29.485  36.255  1.00  0.00     0.031 C 
ATOM     34  C   UNL A   1      42.421  34.850  34.341  1.00  0.00     0.029 A 
ATOM     35  C   UNL A   1      42.737  33.673  35.023  1.00  0.00     0.049 A 
ATOM     36  H   UNL A   1      42.266  33.419  37.069  1.00  0.00     0.167 HD
ATOM     37  C   UNL A   1      43.391  31.287  35.230  1.00  0.00     0.074 A 
ATOM     38  C   UNL A   1      42.523  30.808  36.305  1.00  0.00     0.031 C 
ATOM     39  C   UNL A   1      43.537  32.520  34.659  1.00  0.00     0.034 A 
BRANCH  26  40
ATOM     40  C   UNL A   1      39.209  33.816  37.765  1.00  0.00     0.023 A 
ATOM     41  C   UNL A   1      38.572  32.638  38.207  1.00  0.00     0.031 A 
ATOM     42  C   UNL A   1      39.183  34.902  38.669  1.00  0.00     0.131 A 
ATOM     43  C   UNL A   1      37.899  32.598  39.443  1.00  0.00     0.055 A 
ATOM     44  C   UNL A   1      38.568  34.837  39.923  1.00  0.00     0.041 A 
ATOM     45  F   UNL A   1      39.663  36.112  38.354  1.00  0.00    -0.206 F 
ATOM     46  C   UNL A   1      37.898  33.690  40.307  1.00  0.00     0.022 A 
BRANCH  43  47
ATOM     47  S   UNL A   1      36.878  31.150  39.837  1.00  0.00     0.124 S 
ATOM     48  O   UNL A   1      37.614  30.560  40.949  1.00  0.00    -0.237 OA
ATOM     49  O   UNL A   1      35.597  31.767  40.167  1.00  0.00    -0.237 OA
ATOM     50  O   UNL A   1      36.896  30.376  38.599  1.00  0.00    -0.744 OA
ENDBRANCH  43  47
ENDBRANCH  26  40
BRANCH  27  51
ATOM     51  C   UNL A   1      42.612  26.666  34.514  1.00  0.00     0.023 A 
ATOM     52  C   UNL A   1      43.550  25.764  33.960  1.00  0.00     0.031 A 
ATOM     53  C   UNL A   1      41.887  26.210  35.638  1.00  0.00     0.131 A 
ATOM     54  C   UNL A   1      43.723  24.475  34.527  1.00  0.00     0.055 A 
ATOM     55  C   UNL A   1      42.064  24.940  36.194  1.00  0.00     0.041 A 
ATOM     56  F   UNL A   1      41.042  27.021  36.293  1.00  0.00    -0.206 F 
ATOM     57  C   UNL A   1      42.990  24.069  35.645  1.00  0.00     0.022 A 
BRANCH  54  58
ATOM     58  S   UNL A   1      44.974  23.317  33.869  1.00  0.00     0.124 S 
ATOM     59  O   UNL A   1      44.726  22.112  34.651  1.00  0.00    -0.237 OA
ATOM     60  O   UNL A   1      44.631  23.255  32.452  1.00  0.00    -0.237 OA
ATOM     61  O   UNL A   1      46.244  23.984  34.158  1.00  0.00    -0.744 OA
ENDBRANCH  54  58
ENDBRANCH  27  51
BRANCH  39  62
ATOM     62  C   UNL A   1      44.426  32.649  33.433  1.00  0.00     0.023 A 
ATOM     63  C   UNL A   1      44.005  32.429  32.100  1.00  0.00     0.031 A 
ATOM     64  C   UNL A   1      45.732  33.135  33.628  1.00  0.00     0.131 A 
ATOM     65  C   UNL A   1      44.887  32.683  31.028  1.00  0.00     0.055 A 
ATOM     66  C   UNL A   1      46.591  33.408  32.565  1.00  0.00     0.041 A 
ATOM     67  F   UNL A   1      46.185  33.390  34.866  1.00  0.00    -0.206 F 
ATOM     68  C   UNL A   1      46.174  33.177  31.260  1.00  0.00     0.022 A 
BRANCH  65  69
ATOM     69  S   UNL A   1      44.381  32.361  29.306  1.00  0.00     0.124 S 
ATOM     70  O   UNL A   1      43.111  31.659  29.447  1.00  0.00    -0.237 OA
ATOM     71  O   UNL A   1      44.311  33.705  28.739  1.00  0.00    -0.237 OA
ATOM     72  O   UNL A   1      45.473  31.540  28.779  1.00  0.00    -0.744 OA
ENDBRANCH  65  69
ENDBRANCH  39  62
ENDBRANCH  13  14
ENDBRANCH   6   8
ENDBRANCH   3   4
ENDBRANCH   2   3
ENDBRANCH   1   2
BRANCH   1  73
ATOM     73  C   UNL A   1      33.710  27.014  24.446  1.00  0.00     0.116 C 
BRANCH  73  74
ATOM     74  N   UNL A   1      32.756  25.944  24.203  1.00  0.00    -0.352 N 
ATOM     75  C   UNL A   1      32.928  24.580  24.232  1.00  0.00     0.251 C 
ATOM     76  H   UNL A   1      31.844  26.243  23.984  1.00  0.00     0.163 HD
ATOM     77  O   UNL A   1      32.005  23.835  23.949  1.00  0.00    -0.269 OA
BRANCH  75  78
ATOM     78  C   UNL A   1      34.241  24.001  24.592  1.00  0.00     0.039 A 
ATOM     79  C   UNL A   1      34.514  23.776  25.945  1.00  0.00     0.016 A 
ATOM     80  C   UNL A   1      35.216  23.748  23.623  1.00  0.00     0.016 A 
ATOM     81  C   UNL A   1      35.744  23.239  26.332  1.00  0.00     0.029 A 
ATOM     82  C   UNL A   1      36.459  23.239  24.010  1.00  0.00     0.029 A 
ATOM     83  C   UNL A   1      36.725  22.988  25.368  1.00  0.00     0.066 A 
BRANCH  83  84
ATOM     84  N   UNL A   1      38.005  22.556  25.785  1.00  0.00    -0.220 N 
ATOM     85  C   UNL A   1      38.905  23.252  26.551  1.00  0.00     0.141 A 
ATOM     86  N   UNL A   1      38.512  21.331  25.512  1.00  0.00    -0.062 NA
ATOM     87  C   UNL A   1      39.934  22.373  26.806  1.00  0.00     0.093 A 
ATOM     88  N   UNL A   1      39.699  21.224  26.101  1.00  0.00    -0.134 NA
BRANCH  87  89
ATOM     89  C   UNL A   1      41.213  22.616  27.507  1.00  0.00     0.138 C 
BRANCH  89  90
ATOM     90  S   UNL A   1      42.495  23.683  26.842  1.00  0.00    -0.081 SA
BRANCH  90  91
ATOM     91  C   UNL A   1      42.073  25.377  26.904  1.00  0.00     0.176 A 
ATOM     92  N   UNL A   1      40.950  25.568  27.538  1.00  0.00    -0.223 NA
ATOM     93  N   UNL A   1      42.811  26.436  26.390  1.00  0.00    -0.255 N 
ATOM     94  C   UNL A   1      40.421  26.862  27.594  1.00  0.00     0.079 A 
ATOM     95  C   UNL A   1      42.028  27.492  25.897  1.00  0.00     0.266 A 
ATOM     96  C   UNL A   1      39.413  27.190  28.502  1.00  0.00     0.029 A 
ATOM     97  C   UNL A   1      40.822  27.815  26.672  1.00  0.00     0.066 A 
ATOM     98  O   UNL A   1      42.257  28.155  24.887  1.00  0.00    -0.268 OA
ATOM     99  C   UNL A   1      38.778  28.437  28.432  1.00  0.00     0.002 A 
ATOM    100  C   UNL A   1      40.164  29.043  26.552  1.00  0.00     0.016 A 
ATOM    101  C   UNL A   1      39.129  29.349  27.435  1.00  0.00     0.001 A 
BRANCH  93 102
ATOM    102  C   UNL A   1      44.255  26.547  26.291  1.00  0.00     0.051 A 
ATOM    103  C   UNL A   1      44.933  26.005  25.179  1.00  0.00     0.027 A 
ATOM    104  C   UNL A   1      45.069  27.198  27.226  1.00  0.00     0.027 A 
ATOM    105  C   UNL A   1      46.328  25.907  25.123  1.00  0.00     0.002 A 
ATOM    106  C   UNL A   1      46.465  27.049  27.215  1.00  0.00     0.002 A 
ATOM    107  C   UNL A   1      47.093  26.370  26.179  1.00  0.00     0.000 A 
ENDBRANCH  93 102
ENDBRANCH  90  91
ENDBRANCH  89  90
ENDBRANCH  87  89
ENDBRANCH  83  84
ENDBRANCH  75  78
ENDBRANCH  73  74
ENDBRANCH   1  73
TORSDOF 19
ENDMDL
MODEL 3
REMARK VINA RESULT:     -10.7      2.100      2.987
REMARK SMILES O=C(NCCCCNC(=O)c1ccc(-n2cc(CSc3nc4ccccc4c(=O)n3-c3ccccc3)nn2)cc1)c1ccc(-c2c3nc(c(-c4cc(S(=O)(=O)[O-])ccc4F)c4ccc([nH]4)c(-c4cc(S(=O)(=O)[O-])ccc4F)c4nc(c(-c5cc(S(=O)(=O)[O-])ccc5F)c5ccc2[nH]5)C=C4)C=C3)cc1
REMARK SMILES IDX 6 1 5 2 4 3 3 4 1 5 2 6 41 8 42 9 103 10 43 11 102 12 44 13
REMARK SMILES IDX 45 14 46 15 96 16 47 17 101 18 95 19 97 20 48 21 100 22
REMARK SMILES IDX 94 23 93 24 49 26 81 27 61 28 80 29 62 30 65 31 79 32 98 33
REMARK SMILES IDX 63 34 64 35 78 37 99 38 66 39 50 40 51 41 59 42 52 43 58 44
REMARK SMILES IDX 60 45 57 46 53 47 54 48 55 49 56 50 82 51 83 52 91 53 84 54
REMARK SMILES IDX 90 55 92 56 89 57 85 58 86 59 87 60 88 61 67 62 68 63 76 64
REMARK SMILES IDX 69 65 75 66 77 67 74 68 70 69 71 70 72 71 73 72 7 73 8 74
REMARK SMILES IDX 9 75 10 77 11 78 12 79 40 80 13 81 39 82 14 83 15 84 16 85
REMARK SMILES IDX 38 86 17 87 37 88 18 89 19 90 20 91 21 92 30 93 22 94 28 95
REMARK SMILES IDX 23 96 27 97 29 98 24 99 26 100 25 101 31 102 32 103 36 104
REMARK SMILES IDX 33 105 35 106 34 107
REMARK H PARENT 3 7 97 25 65 36 8 76
REMARK Flexibility Score: inf
ROOT
ATOM      1  C   UNL A   1      36.070  32.277  33.016  1.00  0.00     0.023 C 
ENDROOT
BRANCH   1   2
ATOM      2  C   UNL A   1      35.105  32.397  31.829  1.00  0.00     0.023 C 
BRANCH   2   3
ATOM      3  C   UNL A   1      35.078  33.755  31.130  1.00  0.00     0.116 C 
BRANCH   3   4
ATOM      4  N   UNL A   1      35.097  33.691  29.683  1.00  0.00    -0.352 N 
ATOM      5  O   UNL A   1      35.372  33.058  27.594  1.00  0.00    -0.269 OA
ATOM      6  C   UNL A   1      35.790  32.965  28.753  1.00  0.00     0.251 C 
ATOM      7  H   UNL A   1      34.460  34.319  29.271  1.00  0.00     0.163 HD
BRANCH   6   8
ATOM      8  C   UNL A   1      37.005  32.140  29.014  1.00  0.00     0.039 A 
ATOM      9  C   UNL A   1      38.180  32.572  29.629  1.00  0.00     0.014 A 
ATOM     10  C   UNL A   1      36.943  30.804  28.564  1.00  0.00     0.014 A 
ATOM     11  C   UNL A   1      39.282  31.716  29.726  1.00  0.00     0.010 A 
ATOM     12  C   UNL A   1      38.037  29.948  28.662  1.00  0.00     0.010 A 
ATOM     13  C   UNL A   1      39.225  30.413  29.216  1.00  0.00    -0.014 A 
BRANCH  13  14
ATOM     14  C   UNL A   1      40.370  29.521  29.426  1.00  0.00     0.031 A 
ATOM     15  C   UNL A   1      40.700  29.261  30.862  1.00  0.00     0.074 A 
ATOM     16  C   UNL A   1      41.014  28.848  28.448  1.00  0.00     0.049 A 
ATOM     17  N   UNL A   1      41.796  29.526  31.495  1.00  0.00    -0.248 NA
ATOM     18  C   UNL A   1      39.632  28.732  31.726  1.00  0.00     0.031 C 
ATOM     19  C   UNL A   1      40.669  28.760  27.028  1.00  0.00     0.029 A 
ATOM     20  N   UNL A   1      42.093  28.012  28.546  1.00  0.00    -0.354 N 
ATOM     21  C   UNL A   1      41.634  29.034  32.789  1.00  0.00     0.074 A 
ATOM     22  C   UNL A   1      40.244  28.682  32.910  1.00  0.00     0.031 C 
ATOM     23  C   UNL A   1      41.382  27.764  26.449  1.00  0.00     0.029 A 
ATOM     24  C   UNL A   1      42.332  27.234  27.415  1.00  0.00     0.049 A 
ATOM     25  H   UNL A   1      42.655  27.963  29.353  1.00  0.00     0.167 HD
ATOM     26  C   UNL A   1      42.696  28.797  33.612  1.00  0.00     0.034 A 
ATOM     27  C   UNL A   1      43.217  26.205  27.284  1.00  0.00     0.034 A 
ATOM     28  C   UNL A   1      43.866  29.517  33.176  1.00  0.00     0.049 A 
ATOM     29  C   UNL A   1      44.246  26.383  28.336  1.00  0.00     0.074 A 
ATOM     30  C   UNL A   1      44.164  30.856  33.005  1.00  0.00     0.029 A 
ATOM     31  N   UNL A   1      44.833  28.841  32.469  1.00  0.00    -0.354 N 
ATOM     32  N   UNL A   1      45.080  27.385  28.359  1.00  0.00    -0.248 NA
ATOM     33  C   UNL A   1      44.036  25.723  29.616  1.00  0.00     0.031 C 
ATOM     34  C   UNL A   1      44.925  30.909  31.800  1.00  0.00     0.029 A 
ATOM     35  C   UNL A   1      45.115  29.598  31.357  1.00  0.00     0.049 A 
ATOM     36  H   UNL A   1      45.244  27.979  32.713  1.00  0.00     0.167 HD
ATOM     37  C   UNL A   1      45.155  27.758  29.691  1.00  0.00     0.074 A 
ATOM     38  C   UNL A   1      44.563  26.643  30.429  1.00  0.00     0.031 C 
ATOM     39  C   UNL A   1      45.436  29.045  30.056  1.00  0.00     0.034 A 
BRANCH  26  40
ATOM     40  C   UNL A   1      42.762  27.697  34.649  1.00  0.00     0.023 A 
ATOM     41  C   UNL A   1      43.503  26.536  34.348  1.00  0.00     0.031 A 
ATOM     42  C   UNL A   1      41.923  27.611  35.783  1.00  0.00     0.131 A 
ATOM     43  C   UNL A   1      43.343  25.358  35.103  1.00  0.00     0.055 A 
ATOM     44  C   UNL A   1      41.816  26.459  36.568  1.00  0.00     0.041 A 
ATOM     45  F   UNL A   1      41.091  28.598  36.139  1.00  0.00    -0.206 F 
ATOM     46  C   UNL A   1      42.507  25.315  36.216  1.00  0.00     0.022 A 
BRANCH  43  47
ATOM     47  S   UNL A   1      44.117  23.827  34.511  1.00  0.00     0.124 S 
ATOM     48  O   UNL A   1      43.239  22.810  35.078  1.00  0.00    -0.237 OA
ATOM     49  O   UNL A   1      44.054  23.999  33.064  1.00  0.00    -0.237 OA
ATOM     50  O   UNL A   1      45.459  23.882  35.086  1.00  0.00    -0.744 OA
ENDBRANCH  43  47
ENDBRANCH  26  40
BRANCH  27  51
ATOM     51  C   UNL A   1      43.015  24.916  26.557  1.00  0.00     0.023 A 
ATOM     52  C   UNL A   1      43.914  24.412  25.588  1.00  0.00     0.031 A 
ATOM     53  C   UNL A   1      42.022  24.023  27.019  1.00  0.00     0.131 A 
ATOM     54  C   UNL A   1      43.790  23.077  25.125  1.00  0.00     0.055 A 
ATOM     55  C   UNL A   1      41.908  22.709  26.561  1.00  0.00     0.041 A 
ATOM     56  F   UNL A   1      41.180  24.374  28.004  1.00  0.00    -0.206 F 
ATOM     57  C   UNL A   1      42.797  22.227  25.616  1.00  0.00     0.022 A 
BRANCH  54  58
ATOM     58  S   UNL A   1      44.980  22.384  23.922  1.00  0.00     0.124 S 
ATOM     59  O   UNL A   1      46.021  23.404  23.891  1.00  0.00    -0.237 OA
ATOM     60  O   UNL A   1      45.336  21.108  24.531  1.00  0.00    -0.237 OA
ATOM     61  O   UNL A   1      44.196  22.272  22.691  1.00  0.00    -0.744 OA
ENDBRANCH  54  58
ENDBRANCH  27  51
BRANCH  39  62
ATOM     62  C   UNL A   1      45.908  30.014  28.985  1.00  0.00     0.023 A 
ATOM     63  C   UNL A   1      45.061  30.840  28.208  1.00  0.00     0.031 A 
ATOM     64  C   UNL A   1      47.296  30.189  28.836  1.00  0.00     0.131 A 
ATOM     65  C   UNL A   1      45.615  31.782  27.316  1.00  0.00     0.055 A 
ATOM     66  C   UNL A   1      47.839  31.138  27.972  1.00  0.00     0.041 A 
ATOM     67  F   UNL A   1      48.156  29.456  29.563  1.00  0.00    -0.206 F 
ATOM     68  C   UNL A   1      47.000  31.936  27.203  1.00  0.00     0.022 A 
BRANCH  65  69
ATOM     69  S   UNL A   1      44.541  32.823  26.271  1.00  0.00     0.124 S 
ATOM     70  O   UNL A   1      43.952  33.764  27.215  1.00  0.00    -0.237 OA
ATOM     71  O   UNL A   1      45.483  33.384  25.307  1.00  0.00    -0.237 OA
ATOM     72  O   UNL A   1      43.593  31.863  25.700  1.00  0.00    -0.744 OA
ENDBRANCH  65  69
ENDBRANCH  39  62
ENDBRANCH  13  14
ENDBRANCH   6   8
ENDBRANCH   3   4
ENDBRANCH   2   3
ENDBRANCH   1   2
BRANCH   1  73
ATOM     73  C   UNL A   1      37.086  31.137  32.957  1.00  0.00     0.116 C 
BRANCH  73  74
ATOM     74  N   UNL A   1      37.448  30.618  34.265  1.00  0.00    -0.352 N 
ATOM     75  C   UNL A   1      38.433  31.021  35.136  1.00  0.00     0.251 C 
ATOM     76  H   UNL A   1      36.904  29.859  34.576  1.00  0.00     0.163 HD
ATOM     77  O   UNL A   1      38.616  30.421  36.182  1.00  0.00    -0.269 OA
BRANCH  75  78
ATOM     78  C   UNL A   1      39.292  32.179  34.806  1.00  0.00     0.039 A 
ATOM     79  C   UNL A   1      40.548  31.929  34.243  1.00  0.00     0.016 A 
ATOM     80  C   UNL A   1      38.901  33.486  35.110  1.00  0.00     0.016 A 
ATOM     81  C   UNL A   1      41.397  32.992  33.925  1.00  0.00     0.029 A 
ATOM     82  C   UNL A   1      39.761  34.550  34.820  1.00  0.00     0.029 A 
ATOM     83  C   UNL A   1      41.013  34.302  34.230  1.00  0.00     0.066 A 
BRANCH  83  84
ATOM     84  N   UNL A   1      41.929  35.356  34.010  1.00  0.00    -0.220 N 
ATOM     85  C   UNL A   1      42.903  35.421  33.047  1.00  0.00     0.141 A 
ATOM     86  N   UNL A   1      41.935  36.507  34.722  1.00  0.00    -0.062 NA
ATOM     87  C   UNL A   1      43.438  36.686  33.143  1.00  0.00     0.093 A 
ATOM     88  N   UNL A   1      42.872  37.309  34.222  1.00  0.00    -0.134 NA
BRANCH  87  89
ATOM     89  C   UNL A   1      44.580  37.271  32.409  1.00  0.00     0.138 C 
BRANCH  89  90
ATOM     90  S   UNL A   1      44.387  38.147  30.854  1.00  0.00    -0.081 SA
BRANCH  90  91
ATOM     91  C   UNL A   1      43.844  39.794  31.060  1.00  0.00     0.176 A 
ATOM     92  N   UNL A   1      44.371  40.344  32.117  1.00  0.00    -0.223 NA
ATOM     93  N   UNL A   1      42.984  40.496  30.224  1.00  0.00    -0.255 N 
ATOM     94  C   UNL A   1      43.965  41.632  32.480  1.00  0.00     0.079 A 
ATOM     95  C   UNL A   1      42.150  41.405  30.895  1.00  0.00     0.266 A 
ATOM     96  C   UNL A   1      44.699  42.390  33.393  1.00  0.00     0.029 A 
ATOM     97  C   UNL A   1      42.763  42.137  32.011  1.00  0.00     0.066 A 
ATOM     98  O   UNL A   1      40.970  41.633  30.637  1.00  0.00    -0.268 OA
ATOM     99  C   UNL A   1      44.193  43.605  33.873  1.00  0.00     0.002 A 
ATOM    100  C   UNL A   1      42.216  43.320  32.519  1.00  0.00     0.016 A 
ATOM    101  C   UNL A   1      42.936  44.052  33.463  1.00  0.00     0.001 A 
BRANCH  93 102
ATOM    102  C   UNL A   1      42.848  40.372  28.784  1.00  0.00     0.051 A 
ATOM    103  C   UNL A   1      43.689  41.112  27.926  1.00  0.00     0.027 A 
ATOM    104  C   UNL A   1      41.937  39.527  28.141  1.00  0.00     0.027 A 
ATOM    105  C   UNL A   1      43.477  41.186  26.546  1.00  0.00     0.002 A 
ATOM    106  C   UNL A   1      41.670  39.641  26.766  1.00  0.00     0.002 A 
ATOM    107  C   UNL A   1      42.420  40.501  25.974  1.00  0.00     0.000 A 
ENDBRANCH  93 102
ENDBRANCH  90  91
ENDBRANCH  89  90
ENDBRANCH  87  89
ENDBRANCH  83  84
ENDBRANCH  75  78
ENDBRANCH  73  74
ENDBRANCH   1  73
TORSDOF 19
ENDMDL
