MODEL 1
REMARK VINA RESULT:     -11.0      0.000      0.000
REMARK SMILES O=C(CCC1CC[NH+]([C@H]2CCO[C@@]3(CCSC3)C2)CC1)NCCCCNC(=O)c1ccc(-c2c3nc(c(-c4cc(S(=O)(=O)[O-])ccc4F)c4ccc([nH]4)c(-c4cc(S(=O)(=O)[O-])ccc4F)c4nc(c(-c5cc(S(=O)(=O)[O-])ccc5F)c5ccc2[nH]5)C=C4)C=C3)cc1
REMARK SMILES IDX 23 1 22 2 21 3 1 4 2 5 3 7 4 8 5 9 6 10 20 11 7 12 19 13
REMARK SMILES IDX 8 14 9 16 10 17 18 18 11 19 13 20 12 21 14 22 17 23 15 24
REMARK SMILES IDX 16 25 24 26 25 27 26 28 27 29 28 31 29 32 30 33 91 34 31 35
REMARK SMILES IDX 90 36 32 37 33 38 34 39 84 40 35 41 89 42 83 43 85 44 36 45
REMARK SMILES IDX 88 46 82 47 81 48 37 50 69 51 49 52 68 53 50 54 53 55 67 56
REMARK SMILES IDX 86 57 51 58 52 59 66 61 87 62 54 63 38 64 39 65 47 66 40 67
REMARK SMILES IDX 46 68 48 69 45 70 41 71 42 72 43 73 44 74 70 75 71 76 79 77
REMARK SMILES IDX 72 78 78 79 80 80 77 81 73 82 74 83 75 84 76 85 55 86 56 87
REMARK SMILES IDX 64 88 57 89 63 90 65 91 62 92 58 93 59 94 60 95 61 96
REMARK H PARENT 21 6 8 15 26 30 85 49 53 60
REMARK Flexibility Score: inf
ROOT
ATOM      1  C   UNL A   1      40.832  20.709  27.889  1.00  0.00     0.023 C 
ENDROOT
BRANCH   1   2
ATOM      2  C   UNL A   1      40.274  21.787  26.948  1.00  0.00     0.116 C 
BRANCH   2   3
ATOM      3  N   UNL A   1      39.275  21.312  25.998  1.00  0.00    -0.356 N 
ATOM      4  O   UNL A   1      37.986  23.205  26.152  1.00  0.00    -0.275 OA
ATOM      5  C   UNL A   1      38.210  22.116  25.629  1.00  0.00     0.220 C 
ATOM      6  H   UNL A   1      39.359  20.410  25.614  1.00  0.00     0.163 HD
BRANCH   5   7
ATOM      7  C   UNL A   1      37.305  21.564  24.537  1.00  0.00     0.100 C 
BRANCH   7   8
ATOM      8  C   UNL A   1      36.151  20.693  25.057  1.00  0.00     0.014 C 
BRANCH   8   9
ATOM      9  C   UNL A   1      34.695  21.223  25.057  1.00  0.00     0.000 C 
ATOM     10  C   UNL A   1      34.427  22.350  24.055  1.00  0.00     0.065 C 
ATOM     11  C   UNL A   1      34.126  21.556  26.444  1.00  0.00     0.065 C 
ATOM     12  C   UNL A   1      34.779  23.724  24.596  1.00  0.00     0.262 C 
ATOM     13  C   UNL A   1      34.373  22.985  26.908  1.00  0.00     0.262 C 
ATOM     14  N   UNL A   1      34.174  24.006  25.890  1.00  0.00    -0.332 N 
ATOM     15  H   UNL A   1      34.719  24.759  26.308  1.00  0.00     0.348 HD
BRANCH  14  16
ATOM     16  C   UNL A   1      32.841  24.588  25.762  1.00  0.00     0.189 C 
ATOM     17  C   UNL A   1      31.647  23.974  26.493  1.00  0.00     0.093 C 
ATOM     18  C   UNL A   1      32.944  26.049  26.164  1.00  0.00     0.101 C 
ATOM     19  C   UNL A   1      30.392  24.775  26.138  1.00  0.00     0.167 C 
ATOM     20  C   UNL A   1      31.657  26.778  25.742  1.00  0.00     0.084 C 
ATOM     21  O   UNL A   1      30.550  26.166  26.413  1.00  0.00    -0.374 OA
ATOM     22  C   UNL A   1      31.746  28.228  26.188  1.00  0.00     0.047 C 
ATOM     23  C   UNL A   1      31.441  26.920  24.221  1.00  0.00     0.105 C 
ATOM     24  C   UNL A   1      32.814  28.882  25.324  1.00  0.00     0.072 C 
ATOM     25  S   UNL A   1      32.651  28.154  23.678  1.00  0.00    -0.159 SA
ENDBRANCH  14  16
ENDBRANCH   8   9
ENDBRANCH   7   8
ENDBRANCH   5   7
ENDBRANCH   2   3
ENDBRANCH   1   2
BRANCH   1  26
ATOM     26  C   UNL A   1      41.832  19.698  27.292  1.00  0.00     0.023 C 
BRANCH  26  27
ATOM     27  C   UNL A   1      41.972  19.632  25.751  1.00  0.00     0.116 C 
BRANCH  27  28
ATOM     28  N   UNL A   1      43.346  19.702  25.269  1.00  0.00    -0.352 N 
ATOM     29  C   UNL A   1      44.262  20.737  25.183  1.00  0.00     0.251 C 
ATOM     30  H   UNL A   1      43.693  18.841  24.940  1.00  0.00     0.163 HD
ATOM     31  O   UNL A   1      45.355  20.489  24.670  1.00  0.00    -0.269 OA
BRANCH  29  32
ATOM     32  C   UNL A   1      44.005  22.136  25.637  1.00  0.00     0.039 A 
ATOM     33  C   UNL A   1      44.055  22.428  27.008  1.00  0.00     0.014 A 
ATOM     34  C   UNL A   1      43.548  23.140  24.791  1.00  0.00     0.014 A 
ATOM     35  C   UNL A   1      43.786  23.732  27.503  1.00  0.00     0.010 A 
ATOM     36  C   UNL A   1      43.306  24.447  25.296  1.00  0.00     0.010 A 
ATOM     37  C   UNL A   1      43.505  24.812  26.649  1.00  0.00    -0.014 A 
BRANCH  37  38
ATOM     38  C   UNL A   1      43.577  26.281  27.115  1.00  0.00     0.031 A 
ATOM     39  C   UNL A   1      44.902  27.007  27.361  1.00  0.00     0.074 A 
ATOM     40  C   UNL A   1      42.469  26.968  27.521  1.00  0.00     0.049 A 
ATOM     41  N   UNL A   1      45.123  28.181  27.921  1.00  0.00    -0.248 NA
ATOM     42  C   UNL A   1      46.131  26.315  26.961  1.00  0.00     0.031 C 
ATOM     43  C   UNL A   1      41.083  26.494  27.482  1.00  0.00     0.029 A 
ATOM     44  N   UNL A   1      42.344  28.211  28.130  1.00  0.00    -0.354 N 
ATOM     45  C   UNL A   1      46.506  28.350  27.959  1.00  0.00     0.074 A 
ATOM     46  C   UNL A   1      47.067  27.104  27.471  1.00  0.00     0.031 C 
ATOM     47  C   UNL A   1      40.280  27.369  28.106  1.00  0.00     0.029 A 
ATOM     48  C   UNL A   1      41.065  28.505  28.564  1.00  0.00     0.049 A 
ATOM     49  H   UNL A   1      43.102  28.829  28.243  1.00  0.00     0.167 HD
ATOM     50  C   UNL A   1      47.256  29.441  28.288  1.00  0.00     0.034 A 
ATOM     51  C   UNL A   1      40.538  29.547  29.246  1.00  0.00     0.034 A 
ATOM     52  C   UNL A   1      46.743  30.726  28.710  1.00  0.00     0.049 A 
ATOM     53  C   UNL A   1      41.365  30.753  29.607  1.00  0.00     0.074 A 
ATOM     54  C   UNL A   1      47.440  31.915  28.884  1.00  0.00     0.029 A 
ATOM     55  N   UNL A   1      45.428  31.000  29.041  1.00  0.00    -0.354 N 
ATOM     56  N   UNL A   1      42.652  30.939  29.468  1.00  0.00    -0.248 NA
ATOM     57  C   UNL A   1      40.649  31.913  30.167  1.00  0.00     0.031 C 
ATOM     58  C   UNL A   1      46.561  32.889  29.372  1.00  0.00     0.029 A 
ATOM     59  C   UNL A   1      45.300  32.328  29.441  1.00  0.00     0.049 A 
ATOM     60  H   UNL A   1      44.690  30.351  29.001  1.00  0.00     0.167 HD
ATOM     61  C   UNL A   1      42.883  32.259  29.852  1.00  0.00     0.074 A 
ATOM     62  C   UNL A   1      41.614  32.818  30.250  1.00  0.00     0.031 C 
ATOM     63  C   UNL A   1      44.055  32.940  29.837  1.00  0.00     0.034 A 
BRANCH  50  64
ATOM     64  C   UNL A   1      48.760  29.314  28.141  1.00  0.00     0.023 A 
ATOM     65  C   UNL A   1      49.371  29.433  26.882  1.00  0.00     0.031 A 
ATOM     66  C   UNL A   1      49.590  29.084  29.252  1.00  0.00     0.131 A 
ATOM     67  C   UNL A   1      50.744  29.199  26.741  1.00  0.00     0.055 A 
ATOM     68  C   UNL A   1      50.977  28.960  29.119  1.00  0.00     0.041 A 
ATOM     69  F   UNL A   1      49.073  28.971  30.485  1.00  0.00    -0.206 F 
ATOM     70  C   UNL A   1      51.558  28.992  27.855  1.00  0.00     0.022 A 
BRANCH  67  71
ATOM     71  S   UNL A   1      51.403  28.993  25.066  1.00  0.00     0.124 S 
ATOM     72  O   UNL A   1      50.307  28.284  24.408  1.00  0.00    -0.237 OA
ATOM     73  O   UNL A   1      51.616  30.372  24.638  1.00  0.00    -0.237 OA
ATOM     74  O   UNL A   1      52.614  28.205  25.269  1.00  0.00    -0.744 OA
ENDBRANCH  67  71
ENDBRANCH  50  64
BRANCH  51  75
ATOM     75  C   UNL A   1      39.091  29.543  29.618  1.00  0.00     0.023 A 
ATOM     76  C   UNL A   1      38.159  30.280  28.872  1.00  0.00     0.031 A 
ATOM     77  C   UNL A   1      38.647  28.881  30.774  1.00  0.00     0.131 A 
ATOM     78  C   UNL A   1      36.837  30.395  29.327  1.00  0.00     0.055 A 
ATOM     79  C   UNL A   1      37.318  28.957  31.195  1.00  0.00     0.041 A 
ATOM     80  F   UNL A   1      39.504  28.165  31.518  1.00  0.00    -0.206 F 
ATOM     81  C   UNL A   1      36.407  29.731  30.478  1.00  0.00     0.022 A 
BRANCH  78  82
ATOM     82  S   UNL A   1      35.714  31.510  28.441  1.00  0.00     0.124 S 
ATOM     83  O   UNL A   1      36.631  32.544  27.976  1.00  0.00    -0.237 OA
ATOM     84  O   UNL A   1      35.163  30.631  27.414  1.00  0.00    -0.237 OA
ATOM     85  O   UNL A   1      34.768  31.929  29.473  1.00  0.00    -0.744 OA
ENDBRANCH  78  82
ENDBRANCH  51  75
BRANCH  63  86
ATOM     86  C   UNL A   1      44.023  34.416  30.165  1.00  0.00     0.023 A 
ATOM     87  C   UNL A   1      43.989  34.899  31.486  1.00  0.00     0.031 A 
ATOM     88  C   UNL A   1      44.009  35.361  29.123  1.00  0.00     0.131 A 
ATOM     89  C   UNL A   1      43.900  36.282  31.728  1.00  0.00     0.055 A 
ATOM     90  C   UNL A   1      43.971  36.736  29.369  1.00  0.00     0.041 A 
ATOM     91  F   UNL A   1      44.031  34.964  27.840  1.00  0.00    -0.206 F 
ATOM     92  C   UNL A   1      43.906  37.202  30.677  1.00  0.00     0.022 A 
BRANCH  89  93
ATOM     93  S   UNL A   1      43.708  36.868  33.436  1.00  0.00     0.124 S 
ATOM     94  O   UNL A   1      43.446  38.291  33.243  1.00  0.00    -0.237 OA
ATOM     95  O   UNL A   1      42.583  36.071  33.916  1.00  0.00    -0.237 OA
ATOM     96  O   UNL A   1      44.996  36.554  34.055  1.00  0.00    -0.744 OA
ENDBRANCH  89  93
ENDBRANCH  63  86
ENDBRANCH  37  38
ENDBRANCH  29  32
ENDBRANCH  27  28
ENDBRANCH  26  27
ENDBRANCH   1  26
TORSDOF 17
ENDMDL
MODEL 2
REMARK VINA RESULT:     -11.0      3.226      9.513
REMARK SMILES O=C(CCC1CC[NH+]([C@H]2CCO[C@@]3(CCSC3)C2)CC1)NCCCCNC(=O)c1ccc(-c2c3nc(c(-c4cc(S(=O)(=O)[O-])ccc4F)c4ccc([nH]4)c(-c4cc(S(=O)(=O)[O-])ccc4F)c4nc(c(-c5cc(S(=O)(=O)[O-])ccc5F)c5ccc2[nH]5)C=C4)C=C3)cc1
REMARK SMILES IDX 23 1 22 2 21 3 1 4 2 5 3 7 4 8 5 9 6 10 20 11 7 12 19 13
REMARK SMILES IDX 8 14 9 16 10 17 18 18 11 19 13 20 12 21 14 22 17 23 15 24
REMARK SMILES IDX 16 25 24 26 25 27 26 28 27 29 28 31 29 32 30 33 91 34 31 35
REMARK SMILES IDX 90 36 32 37 33 38 34 39 84 40 35 41 89 42 83 43 85 44 36 45
REMARK SMILES IDX 88 46 82 47 81 48 37 50 69 51 49 52 68 53 50 54 53 55 67 56
REMARK SMILES IDX 86 57 51 58 52 59 66 61 87 62 54 63 38 64 39 65 47 66 40 67
REMARK SMILES IDX 46 68 48 69 45 70 41 71 42 72 43 73 44 74 70 75 71 76 79 77
REMARK SMILES IDX 72 78 78 79 80 80 77 81 73 82 74 83 75 84 76 85 55 86 56 87
REMARK SMILES IDX 64 88 57 89 63 90 65 91 62 92 58 93 59 94 60 95 61 96
REMARK H PARENT 21 6 8 15 26 30 85 49 53 60
REMARK Flexibility Score: inf
ROOT
ATOM      1  C   UNL A   1      34.195  34.302  29.379  1.00  0.00     0.023 C 
ENDROOT
BRANCH   1   2
ATOM      2  C   UNL A   1      34.602  32.991  28.689  1.00  0.00     0.116 C 
BRANCH   2   3
ATOM      3  N   UNL A   1      33.523  32.311  27.983  1.00  0.00    -0.356 N 
ATOM      4  O   UNL A   1      34.750  30.411  27.594  1.00  0.00    -0.275 OA
ATOM      5  C   UNL A   1      33.681  31.012  27.530  1.00  0.00     0.220 C 
ATOM      6  H   UNL A   1      32.672  32.781  27.826  1.00  0.00     0.163 HD
BRANCH   5   7
ATOM      7  C   UNL A   1      32.446  30.364  26.921  1.00  0.00     0.100 C 
BRANCH   7   8
ATOM      8  C   UNL A   1      32.709  29.626  25.599  1.00  0.00     0.014 C 
BRANCH   8   9
ATOM      9  C   UNL A   1      32.062  28.247  25.319  1.00  0.00     0.000 C 
ATOM     10  C   UNL A   1      32.562  27.113  26.220  1.00  0.00     0.065 C 
ATOM     11  C   UNL A   1      32.045  27.827  23.842  1.00  0.00     0.065 C 
ATOM     12  C   UNL A   1      33.835  26.464  25.707  1.00  0.00     0.262 C 
ATOM     13  C   UNL A   1      33.276  27.054  23.385  1.00  0.00     0.262 C 
ATOM     14  N   UNL A   1      33.747  26.040  24.317  1.00  0.00    -0.332 N 
ATOM     15  H   UNL A   1      34.705  25.946  23.981  1.00  0.00     0.348 HD
BRANCH  14  16
ATOM     16  C   UNL A   1      33.209  24.690  24.183  1.00  0.00     0.189 C 
ATOM     17  C   UNL A   1      32.467  24.267  22.915  1.00  0.00     0.093 C 
ATOM     18  C   UNL A   1      34.358  23.721  24.407  1.00  0.00     0.101 C 
ATOM     19  C   UNL A   1      31.996  22.821  23.084  1.00  0.00     0.167 C 
ATOM     20  C   UNL A   1      33.789  22.304  24.597  1.00  0.00     0.084 C 
ATOM     21  O   UNL A   1      33.071  21.943  23.411  1.00  0.00    -0.374 OA
ATOM     22  C   UNL A   1      34.943  21.332  24.773  1.00  0.00     0.047 C 
ATOM     23  C   UNL A   1      32.977  22.081  25.889  1.00  0.00     0.105 C 
ATOM     24  C   UNL A   1      35.565  21.640  26.128  1.00  0.00     0.072 C 
ATOM     25  S   UNL A   1      34.198  22.072  27.227  1.00  0.00    -0.159 SA
ENDBRANCH  14  16
ENDBRANCH   8   9
ENDBRANCH   7   8
ENDBRANCH   5   7
ENDBRANCH   2   3
ENDBRANCH   1   2
BRANCH   1  26
ATOM     26  C   UNL A   1      34.411  34.393  30.904  1.00  0.00     0.023 C 
BRANCH  26  27
ATOM     27  C   UNL A   1      34.278  33.096  31.740  1.00  0.00     0.116 C 
BRANCH  27  28
ATOM     28  N   UNL A   1      34.834  33.189  33.085  1.00  0.00    -0.352 N 
ATOM     29  C   UNL A   1      36.002  32.711  33.654  1.00  0.00     0.251 C 
ATOM     30  H   UNL A   1      34.266  33.691  33.713  1.00  0.00     0.163 HD
ATOM     31  O   UNL A   1      36.173  32.913  34.858  1.00  0.00    -0.269 OA
BRANCH  29  32
ATOM     32  C   UNL A   1      37.052  31.943  32.920  1.00  0.00     0.039 A 
ATOM     33  C   UNL A   1      36.941  31.794  31.530  1.00  0.00     0.014 A 
ATOM     34  C   UNL A   1      38.051  31.217  33.559  1.00  0.00     0.014 A 
ATOM     35  C   UNL A   1      37.889  31.046  30.782  1.00  0.00     0.010 A 
ATOM     36  C   UNL A   1      39.008  30.492  32.796  1.00  0.00     0.010 A 
ATOM     37  C   UNL A   1      39.015  30.458  31.380  1.00  0.00    -0.014 A 
BRANCH  37  38
ATOM     38  C   UNL A   1      40.232  29.971  30.564  1.00  0.00     0.031 A 
ATOM     39  C   UNL A   1      41.362  30.905  30.126  1.00  0.00     0.074 A 
ATOM     40  C   UNL A   1      40.285  28.720  30.020  1.00  0.00     0.049 A 
ATOM     41  N   UNL A   1      42.357  30.681  29.290  1.00  0.00    -0.248 NA
ATOM     42  C   UNL A   1      41.352  32.269  30.665  1.00  0.00     0.031 C 
ATOM     43  C   UNL A   1      39.303  27.646  30.196  1.00  0.00     0.029 A 
ATOM     44  N   UNL A   1      41.187  28.158  29.124  1.00  0.00    -0.354 N 
ATOM     45  C   UNL A   1      43.069  31.876  29.190  1.00  0.00     0.074 A 
ATOM     46  C   UNL A   1      42.317  32.847  29.962  1.00  0.00     0.031 C 
ATOM     47  C   UNL A   1      39.597  26.617  29.388  1.00  0.00     0.029 A 
ATOM     48  C   UNL A   1      40.817  26.913  28.650  1.00  0.00     0.049 A 
ATOM     49  H   UNL A   1      42.018  28.608  28.850  1.00  0.00     0.167 HD
ATOM     50  C   UNL A   1      44.263  32.147  28.589  1.00  0.00     0.034 A 
ATOM     51  C   UNL A   1      41.358  26.072  27.741  1.00  0.00     0.034 A 
ATOM     52  C   UNL A   1      45.085  31.198  27.871  1.00  0.00     0.049 A 
ATOM     53  C   UNL A   1      42.679  26.370  27.080  1.00  0.00     0.074 A 
ATOM     54  C   UNL A   1      46.380  31.368  27.398  1.00  0.00     0.029 A 
ATOM     55  N   UNL A   1      44.707  29.920  27.503  1.00  0.00    -0.354 N 
ATOM     56  N   UNL A   1      43.407  27.454  27.148  1.00  0.00    -0.248 NA
ATOM     57  C   UNL A   1      43.275  25.299  26.261  1.00  0.00     0.031 C 
ATOM     58  C   UNL A   1      46.762  30.217  26.698  1.00  0.00     0.029 A 
ATOM     59  C   UNL A   1      45.731  29.302  26.790  1.00  0.00     0.049 A 
ATOM     60  H   UNL A   1      43.839  29.506  27.714  1.00  0.00     0.167 HD
ATOM     61  C   UNL A   1      44.576  27.165  26.446  1.00  0.00     0.074 A 
ATOM     62  C   UNL A   1      44.452  25.819  25.943  1.00  0.00     0.031 C 
ATOM     63  C   UNL A   1      45.664  27.956  26.274  1.00  0.00     0.034 A 
BRANCH  50  64
ATOM     64  C   UNL A   1      44.807  33.554  28.739  1.00  0.00     0.023 A 
ATOM     65  C   UNL A   1      45.597  33.905  29.847  1.00  0.00     0.031 A 
ATOM     66  C   UNL A   1      44.550  34.549  27.779  1.00  0.00     0.131 A 
ATOM     67  C   UNL A   1      45.996  35.233  30.034  1.00  0.00     0.055 A 
ATOM     68  C   UNL A   1      45.044  35.849  27.918  1.00  0.00     0.041 A 
ATOM     69  F   UNL A   1      43.811  34.279  26.692  1.00  0.00    -0.206 F 
ATOM     70  C   UNL A   1      45.751  36.205  29.063  1.00  0.00     0.022 A 
BRANCH  67  71
ATOM     71  S   UNL A   1      46.678  35.696  31.648  1.00  0.00     0.124 S 
ATOM     72  O   UNL A   1      46.360  37.121  31.701  1.00  0.00    -0.237 OA
ATOM     73  O   UNL A   1      45.927  34.842  32.564  1.00  0.00    -0.237 OA
ATOM     74  O   UNL A   1      48.097  35.384  31.523  1.00  0.00    -0.744 OA
ENDBRANCH  67  71
ENDBRANCH  50  64
BRANCH  51  75
ATOM     75  C   UNL A   1      40.671  24.790  27.404  1.00  0.00     0.023 A 
ATOM     76  C   UNL A   1      41.313  23.559  27.610  1.00  0.00     0.031 A 
ATOM     77  C   UNL A   1      39.409  24.789  26.788  1.00  0.00     0.131 A 
ATOM     78  C   UNL A   1      40.720  22.377  27.141  1.00  0.00     0.055 A 
ATOM     79  C   UNL A   1      38.801  23.604  26.368  1.00  0.00     0.041 A 
ATOM     80  F   UNL A   1      38.759  25.943  26.570  1.00  0.00    -0.206 F 
ATOM     81  C   UNL A   1      39.465  22.390  26.530  1.00  0.00     0.022 A 
BRANCH  78  82
ATOM     82  S   UNL A   1      41.666  20.834  27.255  1.00  0.00     0.124 S 
ATOM     83  O   UNL A   1      40.731  19.965  27.960  1.00  0.00    -0.237 OA
ATOM     84  O   UNL A   1      41.902  20.519  25.850  1.00  0.00    -0.237 OA
ATOM     85  O   UNL A   1      42.855  21.220  28.013  1.00  0.00    -0.744 OA
ENDBRANCH  78  82
ENDBRANCH  51  75
BRANCH  63  86
ATOM     86  C   UNL A   1      46.874  27.360  25.592  1.00  0.00     0.023 A 
ATOM     87  C   UNL A   1      47.280  27.738  24.298  1.00  0.00     0.031 A 
ATOM     88  C   UNL A   1      47.630  26.373  26.251  1.00  0.00     0.131 A 
ATOM     89  C   UNL A   1      48.380  27.104  23.692  1.00  0.00     0.055 A 
ATOM     90  C   UNL A   1      48.752  25.782  25.665  1.00  0.00     0.041 A 
ATOM     91  F   UNL A   1      47.290  25.962  27.484  1.00  0.00    -0.206 F 
ATOM     92  C   UNL A   1      49.126  26.140  24.374  1.00  0.00     0.022 A 
BRANCH  89  93
ATOM     93  S   UNL A   1      48.789  27.506  21.969  1.00  0.00     0.124 S 
ATOM     94  O   UNL A   1      47.793  28.524  21.649  1.00  0.00    -0.237 OA
ATOM     95  O   UNL A   1      50.167  27.973  22.075  1.00  0.00    -0.237 OA
ATOM     96  O   UNL A   1      48.620  26.233  21.269  1.00  0.00    -0.744 OA
ENDBRANCH  89  93
ENDBRANCH  63  86
ENDBRANCH  37  38
ENDBRANCH  29  32
ENDBRANCH  27  28
ENDBRANCH  26  27
ENDBRANCH   1  26
TORSDOF 17
ENDMDL
MODEL 3
REMARK VINA RESULT:     -10.9      3.448      9.292
REMARK SMILES O=C(CCC1CC[NH+]([C@H]2CCO[C@@]3(CCSC3)C2)CC1)NCCCCNC(=O)c1ccc(-c2c3nc(c(-c4cc(S(=O)(=O)[O-])ccc4F)c4ccc([nH]4)c(-c4cc(S(=O)(=O)[O-])ccc4F)c4nc(c(-c5cc(S(=O)(=O)[O-])ccc5F)c5ccc2[nH]5)C=C4)C=C3)cc1
REMARK SMILES IDX 23 1 22 2 21 3 1 4 2 5 3 7 4 8 5 9 6 10 20 11 7 12 19 13
REMARK SMILES IDX 8 14 9 16 10 17 18 18 11 19 13 20 12 21 14 22 17 23 15 24
REMARK SMILES IDX 16 25 24 26 25 27 26 28 27 29 28 31 29 32 30 33 91 34 31 35
REMARK SMILES IDX 90 36 32 37 33 38 34 39 84 40 35 41 89 42 83 43 85 44 36 45
REMARK SMILES IDX 88 46 82 47 81 48 37 50 69 51 49 52 68 53 50 54 53 55 67 56
REMARK SMILES IDX 86 57 51 58 52 59 66 61 87 62 54 63 38 64 39 65 47 66 40 67
REMARK SMILES IDX 46 68 48 69 45 70 41 71 42 72 43 73 44 74 70 75 71 76 79 77
REMARK SMILES IDX 72 78 78 79 80 80 77 81 73 82 74 83 75 84 76 85 55 86 56 87
REMARK SMILES IDX 64 88 57 89 63 90 65 91 62 92 58 93 59 94 60 95 61 96
REMARK H PARENT 21 6 8 15 26 30 85 49 53 60
REMARK Flexibility Score: inf
ROOT
ATOM      1  C   UNL A   1      34.633  33.848  28.331  1.00  0.00     0.023 C 
ENDROOT
BRANCH   1   2
ATOM      2  C   UNL A   1      34.802  32.366  27.966  1.00  0.00     0.116 C 
BRANCH   2   3
ATOM      3  N   UNL A   1      33.563  31.668  27.648  1.00  0.00    -0.356 N 
ATOM      4  O   UNL A   1      34.605  29.673  27.198  1.00  0.00    -0.275 OA
ATOM      5  C   UNL A   1      33.569  30.320  27.334  1.00  0.00     0.220 C 
ATOM      6  H   UNL A   1      32.711  32.162  27.656  1.00  0.00     0.163 HD
BRANCH   5   7
ATOM      7  C   UNL A   1      32.204  29.673  27.145  1.00  0.00     0.100 C 
BRANCH   7   8
ATOM      8  C   UNL A   1      31.606  29.864  25.743  1.00  0.00     0.014 C 
BRANCH   8   9
ATOM      9  C   UNL A   1      31.598  28.702  24.719  1.00  0.00     0.000 C 
ATOM     10  C   UNL A   1      31.197  27.343  25.299  1.00  0.00     0.065 C 
ATOM     11  C   UNL A   1      32.862  28.593  23.853  1.00  0.00     0.065 C 
ATOM     12  C   UNL A   1      32.361  26.597  25.928  1.00  0.00     0.262 C 
ATOM     13  C   UNL A   1      33.966  27.725  24.442  1.00  0.00     0.262 C 
ATOM     14  N   UNL A   1      33.513  26.480  25.046  1.00  0.00    -0.332 N 
ATOM     15  H   UNL A   1      34.318  26.289  25.643  1.00  0.00     0.348 HD
BRANCH  14  16
ATOM     16  C   UNL A   1      33.440  25.297  24.193  1.00  0.00     0.189 C 
ATOM     17  C   UNL A   1      33.376  25.434  22.672  1.00  0.00     0.093 C 
ATOM     18  C   UNL A   1      34.625  24.414  24.542  1.00  0.00     0.101 C 
ATOM     19  C   UNL A   1      33.271  24.036  22.060  1.00  0.00     0.167 C 
ATOM     20  C   UNL A   1      34.418  23.025  23.912  1.00  0.00     0.084 C 
ATOM     21  O   UNL A   1      34.329  23.182  22.491  1.00  0.00    -0.374 OA
ATOM     22  C   UNL A   1      35.627  22.160  24.224  1.00  0.00     0.047 C 
ATOM     23  C   UNL A   1      33.262  22.192  24.505  1.00  0.00     0.105 C 
ATOM     24  C   UNL A   1      35.581  21.874  25.719  1.00  0.00     0.072 C 
ATOM     25  S   UNL A   1      33.836  21.673  26.143  1.00  0.00    -0.159 SA
ENDBRANCH  14  16
ENDBRANCH   8   9
ENDBRANCH   7   8
ENDBRANCH   5   7
ENDBRANCH   2   3
ENDBRANCH   1   2
BRANCH   1  26
ATOM     26  C   UNL A   1      33.915  34.172  29.658  1.00  0.00     0.023 C 
BRANCH  26  27
ATOM     27  C   UNL A   1      34.761  34.731  30.828  1.00  0.00     0.116 C 
BRANCH  27  28
ATOM     28  N   UNL A   1      34.475  34.120  32.121  1.00  0.00    -0.352 N 
ATOM     29  C   UNL A   1      35.062  33.079  32.819  1.00  0.00     0.251 C 
ATOM     30  H   UNL A   1      33.713  34.530  32.591  1.00  0.00     0.163 HD
ATOM     31  O   UNL A   1      34.551  32.753  33.893  1.00  0.00    -0.269 OA
BRANCH  29  32
ATOM     32  C   UNL A   1      36.249  32.304  32.348  1.00  0.00     0.039 A 
ATOM     33  C   UNL A   1      36.189  31.651  31.109  1.00  0.00     0.014 A 
ATOM     34  C   UNL A   1      37.358  32.050  33.147  1.00  0.00     0.014 A 
ATOM     35  C   UNL A   1      37.273  30.872  30.624  1.00  0.00     0.010 A 
ATOM     36  C   UNL A   1      38.446  31.288  32.640  1.00  0.00     0.010 A 
ATOM     37  C   UNL A   1      38.481  30.751  31.330  1.00  0.00    -0.014 A 
BRANCH  37  38
ATOM     38  C   UNL A   1      39.780  30.236  30.674  1.00  0.00     0.031 A 
ATOM     39  C   UNL A   1      40.973  31.146  30.373  1.00  0.00     0.074 A 
ATOM     40  C   UNL A   1      39.876  28.980  30.148  1.00  0.00     0.049 A 
ATOM     41  N   UNL A   1      42.060  30.897  29.669  1.00  0.00    -0.248 NA
ATOM     42  C   UNL A   1      40.923  32.514  30.899  1.00  0.00     0.031 C 
ATOM     43  C   UNL A   1      38.860  27.926  30.207  1.00  0.00     0.029 A 
ATOM     44  N   UNL A   1      40.872  28.394  29.374  1.00  0.00    -0.354 N 
ATOM     45  C   UNL A   1      42.801  32.077  29.651  1.00  0.00     0.074 A 
ATOM     46  C   UNL A   1      41.978  33.069  30.317  1.00  0.00     0.031 C 
ATOM     47  C   UNL A   1      39.233  26.884  29.448  1.00  0.00     0.029 A 
ATOM     48  C   UNL A   1      40.539  27.152  28.866  1.00  0.00     0.049 A 
ATOM     49  H   UNL A   1      41.739  28.827  29.203  1.00  0.00     0.167 HD
ATOM     50  C   UNL A   1      44.066  32.322  29.201  1.00  0.00     0.034 A 
ATOM     51  C   UNL A   1      41.173  26.294  28.036  1.00  0.00     0.034 A 
ATOM     52  C   UNL A   1      44.953  31.352  28.596  1.00  0.00     0.049 A 
ATOM     53  C   UNL A   1      42.571  26.562  27.543  1.00  0.00     0.074 A 
ATOM     54  C   UNL A   1      46.299  31.494  28.286  1.00  0.00     0.029 A 
ATOM     55  N   UNL A   1      44.598  30.078  28.192  1.00  0.00    -0.354 N 
ATOM     56  N   UNL A   1      43.306  27.633  27.694  1.00  0.00    -0.248 NA
ATOM     57  C   UNL A   1      43.244  25.474  26.811  1.00  0.00     0.031 C 
ATOM     58  C   UNL A   1      46.743  30.331  27.646  1.00  0.00     0.029 A 
ATOM     59  C   UNL A   1      45.691  29.435  27.615  1.00  0.00     0.049 A 
ATOM     60  H   UNL A   1      43.704  29.681  28.296  1.00  0.00     0.167 HD
ATOM     61  C   UNL A   1      44.548  27.317  27.144  1.00  0.00     0.074 A 
ATOM     62  C   UNL A   1      44.461  25.969  26.637  1.00  0.00     0.031 C 
ATOM     63  C   UNL A   1      45.663  28.086  27.104  1.00  0.00     0.034 A 
BRANCH  50  64
ATOM     64  C   UNL A   1      44.614  33.720  29.409  1.00  0.00     0.023 A 
ATOM     65  C   UNL A   1      44.490  34.697  28.405  1.00  0.00     0.031 A 
ATOM     66  C   UNL A   1      45.254  34.090  30.605  1.00  0.00     0.131 A 
ATOM     67  C   UNL A   1      45.101  35.947  28.561  1.00  0.00     0.055 A 
ATOM     68  C   UNL A   1      45.766  35.376  30.797  1.00  0.00     0.041 A 
ATOM     69  F   UNL A   1      45.396  33.209  31.608  1.00  0.00    -0.206 F 
ATOM     70  C   UNL A   1      45.714  36.306  29.763  1.00  0.00     0.022 A 
BRANCH  67  71
ATOM     71  S   UNL A   1      45.233  37.014  27.104  1.00  0.00     0.124 S 
ATOM     72  O   UNL A   1      45.972  36.155  26.180  1.00  0.00    -0.237 OA
ATOM     73  O   UNL A   1      43.835  37.260  26.765  1.00  0.00    -0.237 OA
ATOM     74  O   UNL A   1      45.972  38.173  27.594  1.00  0.00    -0.744 OA
ENDBRANCH  67  71
ENDBRANCH  50  64
BRANCH  51  75
ATOM     75  C   UNL A   1      40.509  25.021  27.624  1.00  0.00     0.023 A 
ATOM     76  C   UNL A   1      41.180  23.794  27.742  1.00  0.00     0.031 A 
ATOM     77  C   UNL A   1      39.239  25.033  27.025  1.00  0.00     0.131 A 
ATOM     78  C   UNL A   1      40.606  22.632  27.204  1.00  0.00     0.055 A 
ATOM     79  C   UNL A   1      38.651  23.865  26.536  1.00  0.00     0.041 A 
ATOM     80  F   UNL A   1      38.562  26.184  26.891  1.00  0.00    -0.206 F 
ATOM     81  C   UNL A   1      39.342  22.657  26.610  1.00  0.00     0.022 A 
BRANCH  78  82
ATOM     82  S   UNL A   1      41.586  21.107  27.205  1.00  0.00     0.124 S 
ATOM     83  O   UNL A   1      42.684  21.461  28.097  1.00  0.00    -0.237 OA
ATOM     84  O   UNL A   1      40.629  20.132  27.720  1.00  0.00    -0.237 OA
ATOM     85  O   UNL A   1      41.950  20.936  25.800  1.00  0.00    -0.744 OA
ENDBRANCH  78  82
ENDBRANCH  51  75
BRANCH  63  86
ATOM     86  C   UNL A   1      46.937  27.463  26.581  1.00  0.00     0.023 A 
ATOM     87  C   UNL A   1      47.907  26.894  27.428  1.00  0.00     0.031 A 
ATOM     88  C   UNL A   1      47.192  27.454  25.197  1.00  0.00     0.131 A 
ATOM     89  C   UNL A   1      49.100  26.382  26.887  1.00  0.00     0.055 A 
ATOM     90  C   UNL A   1      48.356  26.899  24.660  1.00  0.00     0.041 A 
ATOM     91  F   UNL A   1      46.310  27.989  24.337  1.00  0.00    -0.206 F 
ATOM     92  C   UNL A   1      49.323  26.369  25.508  1.00  0.00     0.022 A 
BRANCH  89  93
ATOM     93  S   UNL A   1      50.396  25.791  28.013  1.00  0.00     0.124 S 
ATOM     94  O   UNL A   1      49.866  26.178  29.317  1.00  0.00    -0.237 OA
ATOM     95  O   UNL A   1      50.424  24.359  27.735  1.00  0.00    -0.237 OA
ATOM     96  O   UNL A   1      51.586  26.526  27.586  1.00  0.00    -0.744 OA
ENDBRANCH  89  93
ENDBRANCH  63  86
ENDBRANCH  37  38
ENDBRANCH  29  32
ENDBRANCH  27  28
ENDBRANCH  26  27
ENDBRANCH   1  26
TORSDOF 17
ENDMDL
