MODEL 1
REMARK VINA RESULT:     -11.8      0.000      0.000
REMARK SMILES CC1(C)CCCC[C@H]1[C@H](O)C(=O)NCCCCNC(=O)c1ccc(-c2c3nc(c(-c4cc(S(=O)(=O)[O-])ccc4F)c4ccc([nH]4)c(-c4cc(S(=O)(=O)[O-])ccc4F)c4nc(c(-c5cc(S(=O)(=O)[O-])ccc5F)c5ccc2[nH]5)C=C4)C=C3)cc1
REMARK SMILES IDX 16 1 15 2 14 3 13 4 11 5 12 6 9 8 8 9 1 10 2 11 3 12 4 13
REMARK SMILES IDX 5 14 7 15 6 16 10 17 17 19 18 20 19 21 20 23 21 24 22 25
REMARK SMILES IDX 83 26 23 27 82 28 24 29 25 30 26 31 76 32 27 33 81 34 75 35
REMARK SMILES IDX 77 36 28 37 80 38 74 39 73 40 29 42 61 43 41 44 60 45 42 46
REMARK SMILES IDX 45 47 59 48 78 49 43 50 44 51 58 53 79 54 46 55 30 56 31 57
REMARK SMILES IDX 39 58 32 59 38 60 40 61 37 62 33 63 34 64 35 65 36 66 62 67
REMARK SMILES IDX 63 68 71 69 64 70 70 71 72 72 69 73 65 74 66 75 67 76 68 77
REMARK SMILES IDX 47 78 48 79 56 80 49 81 55 82 57 83 54 84 50 85 51 86 52 87
REMARK SMILES IDX 53 88
REMARK H PARENT 13 7 10 18 18 22 77 41 45 52
REMARK Flexibility Score: inf
ROOT
ATOM      1  C   UNL A   1      34.932  21.681  26.486  1.00  0.00     0.023 C 
ENDROOT
BRANCH   1   2
ATOM      2  C   UNL A   1      33.625  21.014  26.036  1.00  0.00     0.023 C 
BRANCH   2   3
ATOM      3  C   UNL A   1      32.530  21.921  25.466  1.00  0.00     0.116 C 
BRANCH   3   4
ATOM      4  N   UNL A   1      31.494  22.247  26.422  1.00  0.00    -0.354 N 
ATOM      5  C   UNL A   1      30.733  23.360  26.594  1.00  0.00     0.249 C 
ATOM      6  O   UNL A   1      29.834  23.280  27.441  1.00  0.00    -0.272 OA
ATOM      7  H   UNL A   1      31.307  21.528  27.068  1.00  0.00     0.163 HD
BRANCH   5   8
ATOM      8  C   UNL A   1      30.962  24.688  25.836  1.00  0.00     0.206 C 
BRANCH   8   9
ATOM      9  C   UNL A   1      31.908  25.813  26.367  1.00  0.00     0.033 C 
ATOM     10  C   UNL A   1      32.781  26.843  24.149  1.00  0.00     0.011 C 
ATOM     11  C   UNL A   1      33.148  26.305  25.544  1.00  0.00    -0.030 C 
ATOM     12  C   UNL A   1      34.198  25.200  25.361  1.00  0.00     0.011 C 
ATOM     13  C   UNL A   1      33.866  27.417  26.365  1.00  0.00     0.007 C 
ATOM     14  C   UNL A   1      32.979  28.605  26.712  1.00  0.00     0.001 C 
ATOM     15  C   UNL A   1      30.993  27.031  26.712  1.00  0.00     0.007 C 
ATOM     16  C   UNL A   1      31.715  28.166  27.429  1.00  0.00     0.000 C 
ENDBRANCH   8   9
BRANCH   8  17
ATOM     17  O   UNL A   1      29.732  25.298  25.418  1.00  0.00    -0.383 OA
ATOM     18  H   UNL A   1      29.376  25.838  26.141  1.00  0.00     0.211 HD
ENDBRANCH   8  17
ENDBRANCH   5   8
ENDBRANCH   3   4
ENDBRANCH   2   3
ENDBRANCH   1   2
BRANCH   1  19
ATOM     19  C   UNL A   1      35.987  21.918  25.412  1.00  0.00     0.116 C 
BRANCH  19  20
ATOM     20  N   UNL A   1      37.002  20.879  25.363  1.00  0.00    -0.352 N 
ATOM     21  C   UNL A   1      38.351  20.938  25.644  1.00  0.00     0.251 C 
ATOM     22  H   UNL A   1      36.674  19.993  25.086  1.00  0.00     0.163 HD
ATOM     23  O   UNL A   1      39.054  19.965  25.407  1.00  0.00    -0.269 OA
BRANCH  21  24
ATOM     24  C   UNL A   1      38.953  22.179  26.187  1.00  0.00     0.039 A 
ATOM     25  C   UNL A   1      40.075  22.074  27.014  1.00  0.00     0.014 A 
ATOM     26  C   UNL A   1      38.424  23.437  25.893  1.00  0.00     0.014 A 
ATOM     27  C   UNL A   1      40.720  23.231  27.467  1.00  0.00     0.010 A 
ATOM     28  C   UNL A   1      39.109  24.589  26.283  1.00  0.00     0.010 A 
ATOM     29  C   UNL A   1      40.273  24.500  27.063  1.00  0.00    -0.014 A 
BRANCH  29  30
ATOM     30  C   UNL A   1      41.025  25.736  27.420  1.00  0.00     0.031 A 
ATOM     31  C   UNL A   1      40.386  26.805  28.264  1.00  0.00     0.074 A 
ATOM     32  C   UNL A   1      42.262  25.931  26.921  1.00  0.00     0.049 A 
ATOM     33  N   UNL A   1      40.856  27.974  28.619  1.00  0.00    -0.248 NA
ATOM     34  C   UNL A   1      39.027  26.529  28.746  1.00  0.00     0.031 C 
ATOM     35  C   UNL A   1      42.984  24.992  26.061  1.00  0.00     0.029 A 
ATOM     36  N   UNL A   1      43.131  26.985  27.061  1.00  0.00    -0.354 N 
ATOM     37  C   UNL A   1      39.845  28.582  29.357  1.00  0.00     0.074 A 
ATOM     38  C   UNL A   1      38.716  27.675  29.330  1.00  0.00     0.031 C 
ATOM     39  C   UNL A   1      44.197  25.494  25.783  1.00  0.00     0.029 A 
ATOM     40  C   UNL A   1      44.324  26.811  26.398  1.00  0.00     0.049 A 
ATOM     41  H   UNL A   1      42.920  27.791  27.585  1.00  0.00     0.167 HD
ATOM     42  C   UNL A   1      39.864  29.770  30.016  1.00  0.00     0.034 A 
ATOM     43  C   UNL A   1      45.396  27.620  26.290  1.00  0.00     0.034 A 
ATOM     44  C   UNL A   1      40.997  30.667  30.026  1.00  0.00     0.049 A 
ATOM     45  C   UNL A   1      45.376  28.962  26.976  1.00  0.00     0.074 A 
ATOM     46  C   UNL A   1      41.143  31.867  30.700  1.00  0.00     0.029 A 
ATOM     47  N   UNL A   1      42.176  30.471  29.314  1.00  0.00    -0.354 N 
ATOM     48  N   UNL A   1      44.433  29.501  27.712  1.00  0.00    -0.248 NA
ATOM     49  C   UNL A   1      46.572  29.799  26.819  1.00  0.00     0.031 C 
ATOM     50  C   UNL A   1      42.372  32.432  30.336  1.00  0.00     0.029 A 
ATOM     51  C   UNL A   1      43.034  31.546  29.501  1.00  0.00     0.049 A 
ATOM     52  H   UNL A   1      42.373  29.683  28.757  1.00  0.00     0.167 HD
ATOM     53  C   UNL A   1      44.937  30.728  28.134  1.00  0.00     0.074 A 
ATOM     54  C   UNL A   1      46.269  30.844  27.575  1.00  0.00     0.031 C 
ATOM     55  C   UNL A   1      44.354  31.667  28.924  1.00  0.00     0.034 A 
BRANCH  42  56
ATOM     56  C   UNL A   1      38.599  30.170  30.745  1.00  0.00     0.023 A 
ATOM     57  C   UNL A   1      37.555  30.849  30.089  1.00  0.00     0.031 A 
ATOM     58  C   UNL A   1      38.460  29.937  32.125  1.00  0.00     0.131 A 
ATOM     59  C   UNL A   1      36.486  31.374  30.828  1.00  0.00     0.055 A 
ATOM     60  C   UNL A   1      37.339  30.372  32.837  1.00  0.00     0.041 A 
ATOM     61  F   UNL A   1      39.426  29.309  32.814  1.00  0.00    -0.206 F 
ATOM     62  C   UNL A   1      36.356  31.118  32.194  1.00  0.00     0.022 A 
BRANCH  59  63
ATOM     63  S   UNL A   1      35.385  32.569  30.018  1.00  0.00     0.124 S 
ATOM     64  O   UNL A   1      34.951  31.819  28.842  1.00  0.00    -0.237 OA
ATOM     65  O   UNL A   1      34.370  32.804  31.038  1.00  0.00    -0.237 OA
ATOM     66  O   UNL A   1      36.262  33.703  29.734  1.00  0.00    -0.744 OA
ENDBRANCH  59  63
ENDBRANCH  42  56
BRANCH  43  67
ATOM     67  C   UNL A   1      46.590  27.182  25.512  1.00  0.00     0.023 A 
ATOM     68  C   UNL A   1      46.831  27.690  24.227  1.00  0.00     0.031 A 
ATOM     69  C   UNL A   1      47.497  26.244  26.035  1.00  0.00     0.131 A 
ATOM     70  C   UNL A   1      47.934  27.232  23.490  1.00  0.00     0.055 A 
ATOM     71  C   UNL A   1      48.619  25.826  25.316  1.00  0.00     0.041 A 
ATOM     72  F   UNL A   1      47.315  25.732  27.263  1.00  0.00    -0.206 F 
ATOM     73  C   UNL A   1      48.838  26.315  24.032  1.00  0.00     0.022 A 
BRANCH  70  74
ATOM     74  S   UNL A   1      48.145  27.819  21.787  1.00  0.00     0.124 S 
ATOM     75  O   UNL A   1      46.891  28.528  21.561  1.00  0.00    -0.237 OA
ATOM     76  O   UNL A   1      49.342  28.646  21.897  1.00  0.00    -0.237 OA
ATOM     77  O   UNL A   1      48.313  26.586  21.022  1.00  0.00    -0.744 OA
ENDBRANCH  70  74
ENDBRANCH  43  67
BRANCH  55  78
ATOM     78  C   UNL A   1      45.180  32.885  29.267  1.00  0.00     0.023 A 
ATOM     79  C   UNL A   1      45.159  34.048  28.474  1.00  0.00     0.031 A 
ATOM     80  C   UNL A   1      46.015  32.875  30.399  1.00  0.00     0.131 A 
ATOM     81  C   UNL A   1      45.998  35.127  28.793  1.00  0.00     0.055 A 
ATOM     82  C   UNL A   1      46.800  33.976  30.746  1.00  0.00     0.041 A 
ATOM     83  F   UNL A   1      46.081  31.791  31.189  1.00  0.00    -0.206 F 
ATOM     84  C   UNL A   1      46.805  35.106  29.934  1.00  0.00     0.022 A 
BRANCH  81  85
ATOM     85  S   UNL A   1      46.094  36.527  27.643  1.00  0.00     0.124 S 
ATOM     86  O   UNL A   1      44.802  37.175  27.845  1.00  0.00    -0.237 OA
ATOM     87  O   UNL A   1      47.257  37.258  28.136  1.00  0.00    -0.237 OA
ATOM     88  O   UNL A   1      46.271  35.890  26.339  1.00  0.00    -0.744 OA
ENDBRANCH  81  85
ENDBRANCH  55  78
ENDBRANCH  29  30
ENDBRANCH  21  24
ENDBRANCH  19  20
ENDBRANCH   1  19
TORSDOF 16
ENDMDL
MODEL 2
REMARK VINA RESULT:     -11.6      5.402     10.564
REMARK SMILES CC1(C)CCCC[C@H]1[C@H](O)C(=O)NCCCCNC(=O)c1ccc(-c2c3nc(c(-c4cc(S(=O)(=O)[O-])ccc4F)c4ccc([nH]4)c(-c4cc(S(=O)(=O)[O-])ccc4F)c4nc(c(-c5cc(S(=O)(=O)[O-])ccc5F)c5ccc2[nH]5)C=C4)C=C3)cc1
REMARK SMILES IDX 16 1 15 2 14 3 13 4 11 5 12 6 9 8 8 9 1 10 2 11 3 12 4 13
REMARK SMILES IDX 5 14 7 15 6 16 10 17 17 19 18 20 19 21 20 23 21 24 22 25
REMARK SMILES IDX 83 26 23 27 82 28 24 29 25 30 26 31 76 32 27 33 81 34 75 35
REMARK SMILES IDX 77 36 28 37 80 38 74 39 73 40 29 42 61 43 41 44 60 45 42 46
REMARK SMILES IDX 45 47 59 48 78 49 43 50 44 51 58 53 79 54 46 55 30 56 31 57
REMARK SMILES IDX 39 58 32 59 38 60 40 61 37 62 33 63 34 64 35 65 36 66 62 67
REMARK SMILES IDX 63 68 71 69 64 70 70 71 72 72 69 73 65 74 66 75 67 76 68 77
REMARK SMILES IDX 47 78 48 79 56 80 49 81 55 82 57 83 54 84 50 85 51 86 52 87
REMARK SMILES IDX 53 88
REMARK H PARENT 13 7 10 18 18 22 77 41 45 52
REMARK Flexibility Score: inf
ROOT
ATOM      1  C   UNL A   1      32.221  29.878  25.320  1.00  0.00     0.023 C 
ENDROOT
BRANCH   1   2
ATOM      2  C   UNL A   1      31.088  29.133  24.603  1.00  0.00     0.023 C 
BRANCH   2   3
ATOM      3  C   UNL A   1      31.140  29.073  23.073  1.00  0.00     0.116 C 
BRANCH   3   4
ATOM      4  N   UNL A   1      32.485  28.991  22.545  1.00  0.00    -0.354 N 
ATOM      5  C   UNL A   1      33.258  27.932  22.188  1.00  0.00     0.249 C 
ATOM      6  O   UNL A   1      34.337  28.203  21.646  1.00  0.00    -0.272 OA
ATOM      7  H   UNL A   1      32.920  29.865  22.422  1.00  0.00     0.163 HD
BRANCH   5   8
ATOM      8  C   UNL A   1      32.881  26.457  22.459  1.00  0.00     0.206 C 
BRANCH   8   9
ATOM      9  C   UNL A   1      32.751  25.869  23.902  1.00  0.00     0.033 C 
ATOM     10  C   UNL A   1      31.498  23.641  23.440  1.00  0.00     0.011 C 
ATOM     11  C   UNL A   1      31.572  24.916  24.300  1.00  0.00    -0.030 C 
ATOM     12  C   UNL A   1      30.208  25.616  24.223  1.00  0.00     0.011 C 
ATOM     13  C   UNL A   1      31.746  24.529  25.800  1.00  0.00     0.007 C 
ATOM     14  C   UNL A   1      33.076  23.859  26.119  1.00  0.00     0.001 C 
ATOM     15  C   UNL A   1      34.114  25.175  24.219  1.00  0.00     0.007 C 
ATOM     16  C   UNL A   1      34.251  24.705  25.663  1.00  0.00     0.000 C 
ENDBRANCH   8   9
BRANCH   8  17
ATOM     17  O   UNL A   1      33.654  25.541  21.670  1.00  0.00    -0.383 OA
ATOM     18  H   UNL A   1      33.654  24.668  22.095  1.00  0.00     0.211 HD
ENDBRANCH   8  17
ENDBRANCH   5   8
ENDBRANCH   3   4
ENDBRANCH   2   3
ENDBRANCH   1   2
BRANCH   1  19
ATOM     19  C   UNL A   1      31.939  30.357  26.740  1.00  0.00     0.116 C 
BRANCH  19  20
ATOM     20  N   UNL A   1      31.944  31.803  26.872  1.00  0.00    -0.352 N 
ATOM     21  C   UNL A   1      32.862  32.640  27.472  1.00  0.00     0.251 C 
ATOM     22  H   UNL A   1      31.170  32.259  26.468  1.00  0.00     0.163 HD
ATOM     23  O   UNL A   1      32.602  33.829  27.586  1.00  0.00    -0.269 OA
BRANCH  21  24
ATOM     24  C   UNL A   1      34.133  32.099  28.012  1.00  0.00     0.039 A 
ATOM     25  C   UNL A   1      35.184  32.984  28.268  1.00  0.00     0.014 A 
ATOM     26  C   UNL A   1      34.298  30.735  28.264  1.00  0.00     0.014 A 
ATOM     27  C   UNL A   1      36.361  32.516  28.863  1.00  0.00     0.010 A 
ATOM     28  C   UNL A   1      35.440  30.282  28.924  1.00  0.00     0.010 A 
ATOM     29  C   UNL A   1      36.481  31.170  29.244  1.00  0.00    -0.014 A 
BRANCH  29  30
ATOM     30  C   UNL A   1      37.667  30.681  30.002  1.00  0.00     0.031 A 
ATOM     31  C   UNL A   1      38.655  29.746  29.360  1.00  0.00     0.074 A 
ATOM     32  C   UNL A   1      37.817  31.022  31.298  1.00  0.00     0.049 A 
ATOM     33  N   UNL A   1      39.706  29.163  29.879  1.00  0.00    -0.248 NA
ATOM     34  C   UNL A   1      38.407  29.402  27.954  1.00  0.00     0.031 C 
ATOM     35  C   UNL A   1      36.913  31.892  32.053  1.00  0.00     0.029 A 
ATOM     36  N   UNL A   1      38.781  30.675  32.212  1.00  0.00    -0.354 N 
ATOM     37  C   UNL A   1      40.240  28.370  28.868  1.00  0.00     0.074 A 
ATOM     38  C   UNL A   1      39.348  28.498  27.733  1.00  0.00     0.031 C 
ATOM     39  C   UNL A   1      37.386  32.040  33.299  1.00  0.00     0.029 A 
ATOM     40  C   UNL A   1      38.596  31.238  33.453  1.00  0.00     0.049 A 
ATOM     41  H   UNL A   1      39.535  30.078  31.999  1.00  0.00     0.167 HD
ATOM     42  C   UNL A   1      41.378  27.628  28.874  1.00  0.00     0.034 A 
ATOM     43  C   UNL A   1      39.311  31.120  34.589  1.00  0.00     0.034 A 
ATOM     44  C   UNL A   1      42.252  27.506  30.019  1.00  0.00     0.049 A 
ATOM     45  C   UNL A   1      40.537  30.242  34.596  1.00  0.00     0.074 A 
ATOM     46  C   UNL A   1      43.453  26.825  30.120  1.00  0.00     0.029 A 
ATOM     47  N   UNL A   1      42.012  28.065  31.269  1.00  0.00    -0.354 N 
ATOM     48  N   UNL A   1      41.057  29.539  33.618  1.00  0.00    -0.248 NA
ATOM     49  C   UNL A   1      41.272  30.150  35.864  1.00  0.00     0.031 C 
ATOM     50  C   UNL A   1      43.897  26.906  31.445  1.00  0.00     0.029 A 
ATOM     51  C   UNL A   1      43.021  27.710  32.156  1.00  0.00     0.049 A 
ATOM     52  H   UNL A   1      41.238  28.631  31.494  1.00  0.00     0.167 HD
ATOM     53  C   UNL A   1      42.202  28.948  34.145  1.00  0.00     0.074 A 
ATOM     54  C   UNL A   1      42.297  29.383  35.524  1.00  0.00     0.031 C 
ATOM     55  C   UNL A   1      43.100  28.129  33.537  1.00  0.00     0.034 A 
BRANCH  42  56
ATOM     56  C   UNL A   1      41.707  26.866  27.609  1.00  0.00     0.023 A 
ATOM     57  C   UNL A   1      41.424  25.494  27.481  1.00  0.00     0.031 A 
ATOM     58  C   UNL A   1      42.376  27.497  26.544  1.00  0.00     0.131 A 
ATOM     59  C   UNL A   1      41.911  24.776  26.380  1.00  0.00     0.055 A 
ATOM     60  C   UNL A   1      42.765  26.795  25.400  1.00  0.00     0.041 A 
ATOM     61  F   UNL A   1      42.690  28.800  26.608  1.00  0.00    -0.206 F 
ATOM     62  C   UNL A   1      42.557  25.422  25.324  1.00  0.00     0.022 A 
BRANCH  59  63
ATOM     63  S   UNL A   1      41.872  22.962  26.451  1.00  0.00     0.124 S 
ATOM     64  O   UNL A   1      40.436  22.700  26.502  1.00  0.00    -0.237 OA
ATOM     65  O   UNL A   1      42.548  22.584  25.214  1.00  0.00    -0.237 OA
ATOM     66  O   UNL A   1      42.598  22.653  27.680  1.00  0.00    -0.744 OA
ENDBRANCH  59  63
ENDBRANCH  42  56
BRANCH  43  67
ATOM     67  C   UNL A   1      38.899  31.860  35.815  1.00  0.00     0.023 A 
ATOM     68  C   UNL A   1      38.153  31.223  36.817  1.00  0.00     0.031 A 
ATOM     69  C   UNL A   1      39.233  33.213  35.997  1.00  0.00     0.131 A 
ATOM     70  C   UNL A   1      37.733  31.946  37.944  1.00  0.00     0.055 A 
ATOM     71  C   UNL A   1      38.852  33.917  37.141  1.00  0.00     0.041 A 
ATOM     72  F   UNL A   1      39.951  33.867  35.069  1.00  0.00    -0.206 F 
ATOM     73  C   UNL A   1      38.091  33.286  38.120  1.00  0.00     0.022 A 
BRANCH  70  74
ATOM     74  S   UNL A   1      36.668  31.123  39.158  1.00  0.00     0.124 S 
ATOM     75  O   UNL A   1      36.423  29.839  38.515  1.00  0.00    -0.237 OA
ATOM     76  O   UNL A   1      37.521  31.097  40.343  1.00  0.00    -0.237 OA
ATOM     77  O   UNL A   1      35.510  32.009  39.250  1.00  0.00    -0.744 OA
ENDBRANCH  70  74
ENDBRANCH  43  67
BRANCH  55  78
ATOM     78  C   UNL A   1      44.292  27.690  34.355  1.00  0.00     0.023 A 
ATOM     79  C   UNL A   1      44.281  26.504  35.112  1.00  0.00     0.031 A 
ATOM     80  C   UNL A   1      45.455  28.482  34.388  1.00  0.00     0.131 A 
ATOM     81  C   UNL A   1      45.386  26.174  35.913  1.00  0.00     0.055 A 
ATOM     82  C   UNL A   1      46.575  28.116  35.137  1.00  0.00     0.041 A 
ATOM     83  F   UNL A   1      45.521  29.626  33.690  1.00  0.00    -0.206 F 
ATOM     84  C   UNL A   1      46.540  26.963  35.915  1.00  0.00     0.022 A 
BRANCH  81  85
ATOM     85  S   UNL A   1      45.262  24.748  37.027  1.00  0.00     0.124 S 
ATOM     86  O   UNL A   1      46.625  24.642  37.537  1.00  0.00    -0.237 OA
ATOM     87  O   UNL A   1      44.254  25.187  37.987  1.00  0.00    -0.237 OA
ATOM     88  O   UNL A   1      44.844  23.658  36.145  1.00  0.00    -0.744 OA
ENDBRANCH  81  85
ENDBRANCH  55  78
ENDBRANCH  29  30
ENDBRANCH  21  24
ENDBRANCH  19  20
ENDBRANCH   1  19
TORSDOF 16
ENDMDL
MODEL 3
REMARK VINA RESULT:     -11.5      1.805      7.942
REMARK SMILES CC1(C)CCCC[C@H]1[C@H](O)C(=O)NCCCCNC(=O)c1ccc(-c2c3nc(c(-c4cc(S(=O)(=O)[O-])ccc4F)c4ccc([nH]4)c(-c4cc(S(=O)(=O)[O-])ccc4F)c4nc(c(-c5cc(S(=O)(=O)[O-])ccc5F)c5ccc2[nH]5)C=C4)C=C3)cc1
REMARK SMILES IDX 16 1 15 2 14 3 13 4 11 5 12 6 9 8 8 9 1 10 2 11 3 12 4 13
REMARK SMILES IDX 5 14 7 15 6 16 10 17 17 19 18 20 19 21 20 23 21 24 22 25
REMARK SMILES IDX 83 26 23 27 82 28 24 29 25 30 26 31 76 32 27 33 81 34 75 35
REMARK SMILES IDX 77 36 28 37 80 38 74 39 73 40 29 42 61 43 41 44 60 45 42 46
REMARK SMILES IDX 45 47 59 48 78 49 43 50 44 51 58 53 79 54 46 55 30 56 31 57
REMARK SMILES IDX 39 58 32 59 38 60 40 61 37 62 33 63 34 64 35 65 36 66 62 67
REMARK SMILES IDX 63 68 71 69 64 70 70 71 72 72 69 73 65 74 66 75 67 76 68 77
REMARK SMILES IDX 47 78 48 79 56 80 49 81 55 82 57 83 54 84 50 85 51 86 52 87
REMARK SMILES IDX 53 88
REMARK H PARENT 13 7 10 18 18 22 77 41 45 52
REMARK Flexibility Score: inf
ROOT
ATOM      1  C   UNL A   1      35.411  21.334  26.020  1.00  0.00     0.023 C 
ENDROOT
BRANCH   1   2
ATOM      2  C   UNL A   1      34.232  22.133  26.593  1.00  0.00     0.023 C 
BRANCH   2   3
ATOM      3  C   UNL A   1      32.902  22.070  25.835  1.00  0.00     0.116 C 
BRANCH   3   4
ATOM      4  N   UNL A   1      31.754  22.376  26.660  1.00  0.00    -0.354 N 
ATOM      5  C   UNL A   1      30.904  23.437  26.678  1.00  0.00     0.249 C 
ATOM      6  O   UNL A   1      29.931  23.343  27.436  1.00  0.00    -0.272 OA
ATOM      7  H   UNL A   1      31.550  21.687  27.333  1.00  0.00     0.163 HD
BRANCH   5   8
ATOM      8  C   UNL A   1      31.119  24.728  25.855  1.00  0.00     0.206 C 
BRANCH   8   9
ATOM      9  C   UNL A   1      32.009  25.912  26.354  1.00  0.00     0.033 C 
ATOM     10  C   UNL A   1      32.730  27.000  24.108  1.00  0.00     0.011 C 
ATOM     11  C   UNL A   1      33.182  26.485  25.487  1.00  0.00    -0.030 C 
ATOM     12  C   UNL A   1      34.295  25.450  25.261  1.00  0.00     0.011 C 
ATOM     13  C   UNL A   1      33.857  27.640  26.285  1.00  0.00     0.007 C 
ATOM     14  C   UNL A   1      32.909  28.768  26.669  1.00  0.00     0.001 C 
ATOM     15  C   UNL A   1      31.030  27.068  26.738  1.00  0.00     0.007 C 
ATOM     16  C   UNL A   1      31.704  28.247  27.432  1.00  0.00     0.000 C 
ENDBRANCH   8   9
BRANCH   8  17
ATOM     17  O   UNL A   1      29.886  25.273  25.361  1.00  0.00    -0.383 OA
ATOM     18  H   UNL A   1      29.682  24.880  24.497  1.00  0.00     0.211 HD
ENDBRANCH   8  17
ENDBRANCH   5   8
ENDBRANCH   3   4
ENDBRANCH   2   3
ENDBRANCH   1   2
BRANCH   1  19
ATOM     19  C   UNL A   1      36.729  22.080  25.851  1.00  0.00     0.116 C 
BRANCH  19  20
ATOM     20  N   UNL A   1      37.892  21.211  25.894  1.00  0.00    -0.352 N 
ATOM     21  C   UNL A   1      39.201  21.491  26.227  1.00  0.00     0.251 C 
ATOM     22  H   UNL A   1      37.719  20.274  25.648  1.00  0.00     0.163 HD
ATOM     23  O   UNL A   1      40.056  20.630  26.066  1.00  0.00    -0.269 OA
BRANCH  21  24
ATOM     24  C   UNL A   1      39.579  22.832  26.734  1.00  0.00     0.039 A 
ATOM     25  C   UNL A   1      40.503  22.918  27.780  1.00  0.00     0.014 A 
ATOM     26  C   UNL A   1      39.033  23.998  26.194  1.00  0.00     0.014 A 
ATOM     27  C   UNL A   1      40.948  24.171  28.217  1.00  0.00     0.010 A 
ATOM     28  C   UNL A   1      39.531  25.243  26.579  1.00  0.00     0.010 A 
ATOM     29  C   UNL A   1      40.505  25.344  27.586  1.00  0.00    -0.014 A 
BRANCH  29  30
ATOM     30  C   UNL A   1      41.068  26.677  27.942  1.00  0.00     0.031 A 
ATOM     31  C   UNL A   1      42.505  27.007  27.644  1.00  0.00     0.074 A 
ATOM     32  C   UNL A   1      40.303  27.569  28.603  1.00  0.00     0.049 A 
ATOM     33  N   UNL A   1      43.189  28.083  27.940  1.00  0.00    -0.248 NA
ATOM     34  C   UNL A   1      43.279  25.973  26.947  1.00  0.00     0.031 C 
ATOM     35  C   UNL A   1      38.904  27.363  28.986  1.00  0.00     0.029 A 
ATOM     36  N   UNL A   1      40.592  28.826  29.076  1.00  0.00    -0.354 N 
ATOM     37  C   UNL A   1      44.481  27.853  27.476  1.00  0.00     0.074 A 
ATOM     38  C   UNL A   1      44.492  26.504  26.948  1.00  0.00     0.031 C 
ATOM     39  C   UNL A   1      38.449  28.467  29.597  1.00  0.00     0.029 A 
ATOM     40  C   UNL A   1      39.532  29.441  29.700  1.00  0.00     0.049 A 
ATOM     41  H   UNL A   1      41.477  29.247  28.977  1.00  0.00     0.167 HD
ATOM     42  C   UNL A   1      45.548  28.693  27.467  1.00  0.00     0.034 A 
ATOM     43  C   UNL A   1      39.439  30.646  30.293  1.00  0.00     0.034 A 
ATOM     44  C   UNL A   1      45.521  30.034  28.006  1.00  0.00     0.049 A 
ATOM     45  C   UNL A   1      40.652  31.542  30.329  1.00  0.00     0.074 A 
ATOM     46  C   UNL A   1      46.526  30.986  28.004  1.00  0.00     0.029 A 
ATOM     47  N   UNL A   1      44.437  30.609  28.661  1.00  0.00    -0.354 N 
ATOM     48  N   UNL A   1      41.852  31.331  29.842  1.00  0.00    -0.248 NA
ATOM     49  C   UNL A   1      40.490  32.842  30.993  1.00  0.00     0.031 C 
ATOM     50  C   UNL A   1      46.079  32.102  28.722  1.00  0.00     0.029 A 
ATOM     51  C   UNL A   1      44.764  31.885  29.101  1.00  0.00     0.049 A 
ATOM     52  H   UNL A   1      43.565  30.173  28.794  1.00  0.00     0.167 HD
ATOM     53  C   UNL A   1      42.578  32.487  30.111  1.00  0.00     0.074 A 
ATOM     54  C   UNL A   1      41.679  33.392  30.797  1.00  0.00     0.031 C 
ATOM     55  C   UNL A   1      43.870  32.777  29.804  1.00  0.00     0.034 A 
BRANCH  42  56
ATOM     56  C   UNL A   1      46.838  28.157  26.885  1.00  0.00     0.023 A 
ATOM     57  C   UNL A   1      47.132  28.275  25.514  1.00  0.00     0.031 A 
ATOM     58  C   UNL A   1      47.754  27.455  27.691  1.00  0.00     0.131 A 
ATOM     59  C   UNL A   1      48.238  27.603  24.973  1.00  0.00     0.055 A 
ATOM     60  C   UNL A   1      48.910  26.878  27.161  1.00  0.00     0.041 A 
ATOM     61  F   UNL A   1      47.526  27.293  29.004  1.00  0.00    -0.206 F 
ATOM     62  C   UNL A   1      49.145  26.927  25.791  1.00  0.00     0.022 A 
BRANCH  59  63
ATOM     63  S   UNL A   1      48.351  27.452  23.167  1.00  0.00     0.124 S 
ATOM     64  O   UNL A   1      48.295  26.003  22.988  1.00  0.00    -0.237 OA
ATOM     65  O   UNL A   1      47.183  28.198  22.714  1.00  0.00    -0.237 OA
ATOM     66  O   UNL A   1      49.643  28.060  22.854  1.00  0.00    -0.744 OA
ENDBRANCH  59  63
ENDBRANCH  42  56
BRANCH  43  67
ATOM     67  C   UNL A   1      38.149  31.091  30.892  1.00  0.00     0.023 A 
ATOM     68  C   UNL A   1      37.196  31.768  30.116  1.00  0.00     0.031 A 
ATOM     69  C   UNL A   1      37.855  30.858  32.247  1.00  0.00     0.131 A 
ATOM     70  C   UNL A   1      36.006  32.220  30.707  1.00  0.00     0.055 A 
ATOM     71  C   UNL A   1      36.650  31.269  32.819  1.00  0.00     0.041 A 
ATOM     72  F   UNL A   1      38.731  30.208  33.031  1.00  0.00    -0.206 F 
ATOM     73  C   UNL A   1      35.720  31.962  32.050  1.00  0.00     0.022 A 
BRANCH  70  74
ATOM     74  S   UNL A   1      34.855  33.197  29.704  1.00  0.00     0.124 S 
ATOM     75  O   UNL A   1      35.758  34.134  29.044  1.00  0.00    -0.237 OA
ATOM     76  O   UNL A   1      34.253  32.177  28.851  1.00  0.00    -0.237 OA
ATOM     77  O   UNL A   1      33.957  33.786  30.694  1.00  0.00    -0.744 OA
ENDBRANCH  70  74
ENDBRANCH  43  67
BRANCH  55  78
ATOM     78  C   UNL A   1      44.370  34.155  30.172  1.00  0.00     0.023 A 
ATOM     79  C   UNL A   1      44.982  34.420  31.412  1.00  0.00     0.031 A 
ATOM     80  C   UNL A   1      44.217  35.224  29.271  1.00  0.00     0.131 A 
ATOM     81  C   UNL A   1      45.365  35.730  31.737  1.00  0.00     0.055 A 
ATOM     82  C   UNL A   1      44.658  36.513  29.576  1.00  0.00     0.041 A 
ATOM     83  F   UNL A   1      43.636  35.032  28.076  1.00  0.00    -0.206 F 
ATOM     84  C   UNL A   1      45.224  36.775  30.820  1.00  0.00     0.022 A 
BRANCH  81  85
ATOM     85  S   UNL A   1      45.967  36.073  33.414  1.00  0.00     0.124 S 
ATOM     86  O   UNL A   1      47.264  35.405  33.414  1.00  0.00    -0.237 OA
ATOM     87  O   UNL A   1      46.001  37.532  33.442  1.00  0.00    -0.237 OA
ATOM     88  O   UNL A   1      44.955  35.461  34.274  1.00  0.00    -0.744 OA
ENDBRANCH  81  85
ENDBRANCH  55  78
ENDBRANCH  29  30
ENDBRANCH  21  24
ENDBRANCH  19  20
ENDBRANCH   1  19
TORSDOF 16
ENDMDL
