MODEL 1
REMARK VINA RESULT:     -13.5      0.000      0.000
REMARK SMILES O=C(Nc1cccc(C(=O)NCCCCNC(=O)c2ccc(-c3c4nc(c(-c5cc(S(=O)(=O)[O-])ccc5F)c5ccc([nH]5)c(-c5cc(S(=O)(=O)[O-])ccc5F)c5nc(c(-c6cc(S(=O)(=O)[O-])ccc6F)c6ccc3[nH]6)C=C5)C=C4)cc2)c1)Nc1cc(Cl)c(Cl)cc1Cl
REMARK SMILES IDX 14 1 13 2 12 3 11 4 9 5 10 6 8 8 4 9 5 10 82 11 6 12 7 13
REMARK SMILES IDX 3 14 1 15 2 16 83 17 84 20 85 21 91 22 86 23 90 24 92 25
REMARK SMILES IDX 87 26 88 27 89 28 15 29 16 30 17 31 18 33 19 34 20 35 81 36
REMARK SMILES IDX 21 37 80 38 22 39 23 40 24 41 74 42 25 43 79 44 73 45 75 46
REMARK SMILES IDX 26 47 78 48 72 49 71 50 27 52 59 53 39 54 58 55 40 56 43 57
REMARK SMILES IDX 57 58 76 59 41 60 42 61 56 63 77 64 44 65 28 66 29 67 37 68
REMARK SMILES IDX 30 69 36 70 38 71 35 72 31 73 32 74 33 75 34 76 60 77 61 78
REMARK SMILES IDX 69 79 62 80 68 81 70 82 67 83 63 84 64 85 65 86 66 87 45 88
REMARK SMILES IDX 46 89 54 90 47 91 53 92 55 93 52 94 48 95 49 96 50 97 51 98
REMARK H PARENT 11 7 3 18 83 19 16 32 75 51 43 62
REMARK Flexibility Score: inf
ROOT
ATOM      1  C   UNL A   1      31.443  32.013  26.717  1.00  0.00     0.023 C 
ENDROOT
BRANCH   1   2
ATOM      2  C   UNL A   1      31.570  30.539  26.320  1.00  0.00     0.023 C 
BRANCH   2   3
ATOM      3  C   UNL A   1      33.012  30.053  26.149  1.00  0.00     0.116 C 
BRANCH   3   4
ATOM      4  N   UNL A   1      33.294  29.722  24.766  1.00  0.00    -0.352 N 
ATOM      5  C   UNL A   1      32.730  28.852  23.869  1.00  0.00     0.251 C 
ATOM      6  O   UNL A   1      33.216  28.834  22.736  1.00  0.00    -0.269 OA
ATOM      7  H   UNL A   1      34.052  30.229  24.392  1.00  0.00     0.163 HD
BRANCH   5   8
ATOM      8  C   UNL A   1      31.563  27.959  24.154  1.00  0.00     0.041 A 
ATOM      9  C   UNL A   1      30.368  26.196  25.349  1.00  0.00     0.043 A 
ATOM     10  C   UNL A   1      29.274  26.341  24.498  1.00  0.00     0.026 A 
ATOM     11  C   UNL A   1      31.522  26.961  25.131  1.00  0.00     0.040 A 
ATOM     12  C   UNL A   1      29.300  27.314  23.501  1.00  0.00     0.003 A 
ATOM     13  C   UNL A   1      30.427  28.124  23.344  1.00  0.00     0.014 A 
BRANCH   9  14
ATOM     14  N   UNL A   1      30.283  25.257  26.391  1.00  0.00    -0.308 N 
ATOM     15  O   UNL A   1      30.432  23.241  27.374  1.00  0.00    -0.248 OA
ATOM     16  C   UNL A   1      30.797  23.983  26.467  1.00  0.00     0.323 C 
ATOM     17  N   UNL A   1      31.836  23.722  25.605  1.00  0.00    -0.306 N 
ATOM     18  H   UNL A   1      29.782  25.555  27.185  1.00  0.00     0.171 HD
ATOM     19  H   UNL A   1      32.161  24.477  25.063  1.00  0.00     0.171 HD
BRANCH  17  20
ATOM     20  C   UNL A   1      32.483  22.481  25.416  1.00  0.00     0.063 A 
ATOM     21  C   UNL A   1      32.068  21.748  24.294  1.00  0.00     0.049 A 
ATOM     22  C   UNL A   1      33.456  21.925  26.266  1.00  0.00     0.066 A 
ATOM     23  C   UNL A   1      32.669  20.527  23.971  1.00  0.00     0.061 A 
ATOM     24  C   UNL A   1      34.047  20.695  25.946  1.00  0.00     0.044 A 
ATOM     25  Cl  UNL A   1      33.848  22.588  27.814  1.00  0.00    -0.082 Cl
ATOM     26  Cl  UNL A   1      32.128  19.727  22.537  1.00  0.00    -0.083 Cl
ATOM     27  C   UNL A   1      33.671  20.005  24.792  1.00  0.00     0.061 A 
ATOM     28  Cl  UNL A   1      34.465  18.513  24.444  1.00  0.00    -0.083 Cl
ENDBRANCH  17  20
ENDBRANCH   9  14
ENDBRANCH   5   8
ENDBRANCH   3   4
ENDBRANCH   2   3
ENDBRANCH   1   2
BRANCH   1  29
ATOM     29  C   UNL A   1      32.730  32.644  27.238  1.00  0.00     0.116 C 
BRANCH  29  30
ATOM     30  N   UNL A   1      32.548  33.985  27.772  1.00  0.00    -0.352 N 
ATOM     31  C   UNL A   1      33.338  34.629  28.702  1.00  0.00     0.251 C 
ATOM     32  H   UNL A   1      31.775  34.490  27.431  1.00  0.00     0.163 HD
ATOM     33  O   UNL A   1      33.034  35.732  29.121  1.00  0.00    -0.269 OA
BRANCH  31  34
ATOM     34  C   UNL A   1      34.530  33.915  29.213  1.00  0.00     0.039 A 
ATOM     35  C   UNL A   1      35.795  34.300  28.762  1.00  0.00     0.014 A 
ATOM     36  C   UNL A   1      34.393  32.934  30.197  1.00  0.00     0.014 A 
ATOM     37  C   UNL A   1      36.936  33.749  29.357  1.00  0.00     0.010 A 
ATOM     38  C   UNL A   1      35.528  32.430  30.825  1.00  0.00     0.010 A 
ATOM     39  C   UNL A   1      36.810  32.839  30.419  1.00  0.00    -0.014 A 
BRANCH  39  40
ATOM     40  C   UNL A   1      37.995  32.282  31.124  1.00  0.00     0.031 A 
ATOM     41  C   UNL A   1      38.765  31.154  30.493  1.00  0.00     0.074 A 
ATOM     42  C   UNL A   1      38.309  32.710  32.363  1.00  0.00     0.049 A 
ATOM     43  N   UNL A   1      39.700  30.399  31.008  1.00  0.00    -0.248 NA
ATOM     44  C   UNL A   1      38.404  30.810  29.109  1.00  0.00     0.031 C 
ATOM     45  C   UNL A   1      37.625  33.781  33.091  1.00  0.00     0.029 A 
ATOM     46  N   UNL A   1      39.273  32.280  33.242  1.00  0.00    -0.354 N 
ATOM     47  C   UNL A   1      40.011  29.463  30.027  1.00  0.00     0.074 A 
ATOM     48  C   UNL A   1      39.142  29.730  28.900  1.00  0.00     0.031 C 
ATOM     49  C   UNL A   1      38.192  33.925  34.301  1.00  0.00     0.029 A 
ATOM     50  C   UNL A   1      39.247  32.928  34.457  1.00  0.00     0.049 A 
ATOM     51  H   UNL A   1      39.923  31.572  33.024  1.00  0.00     0.167 HD
ATOM     52  C   UNL A   1      40.943  28.479  30.062  1.00  0.00     0.034 A 
ATOM     53  C   UNL A   1      39.974  32.724  35.575  1.00  0.00     0.034 A 
ATOM     54  C   UNL A   1      41.834  28.256  31.172  1.00  0.00     0.049 A 
ATOM     55  C   UNL A   1      41.012  31.628  35.582  1.00  0.00     0.074 A 
ATOM     56  C   UNL A   1      42.862  27.336  31.279  1.00  0.00     0.029 A 
ATOM     57  N   UNL A   1      41.805  28.963  32.366  1.00  0.00    -0.354 N 
ATOM     58  N   UNL A   1      41.318  30.776  34.632  1.00  0.00    -0.248 NA
ATOM     59  C   UNL A   1      41.806  31.470  36.809  1.00  0.00     0.031 C 
ATOM     60  C   UNL A   1      43.423  27.453  32.556  1.00  0.00     0.029 A 
ATOM     61  C   UNL A   1      42.784  28.487  33.222  1.00  0.00     0.049 A 
ATOM     62  H   UNL A   1      41.180  29.695  32.574  1.00  0.00     0.167 HD
ATOM     63  C   UNL A   1      42.370  30.013  35.133  1.00  0.00     0.074 A 
ATOM     64  C   UNL A   1      42.645  30.503  36.466  1.00  0.00     0.031 C 
ATOM     65  C   UNL A   1      43.055  29.004  34.540  1.00  0.00     0.034 A 
BRANCH  52  66
ATOM     66  C   UNL A   1      41.022  27.553  28.875  1.00  0.00     0.023 A 
ATOM     67  C   UNL A   1      42.027  27.680  27.902  1.00  0.00     0.031 A 
ATOM     68  C   UNL A   1      40.069  26.532  28.711  1.00  0.00     0.131 A 
ATOM     69  C   UNL A   1      42.017  26.845  26.775  1.00  0.00     0.055 A 
ATOM     70  C   UNL A   1      40.109  25.657  27.625  1.00  0.00     0.041 A 
ATOM     71  F   UNL A   1      39.075  26.376  29.600  1.00  0.00    -0.206 F 
ATOM     72  C   UNL A   1      41.079  25.818  26.642  1.00  0.00     0.022 A 
BRANCH  69  73
ATOM     73  S   UNL A   1      43.179  27.195  25.428  1.00  0.00     0.124 S 
ATOM     74  O   UNL A   1      44.252  27.886  26.140  1.00  0.00    -0.237 OA
ATOM     75  O   UNL A   1      43.499  25.862  24.930  1.00  0.00    -0.237 OA
ATOM     76  O   UNL A   1      42.404  28.033  24.515  1.00  0.00    -0.744 OA
ENDBRANCH  69  73
ENDBRANCH  52  66
BRANCH  53  77
ATOM     77  C   UNL A   1      39.749  33.553  36.795  1.00  0.00     0.023 A 
ATOM     78  C   UNL A   1      39.067  33.028  37.904  1.00  0.00     0.031 A 
ATOM     79  C   UNL A   1      40.146  34.901  36.844  1.00  0.00     0.131 A 
ATOM     80  C   UNL A   1      38.748  33.859  38.989  1.00  0.00     0.055 A 
ATOM     81  C   UNL A   1      39.875  35.710  37.949  1.00  0.00     0.041 A 
ATOM     82  F   UNL A   1      40.805  35.453  35.812  1.00  0.00    -0.206 F 
ATOM     83  C   UNL A   1      39.156  35.194  39.023  1.00  0.00     0.022 A 
BRANCH  80  84
ATOM     84  S   UNL A   1      37.693  33.196  40.307  1.00  0.00     0.124 S 
ATOM     85  O   UNL A   1      38.494  32.080  40.796  1.00  0.00    -0.237 OA
ATOM     86  O   UNL A   1      37.574  34.341  41.203  1.00  0.00    -0.237 OA
ATOM     87  O   UNL A   1      36.467  32.825  39.606  1.00  0.00    -0.744 OA
ENDBRANCH  80  84
ENDBRANCH  53  77
BRANCH  65  88
ATOM     88  C   UNL A   1      44.218  28.422  35.299  1.00  0.00     0.023 A 
ATOM     89  C   UNL A   1      44.043  27.444  36.292  1.00  0.00     0.031 A 
ATOM     90  C   UNL A   1      45.525  28.850  35.007  1.00  0.00     0.131 A 
ATOM     91  C   UNL A   1      45.159  26.951  36.986  1.00  0.00     0.055 A 
ATOM     92  C   UNL A   1      46.634  28.323  35.669  1.00  0.00     0.041 A 
ATOM     93  F   UNL A   1      45.744  29.782  34.066  1.00  0.00    -0.206 F 
ATOM     94  C   UNL A   1      46.453  27.374  36.671  1.00  0.00     0.022 A 
BRANCH  91  95
ATOM     95  S   UNL A   1      44.893  25.781  38.348  1.00  0.00     0.124 S 
ATOM     96  O   UNL A   1      44.477  24.577  37.637  1.00  0.00    -0.237 OA
ATOM     97  O   UNL A   1      46.209  25.728  38.976  1.00  0.00    -0.237 OA
ATOM     98  O   UNL A   1      43.852  26.419  39.150  1.00  0.00    -0.744 OA
ENDBRANCH  91  95
ENDBRANCH  65  88
ENDBRANCH  39  40
ENDBRANCH  31  34
ENDBRANCH  29  30
ENDBRANCH   1  29
TORSDOF 16
ENDMDL
MODEL 2
REMARK VINA RESULT:     -13.4      0.898      1.406
REMARK SMILES O=C(Nc1cccc(C(=O)NCCCCNC(=O)c2ccc(-c3c4nc(c(-c5cc(S(=O)(=O)[O-])ccc5F)c5ccc([nH]5)c(-c5cc(S(=O)(=O)[O-])ccc5F)c5nc(c(-c6cc(S(=O)(=O)[O-])ccc6F)c6ccc3[nH]6)C=C5)C=C4)cc2)c1)Nc1cc(Cl)c(Cl)cc1Cl
REMARK SMILES IDX 14 1 13 2 12 3 11 4 9 5 10 6 8 8 4 9 5 10 82 11 6 12 7 13
REMARK SMILES IDX 3 14 1 15 2 16 83 17 84 20 85 21 91 22 86 23 90 24 92 25
REMARK SMILES IDX 87 26 88 27 89 28 15 29 16 30 17 31 18 33 19 34 20 35 81 36
REMARK SMILES IDX 21 37 80 38 22 39 23 40 24 41 74 42 25 43 79 44 73 45 75 46
REMARK SMILES IDX 26 47 78 48 72 49 71 50 27 52 59 53 39 54 58 55 40 56 43 57
REMARK SMILES IDX 57 58 76 59 41 60 42 61 56 63 77 64 44 65 28 66 29 67 37 68
REMARK SMILES IDX 30 69 36 70 38 71 35 72 31 73 32 74 33 75 34 76 60 77 61 78
REMARK SMILES IDX 69 79 62 80 68 81 70 82 67 83 63 84 64 85 65 86 66 87 45 88
REMARK SMILES IDX 46 89 54 90 47 91 53 92 55 93 52 94 48 95 49 96 50 97 51 98
REMARK H PARENT 11 7 3 18 83 19 16 32 75 51 43 62
REMARK Flexibility Score: inf
ROOT
ATOM      1  C   UNL A   1      31.531  32.069  26.626  1.00  0.00     0.023 C 
ENDROOT
BRANCH   1   2
ATOM      2  C   UNL A   1      31.606  30.541  26.547  1.00  0.00     0.023 C 
BRANCH   2   3
ATOM      3  C   UNL A   1      32.973  29.998  26.121  1.00  0.00     0.116 C 
BRANCH   3   4
ATOM      4  N   UNL A   1      33.015  29.742  24.694  1.00  0.00    -0.352 N 
ATOM      5  C   UNL A   1      32.454  28.785  23.889  1.00  0.00     0.251 C 
ATOM      6  O   UNL A   1      32.683  28.876  22.681  1.00  0.00    -0.269 OA
ATOM      7  H   UNL A   1      33.563  30.394  24.200  1.00  0.00     0.163 HD
BRANCH   5   8
ATOM      8  C   UNL A   1      31.570  27.674  24.361  1.00  0.00     0.041 A 
ATOM      9  C   UNL A   1      30.997  25.733  25.728  1.00  0.00     0.043 A 
ATOM     10  C   UNL A   1      29.771  25.618  25.077  1.00  0.00     0.026 A 
ATOM     11  C   UNL A   1      31.907  26.719  25.323  1.00  0.00     0.040 A 
ATOM     12  C   UNL A   1      29.420  26.545  24.097  1.00  0.00     0.003 A 
ATOM     13  C   UNL A   1      30.305  27.571  23.757  1.00  0.00     0.014 A 
BRANCH   9  14
ATOM     14  N   UNL A   1      31.290  24.827  26.762  1.00  0.00    -0.308 N 
ATOM     15  O   UNL A   1      32.114  22.959  27.701  1.00  0.00    -0.248 OA
ATOM     16  C   UNL A   1      32.157  23.759  26.771  1.00  0.00     0.323 C 
ATOM     17  N   UNL A   1      33.138  23.796  25.809  1.00  0.00    -0.306 N 
ATOM     18  H   UNL A   1      30.805  24.981  27.604  1.00  0.00     0.171 HD
ATOM     19  H   UNL A   1      33.175  24.604  25.247  1.00  0.00     0.171 HD
BRANCH  17  20
ATOM     20  C   UNL A   1      34.096  22.794  25.542  1.00  0.00     0.063 A 
ATOM     21  C   UNL A   1      35.434  23.167  25.748  1.00  0.00     0.049 A 
ATOM     22  C   UNL A   1      33.821  21.501  25.062  1.00  0.00     0.066 A 
ATOM     23  C   UNL A   1      36.472  22.248  25.567  1.00  0.00     0.061 A 
ATOM     24  C   UNL A   1      34.865  20.587  24.870  1.00  0.00     0.044 A 
ATOM     25  Cl  UNL A   1      32.259  21.013  24.507  1.00  0.00    -0.082 Cl
ATOM     26  Cl  UNL A   1      38.080  22.787  25.901  1.00  0.00    -0.083 Cl
ATOM     27  C   UNL A   1      36.186  20.950  25.139  1.00  0.00     0.061 A 
ATOM     28  Cl  UNL A   1      37.417  19.762  24.912  1.00  0.00    -0.083 Cl
ENDBRANCH  17  20
ENDBRANCH   9  14
ENDBRANCH   5   8
ENDBRANCH   3   4
ENDBRANCH   2   3
ENDBRANCH   1   2
BRANCH   1  29
ATOM     29  C   UNL A   1      32.782  32.739  27.184  1.00  0.00     0.116 C 
BRANCH  29  30
ATOM     30  N   UNL A   1      32.528  34.033  27.798  1.00  0.00    -0.352 N 
ATOM     31  C   UNL A   1      33.265  34.648  28.788  1.00  0.00     0.251 C 
ATOM     32  H   UNL A   1      31.740  34.526  27.469  1.00  0.00     0.163 HD
ATOM     33  O   UNL A   1      32.902  35.707  29.269  1.00  0.00    -0.269 OA
BRANCH  31  34
ATOM     34  C   UNL A   1      34.476  33.955  29.283  1.00  0.00     0.039 A 
ATOM     35  C   UNL A   1      35.733  34.423  28.891  1.00  0.00     0.014 A 
ATOM     36  C   UNL A   1      34.361  32.908  30.199  1.00  0.00     0.014 A 
ATOM     37  C   UNL A   1      36.883  33.884  29.479  1.00  0.00     0.010 A 
ATOM     38  C   UNL A   1      35.502  32.414  30.823  1.00  0.00     0.010 A 
ATOM     39  C   UNL A   1      36.773  32.903  30.477  1.00  0.00    -0.014 A 
BRANCH  39  40
ATOM     40  C   UNL A   1      37.966  32.353  31.175  1.00  0.00     0.031 A 
ATOM     41  C   UNL A   1      38.740  31.232  30.539  1.00  0.00     0.074 A 
ATOM     42  C   UNL A   1      38.283  32.782  32.413  1.00  0.00     0.049 A 
ATOM     43  N   UNL A   1      39.683  30.482  31.049  1.00  0.00    -0.248 NA
ATOM     44  C   UNL A   1      38.375  30.886  29.157  1.00  0.00     0.031 C 
ATOM     45  C   UNL A   1      37.595  33.847  33.146  1.00  0.00     0.029 A 
ATOM     46  N   UNL A   1      39.254  32.357  33.287  1.00  0.00    -0.354 N 
ATOM     47  C   UNL A   1      39.995  29.550  30.065  1.00  0.00     0.074 A 
ATOM     48  C   UNL A   1      39.119  29.812  28.943  1.00  0.00     0.031 C 
ATOM     49  C   UNL A   1      38.167  33.994  34.354  1.00  0.00     0.029 A 
ATOM     50  C   UNL A   1      39.230  33.004  34.503  1.00  0.00     0.049 A 
ATOM     51  H   UNL A   1      39.907  31.655  33.065  1.00  0.00     0.167 HD
ATOM     52  C   UNL A   1      40.934  28.571  30.094  1.00  0.00     0.034 A 
ATOM     53  C   UNL A   1      39.963  32.804  35.617  1.00  0.00     0.034 A 
ATOM     54  C   UNL A   1      41.832  28.353  31.200  1.00  0.00     0.049 A 
ATOM     55  C   UNL A   1      41.009  31.715  35.618  1.00  0.00     0.074 A 
ATOM     56  C   UNL A   1      42.867  27.441  31.301  1.00  0.00     0.029 A 
ATOM     57  N   UNL A   1      41.804  29.059  32.395  1.00  0.00    -0.354 N 
ATOM     58  N   UNL A   1      41.316  30.866  34.665  1.00  0.00    -0.248 NA
ATOM     59  C   UNL A   1      41.809  31.561  36.841  1.00  0.00     0.031 C 
ATOM     60  C   UNL A   1      43.434  27.560  32.575  1.00  0.00     0.029 A 
ATOM     61  C   UNL A   1      42.791  28.589  33.245  1.00  0.00     0.049 A 
ATOM     62  H   UNL A   1      41.175  29.787  32.606  1.00  0.00     0.167 HD
ATOM     63  C   UNL A   1      42.376  30.110  35.160  1.00  0.00     0.074 A 
ATOM     64  C   UNL A   1      42.653  30.600  36.493  1.00  0.00     0.031 C 
ATOM     65  C   UNL A   1      43.064  29.106  34.563  1.00  0.00     0.034 A 
BRANCH  52  66
ATOM     66  C   UNL A   1      41.014  27.647  28.906  1.00  0.00     0.023 A 
ATOM     67  C   UNL A   1      42.018  27.778  27.932  1.00  0.00     0.031 A 
ATOM     68  C   UNL A   1      40.063  26.625  28.741  1.00  0.00     0.131 A 
ATOM     69  C   UNL A   1      42.008  26.945  26.804  1.00  0.00     0.055 A 
ATOM     70  C   UNL A   1      40.103  25.751  27.655  1.00  0.00     0.041 A 
ATOM     71  F   UNL A   1      39.071  26.466  29.632  1.00  0.00    -0.206 F 
ATOM     72  C   UNL A   1      41.073  25.917  26.671  1.00  0.00     0.022 A 
BRANCH  69  73
ATOM     73  S   UNL A   1      43.168  27.300  25.456  1.00  0.00     0.124 S 
ATOM     74  O   UNL A   1      42.354  28.142  24.583  1.00  0.00    -0.237 OA
ATOM     75  O   UNL A   1      44.264  27.969  26.148  1.00  0.00    -0.237 OA
ATOM     76  O   UNL A   1      43.484  25.977  24.920  1.00  0.00    -0.744 OA
ENDBRANCH  69  73
ENDBRANCH  52  66
BRANCH  53  77
ATOM     77  C   UNL A   1      39.738  33.630  36.839  1.00  0.00     0.023 A 
ATOM     78  C   UNL A   1      39.096  33.088  37.964  1.00  0.00     0.031 A 
ATOM     79  C   UNL A   1      40.095  34.989  36.876  1.00  0.00     0.131 A 
ATOM     80  C   UNL A   1      38.774  33.913  39.053  1.00  0.00     0.055 A 
ATOM     81  C   UNL A   1      39.822  35.793  37.984  1.00  0.00     0.041 A 
ATOM     82  F   UNL A   1      40.715  35.557  35.830  1.00  0.00    -0.206 F 
ATOM     83  C   UNL A   1      39.142  35.260  39.075  1.00  0.00     0.022 A 
BRANCH  80  84
ATOM     84  S   UNL A   1      37.767  33.222  40.395  1.00  0.00     0.124 S 
ATOM     85  O   UNL A   1      36.509  32.948  39.712  1.00  0.00    -0.237 OA
ATOM     86  O   UNL A   1      38.552  32.057  40.790  1.00  0.00    -0.237 OA
ATOM     87  O   UNL A   1      37.723  34.304  41.376  1.00  0.00    -0.744 OA
ENDBRANCH  80  84
ENDBRANCH  53  77
BRANCH  65  88
ATOM     88  C   UNL A   1      44.235  28.531  35.316  1.00  0.00     0.023 A 
ATOM     89  C   UNL A   1      44.073  27.541  36.299  1.00  0.00     0.031 A 
ATOM     90  C   UNL A   1      45.537  28.979  35.028  1.00  0.00     0.131 A 
ATOM     91  C   UNL A   1      45.195  27.055  36.987  1.00  0.00     0.055 A 
ATOM     92  C   UNL A   1      46.652  28.459  35.684  1.00  0.00     0.041 A 
ATOM     93  F   UNL A   1      45.743  29.923  34.096  1.00  0.00    -0.206 F 
ATOM     94  C   UNL A   1      46.484  27.498  36.676  1.00  0.00     0.022 A 
BRANCH  91  95
ATOM     95  S   UNL A   1      44.945  25.869  38.337  1.00  0.00     0.124 S 
ATOM     96  O   UNL A   1      44.662  24.636  37.610  1.00  0.00    -0.237 OA
ATOM     97  O   UNL A   1      46.224  25.917  39.037  1.00  0.00    -0.237 OA
ATOM     98  O   UNL A   1      43.815  26.425  39.079  1.00  0.00    -0.744 OA
ENDBRANCH  91  95
ENDBRANCH  65  88
ENDBRANCH  39  40
ENDBRANCH  31  34
ENDBRANCH  29  30
ENDBRANCH   1  29
TORSDOF 16
ENDMDL
MODEL 3
REMARK VINA RESULT:     -13.3      1.549      2.012
REMARK SMILES O=C(Nc1cccc(C(=O)NCCCCNC(=O)c2ccc(-c3c4nc(c(-c5cc(S(=O)(=O)[O-])ccc5F)c5ccc([nH]5)c(-c5cc(S(=O)(=O)[O-])ccc5F)c5nc(c(-c6cc(S(=O)(=O)[O-])ccc6F)c6ccc3[nH]6)C=C5)C=C4)cc2)c1)Nc1cc(Cl)c(Cl)cc1Cl
REMARK SMILES IDX 14 1 13 2 12 3 11 4 9 5 10 6 8 8 4 9 5 10 82 11 6 12 7 13
REMARK SMILES IDX 3 14 1 15 2 16 83 17 84 20 85 21 91 22 86 23 90 24 92 25
REMARK SMILES IDX 87 26 88 27 89 28 15 29 16 30 17 31 18 33 19 34 20 35 81 36
REMARK SMILES IDX 21 37 80 38 22 39 23 40 24 41 74 42 25 43 79 44 73 45 75 46
REMARK SMILES IDX 26 47 78 48 72 49 71 50 27 52 59 53 39 54 58 55 40 56 43 57
REMARK SMILES IDX 57 58 76 59 41 60 42 61 56 63 77 64 44 65 28 66 29 67 37 68
REMARK SMILES IDX 30 69 36 70 38 71 35 72 31 73 32 74 33 75 34 76 60 77 61 78
REMARK SMILES IDX 69 79 62 80 68 81 70 82 67 83 63 84 64 85 65 86 66 87 45 88
REMARK SMILES IDX 46 89 54 90 47 91 53 92 55 93 52 94 48 95 49 96 50 97 51 98
REMARK H PARENT 11 7 3 18 83 19 16 32 75 51 43 62
REMARK Flexibility Score: inf
ROOT
ATOM      1  C   UNL A   1      31.430  32.194  26.527  1.00  0.00     0.023 C 
ENDROOT
BRANCH   1   2
ATOM      2  C   UNL A   1      31.480  30.698  26.202  1.00  0.00     0.023 C 
BRANCH   2   3
ATOM      3  C   UNL A   1      32.893  30.144  25.995  1.00  0.00     0.116 C 
BRANCH   3   4
ATOM      4  N   UNL A   1      33.095  29.721  24.623  1.00  0.00    -0.352 N 
ATOM      5  C   UNL A   1      32.631  28.665  23.882  1.00  0.00     0.251 C 
ATOM      6  O   UNL A   1      32.993  28.614  22.705  1.00  0.00    -0.269 OA
ATOM      7  H   UNL A   1      33.692  30.318  24.117  1.00  0.00     0.163 HD
BRANCH   5   8
ATOM      8  C   UNL A   1      31.704  27.603  24.385  1.00  0.00     0.041 A 
ATOM      9  C   UNL A   1      31.066  25.705  25.783  1.00  0.00     0.043 A 
ATOM     10  C   UNL A   1      29.821  25.646  25.161  1.00  0.00     0.026 A 
ATOM     11  C   UNL A   1      32.015  26.641  25.348  1.00  0.00     0.040 A 
ATOM     12  C   UNL A   1      29.495  26.580  24.180  1.00  0.00     0.003 A 
ATOM     13  C   UNL A   1      30.422  27.558  23.810  1.00  0.00     0.014 A 
BRANCH   9  14
ATOM     14  N   UNL A   1      31.337  24.795  26.820  1.00  0.00    -0.308 N 
ATOM     15  O   UNL A   1      32.106  22.905  27.762  1.00  0.00    -0.248 OA
ATOM     16  C   UNL A   1      32.169  23.699  26.828  1.00  0.00     0.323 C 
ATOM     17  N   UNL A   1      33.142  23.698  25.858  1.00  0.00    -0.306 N 
ATOM     18  H   UNL A   1      30.864  24.969  27.665  1.00  0.00     0.171 HD
ATOM     19  H   UNL A   1      33.202  24.502  25.291  1.00  0.00     0.171 HD
BRANCH  17  20
ATOM     20  C   UNL A   1      34.065  22.664  25.589  1.00  0.00     0.063 A 
ATOM     21  C   UNL A   1      35.415  22.995  25.778  1.00  0.00     0.049 A 
ATOM     22  C   UNL A   1      33.742  21.377  25.121  1.00  0.00     0.066 A 
ATOM     23  C   UNL A   1      36.422  22.041  25.593  1.00  0.00     0.061 A 
ATOM     24  C   UNL A   1      34.754  20.428  24.925  1.00  0.00     0.044 A 
ATOM     25  Cl  UNL A   1      32.159  20.937  24.586  1.00  0.00    -0.082 Cl
ATOM     26  Cl  UNL A   1      38.050  22.530  25.907  1.00  0.00    -0.083 Cl
ATOM     27  C   UNL A   1      36.089  20.750  25.178  1.00  0.00     0.061 A 
ATOM     28  Cl  UNL A   1      37.278  19.521  24.947  1.00  0.00    -0.083 Cl
ENDBRANCH  17  20
ENDBRANCH   9  14
ENDBRANCH   5   8
ENDBRANCH   3   4
ENDBRANCH   2   3
ENDBRANCH   1   2
BRANCH   1  29
ATOM     29  C   UNL A   1      32.652  32.725  27.268  1.00  0.00     0.116 C 
BRANCH  29  30
ATOM     30  N   UNL A   1      32.485  34.078  27.776  1.00  0.00    -0.352 N 
ATOM     31  C   UNL A   1      33.284  34.733  28.690  1.00  0.00     0.251 C 
ATOM     32  H   UNL A   1      31.715  34.584  27.427  1.00  0.00     0.163 HD
ATOM     33  O   UNL A   1      32.992  35.847  29.088  1.00  0.00    -0.269 OA
BRANCH  31  34
ATOM     34  C   UNL A   1      34.471  34.019  29.210  1.00  0.00     0.039 A 
ATOM     35  C   UNL A   1      35.740  34.394  28.761  1.00  0.00     0.014 A 
ATOM     36  C   UNL A   1      34.327  33.046  30.202  1.00  0.00     0.014 A 
ATOM     37  C   UNL A   1      36.876  33.843  29.364  1.00  0.00     0.010 A 
ATOM     38  C   UNL A   1      35.458  32.543  30.838  1.00  0.00     0.010 A 
ATOM     39  C   UNL A   1      36.742  32.943  30.433  1.00  0.00    -0.014 A 
BRANCH  39  40
ATOM     40  C   UNL A   1      37.923  32.387  31.146  1.00  0.00     0.031 A 
ATOM     41  C   UNL A   1      38.692  31.253  30.526  1.00  0.00     0.074 A 
ATOM     42  C   UNL A   1      38.234  32.821  32.384  1.00  0.00     0.049 A 
ATOM     43  N   UNL A   1      39.623  30.498  31.049  1.00  0.00    -0.248 NA
ATOM     44  C   UNL A   1      38.336  30.901  29.142  1.00  0.00     0.031 C 
ATOM     45  C   UNL A   1      37.549  33.898  33.103  1.00  0.00     0.029 A 
ATOM     46  N   UNL A   1      39.192  32.393  33.270  1.00  0.00    -0.354 N 
ATOM     47  C   UNL A   1      39.935  29.555  30.075  1.00  0.00     0.074 A 
ATOM     48  C   UNL A   1      39.072  29.817  28.943  1.00  0.00     0.031 C 
ATOM     49  C   UNL A   1      38.111  34.048  34.314  1.00  0.00     0.029 A 
ATOM     50  C   UNL A   1      39.163  33.049  34.481  1.00  0.00     0.049 A 
ATOM     51  H   UNL A   1      39.840  31.683  33.059  1.00  0.00     0.167 HD
ATOM     52  C   UNL A   1      40.864  28.568  30.120  1.00  0.00     0.034 A 
ATOM     53  C   UNL A   1      39.885  32.850  35.603  1.00  0.00     0.034 A 
ATOM     54  C   UNL A   1      41.750  28.349  31.235  1.00  0.00     0.049 A 
ATOM     55  C   UNL A   1      40.920  31.751  35.621  1.00  0.00     0.074 A 
ATOM     56  C   UNL A   1      42.774  27.427  31.352  1.00  0.00     0.029 A 
ATOM     57  N   UNL A   1      41.718  29.064  32.425  1.00  0.00    -0.354 N 
ATOM     58  N   UNL A   1      41.227  30.892  34.677  1.00  0.00    -0.248 NA
ATOM     59  C   UNL A   1      41.707  31.598  36.853  1.00  0.00     0.031 C 
ATOM     60  C   UNL A   1      43.331  27.550  32.631  1.00  0.00     0.029 A 
ATOM     61  C   UNL A   1      42.692  28.590  33.288  1.00  0.00     0.049 A 
ATOM     62  H   UNL A   1      41.094  29.799  32.625  1.00  0.00     0.167 HD
ATOM     63  C   UNL A   1      42.275  30.129  35.187  1.00  0.00     0.074 A 
ATOM     64  C   UNL A   1      42.544  30.627  36.519  1.00  0.00     0.031 C 
ATOM     65  C   UNL A   1      42.959  29.114  34.604  1.00  0.00     0.034 A 
BRANCH  52  66
ATOM     66  C   UNL A   1      40.946  27.635  28.939  1.00  0.00     0.023 A 
ATOM     67  C   UNL A   1      41.932  27.776  27.949  1.00  0.00     0.031 A 
ATOM     68  C   UNL A   1      40.013  26.592  28.798  1.00  0.00     0.131 A 
ATOM     69  C   UNL A   1      41.923  26.933  26.829  1.00  0.00     0.055 A 
ATOM     70  C   UNL A   1      40.056  25.709  27.719  1.00  0.00     0.041 A 
ATOM     71  F   UNL A   1      39.037  26.421  29.704  1.00  0.00    -0.206 F 
ATOM     72  C   UNL A   1      41.007  25.884  26.719  1.00  0.00     0.022 A 
BRANCH  69  73
ATOM     73  S   UNL A   1      43.057  27.298  25.461  1.00  0.00     0.124 S 
ATOM     74  O   UNL A   1      43.220  25.977  24.858  1.00  0.00    -0.237 OA
ATOM     75  O   UNL A   1      42.304  28.270  24.676  1.00  0.00    -0.237 OA
ATOM     76  O   UNL A   1      44.244  27.822  26.132  1.00  0.00    -0.744 OA
ENDBRANCH  69  73
ENDBRANCH  52  66
BRANCH  53  77
ATOM     77  C   UNL A   1      39.657  33.687  36.817  1.00  0.00     0.023 A 
ATOM     78  C   UNL A   1      40.487  34.784  37.100  1.00  0.00     0.031 A 
ATOM     79  C   UNL A   1      38.656  33.361  37.749  1.00  0.00     0.131 A 
ATOM     80  C   UNL A   1      40.342  35.478  38.311  1.00  0.00     0.055 A 
ATOM     81  C   UNL A   1      38.480  34.089  38.927  1.00  0.00     0.041 A 
ATOM     82  F   UNL A   1      37.832  32.325  37.526  1.00  0.00    -0.206 F 
ATOM     83  C   UNL A   1      39.338  35.144  39.222  1.00  0.00     0.022 A 
BRANCH  80  84
ATOM     84  S   UNL A   1      41.561  36.755  38.727  1.00  0.00     0.124 S 
ATOM     85  O   UNL A   1      42.314  36.111  39.797  1.00  0.00    -0.237 OA
ATOM     86  O   UNL A   1      42.263  36.926  37.460  1.00  0.00    -0.237 OA
ATOM     87  O   UNL A   1      40.736  37.889  39.139  1.00  0.00    -0.744 OA
ENDBRANCH  80  84
ENDBRANCH  53  77
BRANCH  65  88
ATOM     88  C   UNL A   1      44.117  28.533  35.372  1.00  0.00     0.023 A 
ATOM     89  C   UNL A   1      43.942  27.512  36.320  1.00  0.00     0.031 A 
ATOM     90  C   UNL A   1      45.419  29.008  35.134  1.00  0.00     0.131 A 
ATOM     91  C   UNL A   1      45.052  27.022  37.025  1.00  0.00     0.055 A 
ATOM     92  C   UNL A   1      46.524  28.485  35.805  1.00  0.00     0.041 A 
ATOM     93  F   UNL A   1      45.636  29.983  34.237  1.00  0.00    -0.206 F 
ATOM     94  C   UNL A   1      46.343  27.492  36.763  1.00  0.00     0.022 A 
BRANCH  91  95
ATOM     95  S   UNL A   1      44.783  25.791  38.331  1.00  0.00     0.124 S 
ATOM     96  O   UNL A   1      43.904  26.509  39.248  1.00  0.00    -0.237 OA
ATOM     97  O   UNL A   1      44.175  24.685  37.599  1.00  0.00    -0.237 OA
ATOM     98  O   UNL A   1      46.128  25.530  38.839  1.00  0.00    -0.744 OA
ENDBRANCH  91  95
ENDBRANCH  65  88
ENDBRANCH  39  40
ENDBRANCH  31  34
ENDBRANCH  29  30
ENDBRANCH   1  29
TORSDOF 16
ENDMDL
