MODEL 1
REMARK VINA RESULT:     -12.1      0.000      0.000
REMARK SMILES C=C(C)C[C@@]1(C(=O)NCCCCNC(=O)c2ccc(-c3c4nc(c(-c5cc(S(=O)(=O)[O-])ccc5F)c5ccc([nH]5)c(-c5cc(S(=O)(=O)[O-])ccc5F)c5nc(c(-c6cc(S(=O)(=O)[O-])ccc6F)c6ccc3[nH]6)C=C5)C=C4)cc2)COc2ccccc2C1
REMARK SMILES IDX 11 1 10 2 9 3 8 4 6 5 7 6 5 8 79 9 87 10 80 11 86 12 81 13
REMARK SMILES IDX 85 14 82 15 84 16 83 17 4 18 2 19 1 20 3 21 12 22 13 23
REMARK SMILES IDX 14 24 15 26 16 27 17 28 78 29 18 30 77 31 19 32 20 33 21 34
REMARK SMILES IDX 71 35 22 36 76 37 70 38 72 39 23 40 75 41 69 42 68 43 24 45
REMARK SMILES IDX 56 46 36 47 55 48 37 49 40 50 54 51 73 52 38 53 39 54 53 56
REMARK SMILES IDX 74 57 41 58 25 59 26 60 34 61 27 62 33 63 35 64 32 65 28 66
REMARK SMILES IDX 29 67 30 68 31 69 57 70 58 71 66 72 59 73 65 74 67 75 64 76
REMARK SMILES IDX 60 77 61 78 62 79 63 80 42 81 43 82 51 83 44 84 50 85 52 86
REMARK SMILES IDX 49 87 45 88 46 89 47 90 48 91
REMARK H PARENT 8 7 13 25 72 44 40 55
REMARK Flexibility Score: inf
ROOT
ATOM      1  C   UNL A   1      36.375  22.620  23.508  1.00  0.00     0.023 C 
ENDROOT
BRANCH   1   2
ATOM      2  C   UNL A   1      34.944  23.061  23.224  1.00  0.00     0.023 C 
BRANCH   2   3
ATOM      3  C   UNL A   1      34.531  24.370  23.894  1.00  0.00     0.116 C 
BRANCH   3   4
ATOM      4  N   UNL A   1      33.695  25.187  23.039  1.00  0.00    -0.355 N 
ATOM      5  C   UNL A   1      32.375  25.511  23.095  1.00  0.00     0.230 C 
ATOM      6  O   UNL A   1      31.924  26.068  22.087  1.00  0.00    -0.274 OA
ATOM      7  H   UNL A   1      34.171  25.581  22.273  1.00  0.00     0.163 HD
BRANCH   5   8
ATOM      8  C   UNL A   1      31.459  25.159  24.288  1.00  0.00     0.091 C 
ATOM      9  C   UNL A   1      30.182  26.045  24.157  1.00  0.00     0.247 C 
ATOM     10  C   UNL A   1      32.024  25.551  25.667  1.00  0.00     0.060 C 
ATOM     11  O   UNL A   1      30.382  27.462  24.247  1.00  0.00    -0.492 OA
ATOM     12  C   UNL A   1      32.259  27.033  25.732  1.00  0.00    -0.005 A 
ATOM     13  C   UNL A   1      31.420  27.892  25.020  1.00  0.00     0.122 A 
ATOM     14  C   UNL A   1      33.310  27.572  26.487  1.00  0.00     0.007 A 
ATOM     15  C   UNL A   1      31.644  29.267  25.031  1.00  0.00     0.047 A 
ATOM     16  C   UNL A   1      33.536  28.950  26.494  1.00  0.00     0.001 A 
ATOM     17  C   UNL A   1      32.706  29.798  25.761  1.00  0.00     0.004 A 
BRANCH   8  18
ATOM     18  C   UNL A   1      30.964  23.675  24.236  1.00  0.00     0.051 C 
BRANCH  18  19
ATOM     19  C   UNL A   1      31.189  22.743  25.408  1.00  0.00    -0.079 C 
ATOM     20  C   UNL A   1      32.172  21.825  25.381  1.00  0.00     0.007 C 
ATOM     21  C   UNL A   1      30.225  22.812  26.558  1.00  0.00     0.039 C 
ENDBRANCH  18  19
ENDBRANCH   8  18
ENDBRANCH   5   8
ENDBRANCH   3   4
ENDBRANCH   2   3
ENDBRANCH   1   2
BRANCH   1  22
ATOM     22  C   UNL A   1      36.704  22.489  24.987  1.00  0.00     0.116 C 
BRANCH  22  23
ATOM     23  N   UNL A   1      37.516  21.311  25.270  1.00  0.00    -0.352 N 
ATOM     24  C   UNL A   1      38.762  21.230  25.850  1.00  0.00     0.251 C 
ATOM     25  H   UNL A   1      37.116  20.451  25.008  1.00  0.00     0.163 HD
ATOM     26  O   UNL A   1      39.390  20.181  25.814  1.00  0.00    -0.269 OA
BRANCH  24  27
ATOM     27  C   UNL A   1      39.333  22.435  26.484  1.00  0.00     0.039 A 
ATOM     28  C   UNL A   1      40.425  22.306  27.343  1.00  0.00     0.014 A 
ATOM     29  C   UNL A   1      38.824  23.697  26.167  1.00  0.00     0.014 A 
ATOM     30  C   UNL A   1      41.074  23.454  27.803  1.00  0.00     0.010 A 
ATOM     31  C   UNL A   1      39.524  24.832  26.548  1.00  0.00     0.010 A 
ATOM     32  C   UNL A   1      40.664  24.722  27.360  1.00  0.00    -0.014 A 
BRANCH  32  33
ATOM     33  C   UNL A   1      41.423  25.952  27.701  1.00  0.00     0.031 A 
ATOM     34  C   UNL A   1      40.751  27.061  28.458  1.00  0.00     0.074 A 
ATOM     35  C   UNL A   1      42.675  26.110  27.228  1.00  0.00     0.049 A 
ATOM     36  N   UNL A   1      41.189  28.263  28.731  1.00  0.00    -0.248 NA
ATOM     37  C   UNL A   1      39.387  26.793  28.934  1.00  0.00     0.031 C 
ATOM     38  C   UNL A   1      43.408  25.126  26.428  1.00  0.00     0.029 A 
ATOM     39  N   UNL A   1      43.544  27.168  27.326  1.00  0.00    -0.354 N 
ATOM     40  C   UNL A   1      40.149  28.900  29.399  1.00  0.00     0.074 A 
ATOM     41  C   UNL A   1      39.036  27.973  29.417  1.00  0.00     0.031 C 
ATOM     42  C   UNL A   1      44.615  25.621  26.115  1.00  0.00     0.029 A 
ATOM     43  C   UNL A   1      44.725  26.977  26.646  1.00  0.00     0.049 A 
ATOM     44  H   UNL A   1      43.342  27.986  27.835  1.00  0.00     0.167 HD
ATOM     45  C   UNL A   1      40.134  30.130  29.967  1.00  0.00     0.034 A 
ATOM     46  C   UNL A   1      45.766  27.808  26.444  1.00  0.00     0.034 A 
ATOM     47  C   UNL A   1      41.257  31.036  29.932  1.00  0.00     0.049 A 
ATOM     48  C   UNL A   1      45.720  29.186  27.047  1.00  0.00     0.074 A 
ATOM     49  C   UNL A   1      41.387  32.276  30.533  1.00  0.00     0.029 A 
ATOM     50  N   UNL A   1      42.439  30.808  29.237  1.00  0.00    -0.354 N 
ATOM     51  N   UNL A   1      44.759  29.750  27.744  1.00  0.00    -0.248 NA
ATOM     52  C   UNL A   1      46.895  30.040  26.840  1.00  0.00     0.031 C 
ATOM     53  C   UNL A   1      42.613  32.826  30.142  1.00  0.00     0.029 A 
ATOM     54  C   UNL A   1      43.284  31.902  29.357  1.00  0.00     0.049 A 
ATOM     55  H   UNL A   1      42.647  29.988  28.732  1.00  0.00     0.167 HD
ATOM     56  C   UNL A   1      45.218  31.023  28.066  1.00  0.00     0.074 A 
ATOM     57  C   UNL A   1      46.552  31.134  27.507  1.00  0.00     0.031 C 
ATOM     58  C   UNL A   1      44.597  32.010  28.761  1.00  0.00     0.034 A 
BRANCH  45  59
ATOM     59  C   UNL A   1      38.852  30.561  30.644  1.00  0.00     0.023 A 
ATOM     60  C   UNL A   1      37.873  31.303  29.958  1.00  0.00     0.031 A 
ATOM     61  C   UNL A   1      38.632  30.288  32.005  1.00  0.00     0.131 A 
ATOM     62  C   UNL A   1      36.778  31.835  30.656  1.00  0.00     0.055 A 
ATOM     63  C   UNL A   1      37.490  30.740  32.672  1.00  0.00     0.041 A 
ATOM     64  F   UNL A   1      39.536  29.602  32.721  1.00  0.00    -0.206 F 
ATOM     65  C   UNL A   1      36.566  31.537  32.003  1.00  0.00     0.022 A 
BRANCH  62  66
ATOM     66  S   UNL A   1      35.745  33.072  29.822  1.00  0.00     0.124 S 
ATOM     67  O   UNL A   1      34.589  32.272  29.425  1.00  0.00    -0.237 OA
ATOM     68  O   UNL A   1      35.514  34.051  30.878  1.00  0.00    -0.237 OA
ATOM     69  O   UNL A   1      36.584  33.531  28.716  1.00  0.00    -0.744 OA
ENDBRANCH  62  66
ENDBRANCH  45  59
BRANCH  46  70
ATOM     70  C   UNL A   1      46.916  27.369  25.606  1.00  0.00     0.023 A 
ATOM     71  C   UNL A   1      47.056  27.798  24.278  1.00  0.00     0.031 A 
ATOM     72  C   UNL A   1      47.901  26.511  26.130  1.00  0.00     0.131 A 
ATOM     73  C   UNL A   1      48.143  27.349  23.510  1.00  0.00     0.055 A 
ATOM     74  C   UNL A   1      49.003  26.103  25.377  1.00  0.00     0.041 A 
ATOM     75  F   UNL A   1      47.818  26.080  27.400  1.00  0.00    -0.206 F 
ATOM     76  C   UNL A   1      49.124  26.517  24.055  1.00  0.00     0.022 A 
BRANCH  73  77
ATOM     77  S   UNL A   1      48.235  27.834  21.764  1.00  0.00     0.124 S 
ATOM     78  O   UNL A   1      48.310  26.539  21.098  1.00  0.00    -0.237 OA
ATOM     79  O   UNL A   1      46.990  28.575  21.590  1.00  0.00    -0.237 OA
ATOM     80  O   UNL A   1      49.452  28.642  21.699  1.00  0.00    -0.744 OA
ENDBRANCH  73  77
ENDBRANCH  46  70
BRANCH  58  81
ATOM     81  C   UNL A   1      45.365  33.293  28.958  1.00  0.00     0.023 A 
ATOM     82  C   UNL A   1      45.278  34.350  28.036  1.00  0.00     0.031 A 
ATOM     83  C   UNL A   1      46.194  33.460  30.082  1.00  0.00     0.131 A 
ATOM     84  C   UNL A   1      46.041  35.511  28.230  1.00  0.00     0.055 A 
ATOM     85  C   UNL A   1      46.905  34.641  30.301  1.00  0.00     0.041 A 
ATOM     86  F   UNL A   1      46.317  32.481  30.992  1.00  0.00    -0.206 F 
ATOM     87  C   UNL A   1      46.838  35.671  29.366  1.00  0.00     0.022 A 
BRANCH  84  88
ATOM     88  S   UNL A   1      46.034  36.785  26.939  1.00  0.00     0.124 S 
ATOM     89  O   UNL A   1      44.625  37.164  26.895  1.00  0.00    -0.237 OA
ATOM     90  O   UNL A   1      46.948  37.785  27.480  1.00  0.00    -0.237 OA
ATOM     91  O   UNL A   1      46.523  36.076  25.756  1.00  0.00    -0.744 OA
ENDBRANCH  84  88
ENDBRANCH  58  81
ENDBRANCH  32  33
ENDBRANCH  24  27
ENDBRANCH  22  23
ENDBRANCH   1  22
TORSDOF 16
ENDMDL
MODEL 2
REMARK VINA RESULT:     -12.1      5.255     10.352
REMARK SMILES C=C(C)C[C@@]1(C(=O)NCCCCNC(=O)c2ccc(-c3c4nc(c(-c5cc(S(=O)(=O)[O-])ccc5F)c5ccc([nH]5)c(-c5cc(S(=O)(=O)[O-])ccc5F)c5nc(c(-c6cc(S(=O)(=O)[O-])ccc6F)c6ccc3[nH]6)C=C5)C=C4)cc2)COc2ccccc2C1
REMARK SMILES IDX 11 1 10 2 9 3 8 4 6 5 7 6 5 8 79 9 87 10 80 11 86 12 81 13
REMARK SMILES IDX 85 14 82 15 84 16 83 17 4 18 2 19 1 20 3 21 12 22 13 23
REMARK SMILES IDX 14 24 15 26 16 27 17 28 78 29 18 30 77 31 19 32 20 33 21 34
REMARK SMILES IDX 71 35 22 36 76 37 70 38 72 39 23 40 75 41 69 42 68 43 24 45
REMARK SMILES IDX 56 46 36 47 55 48 37 49 40 50 54 51 73 52 38 53 39 54 53 56
REMARK SMILES IDX 74 57 41 58 25 59 26 60 34 61 27 62 33 63 35 64 32 65 28 66
REMARK SMILES IDX 29 67 30 68 31 69 57 70 58 71 66 72 59 73 65 74 67 75 64 76
REMARK SMILES IDX 60 77 61 78 62 79 63 80 42 81 43 82 51 83 44 84 50 85 52 86
REMARK SMILES IDX 49 87 45 88 46 89 47 90 48 91
REMARK H PARENT 8 7 13 25 72 44 40 55
REMARK Flexibility Score: inf
ROOT
ATOM      1  C   UNL A   1      31.597  29.479  26.928  1.00  0.00     0.023 C 
ENDROOT
BRANCH   1   2
ATOM      2  C   UNL A   1      32.273  28.192  27.385  1.00  0.00     0.023 C 
BRANCH   2   3
ATOM      3  C   UNL A   1      32.267  27.063  26.356  1.00  0.00     0.116 C 
BRANCH   3   4
ATOM      4  N   UNL A   1      31.527  25.905  26.812  1.00  0.00    -0.355 N 
ATOM      5  C   UNL A   1      31.013  24.833  26.152  1.00  0.00     0.230 C 
ATOM      6  O   UNL A   1      30.252  24.117  26.816  1.00  0.00    -0.274 OA
ATOM      7  H   UNL A   1      31.364  25.892  27.783  1.00  0.00     0.163 HD
BRANCH   5   8
ATOM      8  C   UNL A   1      31.283  24.539  24.660  1.00  0.00     0.091 C 
ATOM      9  C   UNL A   1      31.031  23.014  24.444  1.00  0.00     0.247 C 
ATOM     10  C   UNL A   1      32.751  24.721  24.226  1.00  0.00     0.060 C 
ATOM     11  O   UNL A   1      31.893  22.122  25.161  1.00  0.00    -0.492 OA
ATOM     12  C   UNL A   1      33.644  23.803  25.011  1.00  0.00    -0.005 A 
ATOM     13  C   UNL A   1      33.157  22.562  25.424  1.00  0.00     0.122 A 
ATOM     14  C   UNL A   1      34.954  24.171  25.345  1.00  0.00     0.007 A 
ATOM     15  C   UNL A   1      33.953  21.711  26.189  1.00  0.00     0.047 A 
ATOM     16  C   UNL A   1      35.749  23.319  26.114  1.00  0.00     0.001 A 
ATOM     17  C   UNL A   1      35.247  22.091  26.542  1.00  0.00     0.004 A 
BRANCH   8  18
ATOM     18  C   UNL A   1      30.277  25.282  23.720  1.00  0.00     0.051 C 
BRANCH  18  19
ATOM     19  C   UNL A   1      30.582  26.674  23.207  1.00  0.00    -0.079 C 
ATOM     20  C   UNL A   1      30.009  27.756  23.765  1.00  0.00     0.007 C 
ATOM     21  C   UNL A   1      31.467  26.803  22.000  1.00  0.00     0.039 C 
ENDBRANCH  18  19
ENDBRANCH   8  18
ENDBRANCH   5   8
ENDBRANCH   3   4
ENDBRANCH   2   3
ENDBRANCH   1   2
BRANCH   1  22
ATOM     22  C   UNL A   1      32.532  30.461  26.238  1.00  0.00     0.116 C 
BRANCH  22  23
ATOM     23  N   UNL A   1      32.321  31.832  26.689  1.00  0.00    -0.352 N 
ATOM     24  C   UNL A   1      33.076  32.593  27.553  1.00  0.00     0.251 C 
ATOM     25  H   UNL A   1      31.523  32.278  26.322  1.00  0.00     0.163 HD
ATOM     26  O   UNL A   1      32.638  33.647  27.989  1.00  0.00    -0.269 OA
BRANCH  24  27
ATOM     27  C   UNL A   1      34.406  32.096  27.963  1.00  0.00     0.039 A 
ATOM     28  C   UNL A   1      35.481  32.983  28.019  1.00  0.00     0.014 A 
ATOM     29  C   UNL A   1      34.560  30.765  28.356  1.00  0.00     0.014 A 
ATOM     30  C   UNL A   1      36.691  32.557  28.572  1.00  0.00     0.010 A 
ATOM     31  C   UNL A   1      35.730  30.370  28.989  1.00  0.00     0.010 A 
ATOM     32  C   UNL A   1      36.804  31.267  29.115  1.00  0.00    -0.014 A 
BRANCH  32  33
ATOM     33  C   UNL A   1      38.018  30.831  29.850  1.00  0.00     0.031 A 
ATOM     34  C   UNL A   1      38.941  29.817  29.237  1.00  0.00     0.074 A 
ATOM     35  C   UNL A   1      38.222  31.264  31.109  1.00  0.00     0.049 A 
ATOM     36  N   UNL A   1      39.969  29.204  29.766  1.00  0.00    -0.248 NA
ATOM     37  C   UNL A   1      38.637  29.407  27.859  1.00  0.00     0.031 C 
ATOM     38  C   UNL A   1      37.359  32.203  31.831  1.00  0.00     0.029 A 
ATOM     39  N   UNL A   1      39.203  30.953  32.018  1.00  0.00    -0.354 N 
ATOM     40  C   UNL A   1      40.428  28.328  28.789  1.00  0.00     0.074 A 
ATOM     41  C   UNL A   1      39.515  28.436  27.670  1.00  0.00     0.031 C 
ATOM     42  C   UNL A   1      37.850  32.396  33.064  1.00  0.00     0.029 A 
ATOM     43  C   UNL A   1      39.033  31.558  33.242  1.00  0.00     0.049 A 
ATOM     44  H   UNL A   1      39.956  30.354  31.813  1.00  0.00     0.167 HD
ATOM     45  C   UNL A   1      41.523  27.529  28.813  1.00  0.00     0.034 A 
ATOM     46  C   UNL A   1      39.729  31.430  34.389  1.00  0.00     0.034 A 
ATOM     47  C   UNL A   1      42.415  27.437  29.944  1.00  0.00     0.049 A 
ATOM     48  C   UNL A   1      40.919  30.509  34.414  1.00  0.00     0.074 A 
ATOM     49  C   UNL A   1      43.594  26.721  30.059  1.00  0.00     0.029 A 
ATOM     50  N   UNL A   1      42.214  28.068  31.166  1.00  0.00    -0.354 N 
ATOM     51  N   UNL A   1      41.388  29.741  33.457  1.00  0.00    -0.248 NA
ATOM     52  C   UNL A   1      41.674  30.437  35.670  1.00  0.00     0.031 C 
ATOM     53  C   UNL A   1      44.064  26.859  31.370  1.00  0.00     0.029 A 
ATOM     54  C   UNL A   1      43.221  27.721  32.055  1.00  0.00     0.049 A 
ATOM     55  H   UNL A   1      41.465  28.673  31.372  1.00  0.00     0.167 HD
ATOM     56  C   UNL A   1      42.500  29.101  33.994  1.00  0.00     0.074 A 
ATOM     57  C   UNL A   1      42.644  29.591  35.351  1.00  0.00     0.031 C 
ATOM     58  C   UNL A   1      43.328  28.192  33.418  1.00  0.00     0.034 A 
BRANCH  45  59
ATOM     59  C   UNL A   1      41.784  26.680  27.589  1.00  0.00     0.023 A 
ATOM     60  C   UNL A   1      41.406  25.325  27.540  1.00  0.00     0.031 A 
ATOM     61  C   UNL A   1      42.475  27.207  26.484  1.00  0.00     0.131 A 
ATOM     62  C   UNL A   1      41.813  24.521  26.466  1.00  0.00     0.055 A 
ATOM     63  C   UNL A   1      42.794  26.422  25.373  1.00  0.00     0.041 A 
ATOM     64  F   UNL A   1      42.880  28.486  26.477  1.00  0.00    -0.206 F 
ATOM     65  C   UNL A   1      42.483  25.065  25.368  1.00  0.00     0.022 A 
BRANCH  62  66
ATOM     66  S   UNL A   1      41.622  22.723  26.615  1.00  0.00     0.124 S 
ATOM     67  O   UNL A   1      40.168  22.586  26.686  1.00  0.00    -0.237 OA
ATOM     68  O   UNL A   1      42.251  22.237  25.394  1.00  0.00    -0.237 OA
ATOM     69  O   UNL A   1      42.329  22.404  27.854  1.00  0.00    -0.744 OA
ENDBRANCH  62  66
ENDBRANCH  45  59
BRANCH  46  70
ATOM     70  C   UNL A   1      39.293  32.165  35.609  1.00  0.00     0.023 A 
ATOM     71  C   UNL A   1      38.524  31.539  36.600  1.00  0.00     0.031 A 
ATOM     72  C   UNL A   1      39.650  33.513  35.801  1.00  0.00     0.131 A 
ATOM     73  C   UNL A   1      38.114  32.267  37.730  1.00  0.00     0.055 A 
ATOM     74  C   UNL A   1      39.278  34.220  36.945  1.00  0.00     0.041 A 
ATOM     75  F   UNL A   1      40.394  34.155  34.885  1.00  0.00    -0.206 F 
ATOM     76  C   UNL A   1      38.498  33.598  37.915  1.00  0.00     0.022 A 
BRANCH  73  77
ATOM     77  S   UNL A   1      37.029  31.461  38.939  1.00  0.00     0.124 S 
ATOM     78  O   UNL A   1      35.833  32.293  38.868  1.00  0.00    -0.237 OA
ATOM     79  O   UNL A   1      36.908  30.115  38.388  1.00  0.00    -0.237 OA
ATOM     80  O   UNL A   1      37.782  31.554  40.188  1.00  0.00    -0.744 OA
ENDBRANCH  73  77
ENDBRANCH  46  70
BRANCH  58  81
ATOM     81  C   UNL A   1      44.469  27.678  34.261  1.00  0.00     0.023 A 
ATOM     82  C   UNL A   1      44.346  26.505  35.027  1.00  0.00     0.031 A 
ATOM     83  C   UNL A   1      45.692  28.369  34.299  1.00  0.00     0.131 A 
ATOM     84  C   UNL A   1      45.413  26.082  35.832  1.00  0.00     0.055 A 
ATOM     85  C   UNL A   1      46.771  27.911  35.058  1.00  0.00     0.041 A 
ATOM     86  F   UNL A   1      45.863  29.497  33.591  1.00  0.00    -0.206 F 
ATOM     87  C   UNL A   1      46.631  26.766  35.838  1.00  0.00     0.022 A 
BRANCH  84  88
ATOM     88  S   UNL A   1      45.164  24.662  36.933  1.00  0.00     0.124 S 
ATOM     89  O   UNL A   1      44.253  25.210  37.932  1.00  0.00    -0.237 OA
ATOM     90  O   UNL A   1      44.600  23.662  36.033  1.00  0.00    -0.237 OA
ATOM     91  O   UNL A   1      46.512  24.365  37.419  1.00  0.00    -0.744 OA
ENDBRANCH  84  88
ENDBRANCH  58  81
ENDBRANCH  32  33
ENDBRANCH  24  27
ENDBRANCH  22  23
ENDBRANCH   1  22
TORSDOF 16
ENDMDL
MODEL 3
REMARK VINA RESULT:     -12.0      1.582      1.782
REMARK SMILES C=C(C)C[C@@]1(C(=O)NCCCCNC(=O)c2ccc(-c3c4nc(c(-c5cc(S(=O)(=O)[O-])ccc5F)c5ccc([nH]5)c(-c5cc(S(=O)(=O)[O-])ccc5F)c5nc(c(-c6cc(S(=O)(=O)[O-])ccc6F)c6ccc3[nH]6)C=C5)C=C4)cc2)COc2ccccc2C1
REMARK SMILES IDX 11 1 10 2 9 3 8 4 6 5 7 6 5 8 79 9 87 10 80 11 86 12 81 13
REMARK SMILES IDX 85 14 82 15 84 16 83 17 4 18 2 19 1 20 3 21 12 22 13 23
REMARK SMILES IDX 14 24 15 26 16 27 17 28 78 29 18 30 77 31 19 32 20 33 21 34
REMARK SMILES IDX 71 35 22 36 76 37 70 38 72 39 23 40 75 41 69 42 68 43 24 45
REMARK SMILES IDX 56 46 36 47 55 48 37 49 40 50 54 51 73 52 38 53 39 54 53 56
REMARK SMILES IDX 74 57 41 58 25 59 26 60 34 61 27 62 33 63 35 64 32 65 28 66
REMARK SMILES IDX 29 67 30 68 31 69 57 70 58 71 66 72 59 73 65 74 67 75 64 76
REMARK SMILES IDX 60 77 61 78 62 79 63 80 42 81 43 82 51 83 44 84 50 85 52 86
REMARK SMILES IDX 49 87 45 88 46 89 47 90 48 91
REMARK H PARENT 8 7 13 25 72 44 40 55
REMARK Flexibility Score: inf
ROOT
ATOM      1  C   UNL A   1      36.485  22.560  23.672  1.00  0.00     0.023 C 
ENDROOT
BRANCH   1   2
ATOM      2  C   UNL A   1      35.088  23.074  23.346  1.00  0.00     0.023 C 
BRANCH   2   3
ATOM      3  C   UNL A   1      34.736  24.420  23.976  1.00  0.00     0.116 C 
BRANCH   3   4
ATOM      4  N   UNL A   1      33.728  25.135  23.222  1.00  0.00    -0.355 N 
ATOM      5  C   UNL A   1      32.418  25.401  23.473  1.00  0.00     0.230 C 
ATOM      6  O   UNL A   1      31.780  25.865  22.520  1.00  0.00    -0.274 OA
ATOM      7  H   UNL A   1      34.053  25.497  22.366  1.00  0.00     0.163 HD
BRANCH   5   8
ATOM      8  C   UNL A   1      31.727  25.091  24.819  1.00  0.00     0.091 C 
ATOM      9  C   UNL A   1      30.369  25.859  24.819  1.00  0.00     0.247 C 
ATOM     10  C   UNL A   1      32.453  25.654  26.057  1.00  0.00     0.060 C 
ATOM     11  O   UNL A   1      30.449  27.289  24.763  1.00  0.00    -0.492 OA
ATOM     12  C   UNL A   1      32.559  27.150  25.965  1.00  0.00    -0.005 A 
ATOM     13  C   UNL A   1      31.547  27.869  25.326  1.00  0.00     0.122 A 
ATOM     14  C   UNL A   1      33.656  27.837  26.500  1.00  0.00     0.007 A 
ATOM     15  C   UNL A   1      31.644  29.253  25.192  1.00  0.00     0.047 A 
ATOM     16  C   UNL A   1      33.753  29.223  26.361  1.00  0.00     0.001 A 
ATOM     17  C   UNL A   1      32.749  29.931  25.702  1.00  0.00     0.004 A 
BRANCH   8  18
ATOM     18  C   UNL A   1      31.368  23.575  24.964  1.00  0.00     0.051 C 
BRANCH  18  19
ATOM     19  C   UNL A   1      31.239  22.939  26.332  1.00  0.00    -0.079 C 
ATOM     20  C   UNL A   1      30.056  22.910  26.971  1.00  0.00     0.007 C 
ATOM     21  C   UNL A   1      32.488  22.426  26.992  1.00  0.00     0.039 C 
ENDBRANCH  18  19
ENDBRANCH   8  18
ENDBRANCH   5   8
ENDBRANCH   3   4
ENDBRANCH   2   3
ENDBRANCH   1   2
BRANCH   1  22
ATOM     22  C   UNL A   1      36.706  22.249  25.145  1.00  0.00     0.116 C 
BRANCH  22  23
ATOM     23  N   UNL A   1      37.613  21.123  25.340  1.00  0.00    -0.352 N 
ATOM     24  C   UNL A   1      38.886  21.109  25.863  1.00  0.00     0.251 C 
ATOM     25  H   UNL A   1      37.263  20.246  25.059  1.00  0.00     0.163 HD
ATOM     26  O   UNL A   1      39.585  20.111  25.755  1.00  0.00    -0.269 OA
BRANCH  24  27
ATOM     27  C   UNL A   1      39.399  22.326  26.524  1.00  0.00     0.039 A 
ATOM     28  C   UNL A   1      40.392  22.210  27.497  1.00  0.00     0.014 A 
ATOM     29  C   UNL A   1      38.938  23.582  26.124  1.00  0.00     0.014 A 
ATOM     30  C   UNL A   1      41.000  23.365  27.995  1.00  0.00     0.010 A 
ATOM     31  C   UNL A   1      39.605  24.722  26.550  1.00  0.00     0.010 A 
ATOM     32  C   UNL A   1      40.652  24.625  27.480  1.00  0.00    -0.014 A 
BRANCH  32  33
ATOM     33  C   UNL A   1      41.382  25.857  27.869  1.00  0.00     0.031 A 
ATOM     34  C   UNL A   1      40.649  26.982  28.543  1.00  0.00     0.074 A 
ATOM     35  C   UNL A   1      42.673  26.004  27.511  1.00  0.00     0.049 A 
ATOM     36  N   UNL A   1      41.066  28.187  28.835  1.00  0.00    -0.248 NA
ATOM     37  C   UNL A   1      39.245  26.725  28.896  1.00  0.00     0.031 C 
ATOM     38  C   UNL A   1      43.471  25.004  26.797  1.00  0.00     0.029 A 
ATOM     39  N   UNL A   1      43.534  27.060  27.671  1.00  0.00    -0.354 N 
ATOM     40  C   UNL A   1      39.972  28.837  29.395  1.00  0.00     0.074 A 
ATOM     41  C   UNL A   1      38.857  27.915  29.326  1.00  0.00     0.031 C 
ATOM     42  C   UNL A   1      44.704  25.490  26.588  1.00  0.00     0.029 A 
ATOM     43  C   UNL A   1      44.771  26.854  27.105  1.00  0.00     0.049 A 
ATOM     44  H   UNL A   1      43.290  27.887  28.146  1.00  0.00     0.167 HD
ATOM     45  C   UNL A   1      39.911  30.077  29.940  1.00  0.00     0.034 A 
ATOM     46  C   UNL A   1      45.831  27.678  26.986  1.00  0.00     0.034 A 
ATOM     47  C   UNL A   1      41.037  30.979  29.993  1.00  0.00     0.049 A 
ATOM     48  C   UNL A   1      45.736  29.066  27.560  1.00  0.00     0.074 A 
ATOM     49  C   UNL A   1      41.117  32.228  30.583  1.00  0.00     0.029 A 
ATOM     50  N   UNL A   1      42.277  30.735  29.413  1.00  0.00    -0.354 N 
ATOM     51  N   UNL A   1      44.718  29.644  28.156  1.00  0.00    -0.248 NA
ATOM     52  C   UNL A   1      46.930  29.912  27.448  1.00  0.00     0.031 C 
ATOM     53  C   UNL A   1      42.376  32.767  30.297  1.00  0.00     0.029 A 
ATOM     54  C   UNL A   1      43.112  31.828  29.592  1.00  0.00     0.049 A 
ATOM     55  H   UNL A   1      42.526  29.906  28.943  1.00  0.00     0.167 HD
ATOM     56  C   UNL A   1      45.152  30.921  28.498  1.00  0.00     0.074 A 
ATOM     57  C   UNL A   1      46.532  31.018  28.062  1.00  0.00     0.031 C 
ATOM     58  C   UNL A   1      44.475  31.921  29.118  1.00  0.00     0.034 A 
BRANCH  45  59
ATOM     59  C   UNL A   1      38.574  30.524  30.489  1.00  0.00     0.023 A 
ATOM     60  C   UNL A   1      37.633  31.189  29.682  1.00  0.00     0.031 A 
ATOM     61  C   UNL A   1      38.260  30.344  31.847  1.00  0.00     0.131 A 
ATOM     62  C   UNL A   1      36.480  31.742  30.257  1.00  0.00     0.055 A 
ATOM     63  C   UNL A   1      37.064  30.814  32.395  1.00  0.00     0.041 A 
ATOM     64  F   UNL A   1      39.123  29.735  32.675  1.00  0.00    -0.206 F 
ATOM     65  C   UNL A   1      36.175  31.538  31.605  1.00  0.00     0.022 A 
BRANCH  62  66
ATOM     66  S   UNL A   1      35.487  32.889  29.263  1.00  0.00     0.124 S 
ATOM     67  O   UNL A   1      34.270  32.998  30.065  1.00  0.00    -0.237 OA
ATOM     68  O   UNL A   1      36.330  34.077  29.217  1.00  0.00    -0.237 OA
ATOM     69  O   UNL A   1      35.323  32.188  27.990  1.00  0.00    -0.744 OA
ENDBRANCH  62  66
ENDBRANCH  45  59
BRANCH  46  70
ATOM     70  C   UNL A   1      47.051  27.221  26.264  1.00  0.00     0.023 A 
ATOM     71  C   UNL A   1      48.081  26.542  26.932  1.00  0.00     0.031 A 
ATOM     72  C   UNL A   1      47.199  27.454  24.884  1.00  0.00     0.131 A 
ATOM     73  C   UNL A   1      49.226  26.141  26.224  1.00  0.00     0.055 A 
ATOM     74  C   UNL A   1      48.318  27.015  24.177  1.00  0.00     0.041 A 
ATOM     75  F   UNL A   1      46.236  28.091  24.198  1.00  0.00    -0.206 F 
ATOM     76  C   UNL A   1      49.345  26.361  24.849  1.00  0.00     0.022 A 
BRANCH  73  77
ATOM     77  S   UNL A   1      50.587  25.365  27.138  1.00  0.00     0.124 S 
ATOM     78  O   UNL A   1      51.038  26.460  27.990  1.00  0.00    -0.237 OA
ATOM     79  O   UNL A   1      49.909  24.263  27.813  1.00  0.00    -0.237 OA
ATOM     80  O   UNL A   1      51.521  24.967  26.086  1.00  0.00    -0.744 OA
ENDBRANCH  73  77
ENDBRANCH  46  70
BRANCH  58  81
ATOM     81  C   UNL A   1      45.228  33.205  29.364  1.00  0.00     0.023 A 
ATOM     82  C   UNL A   1      45.193  34.266  28.441  1.00  0.00     0.031 A 
ATOM     83  C   UNL A   1      45.989  33.369  30.534  1.00  0.00     0.131 A 
ATOM     84  C   UNL A   1      45.940  35.427  28.684  1.00  0.00     0.055 A 
ATOM     85  C   UNL A   1      46.685  34.550  30.798  1.00  0.00     0.041 A 
ATOM     86  F   UNL A   1      46.061  32.387  31.447  1.00  0.00    -0.206 F 
ATOM     87  C   UNL A   1      46.670  35.584  29.865  1.00  0.00     0.022 A 
BRANCH  84  88
ATOM     88  S   UNL A   1      46.006  36.705  27.399  1.00  0.00     0.124 S 
ATOM     89  O   UNL A   1      44.591  36.939  27.132  1.00  0.00    -0.237 OA
ATOM     90  O   UNL A   1      46.717  37.788  28.070  1.00  0.00    -0.237 OA
ATOM     91  O   UNL A   1      46.745  36.061  26.313  1.00  0.00    -0.744 OA
ENDBRANCH  84  88
ENDBRANCH  58  81
ENDBRANCH  32  33
ENDBRANCH  24  27
ENDBRANCH  22  23
ENDBRANCH   1  22
TORSDOF 16
ENDMDL
