MODEL 1
REMARK VINA RESULT:     -11.7      0.000      0.000
REMARK SMILES COc1ccccc1[C@H](C)Nc1nc(C)c(C(=O)NCCCCNC(=O)c2ccc(-c3c4nc(c(-c5cc(S(=O)(=O)[O-])ccc5F)c5ccc([nH]5)c(-c5cc(S(=O)(=O)[O-])ccc5F)c5nc(c(-c6cc(S(=O)(=O)[O-])ccc6F)c6ccc3[nH]6)C=C5)C=C4)cc2)s1
REMARK SMILES IDX 21 1 20 2 19 3 17 4 18 5 16 7 12 8 13 9 90 10 14 11 15 12
REMARK SMILES IDX 11 13 9 15 10 16 8 17 3 18 4 19 5 20 7 21 6 22 2 23 1 24
REMARK SMILES IDX 22 25 23 26 24 27 25 28 26 30 27 31 28 32 89 33 29 34 88 35
REMARK SMILES IDX 30 36 31 37 32 38 82 39 33 40 87 41 81 42 83 43 34 44 86 45
REMARK SMILES IDX 80 46 79 47 35 49 67 50 47 51 66 52 48 53 51 54 65 55 84 56
REMARK SMILES IDX 49 57 50 58 64 60 85 61 52 62 36 63 37 64 45 65 38 66 44 67
REMARK SMILES IDX 46 68 43 69 39 70 40 71 41 72 42 73 68 74 69 75 77 76 70 77
REMARK SMILES IDX 76 78 78 79 75 80 71 81 72 82 73 83 74 84 53 85 54 86 62 87
REMARK SMILES IDX 55 88 61 89 63 90 60 91 56 92 57 93 58 94 59 95
REMARK H PARENT 19 6 11 14 24 29 83 48 51 59
REMARK Flexibility Score: inf
ROOT
ATOM      1  C   UNL A   1      36.795  20.486  25.046  1.00  0.00     0.023 C 
ENDROOT
BRANCH   1   2
ATOM      2  C   UNL A   1      35.503  21.241  25.359  1.00  0.00     0.116 C 
BRANCH   2   3
ATOM      3  N   UNL A   1      34.406  20.316  25.463  1.00  0.00    -0.351 N 
ATOM      4  C   UNL A   1      33.052  20.442  25.304  1.00  0.00     0.263 C 
ATOM      5  O   UNL A   1      32.444  19.399  25.579  1.00  0.00    -0.268 OA
ATOM      6  H   UNL A   1      34.689  19.402  25.697  1.00  0.00     0.163 HD
BRANCH   4   7
ATOM      7  C   UNL A   1      32.370  21.638  24.814  1.00  0.00     0.117 A 
ATOM      8  C   UNL A   1      31.064  23.716  24.948  1.00  0.00     0.184 A 
ATOM      9  N   UNL A   1      31.251  23.377  23.707  1.00  0.00    -0.225 NA
ATOM     10  S   UNL A   1      31.768  22.680  26.091  1.00  0.00    -0.092 S 
ATOM     11  C   UNL A   1      32.072  22.264  23.602  1.00  0.00     0.063 A 
ATOM     12  C   UNL A   1      32.473  22.004  22.198  1.00  0.00     0.068 C 
BRANCH   8  13
ATOM     13  N   UNL A   1      30.308  24.787  25.241  1.00  0.00    -0.355 N 
ATOM     14  H   UNL A   1      29.684  24.737  26.000  1.00  0.00     0.163 HD
BRANCH  13  15
ATOM     15  C   UNL A   1      30.386  26.019  24.466  1.00  0.00     0.112 C 
ATOM     16  C   UNL A   1      28.935  26.336  24.054  1.00  0.00     0.036 C 
BRANCH  15  17
ATOM     17  C   UNL A   1      30.998  27.141  25.291  1.00  0.00     0.016 A 
ATOM     18  C   UNL A   1      31.532  28.307  24.711  1.00  0.00     0.124 A 
ATOM     19  C   UNL A   1      32.090  29.313  25.516  1.00  0.00     0.047 A 
ATOM     20  C   UNL A   1      32.155  29.165  26.900  1.00  0.00     0.004 A 
ATOM     21  C   UNL A   1      31.089  27.016  26.697  1.00  0.00     0.010 A 
ATOM     22  C   UNL A   1      31.674  28.004  27.489  1.00  0.00     0.001 A 
BRANCH  18  23
ATOM     23  O   UNL A   1      31.761  28.451  23.367  1.00  0.00    -0.496 OA
ATOM     24  C   UNL A   1      33.025  27.985  22.917  1.00  0.00     0.278 C 
ENDBRANCH  18  23
ENDBRANCH  15  17
ENDBRANCH  13  15
ENDBRANCH   8  13
ENDBRANCH   4   7
ENDBRANCH   2   3
ENDBRANCH   1   2
BRANCH   1  25
ATOM     25  C   UNL A   1      38.043  21.363  24.984  1.00  0.00     0.023 C 
BRANCH  25  26
ATOM     26  C   UNL A   1      39.019  21.137  26.131  1.00  0.00     0.116 C 
BRANCH  26  27
ATOM     27  N   UNL A   1      39.778  19.900  26.016  1.00  0.00    -0.352 N 
ATOM     28  C   UNL A   1      41.143  19.738  26.107  1.00  0.00     0.251 C 
ATOM     29  H   UNL A   1      39.254  19.083  25.854  1.00  0.00     0.163 HD
ATOM     30  O   UNL A   1      41.656  18.648  25.912  1.00  0.00    -0.269 OA
BRANCH  28  31
ATOM     31  C   UNL A   1      41.963  20.933  26.384  1.00  0.00     0.039 A 
ATOM     32  C   UNL A   1      42.320  21.764  25.320  1.00  0.00     0.014 A 
ATOM     33  C   UNL A   1      42.269  21.284  27.701  1.00  0.00     0.014 A 
ATOM     34  C   UNL A   1      42.915  22.996  25.587  1.00  0.00     0.010 A 
ATOM     35  C   UNL A   1      42.790  22.542  27.967  1.00  0.00     0.010 A 
ATOM     36  C   UNL A   1      43.111  23.414  26.914  1.00  0.00    -0.014 A 
BRANCH  36  37
ATOM     37  C   UNL A   1      43.653  24.758  27.230  1.00  0.00     0.031 A 
ATOM     38  C   UNL A   1      42.732  25.823  27.754  1.00  0.00     0.074 A 
ATOM     39  C   UNL A   1      44.943  25.039  26.964  1.00  0.00     0.049 A 
ATOM     40  N   UNL A   1      42.970  27.088  27.979  1.00  0.00    -0.248 NA
ATOM     41  C   UNL A   1      41.345  25.412  28.024  1.00  0.00     0.031 C 
ATOM     42  C   UNL A   1      45.919  24.098  26.410  1.00  0.00     0.029 A 
ATOM     43  N   UNL A   1      45.652  26.204  27.110  1.00  0.00    -0.354 N 
ATOM     44  C   UNL A   1      41.758  27.630  28.396  1.00  0.00     0.074 A 
ATOM     45  C   UNL A   1      40.778  26.568  28.326  1.00  0.00     0.031 C 
ATOM     46  C   UNL A   1      47.104  24.716  26.286  1.00  0.00     0.029 A 
ATOM     47  C   UNL A   1      46.965  26.106  26.707  1.00  0.00     0.049 A 
ATOM     48  H   UNL A   1      45.261  27.032  27.470  1.00  0.00     0.167 HD
ATOM     49  C   UNL A   1      41.497  28.892  28.822  1.00  0.00     0.034 A 
ATOM     50  C   UNL A   1      47.939  27.036  26.672  1.00  0.00     0.034 A 
ATOM     51  C   UNL A   1      42.494  29.930  28.900  1.00  0.00     0.049 A 
ATOM     52  C   UNL A   1      47.625  28.433  27.143  1.00  0.00     0.074 A 
ATOM     53  C   UNL A   1      42.356  31.228  29.359  1.00  0.00     0.029 A 
ATOM     54  N   UNL A   1      43.818  29.789  28.503  1.00  0.00    -0.354 N 
ATOM     55  N   UNL A   1      46.484  28.923  27.573  1.00  0.00    -0.248 NA
ATOM     56  C   UNL A   1      48.730  29.399  27.133  1.00  0.00     0.031 C 
ATOM     57  C   UNL A   1      43.579  31.886  29.191  1.00  0.00     0.029 A 
ATOM     58  C   UNL A   1      44.501  30.981  28.688  1.00  0.00     0.049 A 
ATOM     59  H   UNL A   1      44.214  28.962  28.142  1.00  0.00     0.167 HD
ATOM     60  C   UNL A   1      46.746  30.246  27.915  1.00  0.00     0.074 A 
ATOM     61  C   UNL A   1      48.152  30.473  27.648  1.00  0.00     0.031 C 
ATOM     62  C   UNL A   1      45.903  31.188  28.410  1.00  0.00     0.034 A 
BRANCH  49  63
ATOM     63  C   UNL A   1      40.071  29.202  29.210  1.00  0.00     0.023 A 
ATOM     64  C   UNL A   1      39.669  29.252  30.557  1.00  0.00     0.031 A 
ATOM     65  C   UNL A   1      39.088  29.397  28.224  1.00  0.00     0.131 A 
ATOM     66  C   UNL A   1      38.312  29.393  30.878  1.00  0.00     0.055 A 
ATOM     67  C   UNL A   1      37.750  29.627  28.554  1.00  0.00     0.041 A 
ATOM     68  F   UNL A   1      39.405  29.340  26.921  1.00  0.00    -0.206 F 
ATOM     69  C   UNL A   1      37.352  29.606  29.888  1.00  0.00     0.022 A 
BRANCH  66  70
ATOM     70  S   UNL A   1      37.801  29.127  32.599  1.00  0.00     0.124 S 
ATOM     71  O   UNL A   1      38.854  29.830  33.330  1.00  0.00    -0.237 OA
ATOM     72  O   UNL A   1      36.479  29.741  32.635  1.00  0.00    -0.237 OA
ATOM     73  O   UNL A   1      37.820  27.673  32.740  1.00  0.00    -0.744 OA
ENDBRANCH  66  70
ENDBRANCH  49  63
BRANCH  50  74
ATOM     74  C   UNL A   1      49.300  26.687  26.178  1.00  0.00     0.023 A 
ATOM     75  C   UNL A   1      49.749  27.137  24.926  1.00  0.00     0.031 A 
ATOM     76  C   UNL A   1      50.160  25.871  26.935  1.00  0.00     0.131 A 
ATOM     77  C   UNL A   1      51.004  26.733  24.446  1.00  0.00     0.055 A 
ATOM     78  C   UNL A   1      51.427  25.510  26.472  1.00  0.00     0.041 A 
ATOM     79  F   UNL A   1      49.782  25.424  28.142  1.00  0.00    -0.206 F 
ATOM     80  C   UNL A   1      51.851  25.932  25.215  1.00  0.00     0.022 A 
BRANCH  77  81
ATOM     81  S   UNL A   1      51.487  27.215  22.766  1.00  0.00     0.124 S 
ATOM     82  O   UNL A   1      51.589  28.665  22.891  1.00  0.00    -0.237 OA
ATOM     83  O   UNL A   1      52.745  26.495  22.597  1.00  0.00    -0.237 OA
ATOM     84  O   UNL A   1      50.381  26.735  21.943  1.00  0.00    -0.744 OA
ENDBRANCH  77  81
ENDBRANCH  50  74
BRANCH  62  85
ATOM     85  C   UNL A   1      46.502  32.531  28.743  1.00  0.00     0.023 A 
ATOM     86  C   UNL A   1      46.564  33.569  27.797  1.00  0.00     0.031 A 
ATOM     87  C   UNL A   1      47.026  32.768  30.025  1.00  0.00     0.131 A 
ATOM     88  C   UNL A   1      47.184  34.782  28.133  1.00  0.00     0.055 A 
ATOM     89  C   UNL A   1      47.593  33.995  30.371  1.00  0.00     0.041 A 
ATOM     90  F   UNL A   1      46.992  31.810  30.965  1.00  0.00    -0.206 F 
ATOM     91  C   UNL A   1      47.686  35.006  29.419  1.00  0.00     0.022 A 
BRANCH  88  92
ATOM     92  S   UNL A   1      47.401  36.037  26.842  1.00  0.00     0.124 S 
ATOM     93  O   UNL A   1      47.923  37.168  27.603  1.00  0.00    -0.237 OA
ATOM     94  O   UNL A   1      48.343  35.391  25.934  1.00  0.00    -0.237 OA
ATOM     95  O   UNL A   1      46.052  36.217  26.309  1.00  0.00    -0.744 OA
ENDBRANCH  88  92
ENDBRANCH  62  85
ENDBRANCH  36  37
ENDBRANCH  28  31
ENDBRANCH  26  27
ENDBRANCH  25  26
ENDBRANCH   1  25
TORSDOF 18
ENDMDL
MODEL 2
REMARK VINA RESULT:     -11.6      5.568      8.964
REMARK SMILES COc1ccccc1[C@H](C)Nc1nc(C)c(C(=O)NCCCCNC(=O)c2ccc(-c3c4nc(c(-c5cc(S(=O)(=O)[O-])ccc5F)c5ccc([nH]5)c(-c5cc(S(=O)(=O)[O-])ccc5F)c5nc(c(-c6cc(S(=O)(=O)[O-])ccc6F)c6ccc3[nH]6)C=C5)C=C4)cc2)s1
REMARK SMILES IDX 21 1 20 2 19 3 17 4 18 5 16 7 12 8 13 9 90 10 14 11 15 12
REMARK SMILES IDX 11 13 9 15 10 16 8 17 3 18 4 19 5 20 7 21 6 22 2 23 1 24
REMARK SMILES IDX 22 25 23 26 24 27 25 28 26 30 27 31 28 32 89 33 29 34 88 35
REMARK SMILES IDX 30 36 31 37 32 38 82 39 33 40 87 41 81 42 83 43 34 44 86 45
REMARK SMILES IDX 80 46 79 47 35 49 67 50 47 51 66 52 48 53 51 54 65 55 84 56
REMARK SMILES IDX 49 57 50 58 64 60 85 61 52 62 36 63 37 64 45 65 38 66 44 67
REMARK SMILES IDX 46 68 43 69 39 70 40 71 41 72 42 73 68 74 69 75 77 76 70 77
REMARK SMILES IDX 76 78 78 79 75 80 71 81 72 82 73 83 74 84 53 85 54 86 62 87
REMARK SMILES IDX 55 88 61 89 63 90 60 91 56 92 57 93 58 94 59 95
REMARK H PARENT 19 6 11 14 24 29 83 48 51 59
REMARK Flexibility Score: inf
ROOT
ATOM      1  C   UNL A   1      32.902  29.329  24.444  1.00  0.00     0.023 C 
ENDROOT
BRANCH   1   2
ATOM      2  C   UNL A   1      33.651  27.998  24.399  1.00  0.00     0.116 C 
BRANCH   2   3
ATOM      3  N   UNL A   1      33.683  27.498  23.050  1.00  0.00    -0.351 N 
ATOM      4  C   UNL A   1      33.388  26.283  22.489  1.00  0.00     0.263 C 
ATOM      5  O   UNL A   1      33.643  26.247  21.278  1.00  0.00    -0.268 OA
ATOM      6  H   UNL A   1      33.978  28.170  22.393  1.00  0.00     0.163 HD
BRANCH   4   7
ATOM      7  C   UNL A   1      32.790  25.154  23.196  1.00  0.00     0.117 A 
ATOM      8  C   UNL A   1      32.646  22.883  24.128  1.00  0.00     0.184 A 
ATOM      9  N   UNL A   1      31.505  23.497  24.248  1.00  0.00    -0.225 NA
ATOM     10  S   UNL A   1      33.880  23.796  23.408  1.00  0.00    -0.092 S 
ATOM     11  C   UNL A   1      31.589  24.815  23.823  1.00  0.00     0.063 A 
ATOM     12  C   UNL A   1      30.367  25.583  24.162  1.00  0.00     0.068 C 
BRANCH   8  13
ATOM     13  N   UNL A   1      32.757  21.602  24.511  1.00  0.00    -0.355 N 
ATOM     14  H   UNL A   1      33.261  21.390  25.329  1.00  0.00     0.163 HD
BRANCH  13  15
ATOM     15  C   UNL A   1      32.155  20.515  23.748  1.00  0.00     0.112 C 
ATOM     16  C   UNL A   1      32.064  21.033  22.299  1.00  0.00     0.036 C 
BRANCH  15  17
ATOM     17  C   UNL A   1      32.996  19.251  23.846  1.00  0.00     0.016 A 
ATOM     18  C   UNL A   1      34.166  19.175  24.624  1.00  0.00     0.124 A 
ATOM     19  C   UNL A   1      34.912  17.987  24.677  1.00  0.00     0.047 A 
ATOM     20  C   UNL A   1      34.527  16.869  23.939  1.00  0.00     0.004 A 
ATOM     21  C   UNL A   1      32.638  18.105  23.100  1.00  0.00     0.010 A 
ATOM     22  C   UNL A   1      33.400  16.937  23.131  1.00  0.00     0.001 A 
BRANCH  18  23
ATOM     23  O   UNL A   1      34.783  20.268  25.178  1.00  0.00    -0.496 OA
ATOM     24  C   UNL A   1      36.192  20.321  24.999  1.00  0.00     0.278 C 
ENDBRANCH  18  23
ENDBRANCH  15  17
ENDBRANCH  13  15
ENDBRANCH   8  13
ENDBRANCH   4   7
ENDBRANCH   2   3
ENDBRANCH   1   2
BRANCH   1  25
ATOM     25  C   UNL A   1      31.925  29.467  25.610  1.00  0.00     0.023 C 
BRANCH  25  26
ATOM     26  C   UNL A   1      32.565  29.947  26.905  1.00  0.00     0.116 C 
BRANCH  26  27
ATOM     27  N   UNL A   1      32.532  31.394  27.071  1.00  0.00    -0.352 N 
ATOM     28  C   UNL A   1      33.522  32.206  27.578  1.00  0.00     0.251 C 
ATOM     29  H   UNL A   1      31.704  31.844  26.787  1.00  0.00     0.163 HD
ATOM     30  O   UNL A   1      33.329  33.401  27.734  1.00  0.00    -0.269 OA
BRANCH  28  31
ATOM     31  C   UNL A   1      34.792  31.575  27.985  1.00  0.00     0.039 A 
ATOM     32  C   UNL A   1      35.933  32.372  28.091  1.00  0.00     0.014 A 
ATOM     33  C   UNL A   1      34.816  30.232  28.370  1.00  0.00     0.014 A 
ATOM     34  C   UNL A   1      37.086  31.837  28.666  1.00  0.00     0.010 A 
ATOM     35  C   UNL A   1      35.938  29.728  29.012  1.00  0.00     0.010 A 
ATOM     36  C   UNL A   1      37.082  30.528  29.173  1.00  0.00    -0.014 A 
BRANCH  36  37
ATOM     37  C   UNL A   1      38.261  29.965  29.876  1.00  0.00     0.031 A 
ATOM     38  C   UNL A   1      38.593  30.441  31.262  1.00  0.00     0.074 A 
ATOM     39  C   UNL A   1      39.072  29.101  29.237  1.00  0.00     0.049 A 
ATOM     40  N   UNL A   1      39.636  30.174  32.002  1.00  0.00    -0.248 NA
ATOM     41  C   UNL A   1      37.638  31.375  31.878  1.00  0.00     0.031 C 
ATOM     42  C   UNL A   1      38.874  28.605  27.872  1.00  0.00     0.029 A 
ATOM     43  N   UNL A   1      40.234  28.497  29.644  1.00  0.00    -0.354 N 
ATOM     44  C   UNL A   1      39.474  30.923  33.164  1.00  0.00     0.074 A 
ATOM     45  C   UNL A   1      38.267  31.703  32.994  1.00  0.00     0.031 C 
ATOM     46  C   UNL A   1      39.869  27.755  27.566  1.00  0.00     0.029 A 
ATOM     47  C   UNL A   1      40.796  27.679  28.689  1.00  0.00     0.049 A 
ATOM     48  H   UNL A   1      40.629  28.635  30.534  1.00  0.00     0.167 HD
ATOM     49  C   UNL A   1      40.249  30.937  34.277  1.00  0.00     0.034 A 
ATOM     50  C   UNL A   1      41.935  26.961  28.718  1.00  0.00     0.034 A 
ATOM     51  C   UNL A   1      41.439  30.137  34.432  1.00  0.00     0.049 A 
ATOM     52  C   UNL A   1      42.784  26.996  29.963  1.00  0.00     0.074 A 
ATOM     53  C   UNL A   1      42.274  30.033  35.529  1.00  0.00     0.029 A 
ATOM     54  N   UNL A   1      41.966  29.304  33.452  1.00  0.00    -0.354 N 
ATOM     55  N   UNL A   1      42.599  27.678  31.070  1.00  0.00    -0.248 NA
ATOM     56  C   UNL A   1      43.991  26.159  29.964  1.00  0.00     0.031 C 
ATOM     57  C   UNL A   1      43.333  29.181  35.197  1.00  0.00     0.029 A 
ATOM     58  C   UNL A   1      43.125  28.699  33.914  1.00  0.00     0.049 A 
ATOM     59  H   UNL A   1      41.574  29.164  32.560  1.00  0.00     0.167 HD
ATOM     60  C   UNL A   1      43.649  27.325  31.911  1.00  0.00     0.074 A 
ATOM     61  C   UNL A   1      44.457  26.365  31.186  1.00  0.00     0.031 C 
ATOM     62  C   UNL A   1      43.920  27.749  33.172  1.00  0.00     0.034 A 
BRANCH  49  63
ATOM     63  C   UNL A   1      39.830  31.865  35.393  1.00  0.00     0.023 A 
ATOM     64  C   UNL A   1      39.055  31.411  36.475  1.00  0.00     0.031 A 
ATOM     65  C   UNL A   1      40.159  33.231  35.348  1.00  0.00     0.131 A 
ATOM     66  C   UNL A   1      38.557  32.326  37.413  1.00  0.00     0.055 A 
ATOM     67  C   UNL A   1      39.734  34.122  36.336  1.00  0.00     0.041 A 
ATOM     68  F   UNL A   1      40.878  33.728  34.329  1.00  0.00    -0.206 F 
ATOM     69  C   UNL A   1      38.911  33.676  37.366  1.00  0.00     0.022 A 
BRANCH  66  70
ATOM     70  S   UNL A   1      37.305  31.754  38.596  1.00  0.00     0.124 S 
ATOM     71  O   UNL A   1      36.240  32.734  38.392  1.00  0.00    -0.237 OA
ATOM     72  O   UNL A   1      37.026  30.401  38.129  1.00  0.00    -0.237 OA
ATOM     73  O   UNL A   1      37.986  31.844  39.885  1.00  0.00    -0.744 OA
ENDBRANCH  66  70
ENDBRANCH  49  63
BRANCH  50  74
ATOM     74  C   UNL A   1      42.344  26.146  27.539  1.00  0.00     0.023 A 
ATOM     75  C   UNL A   1      41.985  24.793  27.440  1.00  0.00     0.031 A 
ATOM     76  C   UNL A   1      43.129  26.699  26.512  1.00  0.00     0.131 A 
ATOM     77  C   UNL A   1      42.445  24.024  26.361  1.00  0.00     0.055 A 
ATOM     78  C   UNL A   1      43.547  25.941  25.416  1.00  0.00     0.041 A 
ATOM     79  F   UNL A   1      43.491  27.990  26.555  1.00  0.00    -0.206 F 
ATOM     80  C   UNL A   1      43.215  24.591  25.342  1.00  0.00     0.022 A 
BRANCH  77  81
ATOM     81  S   UNL A   1      42.081  22.248  26.342  1.00  0.00     0.124 S 
ATOM     82  O   UNL A   1      40.623  22.243  26.309  1.00  0.00    -0.237 OA
ATOM     83  O   UNL A   1      42.752  21.815  25.121  1.00  0.00    -0.237 OA
ATOM     84  O   UNL A   1      42.680  21.764  27.584  1.00  0.00    -0.744 OA
ENDBRANCH  77  81
ENDBRANCH  50  74
BRANCH  62  85
ATOM     85  C   UNL A   1      45.111  27.131  33.858  1.00  0.00     0.023 A 
ATOM     86  C   UNL A   1      44.993  25.975  34.649  1.00  0.00     0.031 A 
ATOM     87  C   UNL A   1      46.382  27.716  33.722  1.00  0.00     0.131 A 
ATOM     88  C   UNL A   1      46.119  25.470  35.317  1.00  0.00     0.055 A 
ATOM     89  C   UNL A   1      47.509  27.177  34.345  1.00  0.00     0.041 A 
ATOM     90  F   UNL A   1      46.550  28.821  32.978  1.00  0.00    -0.206 F 
ATOM     91  C   UNL A   1      47.378  26.055  35.157  1.00  0.00     0.022 A 
BRANCH  88  92
ATOM     92  S   UNL A   1      45.901  24.081  36.464  1.00  0.00     0.124 S 
ATOM     93  O   UNL A   1      44.469  23.819  36.354  1.00  0.00    -0.237 OA
ATOM     94  O   UNL A   1      46.781  23.066  35.894  1.00  0.00    -0.237 OA
ATOM     95  O   UNL A   1      46.336  24.626  37.748  1.00  0.00    -0.744 OA
ENDBRANCH  88  92
ENDBRANCH  62  85
ENDBRANCH  36  37
ENDBRANCH  28  31
ENDBRANCH  26  27
ENDBRANCH  25  26
ENDBRANCH   1  25
TORSDOF 18
ENDMDL
MODEL 3
REMARK VINA RESULT:     -11.6      2.411      8.110
REMARK SMILES COc1ccccc1[C@H](C)Nc1nc(C)c(C(=O)NCCCCNC(=O)c2ccc(-c3c4nc(c(-c5cc(S(=O)(=O)[O-])ccc5F)c5ccc([nH]5)c(-c5cc(S(=O)(=O)[O-])ccc5F)c5nc(c(-c6cc(S(=O)(=O)[O-])ccc6F)c6ccc3[nH]6)C=C5)C=C4)cc2)s1
REMARK SMILES IDX 21 1 20 2 19 3 17 4 18 5 16 7 12 8 13 9 90 10 14 11 15 12
REMARK SMILES IDX 11 13 9 15 10 16 8 17 3 18 4 19 5 20 7 21 6 22 2 23 1 24
REMARK SMILES IDX 22 25 23 26 24 27 25 28 26 30 27 31 28 32 89 33 29 34 88 35
REMARK SMILES IDX 30 36 31 37 32 38 82 39 33 40 87 41 81 42 83 43 34 44 86 45
REMARK SMILES IDX 80 46 79 47 35 49 67 50 47 51 66 52 48 53 51 54 65 55 84 56
REMARK SMILES IDX 49 57 50 58 64 60 85 61 52 62 36 63 37 64 45 65 38 66 44 67
REMARK SMILES IDX 46 68 43 69 39 70 40 71 41 72 42 73 68 74 69 75 77 76 70 77
REMARK SMILES IDX 76 78 78 79 75 80 71 81 72 82 73 83 74 84 53 85 54 86 62 87
REMARK SMILES IDX 55 88 61 89 63 90 60 91 56 92 57 93 58 94 59 95
REMARK H PARENT 19 6 11 14 24 29 83 48 51 59
REMARK Flexibility Score: inf
ROOT
ATOM      1  C   UNL A   1      36.258  23.300  23.534  1.00  0.00     0.023 C 
ENDROOT
BRANCH   1   2
ATOM      2  C   UNL A   1      34.787  23.103  23.169  1.00  0.00     0.116 C 
BRANCH   2   3
ATOM      3  N   UNL A   1      34.306  21.865  23.722  1.00  0.00    -0.351 N 
ATOM      4  C   UNL A   1      33.383  21.563  24.689  1.00  0.00     0.263 C 
ATOM      5  O   UNL A   1      33.332  20.350  24.932  1.00  0.00    -0.268 OA
ATOM      6  H   UNL A   1      34.727  21.070  23.322  1.00  0.00     0.163 HD
BRANCH   4   7
ATOM      7  C   UNL A   1      32.504  22.529  25.342  1.00  0.00     0.117 A 
ATOM      8  C   UNL A   1      30.782  24.277  25.506  1.00  0.00     0.184 A 
ATOM      9  N   UNL A   1      31.339  24.079  26.664  1.00  0.00    -0.225 NA
ATOM     10  S   UNL A   1      31.361  23.294  24.252  1.00  0.00    -0.092 S 
ATOM     11  C   UNL A   1      32.242  23.026  26.621  1.00  0.00     0.063 A 
ATOM     12  C   UNL A   1      32.712  22.646  27.975  1.00  0.00     0.068 C 
BRANCH   8  13
ATOM     13  N   UNL A   1      29.864  25.246  25.364  1.00  0.00    -0.355 N 
ATOM     14  H   UNL A   1      29.270  25.455  26.120  1.00  0.00     0.163 HD
BRANCH  13  15
ATOM     15  C   UNL A   1      29.722  25.996  24.122  1.00  0.00     0.112 C 
ATOM     16  C   UNL A   1      28.262  26.490  24.107  1.00  0.00     0.036 C 
BRANCH  15  17
ATOM     17  C   UNL A   1      30.710  27.152  24.070  1.00  0.00     0.016 A 
ATOM     18  C   UNL A   1      31.258  27.630  22.864  1.00  0.00     0.124 A 
ATOM     19  C   UNL A   1      32.171  28.695  22.868  1.00  0.00     0.047 A 
ATOM     20  C   UNL A   1      32.577  29.282  24.066  1.00  0.00     0.004 A 
ATOM     21  C   UNL A   1      31.151  27.760  25.268  1.00  0.00     0.010 A 
ATOM     22  C   UNL A   1      32.083  28.798  25.269  1.00  0.00     0.001 A 
BRANCH  18  23
ATOM     23  O   UNL A   1      31.140  26.976  21.664  1.00  0.00    -0.496 OA
ATOM     24  C   UNL A   1      32.109  25.963  21.432  1.00  0.00     0.278 C 
ENDBRANCH  18  23
ENDBRANCH  15  17
ENDBRANCH  13  15
ENDBRANCH   8  13
ENDBRANCH   4   7
ENDBRANCH   2   3
ENDBRANCH   1   2
BRANCH   1  25
ATOM     25  C   UNL A   1      36.967  22.036  24.016  1.00  0.00     0.023 C 
BRANCH  25  26
ATOM     26  C   UNL A   1      37.513  22.133  25.434  1.00  0.00     0.116 C 
BRANCH  26  27
ATOM     27  N   UNL A   1      38.563  21.166  25.722  1.00  0.00    -0.352 N 
ATOM     28  C   UNL A   1      39.748  21.384  26.391  1.00  0.00     0.251 C 
ATOM     29  H   UNL A   1      38.409  20.249  25.401  1.00  0.00     0.163 HD
ATOM     30  O   UNL A   1      40.578  20.495  26.494  1.00  0.00    -0.269 OA
BRANCH  28  31
ATOM     31  C   UNL A   1      40.004  22.738  26.919  1.00  0.00     0.039 A 
ATOM     32  C   UNL A   1      40.934  22.892  27.949  1.00  0.00     0.014 A 
ATOM     33  C   UNL A   1      39.414  23.850  26.313  1.00  0.00     0.014 A 
ATOM     34  C   UNL A   1      41.336  24.175  28.318  1.00  0.00     0.010 A 
ATOM     35  C   UNL A   1      39.873  25.121  26.629  1.00  0.00     0.010 A 
ATOM     36  C   UNL A   1      40.844  25.296  27.628  1.00  0.00    -0.014 A 
BRANCH  36  37
ATOM     37  C   UNL A   1      41.326  26.665  27.933  1.00  0.00     0.031 A 
ATOM     38  C   UNL A   1      42.743  27.041  27.605  1.00  0.00     0.074 A 
ATOM     39  C   UNL A   1      40.520  27.530  28.578  1.00  0.00     0.049 A 
ATOM     40  N   UNL A   1      43.399  28.134  27.895  1.00  0.00    -0.248 NA
ATOM     41  C   UNL A   1      43.538  26.032  26.889  1.00  0.00     0.031 C 
ATOM     42  C   UNL A   1      39.140  27.258  28.988  1.00  0.00     0.029 A 
ATOM     43  N   UNL A   1      40.749  28.809  29.015  1.00  0.00    -0.354 N 
ATOM     44  C   UNL A   1      44.690  27.936  27.415  1.00  0.00     0.074 A 
ATOM     45  C   UNL A   1      44.736  26.593  26.879  1.00  0.00     0.031 C 
ATOM     46  C   UNL A   1      38.640  28.346  29.596  1.00  0.00     0.029 A 
ATOM     47  C   UNL A   1      39.672  29.375  29.660  1.00  0.00     0.049 A 
ATOM     48  H   UNL A   1      41.603  29.280  28.881  1.00  0.00     0.167 HD
ATOM     49  C   UNL A   1      45.731  28.806  27.401  1.00  0.00     0.034 A 
ATOM     50  C   UNL A   1      39.540  30.582  30.243  1.00  0.00     0.034 A 
ATOM     51  C   UNL A   1      45.657  30.147  27.925  1.00  0.00     0.049 A 
ATOM     52  C   UNL A   1      40.711  31.530  30.222  1.00  0.00     0.074 A 
ATOM     53  C   UNL A   1      46.630  31.131  27.923  1.00  0.00     0.029 A 
ATOM     54  N   UNL A   1      44.543  30.693  28.552  1.00  0.00    -0.354 N 
ATOM     55  N   UNL A   1      41.915  31.345  29.731  1.00  0.00    -0.248 NA
ATOM     56  C   UNL A   1      40.504  32.852  30.828  1.00  0.00     0.031 C 
ATOM     57  C   UNL A   1      46.125  32.250  28.593  1.00  0.00     0.029 A 
ATOM     58  C   UNL A   1      44.812  31.991  28.957  1.00  0.00     0.049 A 
ATOM     59  H   UNL A   1      43.687  30.226  28.688  1.00  0.00     0.167 HD
ATOM     60  C   UNL A   1      42.596  32.540  29.938  1.00  0.00     0.074 A 
ATOM     61  C   UNL A   1      41.667  33.439  30.592  1.00  0.00     0.031 C 
ATOM     62  C   UNL A   1      43.873  32.869  29.614  1.00  0.00     0.034 A 
BRANCH  49  63
ATOM     63  C   UNL A   1      47.032  28.308  26.818  1.00  0.00     0.023 A 
ATOM     64  C   UNL A   1      47.259  28.298  25.429  1.00  0.00     0.031 A 
ATOM     65  C   UNL A   1      48.036  27.787  27.651  1.00  0.00     0.131 A 
ATOM     66  C   UNL A   1      48.413  27.693  24.913  1.00  0.00     0.055 A 
ATOM     67  C   UNL A   1      49.224  27.266  27.133  1.00  0.00     0.041 A 
ATOM     68  F   UNL A   1      47.869  27.749  28.983  1.00  0.00    -0.206 F 
ATOM     69  C   UNL A   1      49.410  27.198  25.755  1.00  0.00     0.022 A 
BRANCH  66  70
ATOM     70  S   UNL A   1      48.511  27.412  23.122  1.00  0.00     0.124 S 
ATOM     71  O   UNL A   1      49.823  27.976  22.809  1.00  0.00    -0.237 OA
ATOM     72  O   UNL A   1      48.400  25.961  23.025  1.00  0.00    -0.237 OA
ATOM     73  O   UNL A   1      47.375  28.163  22.595  1.00  0.00    -0.744 OA
ENDBRANCH  66  70
ENDBRANCH  49  63
BRANCH  50  74
ATOM     74  C   UNL A   1      38.257  30.970  30.895  1.00  0.00     0.023 A 
ATOM     75  C   UNL A   1      37.264  31.655  30.178  1.00  0.00     0.031 A 
ATOM     76  C   UNL A   1      38.020  30.691  32.253  1.00  0.00     0.131 A 
ATOM     77  C   UNL A   1      36.097  32.079  30.831  1.00  0.00     0.055 A 
ATOM     78  C   UNL A   1      36.837  31.076  32.887  1.00  0.00     0.041 A 
ATOM     79  F   UNL A   1      38.933  30.030  32.980  1.00  0.00    -0.206 F 
ATOM     80  C   UNL A   1      35.871  31.785  32.177  1.00  0.00     0.022 A 
BRANCH  77  81
ATOM     81  S   UNL A   1      34.904  33.087  29.909  1.00  0.00     0.124 S 
ATOM     82  O   UNL A   1      35.774  34.069  29.272  1.00  0.00    -0.237 OA
ATOM     83  O   UNL A   1      34.295  32.099  29.025  1.00  0.00    -0.237 OA
ATOM     84  O   UNL A   1      34.026  33.613  30.951  1.00  0.00    -0.744 OA
ENDBRANCH  77  81
ENDBRANCH  50  74
BRANCH  62  85
ATOM     85  C   UNL A   1      44.311  34.279  29.917  1.00  0.00     0.023 A 
ATOM     86  C   UNL A   1      44.083  35.335  29.017  1.00  0.00     0.031 A 
ATOM     87  C   UNL A   1      44.974  34.565  31.122  1.00  0.00     0.131 A 
ATOM     88  C   UNL A   1      44.561  36.620  29.315  1.00  0.00     0.055 A 
ATOM     89  C   UNL A   1      45.400  35.857  31.438  1.00  0.00     0.041 A 
ATOM     90  F   UNL A   1      45.218  33.593  32.016  1.00  0.00    -0.206 F 
ATOM     91  C   UNL A   1      45.205  36.890  30.526  1.00  0.00     0.022 A 
BRANCH  88  92
ATOM     92  S   UNL A   1      44.402  37.921  28.061  1.00  0.00     0.124 S 
ATOM     93  O   UNL A   1      43.544  37.282  27.068  1.00  0.00    -0.237 OA
ATOM     94  O   UNL A   1      43.797  39.012  28.818  1.00  0.00    -0.237 OA
ATOM     95  O   UNL A   1      45.780  38.155  27.633  1.00  0.00    -0.744 OA
ENDBRANCH  88  92
ENDBRANCH  62  85
ENDBRANCH  36  37
ENDBRANCH  28  31
ENDBRANCH  26  27
ENDBRANCH  25  26
ENDBRANCH   1  25
TORSDOF 18
ENDMDL
