MODEL 1
REMARK VINA RESULT:     -11.7      0.000      0.000
REMARK SMILES CC1=C(C)C[C@@H](C(=O)N[C@@H](C)CCc2ccccc2)[C@H](C(=O)NCCCCNC(=O)c2ccc(-c3c4nc(c(-c5cc(S(=O)(=O)[O-])ccc5F)c5ccc([nH]5)c(-c5cc(S(=O)(=O)[O-])ccc5F)c5nc(c(-c6cc(S(=O)(=O)[O-])ccc6F)c6ccc3[nH]6)C=C5)C=C4)cc2)C1
REMARK SMILES IDX 24 1 23 2 21 3 22 4 20 6 1 7 2 8 3 9 94 10 4 11 5 12 6 13
REMARK SMILES IDX 7 14 8 15 9 16 10 18 11 19 12 20 13 21 14 22 15 23 19 24
REMARK SMILES IDX 16 25 18 26 17 27 25 28 26 29 27 30 28 31 29 32 30 34 31 35
REMARK SMILES IDX 32 36 93 37 33 38 92 39 34 40 35 41 36 42 86 43 37 44 91 45
REMARK SMILES IDX 85 46 87 47 38 48 90 49 84 50 83 51 39 53 71 54 51 55 70 56
REMARK SMILES IDX 52 57 55 58 69 59 88 60 53 61 54 62 68 64 89 65 56 66 40 67
REMARK SMILES IDX 41 68 49 69 42 70 48 71 50 72 47 73 43 74 44 75 45 76 46 77
REMARK SMILES IDX 72 78 73 79 81 80 74 81 80 82 82 83 79 84 75 85 76 86 77 87
REMARK SMILES IDX 78 88 57 89 58 90 66 91 59 92 65 93 67 94 64 95 60 96 61 97
REMARK SMILES IDX 62 98 63 99
REMARK H PARENT 23 5 9 17 28 33 87 52 55 63
REMARK Flexibility Score: inf
ROOT
ATOM      1  C   UNL A   1      33.964  26.040  24.721  1.00  0.00     0.116 C 
ENDROOT
BRANCH   1   2
ATOM      2  N   UNL A   1      34.459  25.146  23.706  1.00  0.00    -0.356 N 
ATOM      3  C   UNL A   1      35.139  23.976  23.852  1.00  0.00     0.224 C 
ATOM      4  O   UNL A   1      35.435  23.356  22.828  1.00  0.00    -0.275 OA
ATOM      5  H   UNL A   1      34.281  25.419  22.776  1.00  0.00     0.163 HD
BRANCH   3   6
ATOM      6  C   UNL A   1      35.507  23.414  25.230  1.00  0.00     0.095 C 
ATOM      7  C   UNL A   1      38.869  24.409  26.772  1.00  0.00     0.039 C 
ATOM      8  C   UNL A   1      38.097  23.218  26.068  1.00  0.00    -0.074 C 
ATOM      9  C   UNL A   1      38.412  21.782  25.817  1.00  0.00    -0.074 C 
ATOM     10  C   UNL A   1      36.778  24.010  25.765  1.00  0.00     0.045 C 
ATOM     11  C   UNL A   1      40.121  20.500  26.133  1.00  0.00     0.039 C 
ATOM     12  C   UNL A   1      36.822  21.205  25.247  1.00  0.00     0.045 C 
ATOM     13  C   UNL A   1      35.475  21.927  25.329  1.00  0.00     0.095 C 
BRANCH  13  14
ATOM     14  C   UNL A   1      34.590  21.392  26.477  1.00  0.00     0.224 C 
ATOM     15  O   UNL A   1      34.781  21.788  27.633  1.00  0.00    -0.275 OA
ATOM     16  N   UNL A   1      33.558  20.518  26.303  1.00  0.00    -0.353 N 
ATOM     17  H   UNL A   1      32.991  20.390  27.099  1.00  0.00     0.163 HD
BRANCH  16  18
ATOM     18  C   UNL A   1      33.155  19.745  25.141  1.00  0.00     0.079 C 
ATOM     19  C   UNL A   1      32.810  18.317  25.560  1.00  0.00     0.031 C 
BRANCH  18  20
ATOM     20  C   UNL A   1      32.012  20.371  24.322  1.00  0.00     0.029 C 
BRANCH  20  21
ATOM     21  C   UNL A   1      32.354  21.666  23.570  1.00  0.00     0.037 C 
BRANCH  21  22
ATOM     22  C   UNL A   1      31.776  22.923  24.159  1.00  0.00    -0.048 A 
ATOM     23  C   UNL A   1      31.687  23.247  25.944  1.00  0.00     0.004 A 
ATOM     24  C   UNL A   1      31.008  24.104  22.997  1.00  0.00     0.004 A 
ATOM     25  C   UNL A   1      30.703  24.692  26.558  1.00  0.00     0.000 A 
ATOM     26  C   UNL A   1      29.966  25.446  23.620  1.00  0.00     0.000 A 
ATOM     27  C   UNL A   1      29.795  25.724  25.395  1.00  0.00     0.000 A 
ENDBRANCH  21  22
ENDBRANCH  20  21
ENDBRANCH  18  20
ENDBRANCH  16  18
ENDBRANCH  13  14
ENDBRANCH   3   6
ENDBRANCH   1   2
BRANCH   1  28
ATOM     28  C   UNL A   1      33.071  27.127  24.153  1.00  0.00     0.023 C 
BRANCH  28  29
ATOM     29  C   UNL A   1      32.582  28.108  25.200  1.00  0.00     0.023 C 
BRANCH  29  30
ATOM     30  C   UNL A   1      33.649  29.081  25.676  1.00  0.00     0.116 C 
BRANCH  30  31
ATOM     31  N   UNL A   1      33.106  30.347  26.157  1.00  0.00    -0.352 N 
ATOM     32  C   UNL A   1      33.643  31.200  27.092  1.00  0.00     0.251 C 
ATOM     33  H   UNL A   1      32.248  30.624  25.762  1.00  0.00     0.163 HD
ATOM     34  O   UNL A   1      33.013  32.176  27.485  1.00  0.00    -0.269 OA
BRANCH  32  35
ATOM     35  C   UNL A   1      34.969  30.869  27.645  1.00  0.00     0.039 A 
ATOM     36  C   UNL A   1      35.890  31.895  27.852  1.00  0.00     0.014 A 
ATOM     37  C   UNL A   1      35.224  29.573  28.102  1.00  0.00     0.014 A 
ATOM     38  C   UNL A   1      37.036  31.635  28.604  1.00  0.00     0.010 A 
ATOM     39  C   UNL A   1      36.300  29.351  28.947  1.00  0.00     0.010 A 
ATOM     40  C   UNL A   1      37.222  30.378  29.205  1.00  0.00    -0.014 A 
BRANCH  40  41
ATOM     41  C   UNL A   1      38.378  30.115  30.100  1.00  0.00     0.031 A 
ATOM     42  C   UNL A   1      39.480  29.200  29.637  1.00  0.00     0.074 A 
ATOM     43  C   UNL A   1      38.409  30.656  31.335  1.00  0.00     0.049 A 
ATOM     44  N   UNL A   1      40.545  28.803  30.281  1.00  0.00    -0.248 NA
ATOM     45  C   UNL A   1      39.356  28.636  28.283  1.00  0.00     0.031 C 
ATOM     46  C   UNL A   1      37.377  31.528  31.905  1.00  0.00     0.029 A 
ATOM     47  N   UNL A   1      39.341  30.558  32.338  1.00  0.00    -0.354 N 
ATOM     48  C   UNL A   1      41.207  27.935  29.419  1.00  0.00     0.074 A 
ATOM     49  C   UNL A   1      40.393  27.814  28.233  1.00  0.00     0.031 C 
ATOM     50  C   UNL A   1      37.756  31.919  33.133  1.00  0.00     0.029 A 
ATOM     51  C   UNL A   1      39.022  31.277  33.469  1.00  0.00     0.049 A 
ATOM     52  H   UNL A   1      40.163  30.023  32.256  1.00  0.00     0.167 HD
ATOM     53  C   UNL A   1      42.397  27.316  29.595  1.00  0.00     0.034 A 
ATOM     54  C   UNL A   1      39.669  31.393  34.647  1.00  0.00     0.034 A 
ATOM     55  C   UNL A   1      43.204  27.462  30.780  1.00  0.00     0.049 A 
ATOM     56  C   UNL A   1      40.972  30.649  34.828  1.00  0.00     0.074 A 
ATOM     57  C   UNL A   1      44.455  26.928  31.034  1.00  0.00     0.029 A 
ATOM     58  N   UNL A   1      42.838  28.179  31.910  1.00  0.00    -0.354 N 
ATOM     59  N   UNL A   1      41.615  29.885  33.974  1.00  0.00    -0.248 NA
ATOM     60  C   UNL A   1      41.642  30.790  36.128  1.00  0.00     0.031 C 
ATOM     61  C   UNL A   1      44.801  27.238  32.351  1.00  0.00     0.029 A 
ATOM     62  C   UNL A   1      43.819  28.060  32.882  1.00  0.00     0.049 A 
ATOM     63  H   UNL A   1      42.006  28.695  32.008  1.00  0.00     0.167 HD
ATOM     64  C   UNL A   1      42.785  29.496  34.622  1.00  0.00     0.074 A 
ATOM     65  C   UNL A   1      42.767  30.121  35.926  1.00  0.00     0.031 C 
ATOM     66  C   UNL A   1      43.787  28.694  34.179  1.00  0.00     0.034 A 
BRANCH  53  67
ATOM     67  C   UNL A   1      42.888  26.400  28.501  1.00  0.00     0.023 A 
ATOM     68  C   UNL A   1      43.947  26.757  27.649  1.00  0.00     0.031 A 
ATOM     69  C   UNL A   1      42.296  25.137  28.324  1.00  0.00     0.131 A 
ATOM     70  C   UNL A   1      44.350  25.880  26.631  1.00  0.00     0.055 A 
ATOM     71  C   UNL A   1      42.757  24.237  27.364  1.00  0.00     0.041 A 
ATOM     72  F   UNL A   1      41.260  24.756  29.088  1.00  0.00    -0.206 F 
ATOM     73  C   UNL A   1      43.784  24.610  26.503  1.00  0.00     0.022 A 
BRANCH  70  74
ATOM     74  S   UNL A   1      45.542  26.470  25.398  1.00  0.00     0.124 S 
ATOM     75  O   UNL A   1      44.791  27.542  24.750  1.00  0.00    -0.237 OA
ATOM     76  O   UNL A   1      46.669  26.888  26.223  1.00  0.00    -0.237 OA
ATOM     77  O   UNL A   1      45.780  25.294  24.563  1.00  0.00    -0.744 OA
ENDBRANCH  70  74
ENDBRANCH  53  67
BRANCH  54  78
ATOM     78  C   UNL A   1      39.107  32.213  35.763  1.00  0.00     0.023 A 
ATOM     79  C   UNL A   1      39.492  33.551  35.940  1.00  0.00     0.031 A 
ATOM     80  C   UNL A   1      38.256  31.644  36.728  1.00  0.00     0.131 A 
ATOM     81  C   UNL A   1      39.101  34.248  37.095  1.00  0.00     0.055 A 
ATOM     82  C   UNL A   1      37.803  32.368  37.834  1.00  0.00     0.041 A 
ATOM     83  F   UNL A   1      37.856  30.368  36.617  1.00  0.00    -0.206 F 
ATOM     84  C   UNL A   1      38.245  33.672  38.035  1.00  0.00     0.022 A 
BRANCH  81  85
ATOM     85  S   UNL A   1      39.863  35.861  37.430  1.00  0.00     0.124 S 
ATOM     86  O   UNL A   1      41.233  35.477  37.751  1.00  0.00    -0.237 OA
ATOM     87  O   UNL A   1      39.671  36.555  36.162  1.00  0.00    -0.237 OA
ATOM     88  O   UNL A   1      39.079  36.379  38.549  1.00  0.00    -0.744 OA
ENDBRANCH  81  85
ENDBRANCH  54  78
BRANCH  66  89
ATOM     89  C   UNL A   1      44.979  28.506  35.087  1.00  0.00     0.023 A 
ATOM     90  C   UNL A   1      45.043  27.462  36.025  1.00  0.00     0.031 A 
ATOM     91  C   UNL A   1      46.068  29.395  35.012  1.00  0.00     0.131 A 
ATOM     92  C   UNL A   1      46.142  27.371  36.893  1.00  0.00     0.055 A 
ATOM     93  C   UNL A   1      47.193  29.251  35.823  1.00  0.00     0.041 A 
ATOM     94  F   UNL A   1      46.058  30.415  34.139  1.00  0.00    -0.206 F 
ATOM     95  C   UNL A   1      47.228  28.244  36.781  1.00  0.00     0.022 A 
BRANCH  92  96
ATOM     96  S   UNL A   1      46.080  26.169  38.249  1.00  0.00     0.124 S 
ATOM     97  O   UNL A   1      45.783  24.928  37.541  1.00  0.00    -0.237 OA
ATOM     98  O   UNL A   1      47.420  26.272  38.819  1.00  0.00    -0.237 OA
ATOM     99  O   UNL A   1      45.004  26.670  39.102  1.00  0.00    -0.744 OA
ENDBRANCH  92  96
ENDBRANCH  66  89
ENDBRANCH  40  41
ENDBRANCH  32  35
ENDBRANCH  30  31
ENDBRANCH  29  30
ENDBRANCH  28  29
ENDBRANCH   1  28
TORSDOF 19
ENDMDL
MODEL 2
REMARK VINA RESULT:     -11.7      1.878      2.834
REMARK SMILES CC1=C(C)C[C@@H](C(=O)N[C@@H](C)CCc2ccccc2)[C@H](C(=O)NCCCCNC(=O)c2ccc(-c3c4nc(c(-c5cc(S(=O)(=O)[O-])ccc5F)c5ccc([nH]5)c(-c5cc(S(=O)(=O)[O-])ccc5F)c5nc(c(-c6cc(S(=O)(=O)[O-])ccc6F)c6ccc3[nH]6)C=C5)C=C4)cc2)C1
REMARK SMILES IDX 24 1 23 2 21 3 22 4 20 6 1 7 2 8 3 9 94 10 4 11 5 12 6 13
REMARK SMILES IDX 7 14 8 15 9 16 10 18 11 19 12 20 13 21 14 22 15 23 19 24
REMARK SMILES IDX 16 25 18 26 17 27 25 28 26 29 27 30 28 31 29 32 30 34 31 35
REMARK SMILES IDX 32 36 93 37 33 38 92 39 34 40 35 41 36 42 86 43 37 44 91 45
REMARK SMILES IDX 85 46 87 47 38 48 90 49 84 50 83 51 39 53 71 54 51 55 70 56
REMARK SMILES IDX 52 57 55 58 69 59 88 60 53 61 54 62 68 64 89 65 56 66 40 67
REMARK SMILES IDX 41 68 49 69 42 70 48 71 50 72 47 73 43 74 44 75 45 76 46 77
REMARK SMILES IDX 72 78 73 79 81 80 74 81 80 82 82 83 79 84 75 85 76 86 77 87
REMARK SMILES IDX 78 88 57 89 58 90 66 91 59 92 65 93 67 94 64 95 60 96 61 97
REMARK SMILES IDX 62 98 63 99
REMARK H PARENT 23 5 9 17 28 33 87 52 55 63
REMARK Flexibility Score: inf
ROOT
ATOM      1  C   UNL A   1      33.871  27.031  24.825  1.00  0.00     0.116 C 
ENDROOT
BRANCH   1   2
ATOM      2  N   UNL A   1      33.941  26.212  23.641  1.00  0.00    -0.356 N 
ATOM      3  C   UNL A   1      34.095  24.864  23.541  1.00  0.00     0.224 C 
ATOM      4  O   UNL A   1      34.094  24.372  22.410  1.00  0.00    -0.275 OA
ATOM      5  H   UNL A   1      33.867  26.696  22.786  1.00  0.00     0.163 HD
BRANCH   3   6
ATOM      6  C   UNL A   1      34.237  23.966  24.774  1.00  0.00     0.095 C 
ATOM      7  C   UNL A   1      37.091  21.412  24.858  1.00  0.00     0.039 C 
ATOM      8  C   UNL A   1      35.525  21.561  24.673  1.00  0.00    -0.074 C 
ATOM      9  C   UNL A   1      34.395  20.592  24.565  1.00  0.00    -0.074 C 
ATOM     10  C   UNL A   1      35.483  23.127  24.726  1.00  0.00     0.045 C 
ATOM     11  C   UNL A   1      34.212  18.443  24.468  1.00  0.00     0.039 C 
ATOM     12  C   UNL A   1      33.008  21.709  24.690  1.00  0.00     0.045 C 
ATOM     13  C   UNL A   1      33.020  23.178  25.119  1.00  0.00     0.095 C 
BRANCH  13  14
ATOM     14  C   UNL A   1      32.538  23.369  26.575  1.00  0.00     0.224 C 
ATOM     15  O   UNL A   1      33.214  22.916  27.507  1.00  0.00    -0.275 OA
ATOM     16  N   UNL A   1      31.410  24.050  26.925  1.00  0.00    -0.353 N 
ATOM     17  H   UNL A   1      31.317  24.221  27.890  1.00  0.00     0.163 HD
BRANCH  16  18
ATOM     18  C   UNL A   1      30.324  24.567  26.110  1.00  0.00     0.079 C 
ATOM     19  C   UNL A   1      29.052  24.679  26.949  1.00  0.00     0.031 C 
BRANCH  18  20
ATOM     20  C   UNL A   1      30.635  25.897  25.400  1.00  0.00     0.029 C 
BRANCH  20  21
ATOM     21  C   UNL A   1      30.467  25.900  23.873  1.00  0.00     0.037 C 
BRANCH  21  22
ATOM     22  C   UNL A   1      29.684  27.055  23.315  1.00  0.00    -0.048 A 
ATOM     23  C   UNL A   1      30.439  28.433  22.405  1.00  0.00     0.004 A 
ATOM     24  C   UNL A   1      27.901  27.114  23.708  1.00  0.00     0.004 A 
ATOM     25  C   UNL A   1      29.421  29.932  22.015  1.00  0.00     0.000 A 
ATOM     26  C   UNL A   1      26.954  28.627  23.412  1.00  0.00     0.000 A 
ATOM     27  C   UNL A   1      27.718  30.039  22.590  1.00  0.00     0.000 A 
ENDBRANCH  21  22
ENDBRANCH  20  21
ENDBRANCH  18  20
ENDBRANCH  16  18
ENDBRANCH  13  14
ENDBRANCH   3   6
ENDBRANCH   1   2
BRANCH   1  28
ATOM     28  C   UNL A   1      33.699  28.504  24.503  1.00  0.00     0.023 C 
BRANCH  28  29
ATOM     29  C   UNL A   1      32.394  29.080  25.015  1.00  0.00     0.023 C 
BRANCH  29  30
ATOM     30  C   UNL A   1      32.453  29.542  26.463  1.00  0.00     0.116 C 
BRANCH  30  31
ATOM     31  N   UNL A   1      32.201  30.969  26.626  1.00  0.00    -0.352 N 
ATOM     32  C   UNL A   1      33.017  31.916  27.200  1.00  0.00     0.251 C 
ATOM     33  H   UNL A   1      31.338  31.295  26.283  1.00  0.00     0.163 HD
ATOM     34  O   UNL A   1      32.620  33.063  27.374  1.00  0.00    -0.269 OA
BRANCH  32  35
ATOM     35  C   UNL A   1      34.356  31.490  27.649  1.00  0.00     0.039 A 
ATOM     36  C   UNL A   1      35.335  32.458  27.866  1.00  0.00     0.014 A 
ATOM     37  C   UNL A   1      34.573  30.156  28.004  1.00  0.00     0.014 A 
ATOM     38  C   UNL A   1      36.508  32.097  28.527  1.00  0.00     0.010 A 
ATOM     39  C   UNL A   1      35.685  29.830  28.766  1.00  0.00     0.010 A 
ATOM     40  C   UNL A   1      36.668  30.795  29.034  1.00  0.00    -0.014 A 
BRANCH  40  41
ATOM     41  C   UNL A   1      37.860  30.422  29.837  1.00  0.00     0.031 A 
ATOM     42  C   UNL A   1      38.857  29.446  29.273  1.00  0.00     0.074 A 
ATOM     43  C   UNL A   1      38.014  30.918  31.082  1.00  0.00     0.049 A 
ATOM     44  N   UNL A   1      39.932  28.953  29.830  1.00  0.00    -0.248 NA
ATOM     45  C   UNL A   1      38.601  28.937  27.916  1.00  0.00     0.031 C 
ATOM     46  C   UNL A   1      37.089  31.842  31.748  1.00  0.00     0.029 A 
ATOM     47  N   UNL A   1      39.003  30.722  32.014  1.00  0.00    -0.354 N 
ATOM     48  C   UNL A   1      40.469  28.069  28.900  1.00  0.00     0.074 A 
ATOM     49  C   UNL A   1      39.569  28.046  27.770  1.00  0.00     0.031 C 
ATOM     50  C   UNL A   1      37.578  32.164  32.956  1.00  0.00     0.029 A 
ATOM     51  C   UNL A   1      38.814  31.423  33.184  1.00  0.00     0.049 A 
ATOM     52  H   UNL A   1      39.776  30.132  31.861  1.00  0.00     0.167 HD
ATOM     53  C   UNL A   1      41.619  27.362  28.975  1.00  0.00     0.034 A 
ATOM     54  C   UNL A   1      39.546  31.454  34.317  1.00  0.00     0.034 A 
ATOM     55  C   UNL A   1      42.514  27.410  30.104  1.00  0.00     0.049 A 
ATOM     56  C   UNL A   1      40.801  30.614  34.386  1.00  0.00     0.074 A 
ATOM     57  C   UNL A   1      43.736  26.781  30.255  1.00  0.00     0.029 A 
ATOM     58  N   UNL A   1      42.279  28.115  31.277  1.00  0.00    -0.354 N 
ATOM     59  N   UNL A   1      41.327  29.835  33.468  1.00  0.00    -0.248 NA
ATOM     60  C   UNL A   1      41.566  30.665  35.639  1.00  0.00     0.031 C 
ATOM     61  C   UNL A   1      44.193  27.023  31.553  1.00  0.00     0.029 A 
ATOM     62  C   UNL A   1      43.312  27.894  32.174  1.00  0.00     0.049 A 
ATOM     63  H   UNL A   1      41.495  28.685  31.447  1.00  0.00     0.167 HD
ATOM     64  C   UNL A   1      42.506  29.342  34.021  1.00  0.00     0.074 A 
ATOM     65  C   UNL A   1      42.623  29.924  35.339  1.00  0.00     0.031 C 
ATOM     66  C   UNL A   1      43.414  28.486  33.486  1.00  0.00     0.034 A 
BRANCH  53  67
ATOM     67  C   UNL A   1      41.966  26.450  27.824  1.00  0.00     0.023 A 
ATOM     68  C   UNL A   1      41.543  25.110  27.782  1.00  0.00     0.031 A 
ATOM     69  C   UNL A   1      42.716  26.939  26.740  1.00  0.00     0.131 A 
ATOM     70  C   UNL A   1      41.912  24.295  26.701  1.00  0.00     0.055 A 
ATOM     71  C   UNL A   1      43.009  26.147  25.630  1.00  0.00     0.041 A 
ATOM     72  F   UNL A   1      43.174  28.201  26.742  1.00  0.00    -0.206 F 
ATOM     73  C   UNL A   1      42.614  24.813  25.610  1.00  0.00     0.022 A 
BRANCH  70  74
ATOM     74  S   UNL A   1      41.567  22.517  26.796  1.00  0.00     0.124 S 
ATOM     75  O   UNL A   1      42.539  21.976  25.849  1.00  0.00    -0.237 OA
ATOM     76  O   UNL A   1      41.814  22.222  28.203  1.00  0.00    -0.237 OA
ATOM     77  O   UNL A   1      40.172  22.416  26.371  1.00  0.00    -0.744 OA
ENDBRANCH  70  74
ENDBRANCH  53  67
BRANCH  54  78
ATOM     78  C   UNL A   1      39.123  32.275  35.492  1.00  0.00     0.023 A 
ATOM     79  C   UNL A   1      39.538  33.609  35.628  1.00  0.00     0.031 A 
ATOM     80  C   UNL A   1      38.383  31.710  36.547  1.00  0.00     0.131 A 
ATOM     81  C   UNL A   1      39.288  34.305  36.821  1.00  0.00     0.055 A 
ATOM     82  C   UNL A   1      38.066  32.434  37.698  1.00  0.00     0.041 A 
ATOM     83  F   UNL A   1      37.961  30.438  36.479  1.00  0.00    -0.206 F 
ATOM     84  C   UNL A   1      38.540  33.734  37.851  1.00  0.00     0.022 A 
BRANCH  81  85
ATOM     85  S   UNL A   1      40.098  35.910  37.072  1.00  0.00     0.124 S 
ATOM     86  O   UNL A   1      41.502  35.522  37.138  1.00  0.00    -0.237 OA
ATOM     87  O   UNL A   1      39.690  36.644  35.879  1.00  0.00    -0.237 OA
ATOM     88  O   UNL A   1      39.520  36.389  38.325  1.00  0.00    -0.744 OA
ENDBRANCH  81  85
ENDBRANCH  54  78
BRANCH  66  89
ATOM     89  C   UNL A   1      44.648  28.184  34.304  1.00  0.00     0.023 A 
ATOM     90  C   UNL A   1      44.707  27.094  35.188  1.00  0.00     0.031 A 
ATOM     91  C   UNL A   1      45.783  29.009  34.194  1.00  0.00     0.131 A 
ATOM     92  C   UNL A   1      45.852  26.896  35.976  1.00  0.00     0.055 A 
ATOM     93  C   UNL A   1      46.947  28.759  34.921  1.00  0.00     0.041 A 
ATOM     94  F   UNL A   1      45.781  30.069  33.370  1.00  0.00    -0.206 F 
ATOM     95  C   UNL A   1      46.981  27.707  35.830  1.00  0.00     0.022 A 
BRANCH  92  96
ATOM     96  S   UNL A   1      45.802  25.636  37.278  1.00  0.00     0.124 S 
ATOM     97  O   UNL A   1      47.130  25.759  37.871  1.00  0.00    -0.237 OA
ATOM     98  O   UNL A   1      44.690  26.088  38.108  1.00  0.00    -0.237 OA
ATOM     99  O   UNL A   1      45.563  24.395  36.544  1.00  0.00    -0.744 OA
ENDBRANCH  92  96
ENDBRANCH  66  89
ENDBRANCH  40  41
ENDBRANCH  32  35
ENDBRANCH  30  31
ENDBRANCH  29  30
ENDBRANCH  28  29
ENDBRANCH   1  28
TORSDOF 19
ENDMDL
MODEL 3
REMARK VINA RESULT:     -11.5      2.349      8.237
REMARK SMILES CC1=C(C)C[C@@H](C(=O)N[C@@H](C)CCc2ccccc2)[C@H](C(=O)NCCCCNC(=O)c2ccc(-c3c4nc(c(-c5cc(S(=O)(=O)[O-])ccc5F)c5ccc([nH]5)c(-c5cc(S(=O)(=O)[O-])ccc5F)c5nc(c(-c6cc(S(=O)(=O)[O-])ccc6F)c6ccc3[nH]6)C=C5)C=C4)cc2)C1
REMARK SMILES IDX 24 1 23 2 21 3 22 4 20 6 1 7 2 8 3 9 94 10 4 11 5 12 6 13
REMARK SMILES IDX 7 14 8 15 9 16 10 18 11 19 12 20 13 21 14 22 15 23 19 24
REMARK SMILES IDX 16 25 18 26 17 27 25 28 26 29 27 30 28 31 29 32 30 34 31 35
REMARK SMILES IDX 32 36 93 37 33 38 92 39 34 40 35 41 36 42 86 43 37 44 91 45
REMARK SMILES IDX 85 46 87 47 38 48 90 49 84 50 83 51 39 53 71 54 51 55 70 56
REMARK SMILES IDX 52 57 55 58 69 59 88 60 53 61 54 62 68 64 89 65 56 66 40 67
REMARK SMILES IDX 41 68 49 69 42 70 48 71 50 72 47 73 43 74 44 75 45 76 46 77
REMARK SMILES IDX 72 78 73 79 81 80 74 81 80 82 82 83 79 84 75 85 76 86 77 87
REMARK SMILES IDX 78 88 57 89 58 90 66 91 59 92 65 93 67 94 64 95 60 96 61 97
REMARK SMILES IDX 62 98 63 99
REMARK H PARENT 23 5 9 17 28 33 87 52 55 63
REMARK Flexibility Score: inf
ROOT
ATOM      1  C   UNL A   1      31.252  26.572  26.183  1.00  0.00     0.116 C 
ENDROOT
BRANCH   1   2
ATOM      2  N   UNL A   1      31.034  25.345  26.906  1.00  0.00    -0.356 N 
ATOM      3  C   UNL A   1      31.142  24.062  26.466  1.00  0.00     0.224 C 
ATOM      4  O   UNL A   1      30.938  23.160  27.281  1.00  0.00    -0.275 OA
ATOM      5  H   UNL A   1      30.770  25.449  27.849  1.00  0.00     0.163 HD
BRANCH   3   6
ATOM      6  C   UNL A   1      31.533  23.726  25.022  1.00  0.00     0.095 C 
ATOM      7  C   UNL A   1      33.312  20.404  24.335  1.00  0.00     0.039 C 
ATOM      8  C   UNL A   1      33.537  21.969  24.436  1.00  0.00    -0.074 C 
ATOM      9  C   UNL A   1      34.685  22.874  24.136  1.00  0.00    -0.074 C 
ATOM     10  C   UNL A   1      32.083  22.334  24.892  1.00  0.00     0.045 C 
ATOM     11  C   UNL A   1      36.736  22.608  23.515  1.00  0.00     0.039 C 
ATOM     12  C   UNL A   1      33.880  24.461  24.273  1.00  0.00     0.045 C 
ATOM     13  C   UNL A   1      32.379  24.750  24.346  1.00  0.00     0.095 C 
BRANCH  13  14
ATOM     14  C   UNL A   1      31.809  25.247  22.999  1.00  0.00     0.224 C 
ATOM     15  O   UNL A   1      31.211  24.457  22.259  1.00  0.00    -0.275 OA
ATOM     16  N   UNL A   1      31.886  26.538  22.565  1.00  0.00    -0.353 N 
ATOM     17  H   UNL A   1      31.345  26.734  21.765  1.00  0.00     0.163 HD
BRANCH  16  18
ATOM     18  C   UNL A   1      32.631  27.671  23.086  1.00  0.00     0.079 C 
ATOM     19  C   UNL A   1      33.989  27.765  22.393  1.00  0.00     0.031 C 
BRANCH  18  20
ATOM     20  C   UNL A   1      31.881  29.014  23.017  1.00  0.00     0.029 C 
BRANCH  20  21
ATOM     21  C   UNL A   1      30.431  29.002  23.521  1.00  0.00     0.037 C 
BRANCH  21  22
ATOM     22  C   UNL A   1      29.545  30.077  22.955  1.00  0.00    -0.048 A 
ATOM     23  C   UNL A   1      28.718  29.950  21.343  1.00  0.00     0.004 A 
ATOM     24  C   UNL A   1      29.423  31.634  23.902  1.00  0.00     0.004 A 
ATOM     25  C   UNL A   1      27.887  31.443  20.627  1.00  0.00     0.000 A 
ATOM     26  C   UNL A   1      28.700  33.107  23.140  1.00  0.00     0.000 A 
ATOM     27  C   UNL A   1      27.956  33.018  21.499  1.00  0.00     0.000 A 
ENDBRANCH  21  22
ENDBRANCH  20  21
ENDBRANCH  18  20
ENDBRANCH  16  18
ENDBRANCH  13  14
ENDBRANCH   3   6
ENDBRANCH   1   2
BRANCH   1  28
ATOM     28  C   UNL A   1      32.223  27.499  26.892  1.00  0.00     0.023 C 
BRANCH  28  29
ATOM     29  C   UNL A   1      31.763  28.943  26.917  1.00  0.00     0.023 C 
BRANCH  29  30
ATOM     30  C   UNL A   1      32.760  29.915  26.308  1.00  0.00     0.116 C 
BRANCH  30  31
ATOM     31  N   UNL A   1      32.533  31.301  26.702  1.00  0.00    -0.352 N 
ATOM     32  C   UNL A   1      33.357  32.120  27.439  1.00  0.00     0.251 C 
ATOM     33  H   UNL A   1      31.684  31.700  26.405  1.00  0.00     0.163 HD
ATOM     34  O   UNL A   1      32.980  33.231  27.795  1.00  0.00    -0.269 OA
BRANCH  32  35
ATOM     35  C   UNL A   1      34.678  31.594  27.832  1.00  0.00     0.039 A 
ATOM     36  C   UNL A   1      35.716  32.491  28.078  1.00  0.00     0.014 A 
ATOM     37  C   UNL A   1      34.824  30.232  28.110  1.00  0.00     0.014 A 
ATOM     38  C   UNL A   1      36.880  32.028  28.690  1.00  0.00     0.010 A 
ATOM     39  C   UNL A   1      35.931  29.802  28.826  1.00  0.00     0.010 A 
ATOM     40  C   UNL A   1      36.974  30.693  29.122  1.00  0.00    -0.014 A 
BRANCH  40  41
ATOM     41  C   UNL A   1      38.159  30.209  29.876  1.00  0.00     0.031 A 
ATOM     42  C   UNL A   1      38.393  30.696  31.280  1.00  0.00     0.074 A 
ATOM     43  C   UNL A   1      39.040  29.378  29.282  1.00  0.00     0.049 A 
ATOM     44  N   UNL A   1      39.387  30.435  32.087  1.00  0.00    -0.248 NA
ATOM     45  C   UNL A   1      37.393  31.618  31.844  1.00  0.00     0.031 C 
ATOM     46  C   UNL A   1      38.935  28.870  27.910  1.00  0.00     0.029 A 
ATOM     47  N   UNL A   1      40.197  28.808  29.751  1.00  0.00    -0.354 N 
ATOM     48  C   UNL A   1      39.140  31.169  33.242  1.00  0.00     0.074 A 
ATOM     49  C   UNL A   1      37.937  31.934  33.008  1.00  0.00     0.031 C 
ATOM     50  C   UNL A   1      39.957  28.033  27.669  1.00  0.00     0.029 A 
ATOM     51  C   UNL A   1      40.828  27.992  28.838  1.00  0.00     0.049 A 
ATOM     52  H   UNL A   1      40.546  28.969  30.658  1.00  0.00     0.167 HD
ATOM     53  C   UNL A   1      39.841  31.184  34.399  1.00  0.00     0.034 A 
ATOM     54  C   UNL A   1      41.983  27.301  28.929  1.00  0.00     0.034 A 
ATOM     55  C   UNL A   1      41.031  30.401  34.620  1.00  0.00     0.049 A 
ATOM     56  C   UNL A   1      42.767  27.377  30.219  1.00  0.00     0.074 A 
ATOM     57  C   UNL A   1      41.782  30.295  35.777  1.00  0.00     0.029 A 
ATOM     58  N   UNL A   1      41.649  29.605  33.667  1.00  0.00    -0.354 N 
ATOM     59  N   UNL A   1      42.481  28.026  31.325  1.00  0.00    -0.248 NA
ATOM     60  C   UNL A   1      44.025  26.621  30.277  1.00  0.00     0.031 C 
ATOM     61  C   UNL A   1      42.907  29.516  35.495  1.00  0.00     0.029 A 
ATOM     62  C   UNL A   1      42.800  29.043  34.196  1.00  0.00     0.049 A 
ATOM     63  H   UNL A   1      41.320  29.460  32.750  1.00  0.00     0.167 HD
ATOM     64  C   UNL A   1      43.501  27.716  32.221  1.00  0.00     0.074 A 
ATOM     65  C   UNL A   1      44.397  26.811  31.534  1.00  0.00     0.031 C 
ATOM     66  C   UNL A   1      43.682  28.139  33.498  1.00  0.00     0.034 A 
BRANCH  53  67
ATOM     67  C   UNL A   1      39.365  32.094  35.504  1.00  0.00     0.023 A 
ATOM     68  C   UNL A   1      39.798  33.427  35.610  1.00  0.00     0.031 A 
ATOM     69  C   UNL A   1      38.444  31.622  36.456  1.00  0.00     0.131 A 
ATOM     70  C   UNL A   1      39.345  34.226  36.671  1.00  0.00     0.055 A 
ATOM     71  C   UNL A   1      37.935  32.446  37.459  1.00  0.00     0.041 A 
ATOM     72  F   UNL A   1      38.021  30.348  36.423  1.00  0.00    -0.206 F 
ATOM     73  C   UNL A   1      38.392  33.755  37.577  1.00  0.00     0.022 A 
BRANCH  70  74
ATOM     74  S   UNL A   1      40.110  35.851  36.923  1.00  0.00     0.124 S 
ATOM     75  O   UNL A   1      39.463  36.295  38.154  1.00  0.00    -0.237 OA
ATOM     76  O   UNL A   1      41.527  35.520  37.029  1.00  0.00    -0.237 OA
ATOM     77  O   UNL A   1      39.731  36.597  35.724  1.00  0.00    -0.744 OA
ENDBRANCH  70  74
ENDBRANCH  53  67
BRANCH  54  78
ATOM     78  C   UNL A   1      42.498  26.497  27.780  1.00  0.00     0.023 A 
ATOM     79  C   UNL A   1      42.272  25.113  27.707  1.00  0.00     0.031 A 
ATOM     80  C   UNL A   1      43.310  27.079  26.789  1.00  0.00     0.131 A 
ATOM     81  C   UNL A   1      42.917  24.346  26.724  1.00  0.00     0.055 A 
ATOM     82  C   UNL A   1      43.884  26.323  25.764  1.00  0.00     0.041 A 
ATOM     83  F   UNL A   1      43.567  28.396  26.806  1.00  0.00    -0.206 F 
ATOM     84  C   UNL A   1      43.708  24.943  25.741  1.00  0.00     0.022 A 
BRANCH  81  85
ATOM     85  S   UNL A   1      42.839  22.537  26.850  1.00  0.00     0.124 S 
ATOM     86  O   UNL A   1      44.169  22.154  26.386  1.00  0.00    -0.237 OA
ATOM     87  O   UNL A   1      42.575  22.344  28.272  1.00  0.00    -0.237 OA
ATOM     88  O   UNL A   1      41.738  22.183  25.958  1.00  0.00    -0.744 OA
ENDBRANCH  81  85
ENDBRANCH  54  78
BRANCH  66  89
ATOM     89  C   UNL A   1      44.858  27.570  34.257  1.00  0.00     0.023 A 
ATOM     90  C   UNL A   1      44.762  26.377  34.993  1.00  0.00     0.031 A 
ATOM     91  C   UNL A   1      46.094  28.242  34.244  1.00  0.00     0.131 A 
ATOM     92  C   UNL A   1      45.864  25.927  35.737  1.00  0.00     0.055 A 
ATOM     93  C   UNL A   1      47.208  27.746  34.920  1.00  0.00     0.041 A 
ATOM     94  F   UNL A   1      46.242  29.390  33.563  1.00  0.00    -0.206 F 
ATOM     95  C   UNL A   1      47.093  26.590  35.686  1.00  0.00     0.022 A 
BRANCH  92  96
ATOM     96  S   UNL A   1      45.634  24.527  36.866  1.00  0.00     0.124 S 
ATOM     97  O   UNL A   1      44.480  23.852  36.283  1.00  0.00    -0.237 OA
ATOM     98  O   UNL A   1      46.908  23.823  36.754  1.00  0.00    -0.237 OA
ATOM     99  O   UNL A   1      45.392  25.167  38.159  1.00  0.00    -0.744 OA
ENDBRANCH  92  96
ENDBRANCH  66  89
ENDBRANCH  40  41
ENDBRANCH  32  35
ENDBRANCH  30  31
ENDBRANCH  29  30
ENDBRANCH  28  29
ENDBRANCH   1  28
TORSDOF 19
ENDMDL
