MODEL 1
REMARK VINA RESULT:     -12.2      0.000      0.000
REMARK SMILES Cc1ccc(NC(=O)C[NH+]2CCC(C(=O)NCCCCNC(=O)c3ccc(-c4c5nc(c(-c6cc(S(=O)(=O)[O-])ccc6F)c6ccc([nH]6)c(-c6cc(S(=O)(=O)[O-])ccc6F)c6nc(c(-c7cc(S(=O)(=O)[O-])ccc7F)c7ccc4[nH]7)C=C6)C=C5)cc3)CC2)cc1Cl
REMARK SMILES IDX 18 1 17 2 16 3 14 4 15 5 13 7 10 8 11 9 88 10 12 12 87 13
REMARK SMILES IDX 9 14 7 15 6 16 8 18 5 19 1 20 2 21 3 22 90 23 4 24 89 25
REMARK SMILES IDX 91 26 19 27 20 28 21 29 22 30 23 32 24 33 25 34 86 35 26 36
REMARK SMILES IDX 85 37 27 38 28 39 29 40 79 41 30 42 84 43 78 44 80 45 31 46
REMARK SMILES IDX 83 47 77 48 76 49 32 51 64 52 44 53 63 54 45 55 48 56 62 57
REMARK SMILES IDX 81 58 46 59 47 60 61 62 82 63 49 64 33 65 34 66 42 67 35 68
REMARK SMILES IDX 41 69 43 70 40 71 36 72 37 73 38 74 39 75 65 76 66 77 74 78
REMARK SMILES IDX 67 79 73 80 75 81 72 82 68 83 69 84 70 85 71 86 50 87 51 88
REMARK SMILES IDX 59 89 52 90 58 91 60 92 57 93 53 94 54 95 55 96 56 97
REMARK H PARENT 16 6 10 11 6 17 21 31 80 50 48 61
REMARK Flexibility Score: inf
ROOT
ATOM      1  C   UNL A   1      32.293  29.500  27.259  1.00  0.00     0.023 C 
ENDROOT
BRANCH   1   2
ATOM      2  C   UNL A   1      32.771  28.463  26.251  1.00  0.00     0.116 C 
BRANCH   2   3
ATOM      3  N   UNL A   1      33.135  29.076  24.982  1.00  0.00    -0.356 N 
ATOM      4  C   UNL A   1      33.117  28.575  23.716  1.00  0.00     0.223 C 
ATOM      5  O   UNL A   1      33.498  29.300  22.794  1.00  0.00    -0.275 OA
ATOM      6  H   UNL A   1      33.444  30.009  25.050  1.00  0.00     0.163 HD
BRANCH   4   7
ATOM      7  C   UNL A   1      32.593  27.179  23.427  1.00  0.00     0.089 C 
ATOM      8  N   UNL A   1      31.598  24.789  24.746  1.00  0.00    -0.327 N 
ATOM      9  C   UNL A   1      32.845  24.697  23.989  1.00  0.00     0.263 C 
ATOM     10  C   UNL A   1      30.655  25.671  24.068  1.00  0.00     0.263 C 
ATOM     11  H   UNL A   1      31.820  25.207  25.650  1.00  0.00     0.348 HD
ATOM     12  C   UNL A   1      33.519  26.073  23.951  1.00  0.00     0.075 C 
ATOM     13  C   UNL A   1      31.140  27.090  23.883  1.00  0.00     0.075 C 
BRANCH   8  14
ATOM     14  C   UNL A   1      31.014  23.465  25.089  1.00  0.00     0.363 C 
BRANCH  14  15
ATOM     15  C   UNL A   1      30.936  23.136  26.591  1.00  0.00     0.279 C 
ATOM     16  N   UNL A   1      31.955  22.518  27.278  1.00  0.00    -0.321 N 
ATOM     17  H   UNL A   1      31.763  22.330  28.225  1.00  0.00     0.170 HD
ATOM     18  O   UNL A   1      29.954  23.495  27.254  1.00  0.00    -0.268 OA
BRANCH  16  19
ATOM     19  C   UNL A   1      33.228  22.112  26.841  1.00  0.00     0.042 A 
ATOM     20  C   UNL A   1      36.837  21.631  24.543  1.00  0.00     0.046 C 
ATOM     21  C   UNL A   1      35.650  21.707  25.461  1.00  0.00    -0.032 A 
ATOM     22  C   UNL A   1      35.442  22.872  26.215  1.00  0.00     0.007 A 
ATOM     23  C   UNL A   1      34.675  20.699  25.512  1.00  0.00     0.046 A 
ATOM     24  C   UNL A   1      34.253  23.061  26.926  1.00  0.00     0.026 A 
ATOM     25  C   UNL A   1      33.479  20.893  26.216  1.00  0.00     0.047 A 
ATOM     26  Cl  UNL A   1      34.851  19.226  24.628  1.00  0.00    -0.084 Cl
ENDBRANCH  16  19
ENDBRANCH  14  15
ENDBRANCH   8  14
ENDBRANCH   4   7
ENDBRANCH   2   3
ENDBRANCH   1   2
BRANCH   1  27
ATOM     27  C   UNL A   1      32.335  30.936  26.742  1.00  0.00     0.023 C 
BRANCH  27  28
ATOM     28  C   UNL A   1      33.349  31.835  27.439  1.00  0.00     0.116 C 
BRANCH  28  29
ATOM     29  N   UNL A   1      32.863  33.196  27.623  1.00  0.00    -0.352 N 
ATOM     30  C   UNL A   1      33.269  34.121  28.558  1.00  0.00     0.251 C 
ATOM     31  H   UNL A   1      32.158  33.490  27.002  1.00  0.00     0.163 HD
ATOM     32  O   UNL A   1      32.666  35.180  28.695  1.00  0.00    -0.269 OA
BRANCH  30  33
ATOM     33  C   UNL A   1      34.423  33.787  29.416  1.00  0.00     0.039 A 
ATOM     34  C   UNL A   1      34.242  32.934  30.506  1.00  0.00     0.014 A 
ATOM     35  C   UNL A   1      35.696  34.244  29.066  1.00  0.00     0.014 A 
ATOM     36  C   UNL A   1      35.358  32.470  31.205  1.00  0.00     0.010 A 
ATOM     37  C   UNL A   1      36.808  33.722  29.715  1.00  0.00     0.010 A 
ATOM     38  C   UNL A   1      36.650  32.826  30.786  1.00  0.00    -0.014 A 
BRANCH  38  39
ATOM     39  C   UNL A   1      37.868  32.289  31.448  1.00  0.00     0.031 A 
ATOM     40  C   UNL A   1      38.619  31.161  30.800  1.00  0.00     0.074 A 
ATOM     41  C   UNL A   1      38.216  32.722  32.675  1.00  0.00     0.049 A 
ATOM     42  N   UNL A   1      39.581  30.417  31.281  1.00  0.00    -0.248 NA
ATOM     43  C   UNL A   1      38.191  30.793  29.442  1.00  0.00     0.031 C 
ATOM     44  C   UNL A   1      37.533  33.777  33.426  1.00  0.00     0.029 A 
ATOM     45  N   UNL A   1      39.213  32.304  33.521  1.00  0.00    -0.354 N 
ATOM     46  C   UNL A   1      39.848  29.468  30.299  1.00  0.00     0.074 A 
ATOM     47  C   UNL A   1      38.904  29.700  29.226  1.00  0.00     0.031 C 
ATOM     48  C   UNL A   1      38.126  33.918  34.623  1.00  0.00     0.029 A 
ATOM     49  C   UNL A   1      39.198  32.935  34.744  1.00  0.00     0.049 A 
ATOM     50  H   UNL A   1      39.875  31.618  33.277  1.00  0.00     0.167 HD
ATOM     51  C   UNL A   1      40.804  28.507  30.289  1.00  0.00     0.034 A 
ATOM     52  C   UNL A   1      39.942  32.725  35.849  1.00  0.00     0.034 A 
ATOM     53  C   UNL A   1      41.749  28.312  31.363  1.00  0.00     0.049 A 
ATOM     54  C   UNL A   1      41.003  31.655  35.822  1.00  0.00     0.074 A 
ATOM     55  C   UNL A   1      42.813  27.431  31.426  1.00  0.00     0.029 A 
ATOM     56  N   UNL A   1      41.733  29.004  32.568  1.00  0.00    -0.354 N 
ATOM     57  N   UNL A   1      41.290  30.805  34.865  1.00  0.00    -0.248 NA
ATOM     58  C   UNL A   1      41.846  31.524  37.017  1.00  0.00     0.031 C 
ATOM     59  C   UNL A   1      43.399  27.543  32.692  1.00  0.00     0.029 A 
ATOM     60  C   UNL A   1      42.748  28.547  33.393  1.00  0.00     0.049 A 
ATOM     61  H   UNL A   1      41.095  29.715  32.802  1.00  0.00     0.167 HD
ATOM     62  C   UNL A   1      42.365  30.054  35.331  1.00  0.00     0.074 A 
ATOM     63  C   UNL A   1      42.674  30.554  36.656  1.00  0.00     0.031 C 
ATOM     64  C   UNL A   1      43.040  29.051  34.715  1.00  0.00     0.034 A 
BRANCH  51  65
ATOM     65  C   UNL A   1      40.840  27.582  29.095  1.00  0.00     0.023 A 
ATOM     66  C   UNL A   1      41.795  27.730  28.073  1.00  0.00     0.031 A 
ATOM     67  C   UNL A   1      39.865  26.580  28.940  1.00  0.00     0.131 A 
ATOM     68  C   UNL A   1      41.688  26.972  26.899  1.00  0.00     0.055 A 
ATOM     69  C   UNL A   1      39.825  25.761  27.810  1.00  0.00     0.041 A 
ATOM     70  F   UNL A   1      38.916  26.398  29.871  1.00  0.00    -0.206 F 
ATOM     71  C   UNL A   1      40.726  25.970  26.769  1.00  0.00     0.022 A 
BRANCH  68  72
ATOM     72  S   UNL A   1      42.702  27.450  25.471  1.00  0.00     0.124 S 
ATOM     73  O   UNL A   1      43.993  27.715  26.101  1.00  0.00    -0.237 OA
ATOM     74  O   UNL A   1      42.634  26.263  24.626  1.00  0.00    -0.237 OA
ATOM     75  O   UNL A   1      42.020  28.630  24.946  1.00  0.00    -0.744 OA
ENDBRANCH  68  72
ENDBRANCH  51  65
BRANCH  52  76
ATOM     76  C   UNL A   1      39.684  33.523  37.079  1.00  0.00     0.023 A 
ATOM     77  C   UNL A   1      39.101  32.943  38.215  1.00  0.00     0.031 A 
ATOM     78  C   UNL A   1      40.029  34.886  37.135  1.00  0.00     0.131 A 
ATOM     79  C   UNL A   1      38.856  33.729  39.352  1.00  0.00     0.055 A 
ATOM     80  C   UNL A   1      39.821  35.653  38.282  1.00  0.00     0.041 A 
ATOM     81  F   UNL A   1      40.600  35.485  36.077  1.00  0.00    -0.206 F 
ATOM     82  C   UNL A   1      39.223  35.077  39.398  1.00  0.00     0.022 A 
BRANCH  79  83
ATOM     83  S   UNL A   1      38.010  32.973  40.768  1.00  0.00     0.124 S 
ATOM     84  O   UNL A   1      36.795  33.777  40.852  1.00  0.00    -0.237 OA
ATOM     85  O   UNL A   1      37.838  31.595  40.319  1.00  0.00    -0.237 OA
ATOM     86  O   UNL A   1      38.955  33.153  41.867  1.00  0.00    -0.744 OA
ENDBRANCH  79  83
ENDBRANCH  52  76
BRANCH  64  87
ATOM     87  C   UNL A   1      44.220  28.461  35.445  1.00  0.00     0.023 A 
ATOM     88  C   UNL A   1      44.068  27.451  36.410  1.00  0.00     0.031 A 
ATOM     89  C   UNL A   1      45.521  28.899  35.139  1.00  0.00     0.131 A 
ATOM     90  C   UNL A   1      45.200  26.930  37.056  1.00  0.00     0.055 A 
ATOM     91  C   UNL A   1      46.645  28.345  35.750  1.00  0.00     0.041 A 
ATOM     92  F   UNL A   1      45.719  29.863  34.225  1.00  0.00    -0.206 F 
ATOM     93  C   UNL A   1      46.488  27.358  36.718  1.00  0.00     0.022 A 
BRANCH  90  94
ATOM     94  S   UNL A   1      44.971  25.710  38.378  1.00  0.00     0.124 S 
ATOM     95  O   UNL A   1      44.506  24.542  37.635  1.00  0.00    -0.237 OA
ATOM     96  O   UNL A   1      46.311  25.609  38.949  1.00  0.00    -0.237 OA
ATOM     97  O   UNL A   1      43.973  26.329  39.248  1.00  0.00    -0.744 OA
ENDBRANCH  90  94
ENDBRANCH  64  87
ENDBRANCH  38  39
ENDBRANCH  30  33
ENDBRANCH  28  29
ENDBRANCH  27  28
ENDBRANCH   1  27
TORSDOF 17
ENDMDL
MODEL 2
REMARK VINA RESULT:     -12.2      4.858      8.327
REMARK SMILES Cc1ccc(NC(=O)C[NH+]2CCC(C(=O)NCCCCNC(=O)c3ccc(-c4c5nc(c(-c6cc(S(=O)(=O)[O-])ccc6F)c6ccc([nH]6)c(-c6cc(S(=O)(=O)[O-])ccc6F)c6nc(c(-c7cc(S(=O)(=O)[O-])ccc7F)c7ccc4[nH]7)C=C6)C=C5)cc3)CC2)cc1Cl
REMARK SMILES IDX 18 1 17 2 16 3 14 4 15 5 13 7 10 8 11 9 88 10 12 12 87 13
REMARK SMILES IDX 9 14 7 15 6 16 8 18 5 19 1 20 2 21 3 22 90 23 4 24 89 25
REMARK SMILES IDX 91 26 19 27 20 28 21 29 22 30 23 32 24 33 25 34 86 35 26 36
REMARK SMILES IDX 85 37 27 38 28 39 29 40 79 41 30 42 84 43 78 44 80 45 31 46
REMARK SMILES IDX 83 47 77 48 76 49 32 51 64 52 44 53 63 54 45 55 48 56 62 57
REMARK SMILES IDX 81 58 46 59 47 60 61 62 82 63 49 64 33 65 34 66 42 67 35 68
REMARK SMILES IDX 41 69 43 70 40 71 36 72 37 73 38 74 39 75 65 76 66 77 74 78
REMARK SMILES IDX 67 79 73 80 75 81 72 82 68 83 69 84 70 85 71 86 50 87 51 88
REMARK SMILES IDX 59 89 52 90 58 91 60 92 57 93 53 94 54 95 55 96 56 97
REMARK H PARENT 16 6 10 11 6 17 21 31 80 50 48 61
REMARK Flexibility Score: inf
ROOT
ATOM      1  C   UNL A   1      35.962  21.225  24.525  1.00  0.00     0.023 C 
ENDROOT
BRANCH   1   2
ATOM      2  C   UNL A   1      34.951  21.319  25.661  1.00  0.00     0.116 C 
BRANCH   2   3
ATOM      3  N   UNL A   1      34.205  20.078  25.817  1.00  0.00    -0.356 N 
ATOM      4  C   UNL A   1      32.917  19.771  25.499  1.00  0.00     0.223 C 
ATOM      5  O   UNL A   1      32.507  18.636  25.752  1.00  0.00    -0.275 OA
ATOM      6  H   UNL A   1      34.717  19.338  26.217  1.00  0.00     0.163 HD
BRANCH   4   7
ATOM      7  C   UNL A   1      32.015  20.775  24.803  1.00  0.00     0.089 C 
ATOM      8  N   UNL A   1      32.053  23.377  23.512  1.00  0.00    -0.327 N 
ATOM      9  C   UNL A   1      31.273  23.221  24.739  1.00  0.00     0.263 C 
ATOM     10  C   UNL A   1      31.953  22.178  22.689  1.00  0.00     0.263 C 
ATOM     11  H   UNL A   1      33.030  23.487  23.785  1.00  0.00     0.348 HD
ATOM     12  C   UNL A   1      31.872  22.090  25.581  1.00  0.00     0.075 C 
ATOM     13  C   UNL A   1      32.458  20.916  23.351  1.00  0.00     0.075 C 
BRANCH   8  14
ATOM     14  C   UNL A   1      31.740  24.624  22.765  1.00  0.00     0.363 C 
BRANCH  14  15
ATOM     15  C   UNL A   1      32.936  25.325  22.097  1.00  0.00     0.279 C 
ATOM     16  N   UNL A   1      33.583  26.403  22.656  1.00  0.00    -0.321 N 
ATOM     17  H   UNL A   1      34.308  26.782  22.109  1.00  0.00     0.170 HD
ATOM     18  O   UNL A   1      33.408  24.877  21.044  1.00  0.00    -0.268 OA
BRANCH  16  19
ATOM     19  C   UNL A   1      33.371  27.050  23.887  1.00  0.00     0.042 A 
ATOM     20  C   UNL A   1      31.755  28.225  27.700  1.00  0.00     0.046 C 
ATOM     21  C   UNL A   1      32.443  27.920  26.399  1.00  0.00    -0.032 A 
ATOM     22  C   UNL A   1      33.190  26.738  26.282  1.00  0.00     0.007 A 
ATOM     23  C   UNL A   1      32.275  28.717  25.257  1.00  0.00     0.046 A 
ATOM     24  C   UNL A   1      33.678  26.322  25.040  1.00  0.00     0.026 A 
ATOM     25  C   UNL A   1      32.755  28.294  24.011  1.00  0.00     0.047 A 
ATOM     26  Cl  UNL A   1      31.382  30.195  25.308  1.00  0.00    -0.084 Cl
ENDBRANCH  16  19
ENDBRANCH  14  15
ENDBRANCH   8  14
ENDBRANCH   4   7
ENDBRANCH   2   3
ENDBRANCH   1   2
BRANCH   1  27
ATOM     27  C   UNL A   1      36.627  22.553  24.171  1.00  0.00     0.023 C 
BRANCH  27  28
ATOM     28  C   UNL A   1      37.422  23.190  25.304  1.00  0.00     0.116 C 
BRANCH  28  29
ATOM     29  N   UNL A   1      38.514  22.346  25.770  1.00  0.00    -0.352 N 
ATOM     30  C   UNL A   1      39.655  22.729  26.437  1.00  0.00     0.251 C 
ATOM     31  H   UNL A   1      38.425  21.383  25.584  1.00  0.00     0.163 HD
ATOM     32  O   UNL A   1      40.563  21.930  26.637  1.00  0.00    -0.269 OA
BRANCH  30  33
ATOM     33  C   UNL A   1      39.771  24.135  26.872  1.00  0.00     0.039 A 
ATOM     34  C   UNL A   1      39.474  24.470  28.193  1.00  0.00     0.014 A 
ATOM     35  C   UNL A   1      40.276  25.091  25.986  1.00  0.00     0.014 A 
ATOM     36  C   UNL A   1      39.759  25.757  28.655  1.00  0.00     0.010 A 
ATOM     37  C   UNL A   1      40.628  26.345  26.467  1.00  0.00     0.010 A 
ATOM     38  C   UNL A   1      40.379  26.689  27.807  1.00  0.00    -0.014 A 
BRANCH  38  39
ATOM     39  C   UNL A   1      40.777  28.040  28.280  1.00  0.00     0.031 A 
ATOM     40  C   UNL A   1      42.233  28.347  28.487  1.00  0.00     0.074 A 
ATOM     41  C   UNL A   1      39.836  28.934  28.640  1.00  0.00     0.049 A 
ATOM     42  N   UNL A   1      42.792  29.377  29.067  1.00  0.00    -0.248 NA
ATOM     43  C   UNL A   1      43.183  27.327  28.019  1.00  0.00     0.031 C 
ATOM     44  C   UNL A   1      38.389  28.731  28.532  1.00  0.00     0.029 A 
ATOM     45  N   UNL A   1      39.955  30.180  29.203  1.00  0.00    -0.354 N 
ATOM     46  C   UNL A   1      44.157  29.111  29.068  1.00  0.00     0.074 A 
ATOM     47  C   UNL A   1      44.329  27.798  28.484  1.00  0.00     0.031 C 
ATOM     48  C   UNL A   1      37.757  29.811  29.018  1.00  0.00     0.029 A 
ATOM     49  C   UNL A   1      38.747  30.761  29.515  1.00  0.00     0.049 A 
ATOM     50  H   UNL A   1      40.821  30.618  29.366  1.00  0.00     0.167 HD
ATOM     51  C   UNL A   1      45.173  29.900  29.499  1.00  0.00     0.034 A 
ATOM     52  C   UNL A   1      38.467  31.912  30.159  1.00  0.00     0.034 A 
ATOM     53  C   UNL A   1      44.976  31.217  30.056  1.00  0.00     0.049 A 
ATOM     54  C   UNL A   1      39.606  32.780  30.629  1.00  0.00     0.074 A 
ATOM     55  C   UNL A   1      45.930  32.140  30.446  1.00  0.00     0.029 A 
ATOM     56  N   UNL A   1      43.738  31.792  30.315  1.00  0.00    -0.354 N 
ATOM     57  N   UNL A   1      40.896  32.550  30.569  1.00  0.00    -0.248 NA
ATOM     58  C   UNL A   1      39.252  34.066  31.245  1.00  0.00     0.031 C 
ATOM     59  C   UNL A   1      45.271  33.244  30.998  1.00  0.00     0.029 A 
ATOM     60  C   UNL A   1      43.904  33.043  30.887  1.00  0.00     0.049 A 
ATOM     61  H   UNL A   1      42.870  31.373  30.119  1.00  0.00     0.167 HD
ATOM     62  C   UNL A   1      41.511  33.673  31.113  1.00  0.00     0.074 A 
ATOM     63  C   UNL A   1      40.448  34.581  31.497  1.00  0.00     0.031 C 
ATOM     64  C   UNL A   1      42.833  33.934  31.271  1.00  0.00     0.034 A 
BRANCH  51  65
ATOM     65  C   UNL A   1      46.571  29.334  29.412  1.00  0.00     0.023 A 
ATOM     66  C   UNL A   1      47.316  29.383  28.220  1.00  0.00     0.031 A 
ATOM     67  C   UNL A   1      47.144  28.676  30.515  1.00  0.00     0.131 A 
ATOM     68  C   UNL A   1      48.532  28.692  28.125  1.00  0.00     0.055 A 
ATOM     69  C   UNL A   1      48.401  28.074  30.443  1.00  0.00     0.041 A 
ATOM     70  F   UNL A   1      46.477  28.580  31.676  1.00  0.00    -0.206 F 
ATOM     71  C   UNL A   1      49.094  28.060  29.235  1.00  0.00     0.022 A 
BRANCH  68  72
ATOM     72  S   UNL A   1      49.270  28.471  26.481  1.00  0.00     0.124 S 
ATOM     73  O   UNL A   1      49.705  29.830  26.168  1.00  0.00    -0.237 OA
ATOM     74  O   UNL A   1      50.330  27.504  26.740  1.00  0.00    -0.237 OA
ATOM     75  O   UNL A   1      48.159  27.979  25.670  1.00  0.00    -0.744 OA
ENDBRANCH  68  72
ENDBRANCH  51  65
BRANCH  52  76
ATOM     76  C   UNL A   1      37.051  32.290  30.421  1.00  0.00     0.023 A 
ATOM     77  C   UNL A   1      36.208  32.721  29.385  1.00  0.00     0.031 A 
ATOM     78  C   UNL A   1      36.518  32.217  31.721  1.00  0.00     0.131 A 
ATOM     79  C   UNL A   1      34.883  33.086  29.671  1.00  0.00     0.055 A 
ATOM     80  C   UNL A   1      35.189  32.543  31.992  1.00  0.00     0.041 A 
ATOM     81  F   UNL A   1      37.282  31.800  32.744  1.00  0.00    -0.206 F 
ATOM     82  C   UNL A   1      34.364  32.989  30.965  1.00  0.00     0.022 A 
BRANCH  79  83
ATOM     83  S   UNL A   1      33.850  33.733  28.327  1.00  0.00     0.124 S 
ATOM     84  O   UNL A   1      32.856  34.506  29.063  1.00  0.00    -0.237 OA
ATOM     85  O   UNL A   1      34.813  34.503  27.547  1.00  0.00    -0.237 OA
ATOM     86  O   UNL A   1      33.345  32.528  27.674  1.00  0.00    -0.744 OA
ENDBRANCH  79  83
ENDBRANCH  52  76
BRANCH  64  87
ATOM     87  C   UNL A   1      43.210  35.280  31.835  1.00  0.00     0.023 A 
ATOM     88  C   UNL A   1      43.265  35.517  33.220  1.00  0.00     0.031 A 
ATOM     89  C   UNL A   1      43.553  36.331  30.966  1.00  0.00     0.131 A 
ATOM     90  C   UNL A   1      43.629  36.787  33.693  1.00  0.00     0.055 A 
ATOM     91  C   UNL A   1      43.959  37.576  31.444  1.00  0.00     0.041 A 
ATOM     92  F   UNL A   1      43.515  36.155  29.635  1.00  0.00    -0.206 F 
ATOM     93  C   UNL A   1      43.994  37.812  32.815  1.00  0.00     0.022 A 
BRANCH  90  94
ATOM     94  S   UNL A   1      43.582  37.103  35.479  1.00  0.00     0.124 S 
ATOM     95  O   UNL A   1      43.984  38.504  35.550  1.00  0.00    -0.237 OA
ATOM     96  O   UNL A   1      42.189  36.822  35.812  1.00  0.00    -0.237 OA
ATOM     97  O   UNL A   1      44.551  36.152  36.022  1.00  0.00    -0.744 OA
ENDBRANCH  90  94
ENDBRANCH  64  87
ENDBRANCH  38  39
ENDBRANCH  30  33
ENDBRANCH  28  29
ENDBRANCH  27  28
ENDBRANCH   1  27
TORSDOF 17
ENDMDL
MODEL 3
REMARK VINA RESULT:     -12.2      3.061      8.227
REMARK SMILES Cc1ccc(NC(=O)C[NH+]2CCC(C(=O)NCCCCNC(=O)c3ccc(-c4c5nc(c(-c6cc(S(=O)(=O)[O-])ccc6F)c6ccc([nH]6)c(-c6cc(S(=O)(=O)[O-])ccc6F)c6nc(c(-c7cc(S(=O)(=O)[O-])ccc7F)c7ccc4[nH]7)C=C6)C=C5)cc3)CC2)cc1Cl
REMARK SMILES IDX 18 1 17 2 16 3 14 4 15 5 13 7 10 8 11 9 88 10 12 12 87 13
REMARK SMILES IDX 9 14 7 15 6 16 8 18 5 19 1 20 2 21 3 22 90 23 4 24 89 25
REMARK SMILES IDX 91 26 19 27 20 28 21 29 22 30 23 32 24 33 25 34 86 35 26 36
REMARK SMILES IDX 85 37 27 38 28 39 29 40 79 41 30 42 84 43 78 44 80 45 31 46
REMARK SMILES IDX 83 47 77 48 76 49 32 51 64 52 44 53 63 54 45 55 48 56 62 57
REMARK SMILES IDX 81 58 46 59 47 60 61 62 82 63 49 64 33 65 34 66 42 67 35 68
REMARK SMILES IDX 41 69 43 70 40 71 36 72 37 73 38 74 39 75 65 76 66 77 74 78
REMARK SMILES IDX 67 79 73 80 75 81 72 82 68 83 69 84 70 85 71 86 50 87 51 88
REMARK SMILES IDX 59 89 52 90 58 91 60 92 57 93 53 94 54 95 55 96 56 97
REMARK H PARENT 16 6 10 11 6 17 21 31 80 50 48 61
REMARK Flexibility Score: inf
ROOT
ATOM      1  C   UNL A   1      31.843  30.291  25.877  1.00  0.00     0.023 C 
ENDROOT
BRANCH   1   2
ATOM      2  C   UNL A   1      31.653  29.176  24.857  1.00  0.00     0.116 C 
BRANCH   2   3
ATOM      3  N   UNL A   1      31.111  29.682  23.604  1.00  0.00    -0.356 N 
ATOM      4  C   UNL A   1      30.574  29.026  22.539  1.00  0.00     0.223 C 
ATOM      5  O   UNL A   1      30.198  29.690  21.571  1.00  0.00    -0.275 OA
ATOM      6  H   UNL A   1      31.136  30.663  23.512  1.00  0.00     0.163 HD
BRANCH   4   7
ATOM      7  C   UNL A   1      30.391  27.518  22.552  1.00  0.00     0.089 C 
ATOM      8  N   UNL A   1      30.819  25.174  24.214  1.00  0.00    -0.327 N 
ATOM      9  C   UNL A   1      31.555  25.277  22.955  1.00  0.00     0.263 C 
ATOM     10  C   UNL A   1      29.467  25.696  24.058  1.00  0.00     0.263 C 
ATOM     11  H   UNL A   1      31.302  25.759  24.897  1.00  0.00     0.348 HD
ATOM     12  C   UNL A   1      31.722  26.755  22.584  1.00  0.00     0.075 C 
ATOM     13  C   UNL A   1      29.396  27.149  23.647  1.00  0.00     0.075 C 
BRANCH   8  14
ATOM     14  C   UNL A   1      30.853  23.812  24.810  1.00  0.00     0.363 C 
BRANCH  14  15
ATOM     15  C   UNL A   1      31.076  23.751  26.332  1.00  0.00     0.279 C 
ATOM     16  N   UNL A   1      32.308  23.523  26.902  1.00  0.00    -0.321 N 
ATOM     17  H   UNL A   1      32.307  23.471  27.885  1.00  0.00     0.170 HD
ATOM     18  O   UNL A   1      30.139  23.986  27.106  1.00  0.00    -0.268 OA
BRANCH  16  19
ATOM     19  C   UNL A   1      33.568  23.353  26.302  1.00  0.00     0.042 A 
ATOM     20  C   UNL A   1      36.735  22.938  23.415  1.00  0.00     0.046 C 
ATOM     21  C   UNL A   1      35.747  23.082  24.539  1.00  0.00    -0.032 A 
ATOM     22  C   UNL A   1      35.201  24.345  24.812  1.00  0.00     0.007 A 
ATOM     23  C   UNL A   1      35.262  21.977  25.256  1.00  0.00     0.046 A 
ATOM     24  C   UNL A   1      34.140  24.485  25.711  1.00  0.00     0.026 A 
ATOM     25  C   UNL A   1      34.191  22.117  26.149  1.00  0.00     0.047 A 
ATOM     26  Cl  UNL A   1      35.882  20.386  24.996  1.00  0.00    -0.084 Cl
ENDBRANCH  16  19
ENDBRANCH  14  15
ENDBRANCH   8  14
ENDBRANCH   4   7
ENDBRANCH   2   3
ENDBRANCH   1   2
BRANCH   1  27
ATOM     27  C   UNL A   1      32.664  29.886  27.098  1.00  0.00     0.023 C 
BRANCH  27  28
ATOM     28  C   UNL A   1      34.006  30.596  27.228  1.00  0.00     0.116 C 
BRANCH  28  29
ATOM     29  N   UNL A   1      33.944  31.763  28.097  1.00  0.00    -0.352 N 
ATOM     30  C   UNL A   1      34.799  32.103  29.121  1.00  0.00     0.251 C 
ATOM     31  H   UNL A   1      33.199  32.385  27.933  1.00  0.00     0.163 HD
ATOM     32  O   UNL A   1      34.541  33.039  29.870  1.00  0.00    -0.269 OA
BRANCH  30  33
ATOM     33  C   UNL A   1      36.015  31.288  29.315  1.00  0.00     0.039 A 
ATOM     34  C   UNL A   1      37.205  31.676  28.697  1.00  0.00     0.014 A 
ATOM     35  C   UNL A   1      35.984  30.203  30.195  1.00  0.00     0.014 A 
ATOM     36  C   UNL A   1      38.392  31.019  29.025  1.00  0.00     0.010 A 
ATOM     37  C   UNL A   1      37.177  29.602  30.575  1.00  0.00     0.010 A 
ATOM     38  C   UNL A   1      38.393  30.008  29.999  1.00  0.00    -0.014 A 
BRANCH  38  39
ATOM     39  C   UNL A   1      39.645  29.340  30.440  1.00  0.00     0.031 A 
ATOM     40  C   UNL A   1      40.450  29.949  31.553  1.00  0.00     0.074 A 
ATOM     41  C   UNL A   1      40.117  28.276  29.764  1.00  0.00     0.049 A 
ATOM     42  N   UNL A   1      41.654  29.653  31.968  1.00  0.00    -0.248 NA
ATOM     43  C   UNL A   1      39.827  31.078  32.260  1.00  0.00     0.031 C 
ATOM     44  C   UNL A   1      39.450  27.627  28.633  1.00  0.00     0.029 A 
ATOM     45  N   UNL A   1      41.288  27.572  29.906  1.00  0.00    -0.354 N 
ATOM     46  C   UNL A   1      41.949  30.583  32.959  1.00  0.00     0.074 A 
ATOM     47  C   UNL A   1      40.819  31.485  33.036  1.00  0.00     0.031 C 
ATOM     48  C   UNL A   1      40.223  26.626  28.182  1.00  0.00     0.029 A 
ATOM     49  C   UNL A   1      41.460  26.592  28.956  1.00  0.00     0.049 A 
ATOM     50  H   UNL A   1      41.941  27.752  30.620  1.00  0.00     0.167 HD
ATOM     51  C   UNL A   1      43.053  30.664  33.743  1.00  0.00     0.034 A 
ATOM     52  C   UNL A   1      42.508  25.778  28.715  1.00  0.00     0.034 A 
ATOM     53  C   UNL A   1      44.156  29.737  33.662  1.00  0.00     0.049 A 
ATOM     54  C   UNL A   1      43.726  25.877  29.597  1.00  0.00     0.074 A 
ATOM     55  C   UNL A   1      45.283  29.666  34.460  1.00  0.00     0.029 A 
ATOM     56  N   UNL A   1      44.274  28.725  32.718  1.00  0.00    -0.354 N 
ATOM     57  N   UNL A   1      43.970  26.719  30.573  1.00  0.00    -0.248 NA
ATOM     58  C   UNL A   1      44.805  24.910  29.352  1.00  0.00     0.031 C 
ATOM     59  C   UNL A   1      46.112  28.657  33.958  1.00  0.00     0.029 A 
ATOM     60  C   UNL A   1      45.469  28.047  32.893  1.00  0.00     0.049 A 
ATOM     61  H   UNL A   1      43.606  28.519  32.025  1.00  0.00     0.167 HD
ATOM     62  C   UNL A   1      45.218  26.367  31.078  1.00  0.00     0.074 A 
ATOM     63  C   UNL A   1      45.676  25.236  30.297  1.00  0.00     0.031 C 
ATOM     64  C   UNL A   1      45.915  26.923  32.100  1.00  0.00     0.034 A 
BRANCH  51  65
ATOM     65  C   UNL A   1      43.122  31.813  34.721  1.00  0.00     0.023 A 
ATOM     66  C   UNL A   1      42.651  31.691  36.041  1.00  0.00     0.031 A 
ATOM     67  C   UNL A   1      43.602  33.070  34.312  1.00  0.00     0.131 A 
ATOM     68  C   UNL A   1      42.565  32.824  36.862  1.00  0.00     0.055 A 
ATOM     69  C   UNL A   1      43.606  34.172  35.169  1.00  0.00     0.041 A 
ATOM     70  F   UNL A   1      44.050  33.257  33.060  1.00  0.00    -0.206 F 
ATOM     71  C   UNL A   1      43.063  34.059  36.446  1.00  0.00     0.022 A 
BRANCH  68  72
ATOM     72  S   UNL A   1      41.618  32.698  38.405  1.00  0.00     0.124 S 
ATOM     73  O   UNL A   1      40.283  32.374  37.906  1.00  0.00    -0.237 OA
ATOM     74  O   UNL A   1      42.312  31.630  39.115  1.00  0.00    -0.237 OA
ATOM     75  O   UNL A   1      41.747  34.028  38.996  1.00  0.00    -0.744 OA
ENDBRANCH  68  72
ENDBRANCH  51  65
BRANCH  52  76
ATOM     76  C   UNL A   1      42.460  24.825  27.572  1.00  0.00     0.023 A 
ATOM     77  C   UNL A   1      41.744  23.621  27.657  1.00  0.00     0.031 A 
ATOM     78  C   UNL A   1      43.127  25.114  26.368  1.00  0.00     0.131 A 
ATOM     79  C   UNL A   1      41.733  22.738  26.566  1.00  0.00     0.055 A 
ATOM     80  C   UNL A   1      43.081  24.252  25.273  1.00  0.00     0.041 A 
ATOM     81  F   UNL A   1      43.817  26.260  26.234  1.00  0.00    -0.206 F 
ATOM     82  C   UNL A   1      42.387  23.050  25.371  1.00  0.00     0.022 A 
BRANCH  79  83
ATOM     83  S   UNL A   1      40.882  21.146  26.743  1.00  0.00     0.124 S 
ATOM     84  O   UNL A   1      39.660  21.376  25.982  1.00  0.00    -0.237 OA
ATOM     85  O   UNL A   1      41.843  20.220  26.151  1.00  0.00    -0.237 OA
ATOM     86  O   UNL A   1      40.703  21.012  28.187  1.00  0.00    -0.744 OA
ENDBRANCH  79  83
ENDBRANCH  52  76
BRANCH  64  87
ATOM     87  C   UNL A   1      47.227  26.281  32.473  1.00  0.00     0.023 A 
ATOM     88  C   UNL A   1      47.306  25.246  33.421  1.00  0.00     0.031 A 
ATOM     89  C   UNL A   1      48.412  26.694  31.838  1.00  0.00     0.131 A 
ATOM     90  C   UNL A   1      48.552  24.677  33.727  1.00  0.00     0.055 A 
ATOM     91  C   UNL A   1      49.640  26.092  32.113  1.00  0.00     0.041 A 
ATOM     92  F   UNL A   1      48.390  27.679  30.927  1.00  0.00    -0.206 F 
ATOM     93  C   UNL A   1      49.716  25.081  33.065  1.00  0.00     0.022 A 
BRANCH  90  94
ATOM     94  S   UNL A   1      48.646  23.423  35.035  1.00  0.00     0.124 S 
ATOM     95  O   UNL A   1      47.647  22.454  34.596  1.00  0.00    -0.237 OA
ATOM     96  O   UNL A   1      50.036  22.987  34.954  1.00  0.00    -0.237 OA
ATOM     97  O   UNL A   1      48.300  24.165  36.246  1.00  0.00    -0.744 OA
ENDBRANCH  90  94
ENDBRANCH  64  87
ENDBRANCH  38  39
ENDBRANCH  30  33
ENDBRANCH  28  29
ENDBRANCH  27  28
ENDBRANCH   1  27
TORSDOF 17
ENDMDL
