MODEL 1
REMARK VINA RESULT:     -11.2      0.000      0.000
REMARK SMILES CC[C@](C)(NC(=O)CCSc1ccccc1Cl)C(=O)NCCCCNC(=O)c1ccc(-c2c3nc(c(-c4cc(S(=O)(=O)[O-])ccc4F)c4ccc([nH]4)c(-c4cc(S(=O)(=O)[O-])ccc4F)c4nc(c(-c5cc(S(=O)(=O)[O-])ccc5F)c5ccc2[nH]5)C=C4)C=C3)cc1
REMARK SMILES IDX 21 1 20 2 18 3 19 4 3 6 4 7 2 8 1 9 5 10 6 11 7 13 8 14 9 15
REMARK SMILES IDX 10 16 11 17 12 18 16 19 13 20 15 21 17 22 14 23 22 24 23 25
REMARK SMILES IDX 24 26 25 27 26 28 27 30 28 31 29 32 90 33 30 34 89 35 31 36
REMARK SMILES IDX 32 37 33 38 83 39 34 40 88 41 82 42 84 43 35 44 87 45 81 46
REMARK SMILES IDX 80 47 36 49 68 50 48 51 67 52 49 53 52 54 66 55 85 56 50 57
REMARK SMILES IDX 51 58 65 60 86 61 53 62 37 63 38 64 46 65 39 66 45 67 47 68
REMARK SMILES IDX 44 69 40 70 41 71 42 72 43 73 69 74 70 75 78 76 71 77 77 78
REMARK SMILES IDX 79 79 76 80 72 81 73 82 74 83 75 84 54 85 55 86 63 87 56 88
REMARK SMILES IDX 62 89 64 90 61 91 57 92 58 93 59 94 60 95
REMARK H PARENT 20 5 5 12 25 29 84 48 52 59
REMARK Flexibility Score: inf
ROOT
ATOM      1  C   UNL A   1      32.470  29.686  25.457  1.00  0.00     0.116 C 
ENDROOT
BRANCH   1   2
ATOM      2  N   UNL A   1      31.316  29.996  24.632  1.00  0.00    -0.354 N 
ATOM      3  C   UNL A   1      30.484  29.186  23.915  1.00  0.00     0.245 C 
ATOM      4  O   UNL A   1      29.460  29.705  23.458  1.00  0.00    -0.272 OA
ATOM      5  H   UNL A   1      31.095  30.954  24.583  1.00  0.00     0.163 HD
BRANCH   3   6
ATOM      6  C   UNL A   1      30.748  27.656  23.785  1.00  0.00     0.116 C 
ATOM      7  C   UNL A   1      29.527  26.995  23.130  1.00  0.00     0.045 C 
BRANCH   6   8
ATOM      8  C   UNL A   1      30.950  27.090  25.238  1.00  0.00     0.035 C 
ATOM      9  C   UNL A   1      30.050  25.934  25.673  1.00  0.00     0.007 C 
ENDBRANCH   6   8
BRANCH   6  10
ATOM     10  N   UNL A   1      32.004  27.480  23.007  1.00  0.00    -0.342 N 
ATOM     11  C   UNL A   1      32.515  26.435  22.295  1.00  0.00     0.221 C 
ATOM     12  H   UNL A   1      32.582  28.276  23.006  1.00  0.00     0.164 HD
ATOM     13  O   UNL A   1      33.513  26.604  21.588  1.00  0.00    -0.275 OA
BRANCH  11  14
ATOM     14  C   UNL A   1      31.929  25.072  22.356  1.00  0.00     0.111 C 
BRANCH  14  15
ATOM     15  C   UNL A   1      32.613  24.308  23.485  1.00  0.00     0.085 C 
BRANCH  15  16
ATOM     16  S   UNL A   1      34.052  23.286  22.982  1.00  0.00    -0.124 SA
BRANCH  16  17
ATOM     17  C   UNL A   1      35.273  23.260  24.477  1.00  0.00     0.026 A 
ATOM     18  C   UNL A   1      36.519  23.035  23.858  1.00  0.00     0.016 A 
ATOM     19  C   UNL A   1      34.961  22.404  25.563  1.00  0.00     0.054 A 
ATOM     20  C   UNL A   1      37.256  21.873  24.124  1.00  0.00     0.001 A 
ATOM     21  C   UNL A   1      35.640  21.195  25.763  1.00  0.00     0.022 A 
ATOM     22  Cl  UNL A   1      34.400  23.053  27.083  1.00  0.00    -0.083 Cl
ATOM     23  C   UNL A   1      36.779  20.922  25.024  1.00  0.00     0.002 A 
ENDBRANCH  16  17
ENDBRANCH  15  16
ENDBRANCH  14  15
ENDBRANCH  11  14
ENDBRANCH   6  10
ENDBRANCH   3   6
ENDBRANCH   1   2
BRANCH   1  24
ATOM     24  C   UNL A   1      32.381  30.228  26.882  1.00  0.00     0.023 C 
BRANCH  24  25
ATOM     25  C   UNL A   1      32.045  31.707  26.994  1.00  0.00     0.023 C 
BRANCH  25  26
ATOM     26  C   UNL A   1      33.204  32.544  27.488  1.00  0.00     0.116 C 
BRANCH  26  27
ATOM     27  N   UNL A   1      32.819  33.926  27.744  1.00  0.00    -0.352 N 
ATOM     28  C   UNL A   1      33.275  34.756  28.734  1.00  0.00     0.251 C 
ATOM     29  H   UNL A   1      32.151  34.309  27.132  1.00  0.00     0.163 HD
ATOM     30  O   UNL A   1      32.756  35.851  28.924  1.00  0.00    -0.269 OA
BRANCH  28  31
ATOM     31  C   UNL A   1      34.374  34.269  29.580  1.00  0.00     0.039 A 
ATOM     32  C   UNL A   1      34.096  33.348  30.589  1.00  0.00     0.014 A 
ATOM     33  C   UNL A   1      35.688  34.644  29.285  1.00  0.00     0.014 A 
ATOM     34  C   UNL A   1      35.154  32.761  31.278  1.00  0.00     0.010 A 
ATOM     35  C   UNL A   1      36.738  33.979  29.895  1.00  0.00     0.010 A 
ATOM     36  C   UNL A   1      36.480  33.049  30.913  1.00  0.00    -0.014 A 
BRANCH  36  37
ATOM     37  C   UNL A   1      37.624  32.428  31.619  1.00  0.00     0.031 A 
ATOM     38  C   UNL A   1      38.369  31.304  30.954  1.00  0.00     0.074 A 
ATOM     39  C   UNL A   1      37.940  32.830  32.865  1.00  0.00     0.049 A 
ATOM     40  N   UNL A   1      39.341  30.565  31.418  1.00  0.00    -0.248 NA
ATOM     41  C   UNL A   1      37.928  30.933  29.599  1.00  0.00     0.031 C 
ATOM     42  C   UNL A   1      37.246  33.877  33.619  1.00  0.00     0.029 A 
ATOM     43  N   UNL A   1      38.924  32.405  33.718  1.00  0.00    -0.354 N 
ATOM     44  C   UNL A   1      39.609  29.630  30.425  1.00  0.00     0.074 A 
ATOM     45  C   UNL A   1      38.646  29.846  29.369  1.00  0.00     0.031 C 
ATOM     46  C   UNL A   1      37.852  34.038  34.807  1.00  0.00     0.029 A 
ATOM     47  C   UNL A   1      38.944  33.077  34.919  1.00  0.00     0.049 A 
ATOM     48  H   UNL A   1      39.558  31.685  33.493  1.00  0.00     0.167 HD
ATOM     49  C   UNL A   1      40.592  28.698  30.386  1.00  0.00     0.034 A 
ATOM     50  C   UNL A   1      39.752  32.926  35.986  1.00  0.00     0.034 A 
ATOM     51  C   UNL A   1      41.559  28.528  31.440  1.00  0.00     0.049 A 
ATOM     52  C   UNL A   1      40.838  31.882  35.920  1.00  0.00     0.074 A 
ATOM     53  C   UNL A   1      42.640  27.667  31.488  1.00  0.00     0.029 A 
ATOM     54  N   UNL A   1      41.557  29.233  32.638  1.00  0.00    -0.354 N 
ATOM     55  N   UNL A   1      41.120  31.042  34.949  1.00  0.00    -0.248 NA
ATOM     56  C   UNL A   1      41.721  31.772  37.086  1.00  0.00     0.031 C 
ATOM     57  C   UNL A   1      43.251  27.804  32.739  1.00  0.00     0.029 A 
ATOM     58  C   UNL A   1      42.600  28.806  33.443  1.00  0.00     0.049 A 
ATOM     59  H   UNL A   1      40.909  29.933  32.879  1.00  0.00     0.167 HD
ATOM     60  C   UNL A   1      42.235  30.328  35.376  1.00  0.00     0.074 A 
ATOM     61  C   UNL A   1      42.581  30.848  36.685  1.00  0.00     0.031 C 
ATOM     62  C   UNL A   1      42.918  29.336  34.748  1.00  0.00     0.034 A 
BRANCH  49  63
ATOM     63  C   UNL A   1      40.644  27.794  29.177  1.00  0.00     0.023 A 
ATOM     64  C   UNL A   1      41.584  27.984  28.148  1.00  0.00     0.031 A 
ATOM     65  C   UNL A   1      39.712  26.753  29.029  1.00  0.00     0.131 A 
ATOM     66  C   UNL A   1      41.516  27.207  26.983  1.00  0.00     0.055 A 
ATOM     67  C   UNL A   1      39.707  25.923  27.905  1.00  0.00     0.041 A 
ATOM     68  F   UNL A   1      38.774  26.535  29.964  1.00  0.00    -0.206 F 
ATOM     69  C   UNL A   1      40.602  26.159  26.865  1.00  0.00     0.022 A 
BRANCH  66  70
ATOM     70  S   UNL A   1      42.537  27.687  25.562  1.00  0.00     0.124 S 
ATOM     71  O   UNL A   1      43.829  27.935  26.197  1.00  0.00    -0.237 OA
ATOM     72  O   UNL A   1      42.461  26.510  24.706  1.00  0.00    -0.237 OA
ATOM     73  O   UNL A   1      41.867  28.879  25.046  1.00  0.00    -0.744 OA
ENDBRANCH  66  70
ENDBRANCH  49  63
BRANCH  50  74
ATOM     74  C   UNL A   1      39.579  33.778  37.197  1.00  0.00     0.023 A 
ATOM     75  C   UNL A   1      38.891  33.300  38.322  1.00  0.00     0.031 A 
ATOM     76  C   UNL A   1      40.065  35.098  37.234  1.00  0.00     0.131 A 
ATOM     77  C   UNL A   1      38.663  34.147  39.417  1.00  0.00     0.055 A 
ATOM     78  C   UNL A   1      39.882  35.920  38.348  1.00  0.00     0.041 A 
ATOM     79  F   UNL A   1      40.737  35.604  36.188  1.00  0.00    -0.206 F 
ATOM     80  C   UNL A   1      39.164  35.450  39.443  1.00  0.00     0.022 A 
BRANCH  77  81
ATOM     81  S   UNL A   1      37.621  33.548  40.776  1.00  0.00     0.124 S 
ATOM     82  O   UNL A   1      36.611  32.778  40.059  1.00  0.00    -0.237 OA
ATOM     83  O   UNL A   1      38.572  32.776  41.568  1.00  0.00    -0.237 OA
ATOM     84  O   UNL A   1      37.141  34.777  41.404  1.00  0.00    -0.744 OA
ENDBRANCH  77  81
ENDBRANCH  50  74
BRANCH  62  85
ATOM     85  C   UNL A   1      44.131  28.789  35.456  1.00  0.00     0.023 A 
ATOM     86  C   UNL A   1      44.032  27.748  36.396  1.00  0.00     0.031 A 
ATOM     87  C   UNL A   1      45.404  29.323  35.188  1.00  0.00     0.131 A 
ATOM     88  C   UNL A   1      45.178  27.314  37.078  1.00  0.00     0.055 A 
ATOM     89  C   UNL A   1      46.549  28.843  35.823  1.00  0.00     0.041 A 
ATOM     90  F   UNL A   1      45.554  30.318  34.301  1.00  0.00    -0.206 F 
ATOM     91  C   UNL A   1      46.439  27.841  36.783  1.00  0.00     0.022 A 
BRANCH  88  92
ATOM     92  S   UNL A   1      44.986  26.113  38.423  1.00  0.00     0.124 S 
ATOM     93  O   UNL A   1      43.777  26.592  39.085  1.00  0.00    -0.237 OA
ATOM     94  O   UNL A   1      44.860  24.852  37.700  1.00  0.00    -0.237 OA
ATOM     95  O   UNL A   1      46.218  26.264  39.195  1.00  0.00    -0.744 OA
ENDBRANCH  88  92
ENDBRANCH  62  85
ENDBRANCH  36  37
ENDBRANCH  28  31
ENDBRANCH  26  27
ENDBRANCH  25  26
ENDBRANCH  24  25
ENDBRANCH   1  24
TORSDOF 20
ENDMDL
MODEL 2
REMARK VINA RESULT:     -10.9      1.522      7.938
REMARK SMILES CC[C@](C)(NC(=O)CCSc1ccccc1Cl)C(=O)NCCCCNC(=O)c1ccc(-c2c3nc(c(-c4cc(S(=O)(=O)[O-])ccc4F)c4ccc([nH]4)c(-c4cc(S(=O)(=O)[O-])ccc4F)c4nc(c(-c5cc(S(=O)(=O)[O-])ccc5F)c5ccc2[nH]5)C=C4)C=C3)cc1
REMARK SMILES IDX 21 1 20 2 18 3 19 4 3 6 4 7 2 8 1 9 5 10 6 11 7 13 8 14 9 15
REMARK SMILES IDX 10 16 11 17 12 18 16 19 13 20 15 21 17 22 14 23 22 24 23 25
REMARK SMILES IDX 24 26 25 27 26 28 27 30 28 31 29 32 90 33 30 34 89 35 31 36
REMARK SMILES IDX 32 37 33 38 83 39 34 40 88 41 82 42 84 43 35 44 87 45 81 46
REMARK SMILES IDX 80 47 36 49 68 50 48 51 67 52 49 53 52 54 66 55 85 56 50 57
REMARK SMILES IDX 51 58 65 60 86 61 53 62 37 63 38 64 46 65 39 66 45 67 47 68
REMARK SMILES IDX 44 69 40 70 41 71 42 72 43 73 69 74 70 75 78 76 71 77 77 78
REMARK SMILES IDX 79 79 76 80 72 81 73 82 74 83 75 84 54 85 55 86 63 87 56 88
REMARK SMILES IDX 62 89 64 90 61 91 57 92 58 93 59 94 60 95
REMARK H PARENT 20 5 5 12 25 29 84 48 52 59
REMARK Flexibility Score: inf
ROOT
ATOM      1  C   UNL A   1      32.731  29.668  25.490  1.00  0.00     0.116 C 
ENDROOT
BRANCH   1   2
ATOM      2  N   UNL A   1      31.928  29.753  24.283  1.00  0.00    -0.354 N 
ATOM      3  C   UNL A   1      31.455  28.781  23.450  1.00  0.00     0.245 C 
ATOM      4  O   UNL A   1      30.631  29.129  22.600  1.00  0.00    -0.272 OA
ATOM      5  H   UNL A   1      31.683  30.670  24.020  1.00  0.00     0.163 HD
BRANCH   3   6
ATOM      6  C   UNL A   1      31.840  27.284  23.646  1.00  0.00     0.116 C 
ATOM      7  C   UNL A   1      33.355  27.188  23.882  1.00  0.00     0.045 C 
BRANCH   6   8
ATOM      8  C   UNL A   1      31.453  26.522  22.326  1.00  0.00     0.035 C 
ATOM      9  C   UNL A   1      32.524  25.645  21.681  1.00  0.00     0.007 C 
ENDBRANCH   6   8
BRANCH   6  10
ATOM     10  N   UNL A   1      31.032  26.754  24.777  1.00  0.00    -0.342 N 
ATOM     11  C   UNL A   1      31.213  25.713  25.639  1.00  0.00     0.221 C 
ATOM     12  H   UNL A   1      30.200  27.255  24.935  1.00  0.00     0.164 HD
ATOM     13  O   UNL A   1      30.466  25.587  26.614  1.00  0.00    -0.275 OA
BRANCH  11  14
ATOM     14  C   UNL A   1      32.271  24.691  25.438  1.00  0.00     0.111 C 
BRANCH  14  15
ATOM     15  C   UNL A   1      31.677  23.542  24.629  1.00  0.00     0.085 C 
BRANCH  15  16
ATOM     16  S   UNL A   1      31.939  21.869  25.336  1.00  0.00    -0.124 SA
BRANCH  16  17
ATOM     17  C   UNL A   1      33.168  20.950  24.164  1.00  0.00     0.026 A 
ATOM     18  C   UNL A   1      32.317  20.417  23.176  1.00  0.00     0.016 A 
ATOM     19  C   UNL A   1      34.076  20.035  24.754  1.00  0.00     0.054 A 
ATOM     20  C   UNL A   1      32.196  19.031  23.001  1.00  0.00     0.001 A 
ATOM     21  C   UNL A   1      33.891  18.650  24.656  1.00  0.00     0.022 A 
ATOM     22  Cl  UNL A   1      35.773  20.420  24.892  1.00  0.00    -0.083 Cl
ATOM     23  C   UNL A   1      32.930  18.150  23.791  1.00  0.00     0.002 A 
ENDBRANCH  16  17
ENDBRANCH  15  16
ENDBRANCH  14  15
ENDBRANCH  11  14
ENDBRANCH   6  10
ENDBRANCH   3   6
ENDBRANCH   1   2
BRANCH   1  24
ATOM     24  C   UNL A   1      32.017  30.154  26.749  1.00  0.00     0.023 C 
BRANCH  24  25
ATOM     25  C   UNL A   1      31.779  31.655  26.822  1.00  0.00     0.023 C 
BRANCH  25  26
ATOM     26  C   UNL A   1      32.971  32.420  27.353  1.00  0.00     0.116 C 
BRANCH  26  27
ATOM     27  N   UNL A   1      32.642  33.803  27.676  1.00  0.00    -0.352 N 
ATOM     28  C   UNL A   1      33.192  34.593  28.650  1.00  0.00     0.251 C 
ATOM     29  H   UNL A   1      31.940  34.219  27.127  1.00  0.00     0.163 HD
ATOM     30  O   UNL A   1      32.718  35.694  28.909  1.00  0.00    -0.269 OA
BRANCH  28  31
ATOM     31  C   UNL A   1      34.340  34.055  29.396  1.00  0.00     0.039 A 
ATOM     32  C   UNL A   1      34.108  33.198  30.471  1.00  0.00     0.014 A 
ATOM     33  C   UNL A   1      35.637  34.318  28.946  1.00  0.00     0.014 A 
ATOM     34  C   UNL A   1      35.190  32.559  31.069  1.00  0.00     0.010 A 
ATOM     35  C   UNL A   1      36.697  33.598  29.472  1.00  0.00     0.010 A 
ATOM     36  C   UNL A   1      36.486  32.730  30.553  1.00  0.00    -0.014 A 
BRANCH  36  37
ATOM     37  C   UNL A   1      37.652  32.051  31.162  1.00  0.00     0.031 A 
ATOM     38  C   UNL A   1      38.187  32.555  32.473  1.00  0.00     0.074 A 
ATOM     39  C   UNL A   1      38.254  31.039  30.508  1.00  0.00     0.049 A 
ATOM     40  N   UNL A   1      39.240  32.168  33.142  1.00  0.00    -0.248 NA
ATOM     41  C   UNL A   1      37.463  33.678  33.092  1.00  0.00     0.031 C 
ATOM     42  C   UNL A   1      37.843  30.508  29.206  1.00  0.00     0.029 A 
ATOM     43  N   UNL A   1      39.340  30.276  30.848  1.00  0.00    -0.354 N 
ATOM     44  C   UNL A   1      39.318  33.013  34.243  1.00  0.00     0.074 A 
ATOM     45  C   UNL A   1      38.253  33.981  34.109  1.00  0.00     0.031 C 
ATOM     46  C   UNL A   1      38.645  29.483  28.876  1.00  0.00     0.029 A 
ATOM     47  C   UNL A   1      39.653  29.312  29.918  1.00  0.00     0.049 A 
ATOM     48  H   UNL A   1      39.850  30.407  31.681  1.00  0.00     0.167 HD
ATOM     49  C   UNL A   1      40.181  32.964  35.287  1.00  0.00     0.034 A 
ATOM     50  C   UNL A   1      40.644  28.400  29.911  1.00  0.00     0.034 A 
ATOM     51  C   UNL A   1      41.213  31.966  35.409  1.00  0.00     0.049 A 
ATOM     52  C   UNL A   1      41.593  28.364  31.083  1.00  0.00     0.074 A 
ATOM     53  C   UNL A   1      42.104  31.771  36.448  1.00  0.00     0.029 A 
ATOM     54  N   UNL A   1      41.495  30.997  34.453  1.00  0.00    -0.354 N 
ATOM     55  N   UNL A   1      41.619  29.133  32.149  1.00  0.00    -0.248 NA
ATOM     56  C   UNL A   1      42.636  27.334  31.056  1.00  0.00     0.031 C 
ATOM     57  C   UNL A   1      42.965  30.727  36.093  1.00  0.00     0.029 A 
ATOM     58  C   UNL A   1      42.564  30.220  34.866  1.00  0.00     0.049 A 
ATOM     59  H   UNL A   1      41.006  30.880  33.608  1.00  0.00     0.167 HD
ATOM     60  C   UNL A   1      42.662  28.654  32.935  1.00  0.00     0.074 A 
ATOM     61  C   UNL A   1      43.228  27.522  32.226  1.00  0.00     0.031 C 
ATOM     62  C   UNL A   1      43.114  29.101  34.136  1.00  0.00     0.034 A 
BRANCH  49  63
ATOM     63  C   UNL A   1      40.046  34.028  36.350  1.00  0.00     0.023 A 
ATOM     64  C   UNL A   1      39.653  33.718  37.665  1.00  0.00     0.031 A 
ATOM     65  C   UNL A   1      40.271  35.379  36.035  1.00  0.00     0.131 A 
ATOM     66  C   UNL A   1      39.413  34.746  38.587  1.00  0.00     0.055 A 
ATOM     67  C   UNL A   1      40.117  36.392  36.984  1.00  0.00     0.041 A 
ATOM     68  F   UNL A   1      40.625  35.742  34.793  1.00  0.00    -0.206 F 
ATOM     69  C   UNL A   1      39.668  36.080  38.265  1.00  0.00     0.022 A 
BRANCH  66  70
ATOM     70  S   UNL A   1      38.613  34.328  40.161  1.00  0.00     0.124 S 
ATOM     71  O   UNL A   1      39.630  33.492  40.795  1.00  0.00    -0.237 OA
ATOM     72  O   UNL A   1      38.395  35.638  40.763  1.00  0.00    -0.237 OA
ATOM     73  O   UNL A   1      37.402  33.619  39.753  1.00  0.00    -0.744 OA
ENDBRANCH  66  70
ENDBRANCH  49  63
BRANCH  50  74
ATOM     74  C   UNL A   1      40.790  27.445  28.775  1.00  0.00     0.023 A 
ATOM     75  C   UNL A   1      41.768  27.645  27.789  1.00  0.00     0.031 A 
ATOM     76  C   UNL A   1      39.930  26.341  28.637  1.00  0.00     0.131 A 
ATOM     77  C   UNL A   1      41.832  26.785  26.682  1.00  0.00     0.055 A 
ATOM     78  C   UNL A   1      40.034  25.456  27.562  1.00  0.00     0.041 A 
ATOM     79  F   UNL A   1      38.983  26.098  29.556  1.00  0.00    -0.206 F 
ATOM     80  C   UNL A   1      40.980  25.685  26.567  1.00  0.00     0.022 A 
BRANCH  77  81
ATOM     81  S   UNL A   1      42.993  27.177  25.343  1.00  0.00     0.124 S 
ATOM     82  O   UNL A   1      44.183  27.570  26.089  1.00  0.00    -0.237 OA
ATOM     83  O   UNL A   1      43.072  25.908  24.630  1.00  0.00    -0.237 OA
ATOM     84  O   UNL A   1      42.325  28.257  24.619  1.00  0.00    -0.744 OA
ENDBRANCH  77  81
ENDBRANCH  50  74
BRANCH  62  85
ATOM     85  C   UNL A   1      44.243  28.331  34.770  1.00  0.00     0.023 A 
ATOM     86  C   UNL A   1      44.017  27.151  35.500  1.00  0.00     0.031 A 
ATOM     87  C   UNL A   1      45.567  28.790  34.644  1.00  0.00     0.131 A 
ATOM     88  C   UNL A   1      45.090  26.503  36.127  1.00  0.00     0.055 A 
ATOM     89  C   UNL A   1      46.638  28.105  35.216  1.00  0.00     0.041 A 
ATOM     90  F   UNL A   1      45.839  29.911  33.959  1.00  0.00    -0.206 F 
ATOM     91  C   UNL A   1      46.402  26.961  35.974  1.00  0.00     0.022 A 
BRANCH  88  92
ATOM     92  S   UNL A   1      44.739  25.102  37.224  1.00  0.00     0.124 S 
ATOM     93  O   UNL A   1      46.021  24.406  37.244  1.00  0.00    -0.237 OA
ATOM     94  O   UNL A   1      44.355  25.766  38.465  1.00  0.00    -0.237 OA
ATOM     95  O   UNL A   1      43.658  24.394  36.540  1.00  0.00    -0.744 OA
ENDBRANCH  88  92
ENDBRANCH  62  85
ENDBRANCH  36  37
ENDBRANCH  28  31
ENDBRANCH  26  27
ENDBRANCH  25  26
ENDBRANCH  24  25
ENDBRANCH   1  24
TORSDOF 20
ENDMDL
MODEL 3
REMARK VINA RESULT:     -10.7      2.294      7.884
REMARK SMILES CC[C@](C)(NC(=O)CCSc1ccccc1Cl)C(=O)NCCCCNC(=O)c1ccc(-c2c3nc(c(-c4cc(S(=O)(=O)[O-])ccc4F)c4ccc([nH]4)c(-c4cc(S(=O)(=O)[O-])ccc4F)c4nc(c(-c5cc(S(=O)(=O)[O-])ccc5F)c5ccc2[nH]5)C=C4)C=C3)cc1
REMARK SMILES IDX 21 1 20 2 18 3 19 4 3 6 4 7 2 8 1 9 5 10 6 11 7 13 8 14 9 15
REMARK SMILES IDX 10 16 11 17 12 18 16 19 13 20 15 21 17 22 14 23 22 24 23 25
REMARK SMILES IDX 24 26 25 27 26 28 27 30 28 31 29 32 90 33 30 34 89 35 31 36
REMARK SMILES IDX 32 37 33 38 83 39 34 40 88 41 82 42 84 43 35 44 87 45 81 46
REMARK SMILES IDX 80 47 36 49 68 50 48 51 67 52 49 53 52 54 66 55 85 56 50 57
REMARK SMILES IDX 51 58 65 60 86 61 53 62 37 63 38 64 46 65 39 66 45 67 47 68
REMARK SMILES IDX 44 69 40 70 41 71 42 72 43 73 69 74 70 75 78 76 71 77 77 78
REMARK SMILES IDX 79 79 76 80 72 81 73 82 74 83 75 84 54 85 55 86 63 87 56 88
REMARK SMILES IDX 62 89 64 90 61 91 57 92 58 93 59 94 60 95
REMARK H PARENT 20 5 5 12 25 29 84 48 52 59
REMARK Flexibility Score: inf
ROOT
ATOM      1  C   UNL A   1      32.843  29.717  25.570  1.00  0.00     0.116 C 
ENDROOT
BRANCH   1   2
ATOM      2  N   UNL A   1      32.169  29.723  24.284  1.00  0.00    -0.354 N 
ATOM      3  C   UNL A   1      31.798  28.699  23.462  1.00  0.00     0.245 C 
ATOM      4  O   UNL A   1      31.062  28.987  22.513  1.00  0.00    -0.272 OA
ATOM      5  H   UNL A   1      31.941  30.620  23.947  1.00  0.00     0.163 HD
BRANCH   3   6
ATOM      6  C   UNL A   1      32.178  27.222  23.778  1.00  0.00     0.116 C 
ATOM      7  C   UNL A   1      33.707  27.081  23.724  1.00  0.00     0.045 C 
BRANCH   6   8
ATOM      8  C   UNL A   1      31.517  26.319  22.673  1.00  0.00     0.035 C 
ATOM      9  C   UNL A   1      30.504  25.273  23.135  1.00  0.00     0.007 C 
ENDBRANCH   6   8
BRANCH   6  10
ATOM     10  N   UNL A   1      31.600  26.881  25.106  1.00  0.00    -0.342 N 
ATOM     11  C   UNL A   1      32.035  26.096  26.133  1.00  0.00     0.221 C 
ATOM     12  H   UNL A   1      30.730  27.308  25.277  1.00  0.00     0.164 HD
ATOM     13  O   UNL A   1      31.439  26.116  27.214  1.00  0.00    -0.275 OA
BRANCH  11  14
ATOM     14  C   UNL A   1      33.196  25.181  25.996  1.00  0.00     0.111 C 
BRANCH  14  15
ATOM     15  C   UNL A   1      32.722  23.760  26.285  1.00  0.00     0.085 C 
BRANCH  15  16
ATOM     16  S   UNL A   1      34.053  22.506  26.441  1.00  0.00    -0.124 SA
BRANCH  16  17
ATOM     17  C   UNL A   1      34.265  21.693  24.703  1.00  0.00     0.026 A 
ATOM     18  C   UNL A   1      35.096  22.610  24.030  1.00  0.00     0.016 A 
ATOM     19  C   UNL A   1      33.088  21.307  24.013  1.00  0.00     0.054 A 
ATOM     20  C   UNL A   1      34.644  23.291  22.891  1.00  0.00     0.001 A 
ATOM     21  C   UNL A   1      32.590  22.051  22.936  1.00  0.00     0.022 A 
ATOM     22  Cl  UNL A   1      32.660  19.622  23.845  1.00  0.00    -0.083 Cl
ATOM     23  C   UNL A   1      33.365  23.062  22.389  1.00  0.00     0.002 A 
ENDBRANCH  16  17
ENDBRANCH  15  16
ENDBRANCH  14  15
ENDBRANCH  11  14
ENDBRANCH   6  10
ENDBRANCH   3   6
ENDBRANCH   1   2
BRANCH   1  24
ATOM     24  C   UNL A   1      31.981  30.218  26.727  1.00  0.00     0.023 C 
BRANCH  24  25
ATOM     25  C   UNL A   1      31.794  31.726  26.791  1.00  0.00     0.023 C 
BRANCH  25  26
ATOM     26  C   UNL A   1      32.981  32.447  27.390  1.00  0.00     0.116 C 
BRANCH  26  27
ATOM     27  N   UNL A   1      32.676  33.833  27.724  1.00  0.00    -0.352 N 
ATOM     28  C   UNL A   1      33.227  34.600  28.717  1.00  0.00     0.251 C 
ATOM     29  H   UNL A   1      31.990  34.270  27.170  1.00  0.00     0.163 HD
ATOM     30  O   UNL A   1      32.771  35.707  28.981  1.00  0.00    -0.269 OA
BRANCH  28  31
ATOM     31  C   UNL A   1      34.352  34.030  29.473  1.00  0.00     0.039 A 
ATOM     32  C   UNL A   1      34.086  33.166  30.534  1.00  0.00     0.014 A 
ATOM     33  C   UNL A   1      35.661  34.269  29.044  1.00  0.00     0.014 A 
ATOM     34  C   UNL A   1      35.145  32.497  31.141  1.00  0.00     0.010 A 
ATOM     35  C   UNL A   1      36.697  33.522  29.577  1.00  0.00     0.010 A 
ATOM     36  C   UNL A   1      36.452  32.646  30.646  1.00  0.00    -0.014 A 
BRANCH  36  37
ATOM     37  C   UNL A   1      37.594  31.936  31.263  1.00  0.00     0.031 A 
ATOM     38  C   UNL A   1      38.096  32.390  32.607  1.00  0.00     0.074 A 
ATOM     39  C   UNL A   1      38.207  30.942  30.593  1.00  0.00     0.049 A 
ATOM     40  N   UNL A   1      39.126  31.970  33.291  1.00  0.00    -0.248 NA
ATOM     41  C   UNL A   1      37.363  33.497  33.243  1.00  0.00     0.031 C 
ATOM     42  C   UNL A   1      37.830  30.460  29.261  1.00  0.00     0.029 A 
ATOM     43  N   UNL A   1      39.277  30.158  30.937  1.00  0.00    -0.354 N 
ATOM     44  C   UNL A   1      39.179  32.776  34.422  1.00  0.00     0.074 A 
ATOM     45  C   UNL A   1      38.126  33.758  34.292  1.00  0.00     0.031 C 
ATOM     46  C   UNL A   1      38.632  29.439  28.920  1.00  0.00     0.029 A 
ATOM     47  C   UNL A   1      39.608  29.223  29.983  1.00  0.00     0.049 A 
ATOM     48  H   UNL A   1      39.764  30.255  31.788  1.00  0.00     0.167 HD
ATOM     49  C   UNL A   1      40.011  32.683  35.488  1.00  0.00     0.034 A 
ATOM     50  C   UNL A   1      40.591  28.303  29.973  1.00  0.00     0.034 A 
ATOM     51  C   UNL A   1      41.031  31.672  35.605  1.00  0.00     0.049 A 
ATOM     52  C   UNL A   1      41.506  28.218  31.169  1.00  0.00     0.074 A 
ATOM     53  C   UNL A   1      41.890  31.433  36.662  1.00  0.00     0.029 A 
ATOM     54  N   UNL A   1      41.332  30.734  34.625  1.00  0.00    -0.354 N 
ATOM     55  N   UNL A   1      41.508  28.949  32.262  1.00  0.00    -0.248 NA
ATOM     56  C   UNL A   1      42.541  27.180  31.136  1.00  0.00     0.031 C 
ATOM     57  C   UNL A   1      42.752  30.394  36.295  1.00  0.00     0.029 A 
ATOM     58  C   UNL A   1      42.383  29.933  35.040  1.00  0.00     0.049 A 
ATOM     59  H   UNL A   1      40.867  30.651  33.762  1.00  0.00     0.167 HD
ATOM     60  C   UNL A   1      42.524  28.434  33.060  1.00  0.00     0.074 A 
ATOM     61  C   UNL A   1      43.100  27.322  32.329  1.00  0.00     0.031 C 
ATOM     62  C   UNL A   1      42.944  28.835  34.288  1.00  0.00     0.034 A 
BRANCH  49  63
ATOM     63  C   UNL A   1      39.854  33.711  36.583  1.00  0.00     0.023 A 
ATOM     64  C   UNL A   1      40.779  34.757  36.756  1.00  0.00     0.031 A 
ATOM     65  C   UNL A   1      38.790  33.620  37.496  1.00  0.00     0.131 A 
ATOM     66  C   UNL A   1      40.672  35.613  37.862  1.00  0.00     0.055 A 
ATOM     67  C   UNL A   1      38.638  34.531  38.544  1.00  0.00     0.041 A 
ATOM     68  F   UNL A   1      37.888  32.631  37.399  1.00  0.00    -0.206 F 
ATOM     69  C   UNL A   1      39.593  35.525  38.743  1.00  0.00     0.022 A 
BRANCH  66  70
ATOM     70  S   UNL A   1      42.048  36.740  38.220  1.00  0.00     0.124 S 
ATOM     71  O   UNL A   1      42.879  35.920  39.099  1.00  0.00    -0.237 OA
ATOM     72  O   UNL A   1      42.590  37.009  36.894  1.00  0.00    -0.237 OA
ATOM     73  O   UNL A   1      41.399  37.876  38.872  1.00  0.00    -0.744 OA
ENDBRANCH  66  70
ENDBRANCH  49  63
BRANCH  50  74
ATOM     74  C   UNL A   1      40.762  27.387  28.809  1.00  0.00     0.023 A 
ATOM     75  C   UNL A   1      41.719  27.653  27.818  1.00  0.00     0.031 A 
ATOM     76  C   UNL A   1      39.947  26.252  28.649  1.00  0.00     0.131 A 
ATOM     77  C   UNL A   1      41.805  26.827  26.687  1.00  0.00     0.055 A 
ATOM     78  C   UNL A   1      40.073  25.402  27.549  1.00  0.00     0.041 A 
ATOM     79  F   UNL A   1      39.021  25.945  29.571  1.00  0.00    -0.206 F 
ATOM     80  C   UNL A   1      40.997  25.697  26.551  1.00  0.00     0.022 A 
BRANCH  77  81
ATOM     81  S   UNL A   1      42.932  27.304  25.347  1.00  0.00     0.124 S 
ATOM     82  O   UNL A   1      44.155  27.607  26.082  1.00  0.00    -0.237 OA
ATOM     83  O   UNL A   1      42.958  26.096  24.530  1.00  0.00    -0.237 OA
ATOM     84  O   UNL A   1      42.268  28.454  24.736  1.00  0.00    -0.744 OA
ENDBRANCH  77  81
ENDBRANCH  50  74
BRANCH  62  85
ATOM     85  C   UNL A   1      44.049  28.033  34.927  1.00  0.00     0.023 A 
ATOM     86  C   UNL A   1      45.404  28.321  34.691  1.00  0.00     0.031 A 
ATOM     87  C   UNL A   1      43.737  26.960  35.781  1.00  0.00     0.131 A 
ATOM     88  C   UNL A   1      46.397  27.508  35.255  1.00  0.00     0.055 A 
ATOM     89  C   UNL A   1      44.731  26.195  36.391  1.00  0.00     0.041 A 
ATOM     90  F   UNL A   1      42.459  26.642  36.040  1.00  0.00    -0.206 F 
ATOM     91  C   UNL A   1      46.070  26.459  36.119  1.00  0.00     0.022 A 
BRANCH  88  92
ATOM     92  S   UNL A   1      48.124  27.783  34.771  1.00  0.00     0.124 S 
ATOM     93  O   UNL A   1      48.845  27.331  35.956  1.00  0.00    -0.237 OA
ATOM     94  O   UNL A   1      48.253  26.941  33.586  1.00  0.00    -0.237 OA
ATOM     95  O   UNL A   1      48.184  29.221  34.518  1.00  0.00    -0.744 OA
ENDBRANCH  88  92
ENDBRANCH  62  85
ENDBRANCH  36  37
ENDBRANCH  28  31
ENDBRANCH  26  27
ENDBRANCH  25  26
ENDBRANCH  24  25
ENDBRANCH   1  24
TORSDOF 20
ENDMDL
