MODEL 1
REMARK VINA RESULT:     -12.6      0.000      0.000
REMARK SMILES Cc1cc2c(c(C)c1Cl)C=C(C(=O)NCCCCNC(=O)c1ccc(-c3c4nc(c(-c5cc(S(=O)(=O)[O-])ccc5F)c5ccc([nH]5)c(-c5cc(S(=O)(=O)[O-])ccc5F)c5nc(c(-c6cc(S(=O)(=O)[O-])ccc6F)c6ccc3[nH]6)C=C5)C=C4)cc1)[C@H](C(F)(F)F)O2
REMARK SMILES IDX 17 1 16 2 15 3 14 4 12 5 13 6 11 8 1 9 2 10 3 11 8 12 4 13
REMARK SMILES IDX 6 14 9 15 5 16 90 17 7 18 10 19 85 20 86 21 87 22 88 23
REMARK SMILES IDX 89 24 18 25 19 26 20 27 21 29 22 30 23 31 84 32 24 33 83 34
REMARK SMILES IDX 25 35 26 36 27 37 77 38 28 39 82 40 76 41 78 42 29 43 81 44
REMARK SMILES IDX 75 45 74 46 30 48 62 49 42 50 61 51 43 52 46 53 60 54 79 55
REMARK SMILES IDX 44 56 45 57 59 59 80 60 47 61 31 62 32 63 40 64 33 65 39 66
REMARK SMILES IDX 41 67 38 68 34 69 35 70 36 71 37 72 63 73 64 74 72 75 65 76
REMARK SMILES IDX 71 77 73 78 70 79 66 80 67 81 68 82 69 83 48 84 49 85 57 86
REMARK SMILES IDX 50 87 56 88 58 89 55 90 51 91 52 92 53 93 54 94
REMARK H PARENT 14 7 19 28 78 47 46 58
REMARK Flexibility Score: inf
ROOT
ATOM      1  C   UNL A   1      32.125  31.073  26.686  1.00  0.00     0.023 C 
ENDROOT
BRANCH   1   2
ATOM      2  C   UNL A   1      32.203  29.583  27.026  1.00  0.00     0.023 C 
BRANCH   2   3
ATOM      3  C   UNL A   1      33.446  28.879  26.488  1.00  0.00     0.116 C 
BRANCH   3   4
ATOM      4  N   UNL A   1      33.670  29.185  25.087  1.00  0.00    -0.352 N 
ATOM      5  C   UNL A   1      33.515  28.549  23.905  1.00  0.00     0.251 C 
ATOM      6  O   UNL A   1      33.772  29.231  22.905  1.00  0.00    -0.270 OA
ATOM      7  H   UNL A   1      34.030  30.094  24.968  1.00  0.00     0.163 HD
BRANCH   5   8
ATOM      8  C   UNL A   1      33.080  27.131  23.730  1.00  0.00     0.067 C 
ATOM      9  C   UNL A   1      32.291  20.680  23.841  1.00  0.00     0.046 C 
ATOM     10  C   UNL A   1      32.826  22.086  23.920  1.00  0.00    -0.028 A 
ATOM     11  C   UNL A   1      32.070  23.097  23.317  1.00  0.00     0.052 A 
ATOM     12  C   UNL A   1      33.996  22.439  24.624  1.00  0.00     0.047 A 
ATOM     13  C   UNL A   1      32.464  24.427  23.408  1.00  0.00     0.128 A 
ATOM     14  C   UNL A   1      34.430  23.786  24.688  1.00  0.00    -0.021 A 
ATOM     15  Cl  UNL A   1      34.894  21.189  25.431  1.00  0.00    -0.084 Cl
ATOM     16  C   UNL A   1      33.640  24.787  24.070  1.00  0.00     0.022 A 
ATOM     17  O   UNL A   1      31.650  25.335  22.788  1.00  0.00    -0.475 OA
ATOM     18  C   UNL A   1      35.697  24.186  25.412  1.00  0.00     0.047 C 
ATOM     19  C   UNL A   1      33.996  26.209  24.081  1.00  0.00     0.026 C 
ATOM     20  C   UNL A   1      31.706  26.692  23.309  1.00  0.00     0.314 C 
BRANCH  20  21
ATOM     21  C   UNL A   1      30.629  26.892  24.389  1.00  0.00     0.429 C 
ATOM     22  F   UNL A   1      29.602  26.021  24.273  1.00  0.00    -0.167 F 
ATOM     23  F   UNL A   1      31.113  26.760  25.644  1.00  0.00    -0.167 F 
ATOM     24  F   UNL A   1      30.103  28.141  24.297  1.00  0.00    -0.167 F 
ENDBRANCH  20  21
ENDBRANCH   5   8
ENDBRANCH   3   4
ENDBRANCH   2   3
ENDBRANCH   1   2
BRANCH   1  25
ATOM     25  C   UNL A   1      33.093  31.964  27.455  1.00  0.00     0.116 C 
BRANCH  25  26
ATOM     26  N   UNL A   1      32.653  33.349  27.562  1.00  0.00    -0.352 N 
ATOM     27  C   UNL A   1      33.137  34.326  28.400  1.00  0.00     0.251 C 
ATOM     28  H   UNL A   1      31.920  33.618  26.963  1.00  0.00     0.163 HD
ATOM     29  O   UNL A   1      32.618  35.435  28.432  1.00  0.00    -0.269 OA
BRANCH  27  30
ATOM     30  C   UNL A   1      34.261  33.984  29.291  1.00  0.00     0.039 A 
ATOM     31  C   UNL A   1      33.995  33.277  30.465  1.00  0.00     0.014 A 
ATOM     32  C   UNL A   1      35.572  34.262  28.898  1.00  0.00     0.014 A 
ATOM     33  C   UNL A   1      35.061  32.773  31.209  1.00  0.00     0.010 A 
ATOM     34  C   UNL A   1      36.630  33.703  29.607  1.00  0.00     0.010 A 
ATOM     35  C   UNL A   1      36.382  32.946  30.762  1.00  0.00    -0.014 A 
BRANCH  35  36
ATOM     36  C   UNL A   1      37.515  32.334  31.494  1.00  0.00     0.031 A 
ATOM     37  C   UNL A   1      38.279  31.201  30.872  1.00  0.00     0.074 A 
ATOM     38  C   UNL A   1      37.826  32.773  32.729  1.00  0.00     0.049 A 
ATOM     39  N   UNL A   1      39.272  30.506  31.365  1.00  0.00    -0.248 NA
ATOM     40  C   UNL A   1      37.849  30.775  29.532  1.00  0.00     0.031 C 
ATOM     41  C   UNL A   1      37.128  33.840  33.449  1.00  0.00     0.029 A 
ATOM     42  N   UNL A   1      38.817  32.383  33.592  1.00  0.00    -0.354 N 
ATOM     43  C   UNL A   1      39.583  29.559  30.397  1.00  0.00     0.074 A 
ATOM     44  C   UNL A   1      38.630  29.727  29.320  1.00  0.00     0.031 C 
ATOM     45  C   UNL A   1      37.744  34.052  34.625  1.00  0.00     0.029 A 
ATOM     46  C   UNL A   1      38.857  33.118  34.754  1.00  0.00     0.049 A 
ATOM     47  H   UNL A   1      39.441  31.646  33.399  1.00  0.00     0.167 HD
ATOM     48  C   UNL A   1      40.591  28.654  30.391  1.00  0.00     0.034 A 
ATOM     49  C   UNL A   1      39.704  33.049  35.800  1.00  0.00     0.034 A 
ATOM     50  C   UNL A   1      41.546  28.510  31.459  1.00  0.00     0.049 A 
ATOM     51  C   UNL A   1      40.805  32.026  35.781  1.00  0.00     0.074 A 
ATOM     52  C   UNL A   1      42.624  27.649  31.543  1.00  0.00     0.029 A 
ATOM     53  N   UNL A   1      41.538  29.255  32.630  1.00  0.00    -0.354 N 
ATOM     54  N   UNL A   1      41.087  31.138  34.857  1.00  0.00    -0.248 NA
ATOM     55  C   UNL A   1      41.700  31.995  36.946  1.00  0.00     0.031 C 
ATOM     56  C   UNL A   1      43.246  27.846  32.782  1.00  0.00     0.029 A 
ATOM     57  C   UNL A   1      42.583  28.864  33.449  1.00  0.00     0.049 A 
ATOM     58  H   UNL A   1      40.884  29.959  32.847  1.00  0.00     0.167 HD
ATOM     59  C   UNL A   1      42.203  30.452  35.322  1.00  0.00     0.074 A 
ATOM     60  C   UNL A   1      42.543  31.028  36.608  1.00  0.00     0.031 C 
ATOM     61  C   UNL A   1      42.889  29.440  34.735  1.00  0.00     0.034 A 
BRANCH  48  62
ATOM     62  C   UNL A   1      40.690  27.753  29.188  1.00  0.00     0.023 A 
ATOM     63  C   UNL A   1      41.620  28.009  28.166  1.00  0.00     0.031 A 
ATOM     64  C   UNL A   1      39.819  26.663  29.035  1.00  0.00     0.131 A 
ATOM     65  C   UNL A   1      41.605  27.233  26.999  1.00  0.00     0.055 A 
ATOM     66  C   UNL A   1      39.859  25.847  27.904  1.00  0.00     0.041 A 
ATOM     67  F   UNL A   1      38.898  26.387  29.973  1.00  0.00    -0.206 F 
ATOM     68  C   UNL A   1      40.746  26.138  26.870  1.00  0.00     0.022 A 
BRANCH  65  69
ATOM     69  S   UNL A   1      42.638  27.749  25.602  1.00  0.00     0.124 S 
ATOM     70  O   UNL A   1      43.910  28.022  26.266  1.00  0.00    -0.237 OA
ATOM     71  O   UNL A   1      42.609  26.578  24.733  1.00  0.00    -0.237 OA
ATOM     72  O   UNL A   1      41.946  28.927  25.082  1.00  0.00    -0.744 OA
ENDBRANCH  65  69
ENDBRANCH  48  62
BRANCH  49  73
ATOM     73  C   UNL A   1      39.553  33.989  36.940  1.00  0.00     0.023 A 
ATOM     74  C   UNL A   1      38.960  33.567  38.140  1.00  0.00     0.031 A 
ATOM     75  C   UNL A   1      40.007  35.316  36.852  1.00  0.00     0.131 A 
ATOM     76  C   UNL A   1      38.815  34.473  39.201  1.00  0.00     0.055 A 
ATOM     77  C   UNL A   1      39.884  36.205  37.919  1.00  0.00     0.041 A 
ATOM     78  F   UNL A   1      40.595  35.756  35.728  1.00  0.00    -0.206 F 
ATOM     79  C   UNL A   1      39.280  35.786  39.102  1.00  0.00     0.022 A 
BRANCH  76  80
ATOM     80  S   UNL A   1      37.999  33.911  40.721  1.00  0.00     0.124 S 
ATOM     81  O   UNL A   1      36.855  33.179  40.190  1.00  0.00    -0.237 OA
ATOM     82  O   UNL A   1      39.042  33.105  41.348  1.00  0.00    -0.237 OA
ATOM     83  O   UNL A   1      37.679  35.156  41.415  1.00  0.00    -0.744 OA
ENDBRANCH  76  80
ENDBRANCH  49  73
BRANCH  61  84
ATOM     84  C   UNL A   1      44.087  28.910  35.470  1.00  0.00     0.023 A 
ATOM     85  C   UNL A   1      43.965  27.870  36.407  1.00  0.00     0.031 A 
ATOM     86  C   UNL A   1      45.365  29.425  35.200  1.00  0.00     0.131 A 
ATOM     87  C   UNL A   1      45.109  27.391  37.061  1.00  0.00     0.055 A 
ATOM     88  C   UNL A   1      46.503  28.920  35.827  1.00  0.00     0.041 A 
ATOM     89  F   UNL A   1      45.526  30.415  34.308  1.00  0.00    -0.206 F 
ATOM     90  C   UNL A   1      46.378  27.899  36.767  1.00  0.00     0.022 A 
BRANCH  87  91
ATOM     91  S   UNL A   1      44.921  26.095  38.315  1.00  0.00     0.124 S 
ATOM     92  O   UNL A   1      43.784  26.585  39.087  1.00  0.00    -0.237 OA
ATOM     93  O   UNL A   1      44.677  24.903  37.507  1.00  0.00    -0.237 OA
ATOM     94  O   UNL A   1      46.203  26.110  39.017  1.00  0.00    -0.744 OA
ENDBRANCH  87  91
ENDBRANCH  61  84
ENDBRANCH  35  36
ENDBRANCH  27  30
ENDBRANCH  25  26
ENDBRANCH   1  25
TORSDOF 15
ENDMDL
MODEL 2
REMARK VINA RESULT:     -12.6      5.772      8.761
REMARK SMILES Cc1cc2c(c(C)c1Cl)C=C(C(=O)NCCCCNC(=O)c1ccc(-c3c4nc(c(-c5cc(S(=O)(=O)[O-])ccc5F)c5ccc([nH]5)c(-c5cc(S(=O)(=O)[O-])ccc5F)c5nc(c(-c6cc(S(=O)(=O)[O-])ccc6F)c6ccc3[nH]6)C=C5)C=C4)cc1)[C@H](C(F)(F)F)O2
REMARK SMILES IDX 17 1 16 2 15 3 14 4 12 5 13 6 11 8 1 9 2 10 3 11 8 12 4 13
REMARK SMILES IDX 6 14 9 15 5 16 90 17 7 18 10 19 85 20 86 21 87 22 88 23
REMARK SMILES IDX 89 24 18 25 19 26 20 27 21 29 22 30 23 31 84 32 24 33 83 34
REMARK SMILES IDX 25 35 26 36 27 37 77 38 28 39 82 40 76 41 78 42 29 43 81 44
REMARK SMILES IDX 75 45 74 46 30 48 62 49 42 50 61 51 43 52 46 53 60 54 79 55
REMARK SMILES IDX 44 56 45 57 59 59 80 60 47 61 31 62 32 63 40 64 33 65 39 66
REMARK SMILES IDX 41 67 38 68 34 69 35 70 36 71 37 72 63 73 64 74 72 75 65 76
REMARK SMILES IDX 71 77 73 78 70 79 66 80 67 81 68 82 69 83 48 84 49 85 57 86
REMARK SMILES IDX 50 87 56 88 58 89 55 90 51 91 52 92 53 93 54 94
REMARK H PARENT 14 7 19 28 78 47 46 58
REMARK Flexibility Score: inf
ROOT
ATOM      1  C   UNL A   1      35.772  21.427  25.569  1.00  0.00     0.023 C 
ENDROOT
BRANCH   1   2
ATOM      2  C   UNL A   1      35.266  20.133  24.928  1.00  0.00     0.023 C 
BRANCH   2   3
ATOM      3  C   UNL A   1      33.766  19.899  25.082  1.00  0.00     0.116 C 
BRANCH   3   4
ATOM      4  N   UNL A   1      33.022  20.436  23.958  1.00  0.00    -0.352 N 
ATOM      5  C   UNL A   1      32.626  21.656  23.533  1.00  0.00     0.251 C 
ATOM      6  O   UNL A   1      32.049  21.669  22.439  1.00  0.00    -0.270 OA
ATOM      7  H   UNL A   1      32.728  19.724  23.344  1.00  0.00     0.163 HD
BRANCH   5   8
ATOM      8  C   UNL A   1      32.822  22.940  24.271  1.00  0.00     0.067 C 
ATOM      9  C   UNL A   1      33.642  29.104  26.164  1.00  0.00     0.046 C 
ATOM     10  C   UNL A   1      33.580  27.810  25.396  1.00  0.00    -0.028 A 
ATOM     11  C   UNL A   1      33.440  26.629  26.134  1.00  0.00     0.052 A 
ATOM     12  C   UNL A   1      33.582  27.736  23.988  1.00  0.00     0.047 A 
ATOM     13  C   UNL A   1      33.307  25.403  25.492  1.00  0.00     0.128 A 
ATOM     14  C   UNL A   1      33.488  26.488  23.322  1.00  0.00    -0.021 A 
ATOM     15  Cl  UNL A   1      33.684  29.211  23.074  1.00  0.00    -0.084 Cl
ATOM     16  C   UNL A   1      33.344  25.311  24.098  1.00  0.00     0.022 A 
ATOM     17  O   UNL A   1      33.171  24.314  26.307  1.00  0.00    -0.475 OA
ATOM     18  C   UNL A   1      33.517  26.380  21.814  1.00  0.00     0.047 C 
ATOM     19  C   UNL A   1      33.235  23.973  23.512  1.00  0.00     0.026 C 
ATOM     20  C   UNL A   1      32.498  23.166  25.719  1.00  0.00     0.314 C 
BRANCH  20  21
ATOM     21  C   UNL A   1      30.990  23.222  26.021  1.00  0.00     0.429 C 
ATOM     22  F   UNL A   1      30.276  23.791  25.024  1.00  0.00    -0.167 F 
ATOM     23  F   UNL A   1      30.452  22.000  26.236  1.00  0.00    -0.167 F 
ATOM     24  F   UNL A   1      30.765  23.957  27.140  1.00  0.00    -0.167 F 
ENDBRANCH  20  21
ENDBRANCH   5   8
ENDBRANCH   3   4
ENDBRANCH   2   3
ENDBRANCH   1   2
BRANCH   1  25
ATOM     25  C   UNL A   1      37.196  21.821  25.197  1.00  0.00     0.116 C 
BRANCH  25  26
ATOM     26  N   UNL A   1      38.176  20.772  25.444  1.00  0.00    -0.352 N 
ATOM     27  C   UNL A   1      39.383  20.881  26.094  1.00  0.00     0.251 C 
ATOM     28  H   UNL A   1      37.947  19.877  25.103  1.00  0.00     0.163 HD
ATOM     29  O   UNL A   1      40.143  19.921  26.164  1.00  0.00    -0.269 OA
BRANCH  27  30
ATOM     30  C   UNL A   1      39.755  22.191  26.656  1.00  0.00     0.039 A 
ATOM     31  C   UNL A   1      40.767  22.247  27.617  1.00  0.00     0.014 A 
ATOM     32  C   UNL A   1      39.184  23.359  26.144  1.00  0.00     0.014 A 
ATOM     33  C   UNL A   1      41.266  23.489  28.005  1.00  0.00     0.010 A 
ATOM     34  C   UNL A   1      39.729  24.591  26.484  1.00  0.00     0.010 A 
ATOM     35  C   UNL A   1      40.781  24.665  27.410  1.00  0.00    -0.014 A 
BRANCH  35  36
ATOM     36  C   UNL A   1      41.369  25.983  27.745  1.00  0.00     0.031 A 
ATOM     37  C   UNL A   1      42.762  26.314  27.293  1.00  0.00     0.074 A 
ATOM     38  C   UNL A   1      40.665  26.858  28.488  1.00  0.00     0.049 A 
ATOM     39  N   UNL A   1      43.468  27.391  27.519  1.00  0.00    -0.248 NA
ATOM     40  C   UNL A   1      43.461  25.285  26.510  1.00  0.00     0.031 C 
ATOM     41  C   UNL A   1      39.318  26.629  29.017  1.00  0.00     0.029 A 
ATOM     42  N   UNL A   1      40.978  28.122  28.917  1.00  0.00    -0.354 N 
ATOM     43  C   UNL A   1      44.697  27.168  26.908  1.00  0.00     0.074 A 
ATOM     44  C   UNL A   1      44.660  25.828  26.362  1.00  0.00     0.031 C 
ATOM     45  C   UNL A   1      38.903  27.735  29.658  1.00  0.00     0.029 A 
ATOM     46  C   UNL A   1      39.964  28.736  29.612  1.00  0.00     0.049 A 
ATOM     47  H   UNL A   1      41.849  28.549  28.745  1.00  0.00     0.167 HD
ATOM     48  C   UNL A   1      45.748  28.015  26.785  1.00  0.00     0.034 A 
ATOM     49  C   UNL A   1      39.896  29.972  30.144  1.00  0.00     0.034 A 
ATOM     50  C   UNL A   1      45.765  29.353  27.314  1.00  0.00     0.049 A 
ATOM     51  C   UNL A   1      41.079  30.890  30.011  1.00  0.00     0.074 A 
ATOM     52  C   UNL A   1      46.763  30.306  27.221  1.00  0.00     0.029 A 
ATOM     53  N   UNL A   1      44.728  29.930  28.035  1.00  0.00    -0.354 N 
ATOM     54  N   UNL A   1      42.233  30.665  29.429  1.00  0.00    -0.248 NA
ATOM     55  C   UNL A   1      40.951  32.226  30.607  1.00  0.00     0.031 C 
ATOM     56  C   UNL A   1      46.345  31.447  27.917  1.00  0.00     0.029 A 
ATOM     57  C   UNL A   1      45.067  31.220  28.404  1.00  0.00     0.049 A 
ATOM     58  H   UNL A   1      43.876  29.487  28.252  1.00  0.00     0.167 HD
ATOM     59  C   UNL A   1      42.965  31.838  29.575  1.00  0.00     0.074 A 
ATOM     60  C   UNL A   1      42.123  32.768  30.300  1.00  0.00     0.031 C 
ATOM     61  C   UNL A   1      44.218  32.121  29.143  1.00  0.00     0.034 A 
BRANCH  48  62
ATOM     62  C   UNL A   1      46.957  27.496  26.053  1.00  0.00     0.023 A 
ATOM     63  C   UNL A   1      47.209  27.859  24.719  1.00  0.00     0.031 A 
ATOM     64  C   UNL A   1      47.838  26.595  26.673  1.00  0.00     0.131 A 
ATOM     65  C   UNL A   1      48.268  27.262  24.022  1.00  0.00     0.055 A 
ATOM     66  C   UNL A   1      48.936  26.061  25.996  1.00  0.00     0.041 A 
ATOM     67  F   UNL A   1      47.632  26.199  27.940  1.00  0.00    -0.206 F 
ATOM     68  C   UNL A   1      49.148  26.383  24.658  1.00  0.00     0.022 A 
BRANCH  65  69
ATOM     69  S   UNL A   1      48.406  27.558  22.239  1.00  0.00     0.124 S 
ATOM     70  O   UNL A   1      47.108  28.160  21.942  1.00  0.00    -0.237 OA
ATOM     71  O   UNL A   1      49.558  28.447  22.150  1.00  0.00    -0.237 OA
ATOM     72  O   UNL A   1      48.607  26.220  21.685  1.00  0.00    -0.744 OA
ENDBRANCH  65  69
ENDBRANCH  48  62
BRANCH  49  73
ATOM     73  C   UNL A   1      38.657  30.418  30.832  1.00  0.00     0.023 A 
ATOM     74  C   UNL A   1      37.661  31.115  30.130  1.00  0.00     0.031 A 
ATOM     75  C   UNL A   1      38.447  30.149  32.195  1.00  0.00     0.131 A 
ATOM     76  C   UNL A   1      36.505  31.540  30.800  1.00  0.00     0.055 A 
ATOM     77  C   UNL A   1      37.283  30.550  32.850  1.00  0.00     0.041 A 
ATOM     78  F   UNL A   1      39.367  29.472  32.900  1.00  0.00    -0.206 F 
ATOM     79  C   UNL A   1      36.305  31.255  32.153  1.00  0.00     0.022 A 
BRANCH  76  80
ATOM     80  S   UNL A   1      35.258  32.481  29.877  1.00  0.00     0.124 S 
ATOM     81  O   UNL A   1      34.278  32.772  30.917  1.00  0.00    -0.237 OA
ATOM     82  O   UNL A   1      36.033  33.617  29.388  1.00  0.00    -0.237 OA
ATOM     83  O   UNL A   1      34.819  31.543  28.847  1.00  0.00    -0.744 OA
ENDBRANCH  76  80
ENDBRANCH  49  73
BRANCH  61  84
ATOM     84  C   UNL A   1      44.743  33.501  29.425  1.00  0.00     0.023 A 
ATOM     85  C   UNL A   1      44.618  34.534  28.482  1.00  0.00     0.031 A 
ATOM     86  C   UNL A   1      45.338  33.790  30.664  1.00  0.00     0.131 A 
ATOM     87  C   UNL A   1      45.105  35.813  28.787  1.00  0.00     0.055 A 
ATOM     88  C   UNL A   1      45.789  35.072  30.976  1.00  0.00     0.041 A 
ATOM     89  F   UNL A   1      45.473  32.832  31.595  1.00  0.00    -0.206 F 
ATOM     90  C   UNL A   1      45.676  36.091  30.033  1.00  0.00     0.022 A 
BRANCH  87  91
ATOM     91  S   UNL A   1      44.993  37.115  27.531  1.00  0.00     0.124 S 
ATOM     92  O   UNL A   1      43.586  37.045  27.149  1.00  0.00    -0.237 OA
ATOM     93  O   UNL A   1      45.394  38.308  28.271  1.00  0.00    -0.237 OA
ATOM     94  O   UNL A   1      45.939  36.681  26.504  1.00  0.00    -0.744 OA
ENDBRANCH  87  91
ENDBRANCH  61  84
ENDBRANCH  35  36
ENDBRANCH  27  30
ENDBRANCH  25  26
ENDBRANCH   1  25
TORSDOF 15
ENDMDL
MODEL 3
REMARK VINA RESULT:     -12.5      6.009     11.544
REMARK SMILES Cc1cc2c(c(C)c1Cl)C=C(C(=O)NCCCCNC(=O)c1ccc(-c3c4nc(c(-c5cc(S(=O)(=O)[O-])ccc5F)c5ccc([nH]5)c(-c5cc(S(=O)(=O)[O-])ccc5F)c5nc(c(-c6cc(S(=O)(=O)[O-])ccc6F)c6ccc3[nH]6)C=C5)C=C4)cc1)[C@H](C(F)(F)F)O2
REMARK SMILES IDX 17 1 16 2 15 3 14 4 12 5 13 6 11 8 1 9 2 10 3 11 8 12 4 13
REMARK SMILES IDX 6 14 9 15 5 16 90 17 7 18 10 19 85 20 86 21 87 22 88 23
REMARK SMILES IDX 89 24 18 25 19 26 20 27 21 29 22 30 23 31 84 32 24 33 83 34
REMARK SMILES IDX 25 35 26 36 27 37 77 38 28 39 82 40 76 41 78 42 29 43 81 44
REMARK SMILES IDX 75 45 74 46 30 48 62 49 42 50 61 51 43 52 46 53 60 54 79 55
REMARK SMILES IDX 44 56 45 57 59 59 80 60 47 61 31 62 32 63 40 64 33 65 39 66
REMARK SMILES IDX 41 67 38 68 34 69 35 70 36 71 37 72 63 73 64 74 72 75 65 76
REMARK SMILES IDX 71 77 73 78 70 79 66 80 67 81 68 82 69 83 48 84 49 85 57 86
REMARK SMILES IDX 50 87 56 88 58 89 55 90 51 91 52 92 53 93 54 94
REMARK H PARENT 14 7 19 28 78 47 46 58
REMARK Flexibility Score: inf
ROOT
ATOM      1  C   UNL A   1      37.814  20.874  25.236  1.00  0.00     0.023 C 
ENDROOT
BRANCH   1   2
ATOM      2  C   UNL A   1      37.411  22.151  24.495  1.00  0.00     0.023 C 
BRANCH   2   3
ATOM      3  C   UNL A   1      36.633  23.153  25.345  1.00  0.00     0.116 C 
BRANCH   3   4
ATOM      4  N   UNL A   1      35.872  22.491  26.388  1.00  0.00    -0.352 N 
ATOM      5  C   UNL A   1      34.571  22.381  26.737  1.00  0.00     0.251 C 
ATOM      6  O   UNL A   1      34.346  21.631  27.694  1.00  0.00    -0.270 OA
ATOM      7  H   UNL A   1      36.457  21.993  27.004  1.00  0.00     0.163 HD
BRANCH   5   8
ATOM      8  C   UNL A   1      33.431  23.082  26.074  1.00  0.00     0.067 C 
ATOM      9  C   UNL A   1      29.225  27.318  23.500  1.00  0.00     0.046 C 
ATOM     10  C   UNL A   1      30.315  26.641  24.289  1.00  0.00    -0.028 A 
ATOM     11  C   UNL A   1      30.310  25.241  24.323  1.00  0.00     0.052 A 
ATOM     12  C   UNL A   1      31.366  27.333  24.925  1.00  0.00     0.047 A 
ATOM     13  C   UNL A   1      31.323  24.545  24.973  1.00  0.00     0.128 A 
ATOM     14  C   UNL A   1      32.381  26.636  25.626  1.00  0.00    -0.021 A 
ATOM     15  Cl  UNL A   1      31.406  29.068  24.819  1.00  0.00    -0.084 Cl
ATOM     16  C   UNL A   1      32.350  25.220  25.639  1.00  0.00     0.022 A 
ATOM     17  O   UNL A   1      31.225  23.181  24.942  1.00  0.00    -0.475 OA
ATOM     18  C   UNL A   1      33.502  27.358  26.339  1.00  0.00     0.047 C 
ATOM     19  C   UNL A   1      33.351  24.402  26.329  1.00  0.00     0.026 C 
ATOM     20  C   UNL A   1      32.476  22.455  25.099  1.00  0.00     0.314 C 
BRANCH  20  21
ATOM     21  C   UNL A   1      33.095  22.158  23.722  1.00  0.00     0.429 C 
ATOM     22  F   UNL A   1      33.888  21.063  23.729  1.00  0.00    -0.167 F 
ATOM     23  F   UNL A   1      32.165  21.960  22.761  1.00  0.00    -0.167 F 
ATOM     24  F   UNL A   1      33.863  23.203  23.321  1.00  0.00    -0.167 F 
ENDBRANCH  20  21
ENDBRANCH   5   8
ENDBRANCH   3   4
ENDBRANCH   2   3
ENDBRANCH   1   2
BRANCH   1  25
ATOM     25  C   UNL A   1      39.121  20.959  26.014  1.00  0.00     0.116 C 
BRANCH  25  26
ATOM     26  N   UNL A   1      39.907  19.734  25.973  1.00  0.00    -0.352 N 
ATOM     27  C   UNL A   1      41.269  19.600  26.101  1.00  0.00     0.251 C 
ATOM     28  H   UNL A   1      39.401  18.900  25.837  1.00  0.00     0.163 HD
ATOM     29  O   UNL A   1      41.804  18.505  25.973  1.00  0.00    -0.269 OA
BRANCH  27  30
ATOM     30  C   UNL A   1      42.068  20.815  26.344  1.00  0.00     0.039 A 
ATOM     31  C   UNL A   1      42.429  21.610  25.255  1.00  0.00     0.014 A 
ATOM     32  C   UNL A   1      42.348  21.216  27.653  1.00  0.00     0.014 A 
ATOM     33  C   UNL A   1      43.004  22.858  25.487  1.00  0.00     0.010 A 
ATOM     34  C   UNL A   1      42.860  22.488  27.882  1.00  0.00     0.010 A 
ATOM     35  C   UNL A   1      43.183  23.323  26.801  1.00  0.00    -0.014 A 
BRANCH  35  36
ATOM     36  C   UNL A   1      43.705  24.685  27.059  1.00  0.00     0.031 A 
ATOM     37  C   UNL A   1      42.787  25.746  27.591  1.00  0.00     0.074 A 
ATOM     38  C   UNL A   1      44.991  24.971  26.776  1.00  0.00     0.049 A 
ATOM     39  N   UNL A   1      43.038  27.005  27.843  1.00  0.00    -0.248 NA
ATOM     40  C   UNL A   1      41.395  25.345  27.845  1.00  0.00     0.031 C 
ATOM     41  C   UNL A   1      45.964  24.031  26.217  1.00  0.00     0.029 A 
ATOM     42  N   UNL A   1      45.702  26.133  26.929  1.00  0.00    -0.354 N 
ATOM     43  C   UNL A   1      41.836  27.547  28.281  1.00  0.00     0.074 A 
ATOM     44  C   UNL A   1      40.844  26.497  28.197  1.00  0.00     0.031 C 
ATOM     45  C   UNL A   1      47.159  24.640  26.122  1.00  0.00     0.029 A 
ATOM     46  C   UNL A   1      47.027  26.019  26.581  1.00  0.00     0.049 A 
ATOM     47  H   UNL A   1      45.302  26.971  27.257  1.00  0.00     0.167 HD
ATOM     48  C   UNL A   1      41.589  28.797  28.744  1.00  0.00     0.034 A 
ATOM     49  C   UNL A   1      48.024  26.923  26.635  1.00  0.00     0.034 A 
ATOM     50  C   UNL A   1      42.589  29.826  28.843  1.00  0.00     0.049 A 
ATOM     51  C   UNL A   1      47.725  28.309  27.135  1.00  0.00     0.074 A 
ATOM     52  C   UNL A   1      42.457  31.116  29.325  1.00  0.00     0.029 A 
ATOM     53  N   UNL A   1      43.914  29.680  28.455  1.00  0.00    -0.354 N 
ATOM     54  N   UNL A   1      46.583  28.806  27.547  1.00  0.00    -0.248 NA
ATOM     55  C   UNL A   1      48.847  29.256  27.174  1.00  0.00     0.031 C 
ATOM     56  C   UNL A   1      43.692  31.762  29.194  1.00  0.00     0.029 A 
ATOM     57  C   UNL A   1      44.606  30.859  28.674  1.00  0.00     0.049 A 
ATOM     58  H   UNL A   1      44.306  28.858  28.080  1.00  0.00     0.167 HD
ATOM     59  C   UNL A   1      46.852  30.120  27.911  1.00  0.00     0.074 A 
ATOM     60  C   UNL A   1      48.264  30.340  27.670  1.00  0.00     0.031 C 
ATOM     61  C   UNL A   1      46.009  31.059  28.407  1.00  0.00     0.034 A 
BRANCH  48  62
ATOM     62  C   UNL A   1      40.175  29.099  29.164  1.00  0.00     0.023 A 
ATOM     63  C   UNL A   1      39.800  29.076  30.518  1.00  0.00     0.031 A 
ATOM     64  C   UNL A   1      39.184  29.363  28.206  1.00  0.00     0.131 A 
ATOM     65  C   UNL A   1      38.454  29.234  30.872  1.00  0.00     0.055 A 
ATOM     66  C   UNL A   1      37.856  29.595  28.571  1.00  0.00     0.041 A 
ATOM     67  F   UNL A   1      39.484  29.377  26.897  1.00  0.00    -0.206 F 
ATOM     68  C   UNL A   1      37.482  29.517  29.909  1.00  0.00     0.022 A 
BRANCH  65  69
ATOM     69  S   UNL A   1      37.972  28.943  32.595  1.00  0.00     0.124 S 
ATOM     70  O   UNL A   1      36.614  29.482  32.613  1.00  0.00    -0.237 OA
ATOM     71  O   UNL A   1      38.087  27.495  32.720  1.00  0.00    -0.237 OA
ATOM     72  O   UNL A   1      38.951  29.713  33.359  1.00  0.00    -0.744 OA
ENDBRANCH  65  69
ENDBRANCH  48  62
BRANCH  49  73
ATOM     73  C   UNL A   1      49.399  26.540  26.223  1.00  0.00     0.023 A 
ATOM     74  C   UNL A   1      49.924  26.975  24.996  1.00  0.00     0.031 A 
ATOM     75  C   UNL A   1      50.208  25.744  27.050  1.00  0.00     0.131 A 
ATOM     76  C   UNL A   1      51.219  26.591  24.618  1.00  0.00     0.055 A 
ATOM     77  C   UNL A   1      51.506  25.388  26.682  1.00  0.00     0.041 A 
ATOM     78  F   UNL A   1      49.751  25.320  28.239  1.00  0.00    -0.206 F 
ATOM     79  C   UNL A   1      52.016  25.808  25.456  1.00  0.00     0.022 A 
BRANCH  76  80
ATOM     80  S   UNL A   1      51.851  27.128  23.005  1.00  0.00     0.124 S 
ATOM     81  O   UNL A   1      52.184  28.523  23.267  1.00  0.00    -0.237 OA
ATOM     82  O   UNL A   1      52.980  26.225  22.803  1.00  0.00    -0.237 OA
ATOM     83  O   UNL A   1      50.718  26.912  22.107  1.00  0.00    -0.744 OA
ENDBRANCH  76  80
ENDBRANCH  49  73
BRANCH  61  84
ATOM     84  C   UNL A   1      46.598  32.400  28.740  1.00  0.00     0.023 A 
ATOM     85  C   UNL A   1      46.582  33.454  27.812  1.00  0.00     0.031 A 
ATOM     86  C   UNL A   1      47.146  32.633  30.012  1.00  0.00     0.131 A 
ATOM     87  C   UNL A   1      47.128  34.696  28.165  1.00  0.00     0.055 A 
ATOM     88  C   UNL A   1      47.656  33.881  30.370  1.00  0.00     0.041 A 
ATOM     89  F   UNL A   1      47.178  31.654  30.930  1.00  0.00    -0.206 F 
ATOM     90  C   UNL A   1      47.651  34.920  29.442  1.00  0.00     0.022 A 
BRANCH  87  91
ATOM     91  S   UNL A   1      47.156  36.023  26.930  1.00  0.00     0.124 S 
ATOM     92  O   UNL A   1      47.730  35.344  25.772  1.00  0.00    -0.237 OA
ATOM     93  O   UNL A   1      45.747  36.388  26.821  1.00  0.00    -0.237 OA
ATOM     94  O   UNL A   1      48.010  37.040  27.540  1.00  0.00    -0.744 OA
ENDBRANCH  87  91
ENDBRANCH  61  84
ENDBRANCH  35  36
ENDBRANCH  27  30
ENDBRANCH  25  26
ENDBRANCH   1  25
TORSDOF 15
ENDMDL
