MODEL 1
REMARK VINA RESULT:     -12.7      0.000      0.000
REMARK SMILES O=C(NCCCCNC(=O)[C@@H]1c2ccccc2C(=O)N(C2CCCC2)C12CCCCC2)c1ccc(-c2c3nc(c(-c4cc(S(=O)(=O)[O-])ccc4F)c4ccc([nH]4)c(-c4cc(S(=O)(=O)[O-])ccc4F)c4nc(c(-c5cc(S(=O)(=O)[O-])ccc5F)c5ccc2[nH]5)C=C4)C=C3)cc1
REMARK SMILES IDX 4 1 3 2 1 3 2 4 32 6 33 7 94 8 34 9 93 10 35 11 36 12 37 13
REMARK SMILES IDX 87 14 38 15 92 16 86 17 88 18 39 19 91 20 85 21 84 22 40 24
REMARK SMILES IDX 72 25 52 26 71 27 53 28 56 29 70 30 89 31 54 32 55 33 69 35
REMARK SMILES IDX 90 36 57 37 41 38 42 39 50 40 43 41 49 42 51 43 48 44 44 45
REMARK SMILES IDX 45 46 46 47 47 48 73 49 74 50 82 51 75 52 81 53 83 54 80 55
REMARK SMILES IDX 76 56 77 57 78 58 79 59 58 60 59 61 67 62 60 63 66 64 68 65
REMARK SMILES IDX 65 66 61 67 62 68 63 69 64 70 5 71 6 72 7 73 8 74 9 75 10 77
REMARK SMILES IDX 11 78 12 79 26 80 13 81 17 82 20 83 27 84 31 85 14 86 16 87
REMARK SMILES IDX 18 88 28 89 30 90 15 91 19 92 29 93 21 94 22 95 25 96 23 97
REMARK SMILES IDX 24 98
REMARK H PARENT 3 5 88 23 56 34 8 76
REMARK Flexibility Score: inf
ROOT
ATOM      1  C   UNL A   1      32.537  30.534  27.143  1.00  0.00     0.116 C 
ENDROOT
BRANCH   1   2
ATOM      2  N   UNL A   1      32.644  31.981  27.134  1.00  0.00    -0.352 N 
ATOM      3  O   UNL A   1      33.451  33.997  27.701  1.00  0.00    -0.269 OA
ATOM      4  C   UNL A   1      33.633  32.776  27.645  1.00  0.00     0.251 C 
ATOM      5  H   UNL A   1      31.900  32.458  26.700  1.00  0.00     0.163 HD
BRANCH   4   6
ATOM      6  C   UNL A   1      34.902  32.193  28.125  1.00  0.00     0.039 A 
ATOM      7  C   UNL A   1      34.912  30.857  28.534  1.00  0.00     0.014 A 
ATOM      8  C   UNL A   1      36.060  32.969  28.241  1.00  0.00     0.014 A 
ATOM      9  C   UNL A   1      36.077  30.302  29.064  1.00  0.00     0.010 A 
ATOM     10  C   UNL A   1      37.242  32.394  28.705  1.00  0.00     0.010 A 
ATOM     11  C   UNL A   1      37.249  31.068  29.159  1.00  0.00    -0.014 A 
BRANCH  11  12
ATOM     12  C   UNL A   1      38.461  30.520  29.820  1.00  0.00     0.031 A 
ATOM     13  C   UNL A   1      38.790  30.939  31.229  1.00  0.00     0.074 A 
ATOM     14  C   UNL A   1      39.258  29.658  29.160  1.00  0.00     0.049 A 
ATOM     15  N   UNL A   1      39.796  30.578  31.983  1.00  0.00    -0.248 NA
ATOM     16  C   UNL A   1      37.881  31.905  31.868  1.00  0.00     0.031 C 
ATOM     17  C   UNL A   1      39.047  29.207  27.785  1.00  0.00     0.029 A 
ATOM     18  N   UNL A   1      40.396  29.002  29.557  1.00  0.00    -0.354 N 
ATOM     19  C   UNL A   1      39.644  31.277  33.176  1.00  0.00     0.074 A 
ATOM     20  C   UNL A   1      38.491  32.133  33.022  1.00  0.00     0.031 C 
ATOM     21  C   UNL A   1      39.999  28.316  27.467  1.00  0.00     0.029 A 
ATOM     22  C   UNL A   1      40.910  28.159  28.600  1.00  0.00     0.049 A 
ATOM     23  H   UNL A   1      40.806  29.125  30.444  1.00  0.00     0.167 HD
ATOM     24  C   UNL A   1      40.379  31.186  34.308  1.00  0.00     0.034 A 
ATOM     25  C   UNL A   1      41.983  27.341  28.637  1.00  0.00     0.034 A 
ATOM     26  C   UNL A   1      41.505  30.301  34.456  1.00  0.00     0.049 A 
ATOM     27  C   UNL A   1      42.783  27.252  29.914  1.00  0.00     0.074 A 
ATOM     28  C   UNL A   1      42.299  30.109  35.572  1.00  0.00     0.029 A 
ATOM     29  N   UNL A   1      41.985  29.451  33.471  1.00  0.00    -0.354 N 
ATOM     30  N   UNL A   1      42.590  27.872  31.055  1.00  0.00    -0.248 NA
ATOM     31  C   UNL A   1      43.936  26.341  29.921  1.00  0.00     0.031 C 
ATOM     32  C   UNL A   1      43.288  29.181  35.246  1.00  0.00     0.029 A 
ATOM     33  C   UNL A   1      43.072  28.740  33.951  1.00  0.00     0.049 A 
ATOM     34  H   UNL A   1      41.609  29.366  32.564  1.00  0.00     0.167 HD
ATOM     35  C   UNL A   1      43.572  27.400  31.922  1.00  0.00     0.074 A 
ATOM     36  C   UNL A   1      44.345  26.427  31.180  1.00  0.00     0.031 C 
ATOM     37  C   UNL A   1      43.813  27.745  33.212  1.00  0.00     0.034 A 
BRANCH  24  38
ATOM     38  C   UNL A   1      39.983  32.027  35.496  1.00  0.00     0.023 A 
ATOM     39  C   UNL A   1      39.075  31.525  36.447  1.00  0.00     0.031 A 
ATOM     40  C   UNL A   1      40.409  33.362  35.622  1.00  0.00     0.131 A 
ATOM     41  C   UNL A   1      38.595  32.365  37.459  1.00  0.00     0.055 A 
ATOM     42  C   UNL A   1      39.962  34.180  36.660  1.00  0.00     0.041 A 
ATOM     43  F   UNL A   1      41.276  33.888  34.741  1.00  0.00    -0.206 F 
ATOM     44  C   UNL A   1      39.040  33.686  37.576  1.00  0.00     0.022 A 
BRANCH  41  45
ATOM     45  S   UNL A   1      37.329  31.797  38.628  1.00  0.00     0.124 S 
ATOM     46  O   UNL A   1      37.065  30.442  38.148  1.00  0.00    -0.237 OA
ATOM     47  O   UNL A   1      38.035  31.879  39.904  1.00  0.00    -0.237 OA
ATOM     48  O   UNL A   1      36.235  32.743  38.449  1.00  0.00    -0.744 OA
ENDBRANCH  41  45
ENDBRANCH  24  38
BRANCH  25  49
ATOM     49  C   UNL A   1      42.288  26.480  27.456  1.00  0.00     0.023 A 
ATOM     50  C   UNL A   1      41.855  25.144  27.391  1.00  0.00     0.031 A 
ATOM     51  C   UNL A   1      43.104  26.960  26.416  1.00  0.00     0.131 A 
ATOM     52  C   UNL A   1      42.290  24.319  26.343  1.00  0.00     0.055 A 
ATOM     53  C   UNL A   1      43.477  26.155  25.338  1.00  0.00     0.041 A 
ATOM     54  F   UNL A   1      43.557  28.224  26.440  1.00  0.00    -0.206 F 
ATOM     55  C   UNL A   1      43.082  24.822  25.307  1.00  0.00     0.022 A 
BRANCH  52  56
ATOM     56  S   UNL A   1      41.947  22.538  26.357  1.00  0.00     0.124 S 
ATOM     57  O   UNL A   1      42.592  22.094  25.125  1.00  0.00    -0.237 OA
ATOM     58  O   UNL A   1      42.597  22.118  27.596  1.00  0.00    -0.237 OA
ATOM     59  O   UNL A   1      40.490  22.468  26.368  1.00  0.00    -0.744 OA
ENDBRANCH  52  56
ENDBRANCH  25  49
BRANCH  37  60
ATOM     60  C   UNL A   1      44.940  27.062  33.949  1.00  0.00     0.023 A 
ATOM     61  C   UNL A   1      44.674  25.926  34.739  1.00  0.00     0.031 A 
ATOM     62  C   UNL A   1      46.226  27.625  34.008  1.00  0.00     0.131 A 
ATOM     63  C   UNL A   1      45.665  25.416  35.585  1.00  0.00     0.055 A 
ATOM     64  C   UNL A   1      47.227  27.082  34.814  1.00  0.00     0.041 A 
ATOM     65  F   UNL A   1      46.526  28.718  33.287  1.00  0.00    -0.206 F 
ATOM     66  C   UNL A   1      46.944  25.982  35.620  1.00  0.00     0.022 A 
BRANCH  63  67
ATOM     67  S   UNL A   1      45.305  24.067  36.744  1.00  0.00     0.124 S 
ATOM     68  O   UNL A   1      44.519  24.752  37.768  1.00  0.00    -0.237 OA
ATOM     69  O   UNL A   1      44.558  23.132  35.906  1.00  0.00    -0.237 OA
ATOM     70  O   UNL A   1      46.622  23.609  37.173  1.00  0.00    -0.744 OA
ENDBRANCH  63  67
ENDBRANCH  37  60
ENDBRANCH  11  12
ENDBRANCH   4   6
ENDBRANCH   1   2
BRANCH   1  71
ATOM     71  C   UNL A   1      32.361  29.965  25.740  1.00  0.00     0.023 C 
BRANCH  71  72
ATOM     72  C   UNL A   1      33.279  28.783  25.399  1.00  0.00     0.023 C 
BRANCH  72  73
ATOM     73  C   UNL A   1      33.614  27.878  26.584  1.00  0.00     0.116 C 
BRANCH  73  74
ATOM     74  N   UNL A   1      32.523  26.972  26.884  1.00  0.00    -0.355 N 
ATOM     75  C   UNL A   1      32.038  25.922  26.160  1.00  0.00     0.229 C 
ATOM     76  H   UNL A   1      32.062  27.140  27.738  1.00  0.00     0.163 HD
ATOM     77  O   UNL A   1      30.917  25.513  26.457  1.00  0.00    -0.274 OA
BRANCH  75  78
ATOM     78  C   UNL A   1      32.863  25.336  25.016  1.00  0.00     0.135 C 
ATOM     79  C   UNL A   1      32.310  25.705  23.647  1.00  0.00    -0.020 A 
ATOM     80  C   UNL A   1      33.173  23.791  25.166  1.00  0.00     0.059 C 
ATOM     81  C   UNL A   1      31.532  26.861  23.440  1.00  0.00     0.005 A 
ATOM     82  C   UNL A   1      32.693  24.953  22.531  1.00  0.00     0.044 A 
ATOM     83  N   UNL A   1      34.062  23.440  23.953  1.00  0.00    -0.329 N 
ATOM     84  C   UNL A   1      31.918  22.860  25.060  1.00  0.00     0.030 C 
ATOM     85  C   UNL A   1      33.885  23.551  26.538  1.00  0.00     0.030 C 
ATOM     86  C   UNL A   1      31.144  27.250  22.157  1.00  0.00     0.000 A 
ATOM     87  C   UNL A   1      32.286  25.341  21.243  1.00  0.00     0.014 A 
ATOM     88  C   UNL A   1      33.639  23.816  22.659  1.00  0.00     0.254 C 
ATOM     89  C   UNL A   1      31.085  22.618  26.320  1.00  0.00     0.002 C 
ATOM     90  C   UNL A   1      32.992  23.388  27.768  1.00  0.00     0.002 C 
ATOM     91  C   UNL A   1      31.517  26.489  21.056  1.00  0.00     0.001 A 
ATOM     92  O   UNL A   1      34.066  23.297  21.629  1.00  0.00    -0.269 OA
ATOM     93  C   UNL A   1      31.920  22.337  27.556  1.00  0.00     0.000 C 
BRANCH  83  94
ATOM     94  C   UNL A   1      35.272  22.599  23.987  1.00  0.00     0.086 C 
ATOM     95  C   UNL A   1      36.547  23.261  24.510  1.00  0.00     0.025 C 
ATOM     96  C   UNL A   1      35.181  21.231  24.667  1.00  0.00     0.025 C 
ATOM     97  C   UNL A   1      37.489  22.079  24.676  1.00  0.00     0.002 C 
ATOM     98  C   UNL A   1      36.603  20.928  25.150  1.00  0.00     0.002 C 
ENDBRANCH  83  94
ENDBRANCH  75  78
ENDBRANCH  73  74
ENDBRANCH  72  73
ENDBRANCH  71  72
ENDBRANCH   1  71
TORSDOF 15
ENDMDL
MODEL 2
REMARK VINA RESULT:     -12.5      4.700     10.100
REMARK SMILES O=C(NCCCCNC(=O)[C@@H]1c2ccccc2C(=O)N(C2CCCC2)C12CCCCC2)c1ccc(-c2c3nc(c(-c4cc(S(=O)(=O)[O-])ccc4F)c4ccc([nH]4)c(-c4cc(S(=O)(=O)[O-])ccc4F)c4nc(c(-c5cc(S(=O)(=O)[O-])ccc5F)c5ccc2[nH]5)C=C4)C=C3)cc1
REMARK SMILES IDX 4 1 3 2 1 3 2 4 32 6 33 7 94 8 34 9 93 10 35 11 36 12 37 13
REMARK SMILES IDX 87 14 38 15 92 16 86 17 88 18 39 19 91 20 85 21 84 22 40 24
REMARK SMILES IDX 72 25 52 26 71 27 53 28 56 29 70 30 89 31 54 32 55 33 69 35
REMARK SMILES IDX 90 36 57 37 41 38 42 39 50 40 43 41 49 42 51 43 48 44 44 45
REMARK SMILES IDX 45 46 46 47 47 48 73 49 74 50 82 51 75 52 81 53 83 54 80 55
REMARK SMILES IDX 76 56 77 57 78 58 79 59 58 60 59 61 67 62 60 63 66 64 68 65
REMARK SMILES IDX 65 66 61 67 62 68 63 69 64 70 5 71 6 72 7 73 8 74 9 75 10 77
REMARK SMILES IDX 11 78 12 79 26 80 13 81 17 82 20 83 27 84 31 85 14 86 16 87
REMARK SMILES IDX 18 88 28 89 30 90 15 91 19 92 29 93 21 94 22 95 25 96 23 97
REMARK SMILES IDX 24 98
REMARK H PARENT 3 5 88 23 56 34 8 76
REMARK Flexibility Score: inf
ROOT
ATOM      1  C   UNL A   1      37.656  21.588  24.934  1.00  0.00     0.116 C 
ENDROOT
BRANCH   1   2
ATOM      2  N   UNL A   1      38.511  20.544  25.469  1.00  0.00    -0.352 N 
ATOM      3  O   UNL A   1      40.350  19.653  26.397  1.00  0.00    -0.269 OA
ATOM      4  C   UNL A   1      39.667  20.662  26.190  1.00  0.00     0.251 C 
ATOM      5  H   UNL A   1      38.217  19.622  25.288  1.00  0.00     0.163 HD
BRANCH   4   6
ATOM      6  C   UNL A   1      40.103  21.972  26.716  1.00  0.00     0.039 A 
ATOM      7  C   UNL A   1      39.605  23.132  26.118  1.00  0.00     0.014 A 
ATOM      8  C   UNL A   1      41.049  22.064  27.743  1.00  0.00     0.014 A 
ATOM      9  C   UNL A   1      40.057  24.381  26.543  1.00  0.00     0.010 A 
ATOM     10  C   UNL A   1      41.447  23.314  28.213  1.00  0.00     0.010 A 
ATOM     11  C   UNL A   1      40.986  24.482  27.590  1.00  0.00    -0.014 A 
BRANCH  11  12
ATOM     12  C   UNL A   1      41.554  25.798  27.976  1.00  0.00     0.031 A 
ATOM     13  C   UNL A   1      42.951  26.159  27.542  1.00  0.00     0.074 A 
ATOM     14  C   UNL A   1      40.824  26.659  28.709  1.00  0.00     0.049 A 
ATOM     15  N   UNL A   1      43.629  27.253  27.772  1.00  0.00    -0.248 NA
ATOM     16  C   UNL A   1      43.690  25.149  26.766  1.00  0.00     0.031 C 
ATOM     17  C   UNL A   1      39.472  26.401  29.204  1.00  0.00     0.029 A 
ATOM     18  N   UNL A   1      41.108  27.924  29.158  1.00  0.00    -0.354 N 
ATOM     19  C   UNL A   1      44.872  27.060  27.178  1.00  0.00     0.074 A 
ATOM     20  C   UNL A   1      44.879  25.721  26.638  1.00  0.00     0.031 C 
ATOM     21  C   UNL A   1      39.028  27.490  29.852  1.00  0.00     0.029 A 
ATOM     22  C   UNL A   1      40.075  28.510  29.851  1.00  0.00     0.049 A 
ATOM     23  H   UNL A   1      41.972  28.370  28.999  1.00  0.00     0.167 HD
ATOM     24  C   UNL A   1      45.899  27.932  27.064  1.00  0.00     0.034 A 
ATOM     25  C   UNL A   1      39.977  29.735  30.410  1.00  0.00     0.034 A 
ATOM     26  C   UNL A   1      45.862  29.276  27.579  1.00  0.00     0.049 A 
ATOM     27  C   UNL A   1      41.134  30.694  30.263  1.00  0.00     0.074 A 
ATOM     28  C   UNL A   1      46.837  30.253  27.489  1.00  0.00     0.029 A 
ATOM     29  N   UNL A   1      44.793  29.839  28.260  1.00  0.00    -0.354 N 
ATOM     30  N   UNL A   1      42.279  30.518  29.643  1.00  0.00    -0.248 NA
ATOM     31  C   UNL A   1      40.986  32.023  30.872  1.00  0.00     0.031 C 
ATOM     32  C   UNL A   1      46.378  31.387  28.159  1.00  0.00     0.029 A 
ATOM     33  C   UNL A   1      45.089  31.146  28.606  1.00  0.00     0.049 A 
ATOM     34  H   UNL A   1      43.947  29.377  28.468  1.00  0.00     0.167 HD
ATOM     35  C   UNL A   1      42.968  31.723  29.757  1.00  0.00     0.074 A 
ATOM     36  C   UNL A   1      42.103  32.626  30.487  1.00  0.00     0.031 C 
ATOM     37  C   UNL A   1      44.204  32.049  29.303  1.00  0.00     0.034 A 
BRANCH  24  38
ATOM     38  C   UNL A   1      47.141  27.495  26.327  1.00  0.00     0.023 A 
ATOM     39  C   UNL A   1      47.303  27.807  24.965  1.00  0.00     0.031 A 
ATOM     40  C   UNL A   1      48.102  26.670  26.939  1.00  0.00     0.131 A 
ATOM     41  C   UNL A   1      48.380  27.268  24.251  1.00  0.00     0.055 A 
ATOM     42  C   UNL A   1      49.199  26.172  26.235  1.00  0.00     0.041 A 
ATOM     43  F   UNL A   1      47.994  26.344  28.238  1.00  0.00    -0.206 F 
ATOM     44  C   UNL A   1      49.333  26.460  24.880  1.00  0.00     0.022 A 
BRANCH  41  45
ATOM     45  S   UNL A   1      48.555  27.542  22.467  1.00  0.00     0.124 S 
ATOM     46  O   UNL A   1      49.815  28.278  22.398  1.00  0.00    -0.237 OA
ATOM     47  O   UNL A   1      48.602  26.175  21.953  1.00  0.00    -0.237 OA
ATOM     48  O   UNL A   1      47.368  28.310  22.111  1.00  0.00    -0.744 OA
ENDBRANCH  41  45
ENDBRANCH  24  38
BRANCH  25  49
ATOM     49  C   UNL A   1      38.700  30.140  31.067  1.00  0.00     0.023 A 
ATOM     50  C   UNL A   1      37.709  30.852  30.367  1.00  0.00     0.031 A 
ATOM     51  C   UNL A   1      38.496  29.902  32.438  1.00  0.00     0.131 A 
ATOM     52  C   UNL A   1      36.592  31.351  31.054  1.00  0.00     0.055 A 
ATOM     53  C   UNL A   1      37.349  30.340  33.102  1.00  0.00     0.041 A 
ATOM     54  F   UNL A   1      39.420  29.241  33.154  1.00  0.00    -0.206 F 
ATOM     55  C   UNL A   1      36.397  31.083  32.412  1.00  0.00     0.022 A 
BRANCH  52  56
ATOM     56  S   UNL A   1      35.421  32.470  30.236  1.00  0.00     0.124 S 
ATOM     57  O   UNL A   1      35.073  31.721  29.032  1.00  0.00    -0.237 OA
ATOM     58  O   UNL A   1      34.363  32.578  31.239  1.00  0.00    -0.237 OA
ATOM     59  O   UNL A   1      36.197  33.685  30.023  1.00  0.00    -0.744 OA
ENDBRANCH  52  56
ENDBRANCH  25  49
BRANCH  37  60
ATOM     60  C   UNL A   1      44.722  33.448  29.541  1.00  0.00     0.023 A 
ATOM     61  C   UNL A   1      44.741  34.376  28.482  1.00  0.00     0.031 A 
ATOM     62  C   UNL A   1      45.344  33.805  30.749  1.00  0.00     0.131 A 
ATOM     63  C   UNL A   1      45.406  35.598  28.636  1.00  0.00     0.055 A 
ATOM     64  C   UNL A   1      45.962  35.045  30.915  1.00  0.00     0.041 A 
ATOM     65  F   UNL A   1      45.367  32.948  31.783  1.00  0.00    -0.206 F 
ATOM     66  C   UNL A   1      46.009  35.941  29.851  1.00  0.00     0.022 A 
BRANCH  63  67
ATOM     67  S   UNL A   1      45.603  36.741  27.241  1.00  0.00     0.124 S 
ATOM     68  O   UNL A   1      44.442  37.614  27.401  1.00  0.00    -0.237 OA
ATOM     69  O   UNL A   1      46.894  37.360  27.530  1.00  0.00    -0.237 OA
ATOM     70  O   UNL A   1      45.572  35.874  26.068  1.00  0.00    -0.744 OA
ENDBRANCH  63  67
ENDBRANCH  37  60
ENDBRANCH  11  12
ENDBRANCH   4   6
ENDBRANCH   1   2
BRANCH   1  71
ATOM     71  C   UNL A   1      36.239  21.506  25.489  1.00  0.00     0.023 C 
BRANCH  71  72
ATOM     72  C   UNL A   1      35.714  22.803  26.119  1.00  0.00     0.023 C 
BRANCH  72  73
ATOM     73  C   UNL A   1      36.115  24.078  25.376  1.00  0.00     0.116 C 
BRANCH  73  74
ATOM     74  N   UNL A   1      35.495  24.146  24.067  1.00  0.00    -0.355 N 
ATOM     75  C   UNL A   1      34.192  24.370  23.731  1.00  0.00     0.229 C 
ATOM     76  H   UNL A   1      36.105  24.008  23.307  1.00  0.00     0.163 HD
ATOM     77  O   UNL A   1      33.850  24.062  22.591  1.00  0.00    -0.274 OA
BRANCH  75  78
ATOM     78  C   UNL A   1      33.222  24.942  24.764  1.00  0.00     0.135 C 
ATOM     79  C   UNL A   1      32.179  23.929  25.211  1.00  0.00    -0.020 A 
ATOM     80  C   UNL A   1      32.600  26.342  24.364  1.00  0.00     0.059 C 
ATOM     81  C   UNL A   1      32.405  22.540  25.145  1.00  0.00     0.005 A 
ATOM     82  C   UNL A   1      31.010  24.382  25.832  1.00  0.00     0.044 A 
ATOM     83  N   UNL A   1      31.723  26.750  25.568  1.00  0.00    -0.329 N 
ATOM     84  C   UNL A   1      31.639  26.299  23.129  1.00  0.00     0.030 C 
ATOM     85  C   UNL A   1      33.764  27.348  24.084  1.00  0.00     0.030 C 
ATOM     86  C   UNL A   1      31.490  21.633  25.679  1.00  0.00     0.000 A 
ATOM     87  C   UNL A   1      30.084  23.463  26.354  1.00  0.00     0.014 A 
ATOM     88  C   UNL A   1      30.781  25.829  26.075  1.00  0.00     0.254 C 
ATOM     89  C   UNL A   1      32.249  26.388  21.730  1.00  0.00     0.002 C 
ATOM     90  C   UNL A   1      34.376  27.333  22.682  1.00  0.00     0.002 C 
ATOM     91  C   UNL A   1      30.325  22.092  26.281  1.00  0.00     0.001 A 
ATOM     92  O   UNL A   1      29.819  26.156  26.769  1.00  0.00    -0.269 OA
ATOM     93  C   UNL A   1      33.321  27.455  21.600  1.00  0.00     0.000 C 
BRANCH  83  94
ATOM     94  C   UNL A   1      31.660  28.094  26.169  1.00  0.00     0.086 C 
ATOM     95  C   UNL A   1      32.874  28.531  26.989  1.00  0.00     0.025 C 
ATOM     96  C   UNL A   1      31.297  29.273  25.264  1.00  0.00     0.025 C 
ATOM     97  C   UNL A   1      32.608  30.013  27.209  1.00  0.00     0.002 C 
ATOM     98  C   UNL A   1      31.954  30.494  25.915  1.00  0.00     0.002 C 
ENDBRANCH  83  94
ENDBRANCH  75  78
ENDBRANCH  73  74
ENDBRANCH  72  73
ENDBRANCH  71  72
ENDBRANCH   1  71
TORSDOF 15
ENDMDL
MODEL 3
REMARK VINA RESULT:     -12.4      4.750      9.924
REMARK SMILES O=C(NCCCCNC(=O)[C@@H]1c2ccccc2C(=O)N(C2CCCC2)C12CCCCC2)c1ccc(-c2c3nc(c(-c4cc(S(=O)(=O)[O-])ccc4F)c4ccc([nH]4)c(-c4cc(S(=O)(=O)[O-])ccc4F)c4nc(c(-c5cc(S(=O)(=O)[O-])ccc5F)c5ccc2[nH]5)C=C4)C=C3)cc1
REMARK SMILES IDX 4 1 3 2 1 3 2 4 32 6 33 7 94 8 34 9 93 10 35 11 36 12 37 13
REMARK SMILES IDX 87 14 38 15 92 16 86 17 88 18 39 19 91 20 85 21 84 22 40 24
REMARK SMILES IDX 72 25 52 26 71 27 53 28 56 29 70 30 89 31 54 32 55 33 69 35
REMARK SMILES IDX 90 36 57 37 41 38 42 39 50 40 43 41 49 42 51 43 48 44 44 45
REMARK SMILES IDX 45 46 46 47 47 48 73 49 74 50 82 51 75 52 81 53 83 54 80 55
REMARK SMILES IDX 76 56 77 57 78 58 79 59 58 60 59 61 67 62 60 63 66 64 68 65
REMARK SMILES IDX 65 66 61 67 62 68 63 69 64 70 5 71 6 72 7 73 8 74 9 75 10 77
REMARK SMILES IDX 11 78 12 79 26 80 13 81 17 82 20 83 27 84 31 85 14 86 16 87
REMARK SMILES IDX 18 88 28 89 30 90 15 91 19 92 29 93 21 94 22 95 25 96 23 97
REMARK SMILES IDX 24 98
REMARK H PARENT 3 5 88 23 56 34 8 76
REMARK Flexibility Score: inf
ROOT
ATOM      1  C   UNL A   1      37.307  22.263  24.887  1.00  0.00     0.116 C 
ENDROOT
BRANCH   1   2
ATOM      2  N   UNL A   1      38.160  21.200  25.387  1.00  0.00    -0.352 N 
ATOM      3  O   UNL A   1      40.000  20.273  26.276  1.00  0.00    -0.269 OA
ATOM      4  C   UNL A   1      39.321  21.292  26.102  1.00  0.00     0.251 C 
ATOM      5  H   UNL A   1      37.859  20.285  25.182  1.00  0.00     0.163 HD
BRANCH   4   6
ATOM      6  C   UNL A   1      39.768  22.584  26.662  1.00  0.00     0.039 A 
ATOM      7  C   UNL A   1      39.240  23.762  26.128  1.00  0.00     0.014 A 
ATOM      8  C   UNL A   1      40.752  22.644  27.654  1.00  0.00     0.014 A 
ATOM      9  C   UNL A   1      39.699  24.997  26.583  1.00  0.00     0.010 A 
ATOM     10  C   UNL A   1      41.159  23.878  28.157  1.00  0.00     0.010 A 
ATOM     11  C   UNL A   1      40.668  25.065  27.597  1.00  0.00    -0.014 A 
BRANCH  11  12
ATOM     12  C   UNL A   1      41.241  26.370  28.012  1.00  0.00     0.031 A 
ATOM     13  C   UNL A   1      42.667  26.701  27.654  1.00  0.00     0.074 A 
ATOM     14  C   UNL A   1      40.490  27.249  28.703  1.00  0.00     0.049 A 
ATOM     15  N   UNL A   1      43.355  27.781  27.919  1.00  0.00    -0.248 NA
ATOM     16  C   UNL A   1      43.426  25.674  26.920  1.00  0.00     0.031 C 
ATOM     17  C   UNL A   1      39.109  27.020  29.124  1.00  0.00     0.029 A 
ATOM     18  N   UNL A   1      40.777  28.508  29.165  1.00  0.00    -0.354 N 
ATOM     19  C   UNL A   1      44.623  27.560  27.394  1.00  0.00     0.074 A 
ATOM     20  C   UNL A   1      44.632  26.220  26.856  1.00  0.00     0.031 C 
ATOM     21  C   UNL A   1      38.653  28.119  29.745  1.00  0.00     0.029 A 
ATOM     22  C   UNL A   1      39.720  29.117  29.800  1.00  0.00     0.049 A 
ATOM     23  H   UNL A   1      41.657  28.936  29.053  1.00  0.00     0.167 HD
ATOM     24  C   UNL A   1      45.673  28.411  27.334  1.00  0.00     0.034 A 
ATOM     25  C   UNL A   1      39.618  30.346  30.351  1.00  0.00     0.034 A 
ATOM     26  C   UNL A   1      45.637  29.757  27.845  1.00  0.00     0.049 A 
ATOM     27  C   UNL A   1      40.801  31.280  30.266  1.00  0.00     0.074 A 
ATOM     28  C   UNL A   1      46.635  30.713  27.806  1.00  0.00     0.029 A 
ATOM     29  N   UNL A   1      44.544  30.344  28.466  1.00  0.00    -0.354 N 
ATOM     30  N   UNL A   1      41.973  31.079  29.709  1.00  0.00    -0.248 NA
ATOM     31  C   UNL A   1      40.647  32.613  30.864  1.00  0.00     0.031 C 
ATOM     32  C   UNL A   1      46.165  31.858  28.449  1.00  0.00     0.029 A 
ATOM     33  C   UNL A   1      44.849  31.645  28.826  1.00  0.00     0.049 A 
ATOM     34  H   UNL A   1      43.679  29.899  28.628  1.00  0.00     0.167 HD
ATOM     35  C   UNL A   1      42.680  32.269  29.860  1.00  0.00     0.074 A 
ATOM     36  C   UNL A   1      41.796  33.192  30.540  1.00  0.00     0.031 C 
ATOM     37  C   UNL A   1      43.946  32.568  29.473  1.00  0.00     0.034 A 
BRANCH  24  38
ATOM     38  C   UNL A   1      46.944  27.946  26.667  1.00  0.00     0.023 A 
ATOM     39  C   UNL A   1      47.099  28.072  25.274  1.00  0.00     0.031 A 
ATOM     40  C   UNL A   1      47.945  27.271  27.389  1.00  0.00     0.131 A 
ATOM     41  C   UNL A   1      48.211  27.500  24.644  1.00  0.00     0.055 A 
ATOM     42  C   UNL A   1      49.074  26.743  26.762  1.00  0.00     0.041 A 
ATOM     43  F   UNL A   1      47.845  27.125  28.721  1.00  0.00    -0.206 F 
ATOM     44  C   UNL A   1      49.203  26.844  25.381  1.00  0.00     0.022 A 
BRANCH  41  45
ATOM     45  S   UNL A   1      48.385  27.530  22.839  1.00  0.00     0.124 S 
ATOM     46  O   UNL A   1      47.205  28.293  22.437  1.00  0.00    -0.237 OA
ATOM     47  O   UNL A   1      49.661  28.220  22.668  1.00  0.00    -0.237 OA
ATOM     48  O   UNL A   1      48.372  26.123  22.461  1.00  0.00    -0.744 OA
ENDBRANCH  41  45
ENDBRANCH  24  38
BRANCH  25  49
ATOM     49  C   UNL A   1      38.315  30.779  30.937  1.00  0.00     0.023 A 
ATOM     50  C   UNL A   1      37.330  31.406  30.153  1.00  0.00     0.031 A 
ATOM     51  C   UNL A   1      38.078  30.656  32.318  1.00  0.00     0.131 A 
ATOM     52  C   UNL A   1      36.186  31.938  30.764  1.00  0.00     0.055 A 
ATOM     53  C   UNL A   1      36.905  31.125  32.912  1.00  0.00     0.041 A 
ATOM     54  F   UNL A   1      38.994  30.079  33.112  1.00  0.00    -0.206 F 
ATOM     55  C   UNL A   1      35.959  31.785  32.135  1.00  0.00     0.022 A 
BRANCH  52  56
ATOM     56  S   UNL A   1      35.016  32.957  29.822  1.00  0.00     0.124 S 
ATOM     57  O   UNL A   1      35.895  33.958  29.225  1.00  0.00    -0.237 OA
ATOM     58  O   UNL A   1      34.450  31.981  28.894  1.00  0.00    -0.237 OA
ATOM     59  O   UNL A   1      34.094  33.451  30.838  1.00  0.00    -0.744 OA
ENDBRANCH  52  56
ENDBRANCH  25  49
BRANCH  37  60
ATOM     60  C   UNL A   1      44.479  33.956  29.736  1.00  0.00     0.023 A 
ATOM     61  C   UNL A   1      44.267  34.978  28.791  1.00  0.00     0.031 A 
ATOM     62  C   UNL A   1      45.330  34.221  30.823  1.00  0.00     0.131 A 
ATOM     63  C   UNL A   1      44.930  36.203  28.927  1.00  0.00     0.055 A 
ATOM     64  C   UNL A   1      45.949  35.462  30.981  1.00  0.00     0.041 A 
ATOM     65  F   UNL A   1      45.577  33.275  31.742  1.00  0.00    -0.206 F 
ATOM     66  C   UNL A   1      45.763  36.454  30.022  1.00  0.00     0.022 A 
BRANCH  63  67
ATOM     67  S   UNL A   1      44.819  37.477  27.639  1.00  0.00     0.124 S 
ATOM     68  O   UNL A   1      44.749  38.702  28.432  1.00  0.00    -0.237 OA
ATOM     69  O   UNL A   1      46.067  37.281  26.904  1.00  0.00    -0.237 OA
ATOM     70  O   UNL A   1      43.602  37.136  26.910  1.00  0.00    -0.744 OA
ENDBRANCH  63  67
ENDBRANCH  37  60
ENDBRANCH  11  12
ENDBRANCH   4   6
ENDBRANCH   1   2
BRANCH   1  71
ATOM     71  C   UNL A   1      35.907  22.204  25.487  1.00  0.00     0.023 C 
BRANCH  71  72
ATOM     72  C   UNL A   1      35.522  23.410  26.355  1.00  0.00     0.023 C 
BRANCH  72  73
ATOM     73  C   UNL A   1      34.372  24.250  25.799  1.00  0.00     0.116 C 
BRANCH  73  74
ATOM     74  N   UNL A   1      33.161  24.068  26.574  1.00  0.00    -0.355 N 
ATOM     75  C   UNL A   1      31.894  24.512  26.328  1.00  0.00     0.229 C 
ATOM     76  H   UNL A   1      33.267  23.546  27.402  1.00  0.00     0.163 HD
ATOM     77  O   UNL A   1      31.111  24.513  27.275  1.00  0.00    -0.274 OA
BRANCH  75  78
ATOM     78  C   UNL A   1      31.517  25.014  24.935  1.00  0.00     0.135 C 
ATOM     79  C   UNL A   1      32.143  24.184  23.824  1.00  0.00    -0.020 A 
ATOM     80  C   UNL A   1      31.710  26.572  24.733  1.00  0.00     0.059 C 
ATOM     81  C   UNL A   1      32.521  22.841  24.014  1.00  0.00     0.005 A 
ATOM     82  C   UNL A   1      32.225  24.721  22.535  1.00  0.00     0.044 A 
ATOM     83  N   UNL A   1      31.208  26.857  23.301  1.00  0.00    -0.329 N 
ATOM     84  C   UNL A   1      33.200  27.054  24.767  1.00  0.00     0.030 C 
ATOM     85  C   UNL A   1      30.893  27.328  25.832  1.00  0.00     0.030 C 
ATOM     86  C   UNL A   1      32.973  22.060  22.949  1.00  0.00     0.000 A 
ATOM     87  C   UNL A   1      32.696  23.935  21.470  1.00  0.00     0.014 A 
ATOM     88  C   UNL A   1      31.698  26.076  22.232  1.00  0.00     0.254 C 
ATOM     89  C   UNL A   1      33.838  27.347  26.126  1.00  0.00     0.002 C 
ATOM     90  C   UNL A   1      31.567  27.522  27.191  1.00  0.00     0.002 C 
ATOM     91  C   UNL A   1      33.065  22.607  21.675  1.00  0.00     0.001 A 
ATOM     92  O   UNL A   1      31.647  26.430  21.055  1.00  0.00    -0.269 OA
ATOM     93  C   UNL A   1      32.944  28.143  27.059  1.00  0.00     0.000 C 
BRANCH  83  94
ATOM     94  C   UNL A   1      30.354  27.990  22.899  1.00  0.00     0.086 C 
ATOM     95  C   UNL A   1      28.854  27.834  23.148  1.00  0.00     0.025 C 
ATOM     96  C   UNL A   1      30.734  29.389  23.386  1.00  0.00     0.025 C 
ATOM     97  C   UNL A   1      28.329  29.239  22.896  1.00  0.00     0.002 C 
ATOM     98  C   UNL A   1      29.417  30.170  23.428  1.00  0.00     0.002 C 
ENDBRANCH  83  94
ENDBRANCH  75  78
ENDBRANCH  73  74
ENDBRANCH  72  73
ENDBRANCH  71  72
ENDBRANCH   1  71
TORSDOF 15
ENDMDL
