MODEL 1
REMARK VINA RESULT:     -11.1      0.000      0.000
REMARK SMILES C[C@H](CC(=O)NCCCCNC(=O)c1ccc(-c2c3nc(c(-c4cc(S(=O)(=O)[O-])ccc4F)c4ccc([nH]4)c(-c4cc(S(=O)(=O)[O-])ccc4F)c4nc(c(-c5cc(S(=O)(=O)[O-])ccc5F)c5ccc2[nH]5)C=C4)C=C3)cc1)[NH2+][C@H](C)c1ccccc1
REMARK SMILES IDX 8 1 7 2 6 3 4 4 5 5 3 7 2 8 1 9 77 10 78 13 79 14 80 15
REMARK SMILES IDX 81 16 85 17 82 18 84 19 83 20 9 21 10 22 11 23 12 24 13 26
REMARK SMILES IDX 14 27 15 28 76 29 16 30 75 31 17 32 18 33 19 34 69 35 20 36
REMARK SMILES IDX 74 37 68 38 70 39 21 40 73 41 67 42 66 43 22 45 54 46 34 47
REMARK SMILES IDX 53 48 35 49 38 50 52 51 71 52 36 53 37 54 51 56 72 57 39 58
REMARK SMILES IDX 23 59 24 60 32 61 25 62 31 63 33 64 30 65 26 66 27 67 28 68
REMARK SMILES IDX 29 69 55 70 56 71 64 72 57 73 63 74 65 75 62 76 58 77 59 78
REMARK SMILES IDX 60 79 61 80 40 81 41 82 49 83 42 84 48 85 50 86 47 87 43 88
REMARK SMILES IDX 44 89 45 90 46 91
REMARK H PARENT 6 6 77 11 77 12 11 25 70 44 38 55
REMARK Flexibility Score: inf
ROOT
ATOM      1  C   UNL A   1      31.496  30.271  25.709  1.00  0.00     0.023 C 
ENDROOT
BRANCH   1   2
ATOM      2  C   UNL A   1      32.916  29.702  25.716  1.00  0.00     0.116 C 
BRANCH   2   3
ATOM      3  N   UNL A   1      33.450  29.644  24.370  1.00  0.00    -0.356 N 
ATOM      4  C   UNL A   1      33.745  28.564  23.597  1.00  0.00     0.225 C 
ATOM      5  O   UNL A   1      34.275  28.754  22.501  1.00  0.00    -0.275 OA
ATOM      6  H   UNL A   1      33.627  30.518  23.953  1.00  0.00     0.163 HD
BRANCH   4   7
ATOM      7  C   UNL A   1      33.302  27.180  24.017  1.00  0.00     0.164 C 
BRANCH   7   8
ATOM      8  C   UNL A   1      32.870  26.203  22.903  1.00  0.00     0.189 C 
ATOM      9  C   UNL A   1      33.489  24.844  23.259  1.00  0.00     0.075 C 
BRANCH   8  10
ATOM     10  N   UNL A   1      31.420  26.170  22.764  1.00  0.00    -0.338 N 
ATOM     11  H   UNL A   1      31.146  25.190  22.833  1.00  0.00     0.347 HD
ATOM     12  H   UNL A   1      31.275  26.658  21.880  1.00  0.00     0.347 HD
BRANCH  10  13
ATOM     13  C   UNL A   1      30.537  26.914  23.681  1.00  0.00     0.210 C 
ATOM     14  C   UNL A   1      29.697  26.004  24.583  1.00  0.00     0.081 C 
BRANCH  13  15
ATOM     15  C   UNL A   1      29.718  28.086  23.144  1.00  0.00     0.009 A 
ATOM     16  C   UNL A   1      28.330  28.113  23.367  1.00  0.00     0.010 A 
ATOM     17  C   UNL A   1      30.256  29.111  22.349  1.00  0.00     0.010 A 
ATOM     18  C   UNL A   1      27.528  29.138  22.852  1.00  0.00     0.001 A 
ATOM     19  C   UNL A   1      29.466  30.159  21.866  1.00  0.00     0.001 A 
ATOM     20  C   UNL A   1      28.099  30.170  22.116  1.00  0.00     0.000 A 
ENDBRANCH  13  15
ENDBRANCH  10  13
ENDBRANCH   8  10
ENDBRANCH   7   8
ENDBRANCH   4   7
ENDBRANCH   2   3
ENDBRANCH   1   2
BRANCH   1  21
ATOM     21  C   UNL A   1      31.351  31.598  26.461  1.00  0.00     0.023 C 
BRANCH  21  22
ATOM     22  C   UNL A   1      32.653  32.168  27.011  1.00  0.00     0.116 C 
BRANCH  22  23
ATOM     23  N   UNL A   1      32.525  33.555  27.423  1.00  0.00    -0.352 N 
ATOM     24  C   UNL A   1      33.242  34.239  28.377  1.00  0.00     0.251 C 
ATOM     25  H   UNL A   1      31.832  34.076  26.956  1.00  0.00     0.163 HD
ATOM     26  O   UNL A   1      32.886  35.361  28.715  1.00  0.00    -0.269 OA
BRANCH  24  27
ATOM     27  C   UNL A   1      34.416  33.597  29.011  1.00  0.00     0.039 A 
ATOM     28  C   UNL A   1      34.207  32.665  30.030  1.00  0.00     0.014 A 
ATOM     29  C   UNL A   1      35.716  33.907  28.601  1.00  0.00     0.014 A 
ATOM     30  C   UNL A   1      35.300  32.009  30.603  1.00  0.00     0.010 A 
ATOM     31  C   UNL A   1      36.795  33.192  29.114  1.00  0.00     0.010 A 
ATOM     32  C   UNL A   1      36.602  32.246  30.132  1.00  0.00    -0.014 A 
BRANCH  32  33
ATOM     33  C   UNL A   1      37.773  31.543  30.719  1.00  0.00     0.031 A 
ATOM     34  C   UNL A   1      38.223  31.874  32.118  1.00  0.00     0.074 A 
ATOM     35  C   UNL A   1      38.457  30.642  29.985  1.00  0.00     0.049 A 
ATOM     36  N   UNL A   1      39.252  31.422  32.788  1.00  0.00    -0.248 NA
ATOM     37  C   UNL A   1      37.424  32.870  32.847  1.00  0.00     0.031 C 
ATOM     38  C   UNL A   1      38.142  30.259  28.607  1.00  0.00     0.029 A 
ATOM     39  N   UNL A   1      39.561  29.885  30.292  1.00  0.00    -0.354 N 
ATOM     40  C   UNL A   1      39.230  32.085  34.011  1.00  0.00     0.074 A 
ATOM     41  C   UNL A   1      38.129  33.022  33.957  1.00  0.00     0.031 C 
ATOM     42  C   UNL A   1      39.010  29.319  28.201  1.00  0.00     0.029 A 
ATOM     43  C   UNL A   1      39.974  29.065  29.266  1.00  0.00     0.049 A 
ATOM     44  H   UNL A   1      40.015  29.925  31.165  1.00  0.00     0.167 HD
ATOM     45  C   UNL A   1      40.035  31.909  35.089  1.00  0.00     0.034 A 
ATOM     46  C   UNL A   1      41.018  28.215  29.189  1.00  0.00     0.034 A 
ATOM     47  C   UNL A   1      41.124  30.964  35.128  1.00  0.00     0.049 A 
ATOM     48  C   UNL A   1      41.920  28.062  30.390  1.00  0.00     0.074 A 
ATOM     49  C   UNL A   1      41.978  30.677  36.180  1.00  0.00     0.029 A 
ATOM     50  N   UNL A   1      41.517  30.155  34.069  1.00  0.00    -0.354 N 
ATOM     51  N   UNL A   1      41.861  28.666  31.555  1.00  0.00    -0.248 NA
ATOM     52  C   UNL A   1      43.022  27.099  30.269  1.00  0.00     0.031 C 
ATOM     53  C   UNL A   1      42.929  29.754  35.733  1.00  0.00     0.029 A 
ATOM     54  C   UNL A   1      42.617  29.392  34.432  1.00  0.00     0.049 A 
ATOM     55  H   UNL A   1      41.078  30.128  33.188  1.00  0.00     0.167 HD
ATOM     56  C   UNL A   1      42.892  28.123  32.317  1.00  0.00     0.074 A 
ATOM     57  C   UNL A   1      43.544  27.134  31.485  1.00  0.00     0.031 C 
ATOM     58  C   UNL A   1      43.264  28.411  33.592  1.00  0.00     0.034 A 
BRANCH  45  59
ATOM     59  C   UNL A   1      39.777  32.780  36.298  1.00  0.00     0.023 A 
ATOM     60  C   UNL A   1      38.976  32.342  37.368  1.00  0.00     0.031 A 
ATOM     61  C   UNL A   1      40.313  34.078  36.371  1.00  0.00     0.131 A 
ATOM     62  C   UNL A   1      38.666  33.218  38.418  1.00  0.00     0.055 A 
ATOM     63  C   UNL A   1      40.077  34.914  37.465  1.00  0.00     0.041 A 
ATOM     64  F   UNL A   1      41.067  34.564  35.373  1.00  0.00    -0.206 F 
ATOM     65  C   UNL A   1      39.235  34.491  38.489  1.00  0.00     0.022 A 
BRANCH  62  66
ATOM     66  S   UNL A   1      37.386  32.728  39.607  1.00  0.00     0.124 S 
ATOM     67  O   UNL A   1      36.189  32.729  38.768  1.00  0.00    -0.237 OA
ATOM     68  O   UNL A   1      37.853  31.420  40.052  1.00  0.00    -0.237 OA
ATOM     69  O   UNL A   1      37.431  33.784  40.615  1.00  0.00    -0.744 OA
ENDBRANCH  62  66
ENDBRANCH  45  59
BRANCH  46  70
ATOM     70  C   UNL A   1      41.281  27.443  27.940  1.00  0.00     0.023 A 
ATOM     71  C   UNL A   1      41.021  26.065  27.871  1.00  0.00     0.031 A 
ATOM     72  C   UNL A   1      41.851  28.061  26.812  1.00  0.00     0.131 A 
ATOM     73  C   UNL A   1      41.385  25.339  26.726  1.00  0.00     0.055 A 
ATOM     74  C   UNL A   1      42.152  27.347  25.651  1.00  0.00     0.041 A 
ATOM     75  F   UNL A   1      42.118  29.377  26.821  1.00  0.00    -0.206 F 
ATOM     76  C   UNL A   1      41.934  25.973  25.610  1.00  0.00     0.022 A 
BRANCH  73  77
ATOM     77  S   UNL A   1      41.225  23.532  26.755  1.00  0.00     0.124 S 
ATOM     78  O   UNL A   1      42.127  23.138  25.679  1.00  0.00    -0.237 OA
ATOM     79  O   UNL A   1      41.662  23.211  28.109  1.00  0.00    -0.237 OA
ATOM     80  O   UNL A   1      39.805  23.311  26.492  1.00  0.00    -0.744 OA
ENDBRANCH  73  77
ENDBRANCH  46  70
BRANCH  58  81
ATOM     81  C   UNL A   1      44.393  27.597  34.180  1.00  0.00     0.023 A 
ATOM     82  C   UNL A   1      44.168  26.378  34.843  1.00  0.00     0.031 A 
ATOM     83  C   UNL A   1      45.717  28.067  34.100  1.00  0.00     0.131 A 
ATOM     84  C   UNL A   1      45.235  25.710  35.463  1.00  0.00     0.055 A 
ATOM     85  C   UNL A   1      46.786  27.359  34.653  1.00  0.00     0.041 A 
ATOM     86  F   UNL A   1      45.996  29.226  33.482  1.00  0.00    -0.206 F 
ATOM     87  C   UNL A   1      46.545  26.182  35.355  1.00  0.00     0.022 A 
BRANCH  84  88
ATOM     88  S   UNL A   1      44.872  24.282  36.521  1.00  0.00     0.124 S 
ATOM     89  O   UNL A   1      46.203  23.733  36.758  1.00  0.00    -0.237 OA
ATOM     90  O   UNL A   1      44.225  24.904  37.672  1.00  0.00    -0.237 OA
ATOM     91  O   UNL A   1      43.999  23.453  35.693  1.00  0.00    -0.744 OA
ENDBRANCH  84  88
ENDBRANCH  58  81
ENDBRANCH  32  33
ENDBRANCH  24  27
ENDBRANCH  22  23
ENDBRANCH  21  22
ENDBRANCH   1  21
TORSDOF 18
ENDMDL
MODEL 2
REMARK VINA RESULT:     -11.0      1.682      7.966
REMARK SMILES C[C@H](CC(=O)NCCCCNC(=O)c1ccc(-c2c3nc(c(-c4cc(S(=O)(=O)[O-])ccc4F)c4ccc([nH]4)c(-c4cc(S(=O)(=O)[O-])ccc4F)c4nc(c(-c5cc(S(=O)(=O)[O-])ccc5F)c5ccc2[nH]5)C=C4)C=C3)cc1)[NH2+][C@H](C)c1ccccc1
REMARK SMILES IDX 8 1 7 2 6 3 4 4 5 5 3 7 2 8 1 9 77 10 78 13 79 14 80 15
REMARK SMILES IDX 81 16 85 17 82 18 84 19 83 20 9 21 10 22 11 23 12 24 13 26
REMARK SMILES IDX 14 27 15 28 76 29 16 30 75 31 17 32 18 33 19 34 69 35 20 36
REMARK SMILES IDX 74 37 68 38 70 39 21 40 73 41 67 42 66 43 22 45 54 46 34 47
REMARK SMILES IDX 53 48 35 49 38 50 52 51 71 52 36 53 37 54 51 56 72 57 39 58
REMARK SMILES IDX 23 59 24 60 32 61 25 62 31 63 33 64 30 65 26 66 27 67 28 68
REMARK SMILES IDX 29 69 55 70 56 71 64 72 57 73 63 74 65 75 62 76 58 77 59 78
REMARK SMILES IDX 60 79 61 80 40 81 41 82 49 83 42 84 48 85 50 86 47 87 43 88
REMARK SMILES IDX 44 89 45 90 46 91
REMARK H PARENT 6 6 77 11 77 12 11 25 70 44 38 55
REMARK Flexibility Score: inf
ROOT
ATOM      1  C   UNL A   1      31.474  30.376  26.396  1.00  0.00     0.023 C 
ENDROOT
BRANCH   1   2
ATOM      2  C   UNL A   1      32.845  29.732  26.182  1.00  0.00     0.116 C 
BRANCH   2   3
ATOM      3  N   UNL A   1      33.246  29.831  24.793  1.00  0.00    -0.356 N 
ATOM      4  C   UNL A   1      33.098  28.935  23.779  1.00  0.00     0.225 C 
ATOM      5  O   UNL A   1      33.596  29.202  22.684  1.00  0.00    -0.275 OA
ATOM      6  H   UNL A   1      33.693  30.672  24.546  1.00  0.00     0.163 HD
BRANCH   4   7
ATOM      7  C   UNL A   1      32.224  27.714  23.960  1.00  0.00     0.164 C 
BRANCH   7   8
ATOM      8  C   UNL A   1      31.640  27.063  22.689  1.00  0.00     0.189 C 
ATOM      9  C   UNL A   1      31.250  25.632  23.078  1.00  0.00     0.075 C 
BRANCH   8  10
ATOM     10  N   UNL A   1      30.534  27.850  22.156  1.00  0.00    -0.338 N 
ATOM     11  H   UNL A   1      30.006  27.227  21.544  1.00  0.00     0.347 HD
ATOM     12  H   UNL A   1      31.015  28.650  21.743  1.00  0.00     0.347 HD
BRANCH  10  13
ATOM     13  C   UNL A   1      29.548  28.498  23.040  1.00  0.00     0.210 C 
ATOM     14  C   UNL A   1      28.375  27.586  23.408  1.00  0.00     0.081 C 
BRANCH  13  15
ATOM     15  C   UNL A   1      29.081  29.918  22.724  1.00  0.00     0.009 A 
ATOM     16  C   UNL A   1      28.664  30.229  21.417  1.00  0.00     0.010 A 
ATOM     17  C   UNL A   1      29.128  30.976  23.647  1.00  0.00     0.010 A 
ATOM     18  C   UNL A   1      28.277  31.526  21.064  1.00  0.00     0.001 A 
ATOM     19  C   UNL A   1      28.703  32.264  23.310  1.00  0.00     0.001 A 
ATOM     20  C   UNL A   1      28.279  32.540  22.016  1.00  0.00     0.000 A 
ENDBRANCH  13  15
ENDBRANCH  10  13
ENDBRANCH   8  10
ENDBRANCH   7   8
ENDBRANCH   4   7
ENDBRANCH   2   3
ENDBRANCH   1   2
BRANCH   1  21
ATOM     21  C   UNL A   1      31.511  31.904  26.500  1.00  0.00     0.023 C 
BRANCH  21  22
ATOM     22  C   UNL A   1      32.767  32.472  27.151  1.00  0.00     0.116 C 
BRANCH  22  23
ATOM     23  N   UNL A   1      32.590  33.839  27.607  1.00  0.00    -0.352 N 
ATOM     24  C   UNL A   1      33.243  34.498  28.623  1.00  0.00     0.251 C 
ATOM     25  H   UNL A   1      31.913  34.365  27.124  1.00  0.00     0.163 HD
ATOM     26  O   UNL A   1      32.848  35.599  28.984  1.00  0.00    -0.269 OA
BRANCH  24  27
ATOM     27  C   UNL A   1      34.395  33.853  29.294  1.00  0.00     0.039 A 
ATOM     28  C   UNL A   1      35.686  34.285  28.983  1.00  0.00     0.014 A 
ATOM     29  C   UNL A   1      34.205  32.830  30.227  1.00  0.00     0.014 A 
ATOM     30  C   UNL A   1      36.782  33.725  29.644  1.00  0.00     0.010 A 
ATOM     31  C   UNL A   1      35.290  32.333  30.944  1.00  0.00     0.010 A 
ATOM     32  C   UNL A   1      36.593  32.764  30.651  1.00  0.00    -0.014 A 
BRANCH  32  33
ATOM     33  C   UNL A   1      37.747  32.171  31.377  1.00  0.00     0.031 A 
ATOM     34  C   UNL A   1      38.532  31.049  30.749  1.00  0.00     0.074 A 
ATOM     35  C   UNL A   1      38.064  32.609  32.612  1.00  0.00     0.049 A 
ATOM     36  N   UNL A   1      39.529  30.357  31.239  1.00  0.00    -0.248 NA
ATOM     37  C   UNL A   1      38.117  30.629  29.402  1.00  0.00     0.031 C 
ATOM     38  C   UNL A   1      37.361  33.666  33.341  1.00  0.00     0.029 A 
ATOM     39  N   UNL A   1      39.058  32.219  33.476  1.00  0.00    -0.354 N 
ATOM     40  C   UNL A   1      39.853  29.416  30.267  1.00  0.00     0.074 A 
ATOM     41  C   UNL A   1      38.897  29.580  29.193  1.00  0.00     0.031 C 
ATOM     42  C   UNL A   1      37.965  33.862  34.525  1.00  0.00     0.029 A 
ATOM     43  C   UNL A   1      39.065  32.914  34.664  1.00  0.00     0.049 A 
ATOM     44  H   UNL A   1      39.707  31.509  33.265  1.00  0.00     0.167 HD
ATOM     45  C   UNL A   1      40.869  28.518  30.257  1.00  0.00     0.034 A 
ATOM     46  C   UNL A   1      39.859  32.792  35.746  1.00  0.00     0.034 A 
ATOM     47  C   UNL A   1      41.819  28.373  31.334  1.00  0.00     0.049 A 
ATOM     48  C   UNL A   1      40.963  31.762  35.727  1.00  0.00     0.074 A 
ATOM     49  C   UNL A   1      42.909  27.523  31.413  1.00  0.00     0.029 A 
ATOM     50  N   UNL A   1      41.791  29.089  32.524  1.00  0.00    -0.354 N 
ATOM     51  N   UNL A   1      41.283  30.907  34.781  1.00  0.00    -0.248 NA
ATOM     52  C   UNL A   1      41.822  31.691  36.915  1.00  0.00     0.031 C 
ATOM     53  C   UNL A   1      43.492  27.672  32.675  1.00  0.00     0.029 A 
ATOM     54  C   UNL A   1      42.825  28.680  33.353  1.00  0.00     0.049 A 
ATOM     55  H   UNL A   1      41.131  29.786  32.747  1.00  0.00     0.167 HD
ATOM     56  C   UNL A   1      42.406  30.229  35.247  1.00  0.00     0.074 A 
ATOM     57  C   UNL A   1      42.715  30.785  36.548  1.00  0.00     0.031 C 
ATOM     58  C   UNL A   1      43.121  29.239  34.652  1.00  0.00     0.034 A 
BRANCH  45  59
ATOM     59  C   UNL A   1      40.982  27.609  29.055  1.00  0.00     0.023 A 
ATOM     60  C   UNL A   1      41.985  27.786  28.085  1.00  0.00     0.031 A 
ATOM     61  C   UNL A   1      40.057  26.568  28.856  1.00  0.00     0.131 A 
ATOM     62  C   UNL A   1      41.990  26.996  26.926  1.00  0.00     0.055 A 
ATOM     63  C   UNL A   1      40.122  25.725  27.745  1.00  0.00     0.041 A 
ATOM     64  F   UNL A   1      39.062  26.361  29.733  1.00  0.00    -0.206 F 
ATOM     65  C   UNL A   1      41.083  25.946  26.763  1.00  0.00     0.022 A 
BRANCH  62  66
ATOM     66  S   UNL A   1      43.096  27.461  25.565  1.00  0.00     0.124 S 
ATOM     67  O   UNL A   1      42.212  28.273  24.731  1.00  0.00    -0.237 OA
ATOM     68  O   UNL A   1      44.162  28.177  26.254  1.00  0.00    -0.237 OA
ATOM     69  O   UNL A   1      43.481  26.176  24.983  1.00  0.00    -0.744 OA
ENDBRANCH  62  66
ENDBRANCH  45  59
BRANCH  46  70
ATOM     70  C   UNL A   1      39.650  33.655  36.946  1.00  0.00     0.023 A 
ATOM     71  C   UNL A   1      39.018  33.157  38.097  1.00  0.00     0.031 A 
ATOM     72  C   UNL A   1      40.025  35.011  36.937  1.00  0.00     0.131 A 
ATOM     73  C   UNL A   1      38.728  34.019  39.166  1.00  0.00     0.055 A 
ATOM     74  C   UNL A   1      39.792  35.849  38.029  1.00  0.00     0.041 A 
ATOM     75  F   UNL A   1      40.635  35.540  35.864  1.00  0.00    -0.206 F 
ATOM     76  C   UNL A   1      39.125  35.358  39.146  1.00  0.00     0.022 A 
BRANCH  73  77
ATOM     77  S   UNL A   1      37.731  33.389  40.544  1.00  0.00     0.124 S 
ATOM     78  O   UNL A   1      37.569  34.585  41.363  1.00  0.00    -0.237 OA
ATOM     79  O   UNL A   1      36.534  32.913  39.859  1.00  0.00    -0.237 OA
ATOM     80  O   UNL A   1      38.571  32.344  41.124  1.00  0.00    -0.744 OA
ENDBRANCH  73  77
ENDBRANCH  46  70
BRANCH  58  81
ATOM     81  C   UNL A   1      44.347  28.741  35.383  1.00  0.00     0.023 A 
ATOM     82  C   UNL A   1      44.277  27.723  36.351  1.00  0.00     0.031 A 
ATOM     83  C   UNL A   1      45.604  29.318  35.126  1.00  0.00     0.131 A 
ATOM     84  C   UNL A   1      45.424  27.366  37.076  1.00  0.00     0.055 A 
ATOM     85  C   UNL A   1      46.756  28.906  35.798  1.00  0.00     0.041 A 
ATOM     86  F   UNL A   1      45.734  30.297  34.216  1.00  0.00    -0.206 F 
ATOM     87  C   UNL A   1      46.667  27.937  36.793  1.00  0.00     0.022 A 
BRANCH  84  88
ATOM     88  S   UNL A   1      45.246  26.237  38.486  1.00  0.00     0.124 S 
ATOM     89  O   UNL A   1      46.322  26.681  39.366  1.00  0.00    -0.237 OA
ATOM     90  O   UNL A   1      43.891  26.522  38.943  1.00  0.00    -0.237 OA
ATOM     91  O   UNL A   1      45.437  24.915  37.893  1.00  0.00    -0.744 OA
ENDBRANCH  84  88
ENDBRANCH  58  81
ENDBRANCH  32  33
ENDBRANCH  24  27
ENDBRANCH  22  23
ENDBRANCH  21  22
ENDBRANCH   1  21
TORSDOF 18
ENDMDL
MODEL 3
REMARK VINA RESULT:     -10.8      2.687      4.083
REMARK SMILES C[C@H](CC(=O)NCCCCNC(=O)c1ccc(-c2c3nc(c(-c4cc(S(=O)(=O)[O-])ccc4F)c4ccc([nH]4)c(-c4cc(S(=O)(=O)[O-])ccc4F)c4nc(c(-c5cc(S(=O)(=O)[O-])ccc5F)c5ccc2[nH]5)C=C4)C=C3)cc1)[NH2+][C@H](C)c1ccccc1
REMARK SMILES IDX 8 1 7 2 6 3 4 4 5 5 3 7 2 8 1 9 77 10 78 13 79 14 80 15
REMARK SMILES IDX 81 16 85 17 82 18 84 19 83 20 9 21 10 22 11 23 12 24 13 26
REMARK SMILES IDX 14 27 15 28 76 29 16 30 75 31 17 32 18 33 19 34 69 35 20 36
REMARK SMILES IDX 74 37 68 38 70 39 21 40 73 41 67 42 66 43 22 45 54 46 34 47
REMARK SMILES IDX 53 48 35 49 38 50 52 51 71 52 36 53 37 54 51 56 72 57 39 58
REMARK SMILES IDX 23 59 24 60 32 61 25 62 31 63 33 64 30 65 26 66 27 67 28 68
REMARK SMILES IDX 29 69 55 70 56 71 64 72 57 73 63 74 65 75 62 76 58 77 59 78
REMARK SMILES IDX 60 79 61 80 40 81 41 82 49 83 42 84 48 85 50 86 47 87 43 88
REMARK SMILES IDX 44 89 45 90 46 91
REMARK H PARENT 6 6 77 11 77 12 11 25 70 44 38 55
REMARK Flexibility Score: inf
ROOT
ATOM      1  C   UNL A   1      31.754  27.656  26.783  1.00  0.00     0.023 C 
ENDROOT
BRANCH   1   2
ATOM      2  C   UNL A   1      31.658  26.453  25.843  1.00  0.00     0.116 C 
BRANCH   2   3
ATOM      3  N   UNL A   1      31.053  25.323  26.519  1.00  0.00    -0.356 N 
ATOM      4  C   UNL A   1      31.595  24.123  26.865  1.00  0.00     0.225 C 
ATOM      5  O   UNL A   1      30.860  23.270  27.365  1.00  0.00    -0.275 OA
ATOM      6  H   UNL A   1      30.107  25.440  26.764  1.00  0.00     0.163 HD
BRANCH   4   7
ATOM      7  C   UNL A   1      33.088  23.903  26.764  1.00  0.00     0.164 C 
BRANCH   7   8
ATOM      8  C   UNL A   1      33.572  22.523  26.272  1.00  0.00     0.189 C 
ATOM      9  C   UNL A   1      34.031  21.757  27.519  1.00  0.00     0.075 C 
BRANCH   8  10
ATOM     10  N   UNL A   1      32.531  21.840  25.513  1.00  0.00    -0.338 N 
ATOM     11  H   UNL A   1      31.733  22.475  25.484  1.00  0.00     0.347 HD
ATOM     12  H   UNL A   1      32.438  20.958  26.016  1.00  0.00     0.347 HD
BRANCH  10  13
ATOM     13  C   UNL A   1      32.754  21.390  24.127  1.00  0.00     0.210 C 
ATOM     14  C   UNL A   1      31.808  22.048  23.118  1.00  0.00     0.081 C 
BRANCH  13  15
ATOM     15  C   UNL A   1      32.931  19.899  23.845  1.00  0.00     0.009 A 
ATOM     16  C   UNL A   1      33.824  19.152  24.635  1.00  0.00     0.010 A 
ATOM     17  C   UNL A   1      32.319  19.232  22.771  1.00  0.00     0.010 A 
ATOM     18  C   UNL A   1      34.061  17.796  24.384  1.00  0.00     0.001 A 
ATOM     19  C   UNL A   1      32.520  17.868  22.542  1.00  0.00     0.001 A 
ATOM     20  C   UNL A   1      33.395  17.150  23.348  1.00  0.00     0.000 A 
ENDBRANCH  13  15
ENDBRANCH  10  13
ENDBRANCH   8  10
ENDBRANCH   7   8
ENDBRANCH   4   7
ENDBRANCH   2   3
ENDBRANCH   1   2
BRANCH   1  21
ATOM     21  C   UNL A   1      31.785  29.009  26.065  1.00  0.00     0.023 C 
BRANCH  21  22
ATOM     22  C   UNL A   1      33.102  29.767  26.183  1.00  0.00     0.116 C 
BRANCH  22  23
ATOM     23  N   UNL A   1      32.915  31.156  26.563  1.00  0.00    -0.352 N 
ATOM     24  C   UNL A   1      33.654  31.916  27.439  1.00  0.00     0.251 C 
ATOM     25  H   UNL A   1      32.157  31.616  26.134  1.00  0.00     0.163 HD
ATOM     26  O   UNL A   1      33.251  33.024  27.771  1.00  0.00    -0.269 OA
BRANCH  24  27
ATOM     27  C   UNL A   1      34.911  31.370  28.002  1.00  0.00     0.039 A 
ATOM     28  C   UNL A   1      36.038  32.193  28.057  1.00  0.00     0.014 A 
ATOM     29  C   UNL A   1      34.978  30.057  28.476  1.00  0.00     0.014 A 
ATOM     30  C   UNL A   1      37.218  31.713  28.632  1.00  0.00     0.010 A 
ATOM     31  C   UNL A   1      36.127  29.610  29.123  1.00  0.00     0.010 A 
ATOM     32  C   UNL A   1      37.265  30.428  29.196  1.00  0.00    -0.014 A 
BRANCH  32  33
ATOM     33  C   UNL A   1      38.507  29.909  29.829  1.00  0.00     0.031 A 
ATOM     34  C   UNL A   1      38.919  30.405  31.191  1.00  0.00     0.074 A 
ATOM     35  C   UNL A   1      39.285  29.029  29.167  1.00  0.00     0.049 A 
ATOM     36  N   UNL A   1      39.992  30.128  31.886  1.00  0.00    -0.248 NA
ATOM     37  C   UNL A   1      38.016  31.367  31.841  1.00  0.00     0.031 C 
ATOM     38  C   UNL A   1      39.012  28.498  27.829  1.00  0.00     0.029 A 
ATOM     39  N   UNL A   1      40.466  28.426  29.526  1.00  0.00    -0.354 N 
ATOM     40  C   UNL A   1      39.898  30.886  33.048  1.00  0.00     0.074 A 
ATOM     41  C   UNL A   1      38.701  31.690  32.927  1.00  0.00     0.031 C 
ATOM     42  C   UNL A   1      39.978  27.627  27.496  1.00  0.00     0.029 A 
ATOM     43  C   UNL A   1      40.965  27.572  28.569  1.00  0.00     0.049 A 
ATOM     44  H   UNL A   1      40.913  28.589  30.387  1.00  0.00     0.167 HD
ATOM     45  C   UNL A   1      40.718  30.892  34.129  1.00  0.00     0.034 A 
ATOM     46  C   UNL A   1      42.095  26.837  28.554  1.00  0.00     0.034 A 
ATOM     47  C   UNL A   1      41.905  30.078  34.237  1.00  0.00     0.049 A 
ATOM     48  C   UNL A   1      43.010  26.886  29.754  1.00  0.00     0.074 A 
ATOM     49  C   UNL A   1      42.787  29.977  35.300  1.00  0.00     0.029 A 
ATOM     50  N   UNL A   1      42.383  29.230  33.246  1.00  0.00    -0.354 N 
ATOM     51  N   UNL A   1      42.886  27.578  30.864  1.00  0.00    -0.248 NA
ATOM     52  C   UNL A   1      44.211  26.042  29.703  1.00  0.00     0.031 C 
ATOM     53  C   UNL A   1      43.832  29.129  34.924  1.00  0.00     0.029 A 
ATOM     54  C   UNL A   1      43.560  28.625  33.661  1.00  0.00     0.049 A 
ATOM     55  H   UNL A   1      41.949  29.080  32.375  1.00  0.00     0.167 HD
ATOM     56  C   UNL A   1      43.971  27.217  31.659  1.00  0.00     0.074 A 
ATOM     57  C   UNL A   1      44.727  26.238  30.907  1.00  0.00     0.031 C 
ATOM     58  C   UNL A   1      44.310  27.652  32.900  1.00  0.00     0.034 A 
BRANCH  45  59
ATOM     59  C   UNL A   1      40.368  31.830  35.262  1.00  0.00     0.023 A 
ATOM     60  C   UNL A   1      39.420  31.483  36.242  1.00  0.00     0.031 A 
ATOM     61  C   UNL A   1      40.966  33.100  35.350  1.00  0.00     0.131 A 
ATOM     62  C   UNL A   1      39.037  32.422  37.212  1.00  0.00     0.055 A 
ATOM     63  C   UNL A   1      40.648  33.995  36.374  1.00  0.00     0.041 A 
ATOM     64  F   UNL A   1      41.861  33.499  34.434  1.00  0.00    -0.206 F 
ATOM     65  C   UNL A   1      39.666  33.665  37.302  1.00  0.00     0.022 A 
BRANCH  62  66
ATOM     66  S   UNL A   1      37.597  32.054  38.252  1.00  0.00     0.124 S 
ATOM     67  O   UNL A   1      37.346  30.653  37.923  1.00  0.00    -0.237 OA
ATOM     68  O   UNL A   1      38.102  32.315  39.595  1.00  0.00    -0.237 OA
ATOM     69  O   UNL A   1      36.580  32.989  37.774  1.00  0.00    -0.744 OA
ENDBRANCH  62  66
ENDBRANCH  45  59
BRANCH  46  70
ATOM     70  C   UNL A   1      42.440  25.995  27.371  1.00  0.00     0.023 A 
ATOM     71  C   UNL A   1      42.032  24.653  27.293  1.00  0.00     0.031 A 
ATOM     72  C   UNL A   1      43.234  26.501  26.327  1.00  0.00     0.131 A 
ATOM     73  C   UNL A   1      42.466  23.849  26.228  1.00  0.00     0.055 A 
ATOM     74  C   UNL A   1      43.611  25.715  25.237  1.00  0.00     0.041 A 
ATOM     75  F   UNL A   1      43.651  27.777  26.348  1.00  0.00    -0.206 F 
ATOM     76  C   UNL A   1      43.240  24.374  25.192  1.00  0.00     0.022 A 
BRANCH  73  77
ATOM     77  S   UNL A   1      42.091  22.074  26.270  1.00  0.00     0.124 S 
ATOM     78  O   UNL A   1      42.893  21.576  25.158  1.00  0.00    -0.237 OA
ATOM     79  O   UNL A   1      42.543  21.700  27.605  1.00  0.00    -0.237 OA
ATOM     80  O   UNL A   1      40.645  22.027  26.068  1.00  0.00    -0.744 OA
ENDBRANCH  73  77
ENDBRANCH  46  70
BRANCH  58  81
ATOM     81  C   UNL A   1      45.523  27.020  33.544  1.00  0.00     0.023 A 
ATOM     82  C   UNL A   1      45.431  25.852  34.322  1.00  0.00     0.031 A 
ATOM     83  C   UNL A   1      46.789  27.615  33.398  1.00  0.00     0.131 A 
ATOM     84  C   UNL A   1      46.566  25.360  34.984  1.00  0.00     0.055 A 
ATOM     85  C   UNL A   1      47.930  27.077  33.998  1.00  0.00     0.041 A 
ATOM     86  F   UNL A   1      46.941  28.733  32.670  1.00  0.00    -0.206 F 
ATOM     87  C   UNL A   1      47.819  25.954  34.811  1.00  0.00     0.022 A 
BRANCH  84  88
ATOM     88  S   UNL A   1      46.361  24.009  36.178  1.00  0.00     0.124 S 
ATOM     89  O   UNL A   1      44.968  23.629  35.968  1.00  0.00    -0.237 OA
ATOM     90  O   UNL A   1      47.359  23.044  35.730  1.00  0.00    -0.237 OA
ATOM     91  O   UNL A   1      46.644  24.642  37.464  1.00  0.00    -0.744 OA
ENDBRANCH  84  88
ENDBRANCH  58  81
ENDBRANCH  32  33
ENDBRANCH  24  27
ENDBRANCH  22  23
ENDBRANCH  21  22
ENDBRANCH   1  21
TORSDOF 18
ENDMDL
