MODEL 1
REMARK VINA RESULT:     -11.6      0.000      0.000
REMARK SMILES O=C(NCCCCNC(=O)[C@H](CO)NC(=O)[C@H](Cc1c[nH]c2ccccc12)NC(=O)[C@H](Cc1ccc(O)cc1)NC(=O)c1ccc(F)cc1)c1ccc(-c2c3nc(c(-c4cc(S(=O)(=O)[O-])ccc4F)c4ccc([nH]4)c(-c4cc(S(=O)(=O)[O-])ccc4F)c4nc(c(-c5cc(S(=O)(=O)[O-])ccc5F)c5ccc2[nH]5)C=C4)C=C3)cc1
REMARK SMILES IDX 8 1 9 2 10 3 7 5 6 6 5 7 4 8 3 9 1 10 2 11 50 13 51 14
REMARK SMILES IDX 112 15 52 16 111 17 53 18 54 19 55 20 105 21 56 22 110 23
REMARK SMILES IDX 104 24 106 25 57 26 109 27 103 28 102 29 58 31 90 32 70 33
REMARK SMILES IDX 89 34 71 35 74 36 88 37 107 38 72 39 73 40 87 42 108 43
REMARK SMILES IDX 75 44 59 45 60 46 68 47 61 48 67 49 69 50 66 51 62 52 63 53
REMARK SMILES IDX 64 54 65 55 91 56 92 57 100 58 93 59 99 60 101 61 98 62
REMARK SMILES IDX 94 63 95 64 96 65 97 66 76 67 77 68 85 69 78 70 84 71 86 72
REMARK SMILES IDX 83 73 79 74 80 75 81 76 82 77 11 78 14 79 15 80 16 82 17 83
REMARK SMILES IDX 28 84 29 85 30 87 31 88 40 89 41 90 42 92 43 93 44 94 49 95
REMARK SMILES IDX 45 96 48 97 46 98 47 99 32 100 33 101 34 102 39 103 35 104
REMARK SMILES IDX 38 105 36 106 37 107 18 109 19 110 20 111 27 112 21 113
REMARK SMILES IDX 22 114 26 115 23 117 25 118 24 119 12 120 13 121
REMARK H PARENT 8 4 3 12 106 30 74 41 14 81 28 86 40 91 37 108 21 116 13 122
REMARK Flexibility Score: inf
ROOT
ATOM      1  N   UNL A   1      38.860  22.118  26.307  1.00  0.00    -0.354 N 
ATOM      2  C   UNL A   1      38.273  23.326  26.503  1.00  0.00     0.244 C 
ATOM      3  O   UNL A   1      38.727  23.939  27.486  1.00  0.00    -0.273 OA
ATOM      4  H   UNL A   1      39.722  22.099  26.783  1.00  0.00     0.163 HD
ENDROOT
BRANCH   1   5
ATOM      5  C   UNL A   1      38.657  20.829  25.632  1.00  0.00     0.116 C 
BRANCH   5   6
ATOM      6  C   UNL A   1      39.721  19.748  25.820  1.00  0.00     0.023 C 
BRANCH   6   7
ATOM      7  C   UNL A   1      41.134  20.345  25.927  1.00  0.00     0.023 C 
BRANCH   7   8
ATOM      8  C   UNL A   1      42.190  19.448  26.570  1.00  0.00     0.116 C 
BRANCH   8   9
ATOM      9  N   UNL A   1      43.134  18.888  25.615  1.00  0.00    -0.352 N 
ATOM     10  O   UNL A   1      44.832  19.005  24.095  1.00  0.00    -0.269 OA
ATOM     11  C   UNL A   1      44.102  19.567  24.906  1.00  0.00     0.251 C 
ATOM     12  H   UNL A   1      43.076  17.917  25.458  1.00  0.00     0.163 HD
BRANCH  11  13
ATOM     13  C   UNL A   1      44.251  21.004  25.162  1.00  0.00     0.039 A 
ATOM     14  C   UNL A   1      44.735  21.388  26.412  1.00  0.00     0.014 A 
ATOM     15  C   UNL A   1      43.829  21.943  24.216  1.00  0.00     0.014 A 
ATOM     16  C   UNL A   1      44.708  22.726  26.760  1.00  0.00     0.010 A 
ATOM     17  C   UNL A   1      43.887  23.299  24.539  1.00  0.00     0.010 A 
ATOM     18  C   UNL A   1      44.327  23.693  25.810  1.00  0.00    -0.014 A 
BRANCH  18  19
ATOM     19  C   UNL A   1      44.600  25.109  26.137  1.00  0.00     0.031 A 
ATOM     20  C   UNL A   1      43.563  25.996  26.746  1.00  0.00     0.074 A 
ATOM     21  C   UNL A   1      45.863  25.531  25.940  1.00  0.00     0.049 A 
ATOM     22  N   UNL A   1      43.694  27.221  27.181  1.00  0.00    -0.248 NA
ATOM     23  C   UNL A   1      42.207  25.448  26.879  1.00  0.00     0.031 C 
ATOM     24  C   UNL A   1      46.932  24.711  25.356  1.00  0.00     0.029 A 
ATOM     25  N   UNL A   1      46.485  26.706  26.256  1.00  0.00    -0.354 N 
ATOM     26  C   UNL A   1      42.440  27.599  27.641  1.00  0.00     0.074 A 
ATOM     27  C   UNL A   1      41.553  26.478  27.403  1.00  0.00     0.031 C 
ATOM     28  C   UNL A   1      48.092  25.367  25.454  1.00  0.00     0.029 A 
ATOM     29  C   UNL A   1      47.838  26.684  26.017  1.00  0.00     0.049 A 
ATOM     30  H   UNL A   1      46.011  27.489  26.619  1.00  0.00     0.167 HD
ATOM     31  C   UNL A   1      42.078  28.776  28.210  1.00  0.00     0.034 A 
ATOM     32  C   UNL A   1      48.775  27.626  26.220  1.00  0.00     0.034 A 
ATOM     33  C   UNL A   1      42.995  29.876  28.407  1.00  0.00     0.049 A 
ATOM     34  C   UNL A   1      48.339  28.937  26.797  1.00  0.00     0.074 A 
ATOM     35  C   UNL A   1      42.743  31.123  28.953  1.00  0.00     0.029 A 
ATOM     36  N   UNL A   1      44.342  29.864  28.055  1.00  0.00    -0.354 N 
ATOM     37  N   UNL A   1      47.140  29.297  27.192  1.00  0.00    -0.248 NA
ATOM     38  C   UNL A   1      49.367  29.970  26.942  1.00  0.00     0.031 C 
ATOM     39  C   UNL A   1      43.917  31.882  28.872  1.00  0.00     0.029 A 
ATOM     40  C   UNL A   1      44.925  31.088  28.347  1.00  0.00     0.049 A 
ATOM     41  H   UNL A   1      44.812  29.096  27.656  1.00  0.00     0.167 HD
ATOM     42  C   UNL A   1      47.267  30.603  27.641  1.00  0.00     0.074 A 
ATOM     43  C   UNL A   1      48.665  30.961  27.476  1.00  0.00     0.031 C 
ATOM     44  C   UNL A   1      46.316  31.428  28.148  1.00  0.00     0.034 A 
BRANCH  31  45
ATOM     45  C   UNL A   1      40.631  28.944  28.605  1.00  0.00     0.023 A 
ATOM     46  C   UNL A   1      40.216  28.862  29.946  1.00  0.00     0.031 A 
ATOM     47  C   UNL A   1      39.648  29.174  27.625  1.00  0.00     0.131 A 
ATOM     48  C   UNL A   1      38.851  28.949  30.263  1.00  0.00     0.055 A 
ATOM     49  C   UNL A   1      38.300  29.330  27.955  1.00  0.00     0.041 A 
ATOM     50  F   UNL A   1      39.980  29.240  26.327  1.00  0.00    -0.206 F 
ATOM     51  C   UNL A   1      37.893  29.206  29.281  1.00  0.00     0.022 A 
BRANCH  48  52
ATOM     52  S   UNL A   1      38.333  28.605  31.968  1.00  0.00     0.124 S 
ATOM     53  O   UNL A   1      39.313  29.371  32.736  1.00  0.00    -0.237 OA
ATOM     54  O   UNL A   1      36.967  29.112  31.994  1.00  0.00    -0.237 OA
ATOM     55  O   UNL A   1      38.463  27.153  32.080  1.00  0.00    -0.744 OA
ENDBRANCH  48  52
ENDBRANCH  31  45
BRANCH  32  56
ATOM     56  C   UNL A   1      50.185  27.335  25.853  1.00  0.00     0.023 A 
ATOM     57  C   UNL A   1      50.616  27.417  24.522  1.00  0.00     0.031 A 
ATOM     58  C   UNL A   1      51.145  27.074  26.850  1.00  0.00     0.131 A 
ATOM     59  C   UNL A   1      51.977  27.247  24.222  1.00  0.00     0.055 A 
ATOM     60  C   UNL A   1      52.500  26.944  26.551  1.00  0.00     0.041 A 
ATOM     61  F   UNL A   1      50.779  27.012  28.141  1.00  0.00    -0.206 F 
ATOM     62  C   UNL A   1      52.923  27.029  25.228  1.00  0.00     0.022 A 
BRANCH  59  63
ATOM     63  S   UNL A   1      52.506  27.333  22.490  1.00  0.00     0.124 S 
ATOM     64  O   UNL A   1      53.424  26.202  22.404  1.00  0.00    -0.237 OA
ATOM     65  O   UNL A   1      51.242  27.190  21.776  1.00  0.00    -0.237 OA
ATOM     66  O   UNL A   1      53.130  28.651  22.389  1.00  0.00    -0.744 OA
ENDBRANCH  59  63
ENDBRANCH  32  56
BRANCH  44  67
ATOM     67  C   UNL A   1      46.769  32.794  28.583  1.00  0.00     0.023 A 
ATOM     68  C   UNL A   1      47.221  33.038  29.890  1.00  0.00     0.031 A 
ATOM     69  C   UNL A   1      46.773  33.858  27.664  1.00  0.00     0.131 A 
ATOM     70  C   UNL A   1      47.627  34.330  30.255  1.00  0.00     0.055 A 
ATOM     71  C   UNL A   1      47.226  35.129  28.018  1.00  0.00     0.041 A 
ATOM     72  F   UNL A   1      46.347  33.673  26.405  1.00  0.00    -0.206 F 
ATOM     73  C   UNL A   1      47.650  35.370  29.321  1.00  0.00     0.022 A 
BRANCH  70  74
ATOM     74  S   UNL A   1      48.084  34.645  31.979  1.00  0.00     0.124 S 
ATOM     75  O   UNL A   1      49.387  33.994  32.070  1.00  0.00    -0.237 OA
ATOM     76  O   UNL A   1      48.094  36.103  32.043  1.00  0.00    -0.237 OA
ATOM     77  O   UNL A   1      47.015  34.001  32.741  1.00  0.00    -0.744 OA
ENDBRANCH  70  74
ENDBRANCH  44  67
ENDBRANCH  18  19
ENDBRANCH  11  13
ENDBRANCH   8   9
ENDBRANCH   7   8
ENDBRANCH   6   7
ENDBRANCH   5   6
ENDBRANCH   1   5
BRANCH   2  78
ATOM     78  C   UNL A   1      37.157  24.038  25.659  1.00  0.00     0.197 C 
BRANCH  78  79
ATOM     79  N   UNL A   1      37.023  23.425  24.229  1.00  0.00    -0.340 N 
ATOM     80  C   UNL A   1      36.277  23.174  23.109  1.00  0.00     0.243 C 
ATOM     81  H   UNL A   1      37.902  23.024  24.042  1.00  0.00     0.164 HD
ATOM     82  O   UNL A   1      36.934  22.413  22.367  1.00  0.00    -0.273 OA
BRANCH  80  83
ATOM     83  C   UNL A   1      34.727  23.508  22.649  1.00  0.00     0.175 C 
BRANCH  83  84
ATOM     84  N   UNL A   1      33.460  22.683  22.646  1.00  0.00    -0.342 N 
ATOM     85  C   UNL A   1      32.911  21.648  23.342  1.00  0.00     0.243 C 
ATOM     86  H   UNL A   1      32.853  22.982  21.931  1.00  0.00     0.164 HD
ATOM     87  O   UNL A   1      32.039  20.953  22.820  1.00  0.00    -0.273 OA
BRANCH  85  88
ATOM     88  C   UNL A   1      33.293  21.471  24.784  1.00  0.00     0.176 C 
BRANCH  88  89
ATOM     89  N   UNL A   1      31.966  21.474  25.463  1.00  0.00    -0.340 N 
ATOM     90  C   UNL A   1      30.991  22.314  25.895  1.00  0.00     0.251 C 
ATOM     91  H   UNL A   1      31.707  20.546  25.669  1.00  0.00     0.164 HD
ATOM     92  O   UNL A   1      29.947  21.776  26.277  1.00  0.00    -0.269 OA
BRANCH  90  93
ATOM     93  C   UNL A   1      31.071  23.779  25.982  1.00  0.00     0.040 A 
ATOM     94  C   UNL A   1      30.034  24.634  25.622  1.00  0.00     0.017 A 
ATOM     95  C   UNL A   1      32.212  24.304  26.629  1.00  0.00     0.017 A 
ATOM     96  C   UNL A   1      30.168  26.008  25.866  1.00  0.00     0.040 A 
ATOM     97  C   UNL A   1      32.346  25.676  26.846  1.00  0.00     0.040 A 
ATOM     98  C   UNL A   1      31.325  26.520  26.447  1.00  0.00     0.123 A 
ATOM     99  F   UNL A   1      31.442  27.838  26.647  1.00  0.00    -0.207 F 
ENDBRANCH  90  93
ENDBRANCH  88  89
BRANCH  88 100
ATOM    100  C   UNL A   1      34.072  20.132  24.807  1.00  0.00     0.070 C 
BRANCH 100 101
ATOM    101  C   UNL A   1      33.527  18.688  24.759  1.00  0.00    -0.045 A 
ATOM    102  C   UNL A   1      34.101  17.784  23.840  1.00  0.00     0.007 A 
ATOM    103  C   UNL A   1      32.664  18.120  25.692  1.00  0.00     0.007 A 
ATOM    104  C   UNL A   1      34.058  16.398  23.986  1.00  0.00     0.046 A 
ATOM    105  C   UNL A   1      32.605  16.721  25.853  1.00  0.00     0.046 A 
ATOM    106  C   UNL A   1      33.351  15.876  25.042  1.00  0.00     0.115 A 
BRANCH 106 107
ATOM    107  O   UNL A   1      33.393  14.542  25.311  1.00  0.00    -0.508 OA
ATOM    108  H   UNL A   1      32.682  14.131  25.762  1.00  0.00     0.293 HD
ENDBRANCH 106 107
ENDBRANCH 100 101
ENDBRANCH  88 100
ENDBRANCH  85  88
ENDBRANCH  83  84
BRANCH  83 109
ATOM    109  C   UNL A   1      34.220  24.813  23.404  1.00  0.00     0.072 C 
BRANCH 109 110
ATOM    110  C   UNL A   1      33.124  25.648  22.732  1.00  0.00    -0.020 A 
ATOM    111  C   UNL A   1      32.296  25.164  21.736  1.00  0.00     0.087 A 
ATOM    112  C   UNL A   1      32.629  26.987  23.029  1.00  0.00     0.003 A 
ATOM    113  N   UNL A   1      31.366  26.107  21.416  1.00  0.00    -0.361 N 
ATOM    114  C   UNL A   1      31.509  27.209  22.216  1.00  0.00     0.046 A 
ATOM    115  C   UNL A   1      32.982  28.033  23.919  1.00  0.00     0.010 A 
ATOM    116  H   UNL A   1      30.688  26.010  20.709  1.00  0.00     0.166 HD
ATOM    117  C   UNL A   1      30.719  28.366  22.268  1.00  0.00     0.026 A 
ATOM    118  C   UNL A   1      32.207  29.211  23.969  1.00  0.00     0.001 A 
ATOM    119  C   UNL A   1      31.083  29.367  23.165  1.00  0.00     0.002 A 
ENDBRANCH 109 110
ENDBRANCH  83 109
ENDBRANCH  80  83
ENDBRANCH  78  79
BRANCH  78 120
ATOM    120  C   UNL A   1      35.891  23.612  26.471  1.00  0.00     0.191 C 
BRANCH 120 121
ATOM    121  O   UNL A   1      35.954  22.243  26.850  1.00  0.00    -0.394 OA
ATOM    122  H   UNL A   1      35.100  21.820  26.675  1.00  0.00     0.210 HD
ENDBRANCH 120 121
ENDBRANCH  78 120
ENDBRANCH   2  78
TORSDOF 27
ENDMDL
MODEL 2
REMARK VINA RESULT:     -11.4      3.105      4.260
REMARK SMILES O=C(NCCCCNC(=O)[C@H](CO)NC(=O)[C@H](Cc1c[nH]c2ccccc12)NC(=O)[C@H](Cc1ccc(O)cc1)NC(=O)c1ccc(F)cc1)c1ccc(-c2c3nc(c(-c4cc(S(=O)(=O)[O-])ccc4F)c4ccc([nH]4)c(-c4cc(S(=O)(=O)[O-])ccc4F)c4nc(c(-c5cc(S(=O)(=O)[O-])ccc5F)c5ccc2[nH]5)C=C4)C=C3)cc1
REMARK SMILES IDX 8 1 9 2 10 3 7 5 6 6 5 7 4 8 3 9 1 10 2 11 50 13 51 14
REMARK SMILES IDX 112 15 52 16 111 17 53 18 54 19 55 20 105 21 56 22 110 23
REMARK SMILES IDX 104 24 106 25 57 26 109 27 103 28 102 29 58 31 90 32 70 33
REMARK SMILES IDX 89 34 71 35 74 36 88 37 107 38 72 39 73 40 87 42 108 43
REMARK SMILES IDX 75 44 59 45 60 46 68 47 61 48 67 49 69 50 66 51 62 52 63 53
REMARK SMILES IDX 64 54 65 55 91 56 92 57 100 58 93 59 99 60 101 61 98 62
REMARK SMILES IDX 94 63 95 64 96 65 97 66 76 67 77 68 85 69 78 70 84 71 86 72
REMARK SMILES IDX 83 73 79 74 80 75 81 76 82 77 11 78 14 79 15 80 16 82 17 83
REMARK SMILES IDX 28 84 29 85 30 87 31 88 40 89 41 90 42 92 43 93 44 94 49 95
REMARK SMILES IDX 45 96 48 97 46 98 47 99 32 100 33 101 34 102 39 103 35 104
REMARK SMILES IDX 38 105 36 106 37 107 18 109 19 110 20 111 27 112 21 113
REMARK SMILES IDX 22 114 26 115 23 117 25 118 24 119 12 120 13 121
REMARK H PARENT 8 4 3 12 106 30 74 41 14 81 28 86 40 91 37 108 21 116 13 122
REMARK Flexibility Score: inf
ROOT
ATOM      1  N   UNL A   1      39.513  23.185  27.043  1.00  0.00    -0.354 N 
ATOM      2  C   UNL A   1      38.311  23.309  26.424  1.00  0.00     0.244 C 
ATOM      3  O   UNL A   1      37.851  24.465  26.471  1.00  0.00    -0.273 OA
ATOM      4  H   UNL A   1      39.920  24.077  27.134  1.00  0.00     0.163 HD
ENDROOT
BRANCH   1   5
ATOM      5  C   UNL A   1      40.417  22.183  27.624  1.00  0.00     0.116 C 
BRANCH   5   6
ATOM      6  C   UNL A   1      41.817  22.637  28.034  1.00  0.00     0.023 C 
BRANCH   6   7
ATOM      7  C   UNL A   1      42.912  21.944  27.206  1.00  0.00     0.023 C 
BRANCH   7   8
ATOM      8  C   UNL A   1      44.274  22.634  27.191  1.00  0.00     0.116 C 
BRANCH   8   9
ATOM      9  N   UNL A   1      44.911  22.632  25.881  1.00  0.00    -0.352 N 
ATOM     10  O   UNL A   1      45.733  23.618  23.996  1.00  0.00    -0.269 OA
ATOM     11  C   UNL A   1      45.223  23.728  25.107  1.00  0.00     0.251 C 
ATOM     12  H   UNL A   1      45.144  21.750  25.508  1.00  0.00     0.163 HD
BRANCH  11  13
ATOM     13  C   UNL A   1      44.940  25.056  25.660  1.00  0.00     0.039 A 
ATOM     14  C   UNL A   1      45.577  25.407  26.850  1.00  0.00     0.014 A 
ATOM     15  C   UNL A   1      43.991  25.891  25.061  1.00  0.00     0.014 A 
ATOM     16  C   UNL A   1      45.192  26.563  27.502  1.00  0.00     0.010 A 
ATOM     17  C   UNL A   1      43.670  27.101  25.677  1.00  0.00     0.010 A 
ATOM     18  C   UNL A   1      44.271  27.440  26.898  1.00  0.00    -0.014 A 
BRANCH  18  19
ATOM     19  C   UNL A   1      44.125  28.786  27.491  1.00  0.00     0.031 A 
ATOM     20  C   UNL A   1      42.877  29.212  28.193  1.00  0.00     0.074 A 
ATOM     21  C   UNL A   1      45.213  29.577  27.443  1.00  0.00     0.049 A 
ATOM     22  N   UNL A   1      42.650  30.319  28.850  1.00  0.00    -0.248 NA
ATOM     23  C   UNL A   1      41.735  28.289  28.151  1.00  0.00     0.031 C 
ATOM     24  C   UNL A   1      46.473  29.218  26.779  1.00  0.00     0.029 A 
ATOM     25  N   UNL A   1      45.471  30.798  28.001  1.00  0.00    -0.354 N 
ATOM     26  C   UNL A   1      41.340  30.232  29.303  1.00  0.00     0.074 A 
ATOM     27  C   UNL A   1      40.813  28.973  28.816  1.00  0.00     0.031 C 
ATOM     28  C   UNL A   1      47.396  30.144  27.058  1.00  0.00     0.029 A 
ATOM     29  C   UNL A   1      46.774  31.204  27.836  1.00  0.00     0.049 A 
ATOM     30  H   UNL A   1      44.792  31.331  28.474  1.00  0.00     0.167 HD
ATOM     31  C   UNL A   1      40.656  31.129  30.055  1.00  0.00     0.034 A 
ATOM     32  C   UNL A   1      47.400  32.316  28.258  1.00  0.00     0.034 A 
ATOM     33  C   UNL A   1      41.217  32.385  30.499  1.00  0.00     0.049 A 
ATOM     34  C   UNL A   1      46.606  33.316  29.039  1.00  0.00     0.074 A 
ATOM     35  C   UNL A   1      40.618  33.383  31.248  1.00  0.00     0.029 A 
ATOM     36  N   UNL A   1      42.511  32.820  30.225  1.00  0.00    -0.354 N 
ATOM     37  N   UNL A   1      45.354  33.241  29.427  1.00  0.00    -0.248 NA
ATOM     38  C   UNL A   1      47.293  34.550  29.426  1.00  0.00     0.031 C 
ATOM     39  C   UNL A   1      41.524  34.443  31.371  1.00  0.00     0.029 A 
ATOM     40  C   UNL A   1      42.718  34.081  30.766  1.00  0.00     0.049 A 
ATOM     41  H   UNL A   1      43.182  32.307  29.719  1.00  0.00     0.167 HD
ATOM     42  C   UNL A   1      45.101  34.420  30.113  1.00  0.00     0.074 A 
ATOM     43  C   UNL A   1      46.336  35.182  30.092  1.00  0.00     0.031 C 
ATOM     44  C   UNL A   1      43.952  34.831  30.708  1.00  0.00     0.034 A 
BRANCH  31  45
ATOM     45  C   UNL A   1      39.222  30.803  30.395  1.00  0.00     0.023 A 
ATOM     46  C   UNL A   1      38.147  31.369  29.687  1.00  0.00     0.031 A 
ATOM     47  C   UNL A   1      38.923  29.925  31.453  1.00  0.00     0.131 A 
ATOM     48  C   UNL A   1      36.827  31.098  30.083  1.00  0.00     0.055 A 
ATOM     49  C   UNL A   1      37.608  29.604  31.796  1.00  0.00     0.041 A 
ATOM     50  F   UNL A   1      39.906  29.371  32.179  1.00  0.00    -0.206 F 
ATOM     51  C   UNL A   1      36.549  30.202  31.117  1.00  0.00     0.022 A 
BRANCH  48  52
ATOM     52  S   UNL A   1      35.479  32.027  29.301  1.00  0.00     0.124 S 
ATOM     53  O   UNL A   1      34.949  31.044  28.358  1.00  0.00    -0.237 OA
ATOM     54  O   UNL A   1      34.619  32.353  30.432  1.00  0.00    -0.237 OA
ATOM     55  O   UNL A   1      36.158  33.166  28.684  1.00  0.00    -0.744 OA
ENDBRANCH  48  52
ENDBRANCH  31  45
BRANCH  32  56
ATOM     56  C   UNL A   1      48.835  32.510  27.922  1.00  0.00     0.023 A 
ATOM     57  C   UNL A   1      49.218  33.205  26.766  1.00  0.00     0.031 A 
ATOM     58  C   UNL A   1      49.841  32.092  28.814  1.00  0.00     0.131 A 
ATOM     59  C   UNL A   1      50.577  33.470  26.535  1.00  0.00     0.055 A 
ATOM     60  C   UNL A   1      51.186  32.390  28.598  1.00  0.00     0.041 A 
ATOM     61  F   UNL A   1      49.517  31.445  29.945  1.00  0.00    -0.206 F 
ATOM     62  C   UNL A   1      51.560  33.083  27.450  1.00  0.00     0.022 A 
BRANCH  59  63
ATOM     63  S   UNL A   1      51.049  34.348  25.020  1.00  0.00     0.124 S 
ATOM     64  O   UNL A   1      52.101  35.234  25.507  1.00  0.00    -0.237 OA
ATOM     65  O   UNL A   1      51.478  33.256  24.153  1.00  0.00    -0.237 OA
ATOM     66  O   UNL A   1      49.812  35.013  24.614  1.00  0.00    -0.744 OA
ENDBRANCH  59  63
ENDBRANCH  32  56
BRANCH  44  67
ATOM     67  C   UNL A   1      43.994  36.161  31.408  1.00  0.00     0.023 A 
ATOM     68  C   UNL A   1      43.890  37.369  30.700  1.00  0.00     0.031 A 
ATOM     69  C   UNL A   1      44.113  36.215  32.808  1.00  0.00     0.131 A 
ATOM     70  C   UNL A   1      43.942  38.587  31.392  1.00  0.00     0.055 A 
ATOM     71  C   UNL A   1      44.113  37.428  33.496  1.00  0.00     0.041 A 
ATOM     72  F   UNL A   1      44.218  35.086  33.527  1.00  0.00    -0.206 F 
ATOM     73  C   UNL A   1      44.034  38.622  32.786  1.00  0.00     0.022 A 
BRANCH  70  74
ATOM     74  S   UNL A   1      43.934  40.130  30.442  1.00  0.00     0.124 S 
ATOM     75  O   UNL A   1      45.137  39.990  29.629  1.00  0.00    -0.237 OA
ATOM     76  O   UNL A   1      42.666  40.053  29.724  1.00  0.00    -0.237 OA
ATOM     77  O   UNL A   1      43.998  41.167  31.472  1.00  0.00    -0.744 OA
ENDBRANCH  70  74
ENDBRANCH  44  67
ENDBRANCH  18  19
ENDBRANCH  11  13
ENDBRANCH   8   9
ENDBRANCH   7   8
ENDBRANCH   6   7
ENDBRANCH   5   6
ENDBRANCH   1   5
BRANCH   2  78
ATOM     78  C   UNL A   1      37.470  22.227  25.657  1.00  0.00     0.197 C 
BRANCH  78  79
ATOM     79  N   UNL A   1      37.215  22.631  24.171  1.00  0.00    -0.340 N 
ATOM     80  C   UNL A   1      36.362  23.034  23.179  1.00  0.00     0.243 C 
ATOM     81  H   UNL A   1      38.095  22.561  23.735  1.00  0.00     0.164 HD
ATOM     82  O   UNL A   1      36.984  23.004  22.095  1.00  0.00    -0.273 OA
BRANCH  80  83
ATOM     83  C   UNL A   1      34.746  23.363  23.101  1.00  0.00     0.175 C 
BRANCH  83  84
ATOM     84  N   UNL A   1      33.521  22.477  23.075  1.00  0.00    -0.342 N 
ATOM     85  C   UNL A   1      32.961  21.483  23.820  1.00  0.00     0.243 C 
ATOM     86  H   UNL A   1      32.964  22.677  22.288  1.00  0.00     0.164 HD
ATOM     87  O   UNL A   1      32.168  20.699  23.298  1.00  0.00    -0.273 OA
BRANCH  85  88
ATOM     88  C   UNL A   1      33.227  21.457  25.298  1.00  0.00     0.176 C 
BRANCH  88  89
ATOM     89  N   UNL A   1      31.851  21.531  25.865  1.00  0.00    -0.340 N 
ATOM     90  C   UNL A   1      30.745  22.318  25.881  1.00  0.00     0.251 C 
ATOM     91  H   UNL A   1      31.688  20.734  26.422  1.00  0.00     0.164 HD
ATOM     92  O   UNL A   1      29.742  21.826  26.408  1.00  0.00    -0.269 OA
BRANCH  90  93
ATOM     93  C   UNL A   1      30.637  23.691  25.368  1.00  0.00     0.040 A 
ATOM     94  C   UNL A   1      30.508  24.006  24.020  1.00  0.00     0.017 A 
ATOM     95  C   UNL A   1      30.492  24.709  26.337  1.00  0.00     0.017 A 
ATOM     96  C   UNL A   1      30.284  25.341  23.650  1.00  0.00     0.040 A 
ATOM     97  C   UNL A   1      30.294  26.037  25.959  1.00  0.00     0.040 A 
ATOM     98  C   UNL A   1      30.206  26.343  24.612  1.00  0.00     0.123 A 
ATOM     99  F   UNL A   1      30.017  27.614  24.235  1.00  0.00    -0.207 F 
ENDBRANCH  90  93
ENDBRANCH  88  89
BRANCH  88 100
ATOM    100  C   UNL A   1      33.991  20.128  25.523  1.00  0.00     0.070 C 
BRANCH 100 101
ATOM    101  C   UNL A   1      33.565  18.688  25.165  1.00  0.00    -0.045 A 
ATOM    102  C   UNL A   1      34.430  17.910  24.366  1.00  0.00     0.007 A 
ATOM    103  C   UNL A   1      32.500  17.996  25.736  1.00  0.00     0.007 A 
ATOM    104  C   UNL A   1      34.423  16.516  24.347  1.00  0.00     0.046 A 
ATOM    105  C   UNL A   1      32.474  16.587  25.725  1.00  0.00     0.046 A 
ATOM    106  C   UNL A   1      33.469  15.859  25.086  1.00  0.00     0.115 A 
BRANCH 106 107
ATOM    107  O   UNL A   1      33.506  14.504  25.214  1.00  0.00    -0.508 OA
ATOM    108  H   UNL A   1      34.075  13.996  24.670  1.00  0.00     0.293 HD
ENDBRANCH 106 107
ENDBRANCH 100 101
ENDBRANCH  88 100
ENDBRANCH  85  88
ENDBRANCH  83  84
BRANCH  83 109
ATOM    109  C   UNL A   1      34.352  24.364  24.272  1.00  0.00     0.072 C 
BRANCH 109 110
ATOM    110  C   UNL A   1      33.987  25.804  23.892  1.00  0.00    -0.020 A 
ATOM    111  C   UNL A   1      33.721  26.207  22.597  1.00  0.00     0.087 A 
ATOM    112  C   UNL A   1      33.720  26.971  24.723  1.00  0.00     0.003 A 
ATOM    113  N   UNL A   1      33.332  27.513  22.595  1.00  0.00    -0.361 N 
ATOM    114  C   UNL A   1      33.274  27.994  23.876  1.00  0.00     0.046 A 
ATOM    115  C   UNL A   1      33.776  27.274  26.107  1.00  0.00     0.010 A 
ATOM    116  H   UNL A   1      33.123  28.036  21.788  1.00  0.00     0.166 HD
ATOM    117  C   UNL A   1      32.852  29.255  24.323  1.00  0.00     0.026 A 
ATOM    118  C   UNL A   1      33.372  28.545  26.570  1.00  0.00     0.001 A 
ATOM    119  C   UNL A   1      32.903  29.514  25.690  1.00  0.00     0.002 A 
ENDBRANCH 109 110
ENDBRANCH  83 109
ENDBRANCH  80  83
ENDBRANCH  78  79
BRANCH  78 120
ATOM    120  C   UNL A   1      38.493  21.045  25.652  1.00  0.00     0.191 C 
BRANCH 120 121
ATOM    121  O   UNL A   1      38.007  19.942  24.899  1.00  0.00    -0.394 OA
ATOM    122  H   UNL A   1      38.119  19.127  25.412  1.00  0.00     0.210 HD
ENDBRANCH 120 121
ENDBRANCH  78 120
ENDBRANCH   2  78
TORSDOF 27
ENDMDL
MODEL 3
REMARK VINA RESULT:     -11.4      5.846      8.214
REMARK SMILES O=C(NCCCCNC(=O)[C@H](CO)NC(=O)[C@H](Cc1c[nH]c2ccccc12)NC(=O)[C@H](Cc1ccc(O)cc1)NC(=O)c1ccc(F)cc1)c1ccc(-c2c3nc(c(-c4cc(S(=O)(=O)[O-])ccc4F)c4ccc([nH]4)c(-c4cc(S(=O)(=O)[O-])ccc4F)c4nc(c(-c5cc(S(=O)(=O)[O-])ccc5F)c5ccc2[nH]5)C=C4)C=C3)cc1
REMARK SMILES IDX 8 1 9 2 10 3 7 5 6 6 5 7 4 8 3 9 1 10 2 11 50 13 51 14
REMARK SMILES IDX 112 15 52 16 111 17 53 18 54 19 55 20 105 21 56 22 110 23
REMARK SMILES IDX 104 24 106 25 57 26 109 27 103 28 102 29 58 31 90 32 70 33
REMARK SMILES IDX 89 34 71 35 74 36 88 37 107 38 72 39 73 40 87 42 108 43
REMARK SMILES IDX 75 44 59 45 60 46 68 47 61 48 67 49 69 50 66 51 62 52 63 53
REMARK SMILES IDX 64 54 65 55 91 56 92 57 100 58 93 59 99 60 101 61 98 62
REMARK SMILES IDX 94 63 95 64 96 65 97 66 76 67 77 68 85 69 78 70 84 71 86 72
REMARK SMILES IDX 83 73 79 74 80 75 81 76 82 77 11 78 14 79 15 80 16 82 17 83
REMARK SMILES IDX 28 84 29 85 30 87 31 88 40 89 41 90 42 92 43 93 44 94 49 95
REMARK SMILES IDX 45 96 48 97 46 98 47 99 32 100 33 101 34 102 39 103 35 104
REMARK SMILES IDX 38 105 36 106 37 107 18 109 19 110 20 111 27 112 21 113
REMARK SMILES IDX 22 114 26 115 23 117 25 118 24 119 12 120 13 121
REMARK H PARENT 8 4 3 12 106 30 74 41 14 81 28 86 40 91 37 108 21 116 13 122
REMARK Flexibility Score: inf
ROOT
ATOM      1  N   UNL A   1      39.799  22.864  26.937  1.00  0.00    -0.354 N 
ATOM      2  C   UNL A   1      38.617  23.214  26.370  1.00  0.00     0.244 C 
ATOM      3  O   UNL A   1      38.399  24.440  26.406  1.00  0.00    -0.273 OA
ATOM      4  H   UNL A   1      40.380  23.657  26.986  1.00  0.00     0.163 HD
ENDROOT
BRANCH   1   5
ATOM      5  C   UNL A   1      40.514  21.711  27.503  1.00  0.00     0.116 C 
BRANCH   5   6
ATOM      6  C   UNL A   1      42.042  21.749  27.507  1.00  0.00     0.023 C 
BRANCH   6   7
ATOM      7  C   UNL A   1      42.615  21.978  26.098  1.00  0.00     0.023 C 
BRANCH   7   8
ATOM      8  C   UNL A   1      43.374  23.287  25.892  1.00  0.00     0.116 C 
BRANCH   8   9
ATOM      9  N   UNL A   1      42.600  24.302  25.191  1.00  0.00    -0.352 N 
ATOM     10  O   UNL A   1      41.525  26.306  25.014  1.00  0.00    -0.269 OA
ATOM     11  C   UNL A   1      42.206  25.530  25.677  1.00  0.00     0.251 C 
ATOM     12  H   UNL A   1      42.329  24.087  24.269  1.00  0.00     0.163 HD
BRANCH  11  13
ATOM     13  C   UNL A   1      42.645  25.902  27.026  1.00  0.00     0.039 A 
ATOM     14  C   UNL A   1      41.716  25.786  28.060  1.00  0.00     0.014 A 
ATOM     15  C   UNL A   1      43.916  26.444  27.239  1.00  0.00     0.014 A 
ATOM     16  C   UNL A   1      42.026  26.306  29.303  1.00  0.00     0.010 A 
ATOM     17  C   UNL A   1      44.258  26.885  28.517  1.00  0.00     0.010 A 
ATOM     18  C   UNL A   1      43.314  26.816  29.552  1.00  0.00    -0.014 A 
BRANCH  18  19
ATOM     19  C   UNL A   1      43.680  27.078  30.959  1.00  0.00     0.031 A 
ATOM     20  C   UNL A   1      44.274  26.022  31.834  1.00  0.00     0.074 A 
ATOM     21  C   UNL A   1      43.533  28.347  31.385  1.00  0.00     0.049 A 
ATOM     22  N   UNL A   1      44.740  26.139  33.050  1.00  0.00    -0.248 NA
ATOM     23  C   UNL A   1      44.353  24.662  31.284  1.00  0.00     0.031 C 
ATOM     24  C   UNL A   1      42.966  29.434  30.577  1.00  0.00     0.029 A 
ATOM     25  N   UNL A   1      43.895  28.958  32.553  1.00  0.00    -0.354 N 
ATOM     26  C   UNL A   1      45.168  24.871  33.418  1.00  0.00     0.074 A 
ATOM     27  C   UNL A   1      44.877  23.992  32.303  1.00  0.00     0.031 C 
ATOM     28  C   UNL A   1      43.115  30.590  31.230  1.00  0.00     0.029 A 
ATOM     29  C   UNL A   1      43.698  30.318  32.535  1.00  0.00     0.049 A 
ATOM     30  H   UNL A   1      44.259  28.473  33.328  1.00  0.00     0.167 HD
ATOM     31  C   UNL A   1      45.750  24.491  34.583  1.00  0.00     0.034 A 
ATOM     32  C   UNL A   1      43.952  31.249  33.472  1.00  0.00     0.034 A 
ATOM     33  C   UNL A   1      46.000  25.401  35.678  1.00  0.00     0.049 A 
ATOM     34  C   UNL A   1      44.543  30.794  34.770  1.00  0.00     0.074 A 
ATOM     35  C   UNL A   1      46.565  25.132  36.913  1.00  0.00     0.029 A 
ATOM     36  N   UNL A   1      45.692  26.758  35.672  1.00  0.00    -0.354 N 
ATOM     37  N   UNL A   1      44.907  29.583  35.122  1.00  0.00    -0.248 NA
ATOM     38  C   UNL A   1      44.743  31.817  35.799  1.00  0.00     0.031 C 
ATOM     39  C   UNL A   1      46.538  26.307  37.673  1.00  0.00     0.029 A 
ATOM     40  C   UNL A   1      46.029  27.332  36.889  1.00  0.00     0.049 A 
ATOM     41  H   UNL A   1      45.291  27.241  34.913  1.00  0.00     0.167 HD
ATOM     42  C   UNL A   1      45.388  29.696  36.419  1.00  0.00     0.074 A 
ATOM     43  C   UNL A   1      45.275  31.098  36.779  1.00  0.00     0.031 C 
ATOM     44  C   UNL A   1      45.881  28.728  37.233  1.00  0.00     0.034 A 
BRANCH  31  45
ATOM     45  C   UNL A   1      46.102  23.032  34.743  1.00  0.00     0.023 A 
ATOM     46  C   UNL A   1      47.386  22.544  34.445  1.00  0.00     0.031 A 
ATOM     47  C   UNL A   1      45.135  22.111  35.186  1.00  0.00     0.131 A 
ATOM     48  C   UNL A   1      47.651  21.168  34.536  1.00  0.00     0.055 A 
ATOM     49  C   UNL A   1      45.426  20.754  35.342  1.00  0.00     0.041 A 
ATOM     50  F   UNL A   1      43.886  22.514  35.466  1.00  0.00    -0.206 F 
ATOM     51  C   UNL A   1      46.688  20.273  35.005  1.00  0.00     0.022 A 
BRANCH  48  52
ATOM     52  S   UNL A   1      49.242  20.549  33.919  1.00  0.00     0.124 S 
ATOM     53  O   UNL A   1      49.779  19.882  35.104  1.00  0.00    -0.237 OA
ATOM     54  O   UNL A   1      48.839  19.675  32.824  1.00  0.00    -0.237 OA
ATOM     55  O   UNL A   1      49.953  21.763  33.521  1.00  0.00    -0.744 OA
ENDBRANCH  48  52
ENDBRANCH  31  45
BRANCH  32  56
ATOM     56  C   UNL A   1      43.624  32.670  33.188  1.00  0.00     0.023 A 
ATOM     57  C   UNL A   1      44.534  33.501  32.518  1.00  0.00     0.031 A 
ATOM     58  C   UNL A   1      42.349  33.184  33.491  1.00  0.00     0.131 A 
ATOM     59  C   UNL A   1      44.151  34.804  32.164  1.00  0.00     0.055 A 
ATOM     60  C   UNL A   1      41.962  34.466  33.104  1.00  0.00     0.041 A 
ATOM     61  F   UNL A   1      41.439  32.415  34.109  1.00  0.00    -0.206 F 
ATOM     62  C   UNL A   1      42.867  35.285  32.437  1.00  0.00     0.022 A 
BRANCH  59  63
ATOM     63  S   UNL A   1      45.354  35.867  31.321  1.00  0.00     0.124 S 
ATOM     64  O   UNL A   1      45.665  35.078  30.134  1.00  0.00    -0.237 OA
ATOM     65  O   UNL A   1      44.584  37.086  31.099  1.00  0.00    -0.237 OA
ATOM     66  O   UNL A   1      46.440  35.988  32.292  1.00  0.00    -0.744 OA
ENDBRANCH  59  63
ENDBRANCH  32  56
BRANCH  44  67
ATOM     67  C   UNL A   1      46.360  29.168  38.589  1.00  0.00     0.023 A 
ATOM     68  C   UNL A   1      45.498  29.207  39.696  1.00  0.00     0.031 A 
ATOM     69  C   UNL A   1      47.706  29.528  38.776  1.00  0.00     0.131 A 
ATOM     70  C   UNL A   1      45.984  29.630  40.941  1.00  0.00     0.055 A 
ATOM     71  C   UNL A   1      48.196  29.900  40.027  1.00  0.00     0.041 A 
ATOM     72  F   UNL A   1      48.566  29.509  37.746  1.00  0.00    -0.206 F 
ATOM     73  C   UNL A   1      47.332  29.959  41.116  1.00  0.00     0.022 A 
BRANCH  70  74
ATOM     74  S   UNL A   1      44.822  29.792  42.322  1.00  0.00     0.124 S 
ATOM     75  O   UNL A   1      43.852  28.743  42.024  1.00  0.00    -0.237 OA
ATOM     76  O   UNL A   1      45.676  29.559  43.483  1.00  0.00    -0.237 OA
ATOM     77  O   UNL A   1      44.319  31.158  42.189  1.00  0.00    -0.744 OA
ENDBRANCH  70  74
ENDBRANCH  44  67
ENDBRANCH  18  19
ENDBRANCH  11  13
ENDBRANCH   8   9
ENDBRANCH   7   8
ENDBRANCH   6   7
ENDBRANCH   5   6
ENDBRANCH   1   5
BRANCH   2  78
ATOM     78  C   UNL A   1      37.541  22.309  25.670  1.00  0.00     0.197 C 
BRANCH  78  79
ATOM     79  N   UNL A   1      37.287  22.739  24.192  1.00  0.00    -0.340 N 
ATOM     80  C   UNL A   1      36.434  23.156  23.205  1.00  0.00     0.243 C 
ATOM     81  H   UNL A   1      38.169  22.685  23.757  1.00  0.00     0.164 HD
ATOM     82  O   UNL A   1      37.059  23.152  22.123  1.00  0.00    -0.273 OA
BRANCH  80  83
ATOM     83  C   UNL A   1      34.816  23.473  23.128  1.00  0.00     0.175 C 
BRANCH  83  84
ATOM     84  N   UNL A   1      33.598  22.579  23.080  1.00  0.00    -0.342 N 
ATOM     85  C   UNL A   1      33.044  21.563  23.800  1.00  0.00     0.243 C 
ATOM     86  H   UNL A   1      33.041  22.793  22.297  1.00  0.00     0.164 HD
ATOM     87  O   UNL A   1      32.258  20.786  23.258  1.00  0.00    -0.273 OA
BRANCH  85  88
ATOM     88  C   UNL A   1      33.308  21.505  25.277  1.00  0.00     0.176 C 
BRANCH  88  89
ATOM     89  N   UNL A   1      31.931  21.560  25.844  1.00  0.00    -0.340 N 
ATOM     90  C   UNL A   1      30.812  22.329  25.857  1.00  0.00     0.251 C 
ATOM     91  H   UNL A   1      31.780  20.763  26.404  1.00  0.00     0.164 HD
ATOM     92  O   UNL A   1      29.817  21.823  26.385  1.00  0.00    -0.269 OA
BRANCH  90  93
ATOM     93  C   UNL A   1      30.684  23.698  25.339  1.00  0.00     0.040 A 
ATOM     94  C   UNL A   1      30.567  24.008  23.987  1.00  0.00     0.017 A 
ATOM     95  C   UNL A   1      30.503  24.716  26.302  1.00  0.00     0.017 A 
ATOM     96  C   UNL A   1      30.321  25.336  23.611  1.00  0.00     0.040 A 
ATOM     97  C   UNL A   1      30.281  26.038  25.918  1.00  0.00     0.040 A 
ATOM     98  C   UNL A   1      30.207  26.339  24.569  1.00  0.00     0.123 A 
ATOM     99  F   UNL A   1      29.997  27.605  24.185  1.00  0.00    -0.207 F 
ENDBRANCH  90  93
ENDBRANCH  88  89
BRANCH  88 100
ATOM    100  C   UNL A   1      34.078  20.175  25.473  1.00  0.00     0.070 C 
BRANCH 100 101
ATOM    101  C   UNL A   1      33.633  18.735  25.138  1.00  0.00    -0.045 A 
ATOM    102  C   UNL A   1      34.483  17.939  24.341  1.00  0.00     0.007 A 
ATOM    103  C   UNL A   1      32.568  18.061  25.728  1.00  0.00     0.007 A 
ATOM    104  C   UNL A   1      34.462  16.545  24.339  1.00  0.00     0.046 A 
ATOM    105  C   UNL A   1      32.527  16.653  25.735  1.00  0.00     0.046 A 
ATOM    106  C   UNL A   1      33.509  15.906  25.095  1.00  0.00     0.115 A 
BRANCH 106 107
ATOM    107  O   UNL A   1      33.533  14.552  25.241  1.00  0.00    -0.508 OA
ATOM    108  H   UNL A   1      33.056  14.008  24.645  1.00  0.00     0.293 HD
ENDBRANCH 106 107
ENDBRANCH 100 101
ENDBRANCH  88 100
ENDBRANCH  85  88
ENDBRANCH  83  84
BRANCH  83 109
ATOM    109  C   UNL A   1      34.411  24.447  24.320  1.00  0.00     0.072 C 
BRANCH 109 110
ATOM    110  C   UNL A   1      34.015  25.885  23.967  1.00  0.00    -0.020 A 
ATOM    111  C   UNL A   1      33.736  26.307  22.681  1.00  0.00     0.087 A 
ATOM    112  C   UNL A   1      33.728  27.032  24.820  1.00  0.00     0.003 A 
ATOM    113  N   UNL A   1      33.321  27.604  22.704  1.00  0.00    -0.361 N 
ATOM    114  C   UNL A   1      33.258  28.061  23.994  1.00  0.00     0.046 A 
ATOM    115  C   UNL A   1      33.783  27.311  26.209  1.00  0.00     0.010 A 
ATOM    116  H   UNL A   1      33.098  28.138  21.908  1.00  0.00     0.166 HD
ATOM    117  C   UNL A   1      32.813  29.305  24.465  1.00  0.00     0.026 A 
ATOM    118  C   UNL A   1      33.356  28.564  26.696  1.00  0.00     0.001 A 
ATOM    119  C   UNL A   1      32.864  29.540  25.836  1.00  0.00     0.002 A 
ENDBRANCH 109 110
ENDBRANCH  83 109
ENDBRANCH  80  83
ENDBRANCH  78  79
BRANCH  78 120
ATOM    120  C   UNL A   1      38.313  20.951  25.636  1.00  0.00     0.191 C 
BRANCH 120 121
ATOM    121  O   UNL A   1      37.628  19.983  24.852  1.00  0.00    -0.394 OA
ATOM    122  H   UNL A   1      36.697  19.952  25.119  1.00  0.00     0.210 HD
ENDBRANCH 120 121
ENDBRANCH  78 120
ENDBRANCH   2  78
TORSDOF 27
ENDMDL
