MODEL 1
REMARK VINA RESULT:     -10.7      0.000      0.000
REMARK SMILES O=C(NCCCCNC(=O)[C@H](O)Cc1ccc(O)cc1)c1ccc(-c2c3nc(c(-c4cc(S(=O)(=O)[O-])ccc4F)c4ccc([nH]4)c(-c4cc(S(=O)(=O)[O-])ccc4F)c4nc(c(-c5cc(S(=O)(=O)[O-])ccc5F)c5ccc2[nH]5)C=C4)C=C3)cc1
REMARK SMILES IDX 5 1 4 2 3 3 1 4 2 5 21 7 22 8 83 9 23 10 82 11 24 12 25 13
REMARK SMILES IDX 26 14 76 15 27 16 81 17 75 18 77 19 28 20 80 21 74 22 73 23
REMARK SMILES IDX 29 25 61 26 41 27 60 28 42 29 45 30 59 31 78 32 43 33 44 34
REMARK SMILES IDX 58 36 79 37 46 38 30 39 31 40 39 41 32 42 38 43 40 44 37 45
REMARK SMILES IDX 33 46 34 47 35 48 36 49 62 50 63 51 71 52 64 53 70 54 72 55
REMARK SMILES IDX 69 56 65 57 66 58 67 59 68 60 47 61 48 62 56 63 49 64 55 65
REMARK SMILES IDX 57 66 54 67 50 68 51 69 52 70 53 71 6 72 7 73 8 74 9 75
REMARK SMILES IDX 10 77 11 78 13 79 14 80 15 81 20 82 16 83 19 84 17 85 18 86
REMARK SMILES IDX 12 88
REMARK H PARENT 3 6 77 24 45 35 8 76 18 87 12 89
REMARK Flexibility Score: inf
ROOT
ATOM      1  C   UNL A   1      41.155  20.066  27.434  1.00  0.00     0.023 C 
ENDROOT
BRANCH   1   2
ATOM      2  C   UNL A   1      40.914  21.502  26.981  1.00  0.00     0.116 C 
BRANCH   2   3
ATOM      3  N   UNL A   1      39.612  21.695  26.362  1.00  0.00    -0.352 N 
ATOM      4  O   UNL A   1      37.700  22.774  25.858  1.00  0.00    -0.269 OA
ATOM      5  C   UNL A   1      38.838  22.831  26.318  1.00  0.00     0.251 C 
ATOM      6  H   UNL A   1      39.233  20.904  25.915  1.00  0.00     0.163 HD
BRANCH   5   7
ATOM      7  C   UNL A   1      39.367  24.110  26.843  1.00  0.00     0.039 A 
ATOM      8  C   UNL A   1      39.239  24.439  28.195  1.00  0.00     0.014 A 
ATOM      9  C   UNL A   1      40.007  24.992  25.966  1.00  0.00     0.014 A 
ATOM     10  C   UNL A   1      39.634  25.695  28.642  1.00  0.00     0.010 A 
ATOM     11  C   UNL A   1      40.470  26.226  26.434  1.00  0.00     0.010 A 
ATOM     12  C   UNL A   1      40.263  26.600  27.772  1.00  0.00    -0.014 A 
BRANCH  12  13
ATOM     13  C   UNL A   1      40.740  27.908  28.294  1.00  0.00     0.031 A 
ATOM     14  C   UNL A   1      42.202  28.263  28.285  1.00  0.00     0.074 A 
ATOM     15  C   UNL A   1      39.832  28.788  28.759  1.00  0.00     0.049 A 
ATOM     16  N   UNL A   1      42.787  29.358  28.696  1.00  0.00    -0.248 NA
ATOM     17  C   UNL A   1      43.127  27.253  27.751  1.00  0.00     0.031 C 
ATOM     18  C   UNL A   1      38.387  28.550  28.823  1.00  0.00     0.029 A 
ATOM     19  N   UNL A   1      39.978  30.060  29.252  1.00  0.00    -0.354 N 
ATOM     20  C   UNL A   1      44.149  29.169  28.486  1.00  0.00     0.074 A 
ATOM     21  C   UNL A   1      44.303  27.838  27.937  1.00  0.00     0.031 C 
ATOM     22  C   UNL A   1      37.780  29.650  29.291  1.00  0.00     0.029 A 
ATOM     23  C   UNL A   1      38.791  30.648  29.620  1.00  0.00     0.049 A 
ATOM     24  H   UNL A   1      40.852  30.508  29.336  1.00  0.00     0.167 HD
ATOM     25  C   UNL A   1      45.172  30.029  28.723  1.00  0.00     0.034 A 
ATOM     26  C   UNL A   1      38.542  31.848  30.180  1.00  0.00     0.034 A 
ATOM     27  C   UNL A   1      44.998  31.357  29.267  1.00  0.00     0.049 A 
ATOM     28  C   UNL A   1      39.697  32.769  30.463  1.00  0.00     0.074 A 
ATOM     29  C   UNL A   1      45.961  32.321  29.514  1.00  0.00     0.029 A 
ATOM     30  N   UNL A   1      43.784  31.906  29.660  1.00  0.00    -0.354 N 
ATOM     31  N   UNL A   1      40.977  32.579  30.238  1.00  0.00    -0.248 NA
ATOM     32  C   UNL A   1      39.375  34.066  31.069  1.00  0.00     0.031 C 
ATOM     33  C   UNL A   1      45.340  33.423  30.112  1.00  0.00     0.029 A 
ATOM     34  C   UNL A   1      43.978  33.180  30.173  1.00  0.00     0.049 A 
ATOM     35  H   UNL A   1      42.911  31.456  29.584  1.00  0.00     0.167 HD
ATOM     36  C   UNL A   1      41.610  33.744  30.661  1.00  0.00     0.074 A 
ATOM     37  C   UNL A   1      40.569  34.635  31.131  1.00  0.00     0.031 C 
ATOM     38  C   UNL A   1      42.932  34.051  30.657  1.00  0.00     0.034 A 
BRANCH  25  39
ATOM     39  C   UNL A   1      46.573  29.547  28.436  1.00  0.00     0.023 A 
ATOM     40  C   UNL A   1      47.344  28.883  29.408  1.00  0.00     0.031 A 
ATOM     41  C   UNL A   1      47.149  29.756  27.170  1.00  0.00     0.131 A 
ATOM     42  C   UNL A   1      48.664  28.504  29.116  1.00  0.00     0.055 A 
ATOM     43  C   UNL A   1      48.438  29.314  26.863  1.00  0.00     0.041 A 
ATOM     44  F   UNL A   1      46.469  30.400  26.209  1.00  0.00    -0.206 F 
ATOM     45  C   UNL A   1      49.208  28.694  27.842  1.00  0.00     0.022 A 
BRANCH  42  46
ATOM     46  S   UNL A   1      49.703  27.867  30.458  1.00  0.00     0.124 S 
ATOM     47  O   UNL A   1      50.685  28.939  30.608  1.00  0.00    -0.237 OA
ATOM     48  O   UNL A   1      48.750  27.717  31.551  1.00  0.00    -0.237 OA
ATOM     49  O   UNL A   1      50.234  26.617  29.919  1.00  0.00    -0.744 OA
ENDBRANCH  42  46
ENDBRANCH  25  39
BRANCH  26  50
ATOM     50  C   UNL A   1      37.148  32.231  30.541  1.00  0.00     0.023 A 
ATOM     51  C   UNL A   1      36.281  32.797  29.594  1.00  0.00     0.031 A 
ATOM     52  C   UNL A   1      36.673  32.061  31.854  1.00  0.00     0.131 A 
ATOM     53  C   UNL A   1      34.998  33.210  29.983  1.00  0.00     0.055 A 
ATOM     54  C   UNL A   1      35.378  32.423  32.223  1.00  0.00     0.041 A 
ATOM     55  F   UNL A   1      37.460  31.519  32.797  1.00  0.00    -0.206 F 
ATOM     56  C   UNL A   1      34.535  33.014  31.286  1.00  0.00     0.022 A 
BRANCH  53  57
ATOM     57  S   UNL A   1      33.964  34.084  28.776  1.00  0.00     0.124 S 
ATOM     58  O   UNL A   1      34.897  35.073  28.247  1.00  0.00    -0.237 OA
ATOM     59  O   UNL A   1      33.586  33.008  27.867  1.00  0.00    -0.237 OA
ATOM     60  O   UNL A   1      32.876  34.624  29.589  1.00  0.00    -0.744 OA
ENDBRANCH  53  57
ENDBRANCH  26  50
BRANCH  38  61
ATOM     61  C   UNL A   1      43.309  35.425  31.147  1.00  0.00     0.023 A 
ATOM     62  C   UNL A   1      43.359  35.730  32.519  1.00  0.00     0.031 A 
ATOM     63  C   UNL A   1      43.595  36.450  30.229  1.00  0.00     0.131 A 
ATOM     64  C   UNL A   1      43.630  37.044  32.932  1.00  0.00     0.055 A 
ATOM     65  C   UNL A   1      43.919  37.741  30.647  1.00  0.00     0.041 A 
ATOM     66  F   UNL A   1      43.559  36.212  28.907  1.00  0.00    -0.206 F 
ATOM     67  C   UNL A   1      43.925  38.047  32.005  1.00  0.00     0.022 A 
BRANCH  64  68
ATOM     68  S   UNL A   1      43.504  37.446  34.696  1.00  0.00     0.124 S 
ATOM     69  O   UNL A   1      44.616  36.688  35.260  1.00  0.00    -0.237 OA
ATOM     70  O   UNL A   1      43.656  38.897  34.697  1.00  0.00    -0.237 OA
ATOM     71  O   UNL A   1      42.174  36.964  35.065  1.00  0.00    -0.744 OA
ENDBRANCH  64  68
ENDBRANCH  38  61
ENDBRANCH  12  13
ENDBRANCH   5   7
ENDBRANCH   2   3
ENDBRANCH   1   2
BRANCH   1  72
ATOM     72  C   UNL A   1      42.608  19.584  27.368  1.00  0.00     0.023 C 
BRANCH  72  73
ATOM     73  C   UNL A   1      42.974  18.811  26.102  1.00  0.00     0.116 C 
BRANCH  73  74
ATOM     74  N   UNL A   1      44.299  18.225  26.185  1.00  0.00    -0.354 N 
ATOM     75  C   UNL A   1      45.407  18.456  25.417  1.00  0.00     0.249 C 
ATOM     76  H   UNL A   1      44.419  17.562  26.902  1.00  0.00     0.163 HD
ATOM     77  O   UNL A   1      46.425  17.809  25.666  1.00  0.00    -0.272 OA
BRANCH  75  78
ATOM     78  C   UNL A   1      45.350  19.526  24.311  1.00  0.00     0.207 C 
BRANCH  78  79
ATOM     79  C   UNL A   1      46.286  20.675  24.709  1.00  0.00     0.077 C 
BRANCH  79  80
ATOM     80  C   UNL A   1      45.569  22.005  24.772  1.00  0.00    -0.045 A 
ATOM     81  C   UNL A   1      46.304  23.199  24.803  1.00  0.00     0.007 A 
ATOM     82  C   UNL A   1      44.169  22.064  24.771  1.00  0.00     0.007 A 
ATOM     83  C   UNL A   1      45.653  24.433  24.829  1.00  0.00     0.046 A 
ATOM     84  C   UNL A   1      43.517  23.298  24.800  1.00  0.00     0.046 A 
ATOM     85  C   UNL A   1      44.262  24.471  24.825  1.00  0.00     0.115 A 
BRANCH  85  86
ATOM     86  O   UNL A   1      43.587  25.655  24.846  1.00  0.00    -0.508 OA
ATOM     87  H   UNL A   1      43.302  26.019  25.660  1.00  0.00     0.293 HD
ENDBRANCH  85  86
ENDBRANCH  79  80
ENDBRANCH  78  79
BRANCH  78  88
ATOM     88  O   UNL A   1      45.748  19.002  23.043  1.00  0.00    -0.383 OA
ATOM     89  H   UNL A   1      46.166  18.134  23.169  1.00  0.00     0.211 HD
ENDBRANCH  78  88
ENDBRANCH  75  78
ENDBRANCH  73  74
ENDBRANCH  72  73
ENDBRANCH   1  72
TORSDOF 18
ENDMDL
MODEL 2
REMARK VINA RESULT:     -10.6      1.766      2.151
REMARK SMILES O=C(NCCCCNC(=O)[C@H](O)Cc1ccc(O)cc1)c1ccc(-c2c3nc(c(-c4cc(S(=O)(=O)[O-])ccc4F)c4ccc([nH]4)c(-c4cc(S(=O)(=O)[O-])ccc4F)c4nc(c(-c5cc(S(=O)(=O)[O-])ccc5F)c5ccc2[nH]5)C=C4)C=C3)cc1
REMARK SMILES IDX 5 1 4 2 3 3 1 4 2 5 21 7 22 8 83 9 23 10 82 11 24 12 25 13
REMARK SMILES IDX 26 14 76 15 27 16 81 17 75 18 77 19 28 20 80 21 74 22 73 23
REMARK SMILES IDX 29 25 61 26 41 27 60 28 42 29 45 30 59 31 78 32 43 33 44 34
REMARK SMILES IDX 58 36 79 37 46 38 30 39 31 40 39 41 32 42 38 43 40 44 37 45
REMARK SMILES IDX 33 46 34 47 35 48 36 49 62 50 63 51 71 52 64 53 70 54 72 55
REMARK SMILES IDX 69 56 65 57 66 58 67 59 68 60 47 61 48 62 56 63 49 64 55 65
REMARK SMILES IDX 57 66 54 67 50 68 51 69 52 70 53 71 6 72 7 73 8 74 9 75
REMARK SMILES IDX 10 77 11 78 13 79 14 80 15 81 20 82 16 83 19 84 17 85 18 86
REMARK SMILES IDX 12 88
REMARK H PARENT 3 6 77 24 45 35 8 76 18 87 12 89
REMARK Flexibility Score: inf
ROOT
ATOM      1  C   UNL A   1      41.091  20.008  27.066  1.00  0.00     0.023 C 
ENDROOT
BRANCH   1   2
ATOM      2  C   UNL A   1      40.784  21.491  26.882  1.00  0.00     0.116 C 
BRANCH   2   3
ATOM      3  N   UNL A   1      39.507  21.732  26.229  1.00  0.00    -0.352 N 
ATOM      4  O   UNL A   1      37.632  22.866  25.706  1.00  0.00    -0.269 OA
ATOM      5  C   UNL A   1      38.756  22.884  26.203  1.00  0.00     0.251 C 
ATOM      6  H   UNL A   1      39.128  20.966  25.741  1.00  0.00     0.163 HD
BRANCH   5   7
ATOM      7  C   UNL A   1      39.291  24.132  26.794  1.00  0.00     0.039 A 
ATOM      8  C   UNL A   1      39.079  24.437  28.141  1.00  0.00     0.014 A 
ATOM      9  C   UNL A   1      40.021  25.008  25.984  1.00  0.00     0.014 A 
ATOM     10  C   UNL A   1      39.486  25.668  28.644  1.00  0.00     0.010 A 
ATOM     11  C   UNL A   1      40.492  26.215  26.512  1.00  0.00     0.010 A 
ATOM     12  C   UNL A   1      40.205  26.568  27.841  1.00  0.00    -0.014 A 
BRANCH  12  13
ATOM     13  C   UNL A   1      40.689  27.846  28.426  1.00  0.00     0.031 A 
ATOM     14  C   UNL A   1      42.160  28.124  28.577  1.00  0.00     0.074 A 
ATOM     15  C   UNL A   1      39.782  28.770  28.799  1.00  0.00     0.049 A 
ATOM     16  N   UNL A   1      42.752  29.185  29.061  1.00  0.00    -0.248 NA
ATOM     17  C   UNL A   1      43.085  27.070  28.135  1.00  0.00     0.031 C 
ATOM     18  C   UNL A   1      38.329  28.608  28.704  1.00  0.00     0.029 A 
ATOM     19  N   UNL A   1      39.940  30.030  29.319  1.00  0.00    -0.354 N 
ATOM     20  C   UNL A   1      44.118  28.927  28.997  1.00  0.00     0.074 A 
ATOM     21  C   UNL A   1      44.261  27.592  28.454  1.00  0.00     0.031 C 
ATOM     22  C   UNL A   1      37.732  29.735  29.116  1.00  0.00     0.029 A 
ATOM     23  C   UNL A   1      38.752  30.678  29.563  1.00  0.00     0.049 A 
ATOM     24  H   UNL A   1      40.821  30.431  29.501  1.00  0.00     0.167 HD
ATOM     25  C   UNL A   1      45.151  29.731  29.352  1.00  0.00     0.034 A 
ATOM     26  C   UNL A   1      38.505  31.886  30.105  1.00  0.00     0.034 A 
ATOM     27  C   UNL A   1      44.988  31.063  29.889  1.00  0.00     0.049 A 
ATOM     28  C   UNL A   1      39.668  32.744  30.521  1.00  0.00     0.074 A 
ATOM     29  C   UNL A   1      45.968  31.974  30.248  1.00  0.00     0.029 A 
ATOM     30  N   UNL A   1      43.769  31.673  30.154  1.00  0.00    -0.354 N 
ATOM     31  N   UNL A   1      40.954  32.489  30.434  1.00  0.00    -0.248 NA
ATOM     32  C   UNL A   1      39.350  34.053  31.103  1.00  0.00     0.031 C 
ATOM     33  C   UNL A   1      45.343  33.104  30.787  1.00  0.00     0.029 A 
ATOM     34  C   UNL A   1      43.972  32.932  30.699  1.00  0.00     0.049 A 
ATOM     35  H   UNL A   1      42.888  31.270  29.980  1.00  0.00     0.167 HD
ATOM     36  C   UNL A   1      41.597  33.617  30.934  1.00  0.00     0.074 A 
ATOM     37  C   UNL A   1      40.558  34.559  31.299  1.00  0.00     0.031 C 
ATOM     38  C   UNL A   1      42.925  33.854  31.076  1.00  0.00     0.034 A 
BRANCH  25  39
ATOM     39  C   UNL A   1      46.549  29.177  29.213  1.00  0.00     0.023 A 
ATOM     40  C   UNL A   1      47.238  29.197  27.986  1.00  0.00     0.031 A 
ATOM     41  C   UNL A   1      47.204  28.619  30.325  1.00  0.00     0.131 A 
ATOM     42  C   UNL A   1      48.512  28.618  27.890  1.00  0.00     0.055 A 
ATOM     43  C   UNL A   1      48.500  28.107  30.239  1.00  0.00     0.041 A 
ATOM     44  F   UNL A   1      46.590  28.554  31.518  1.00  0.00    -0.206 F 
ATOM     45  C   UNL A   1      49.159  28.094  29.013  1.00  0.00     0.022 A 
BRANCH  42  46
ATOM     46  S   UNL A   1      49.270  28.450  26.250  1.00  0.00     0.124 S 
ATOM     47  O   UNL A   1      49.947  27.160  26.367  1.00  0.00    -0.237 OA
ATOM     48  O   UNL A   1      48.112  28.485  25.363  1.00  0.00    -0.237 OA
ATOM     49  O   UNL A   1      50.158  29.606  26.161  1.00  0.00    -0.744 OA
ENDBRANCH  42  46
ENDBRANCH  25  39
BRANCH  26  50
ATOM     50  C   UNL A   1      37.102  32.339  30.318  1.00  0.00     0.023 A 
ATOM     51  C   UNL A   1      36.376  32.963  29.292  1.00  0.00     0.031 A 
ATOM     52  C   UNL A   1      36.477  32.179  31.568  1.00  0.00     0.131 A 
ATOM     53  C   UNL A   1      35.081  33.439  29.545  1.00  0.00     0.055 A 
ATOM     54  C   UNL A   1      35.169  32.607  31.799  1.00  0.00     0.041 A 
ATOM     55  F   UNL A   1      37.126  31.585  32.581  1.00  0.00    -0.206 F 
ATOM     56  C   UNL A   1      34.468  33.254  30.786  1.00  0.00     0.022 A 
BRANCH  53  57
ATOM     57  S   UNL A   1      34.234  34.382  28.247  1.00  0.00     0.124 S 
ATOM     58  O   UNL A   1      34.001  35.660  28.912  1.00  0.00    -0.237 OA
ATOM     59  O   UNL A   1      35.228  34.386  27.180  1.00  0.00    -0.237 OA
ATOM     60  O   UNL A   1      33.035  33.590  27.979  1.00  0.00    -0.744 OA
ENDBRANCH  53  57
ENDBRANCH  26  50
BRANCH  38  61
ATOM     61  C   UNL A   1      43.317  35.204  31.619  1.00  0.00     0.023 A 
ATOM     62  C   UNL A   1      43.585  36.291  30.769  1.00  0.00     0.031 A 
ATOM     63  C   UNL A   1      43.452  35.397  33.005  1.00  0.00     0.131 A 
ATOM     64  C   UNL A   1      44.031  37.507  31.310  1.00  0.00     0.055 A 
ATOM     65  C   UNL A   1      43.842  36.626  33.541  1.00  0.00     0.041 A 
ATOM     66  F   UNL A   1      43.210  34.391  33.861  1.00  0.00    -0.206 F 
ATOM     67  C   UNL A   1      44.146  37.685  32.691  1.00  0.00     0.022 A 
BRANCH  64  68
ATOM     68  S   UNL A   1      44.546  38.828  30.178  1.00  0.00     0.124 S 
ATOM     69  O   UNL A   1      43.656  38.617  29.041  1.00  0.00    -0.237 OA
ATOM     70  O   UNL A   1      44.298  40.030  30.968  1.00  0.00    -0.237 OA
ATOM     71  O   UNL A   1      45.955  38.534  29.925  1.00  0.00    -0.744 OA
ENDBRANCH  64  68
ENDBRANCH  38  61
ENDBRANCH  12  13
ENDBRANCH   5   7
ENDBRANCH   2   3
ENDBRANCH   1   2
BRANCH   1  72
ATOM     72  C   UNL A   1      42.577  19.634  27.067  1.00  0.00     0.023 C 
BRANCH  72  73
ATOM     73  C   UNL A   1      43.013  18.723  25.921  1.00  0.00     0.116 C 
BRANCH  73  74
ATOM     74  N   UNL A   1      44.366  18.231  26.099  1.00  0.00    -0.354 N 
ATOM     75  C   UNL A   1      45.499  18.506  25.382  1.00  0.00     0.249 C 
ATOM     76  H   UNL A   1      44.488  17.605  26.849  1.00  0.00     0.163 HD
ATOM     77  O   UNL A   1      46.541  17.939  25.713  1.00  0.00    -0.272 OA
BRANCH  75  78
ATOM     78  C   UNL A   1      45.434  19.526  24.231  1.00  0.00     0.207 C 
BRANCH  78  79
ATOM     79  C   UNL A   1      46.346  20.708  24.588  1.00  0.00     0.077 C 
BRANCH  79  80
ATOM     80  C   UNL A   1      45.591  22.017  24.655  1.00  0.00    -0.045 A 
ATOM     81  C   UNL A   1      44.190  22.018  24.730  1.00  0.00     0.007 A 
ATOM     82  C   UNL A   1      46.278  23.239  24.671  1.00  0.00     0.007 A 
ATOM     83  C   UNL A   1      43.486  23.219  24.823  1.00  0.00     0.046 A 
ATOM     84  C   UNL A   1      45.573  24.440  24.761  1.00  0.00     0.046 A 
ATOM     85  C   UNL A   1      44.185  24.422  24.840  1.00  0.00     0.115 A 
BRANCH  85  86
ATOM     86  O   UNL A   1      43.536  25.617  24.935  1.00  0.00    -0.508 OA
ATOM     87  H   UNL A   1      43.343  25.981  25.776  1.00  0.00     0.293 HD
ENDBRANCH  85  86
ENDBRANCH  79  80
ENDBRANCH  78  79
BRANCH  78  88
ATOM     88  O   UNL A   1      45.855  18.956  22.991  1.00  0.00    -0.383 OA
ATOM     89  H   UNL A   1      45.635  18.010  22.979  1.00  0.00     0.211 HD
ENDBRANCH  78  88
ENDBRANCH  75  78
ENDBRANCH  73  74
ENDBRANCH  72  73
ENDBRANCH   1  72
TORSDOF 18
ENDMDL
MODEL 3
REMARK VINA RESULT:     -10.6      4.090     12.332
REMARK SMILES O=C(NCCCCNC(=O)[C@H](O)Cc1ccc(O)cc1)c1ccc(-c2c3nc(c(-c4cc(S(=O)(=O)[O-])ccc4F)c4ccc([nH]4)c(-c4cc(S(=O)(=O)[O-])ccc4F)c4nc(c(-c5cc(S(=O)(=O)[O-])ccc5F)c5ccc2[nH]5)C=C4)C=C3)cc1
REMARK SMILES IDX 5 1 4 2 3 3 1 4 2 5 21 7 22 8 83 9 23 10 82 11 24 12 25 13
REMARK SMILES IDX 26 14 76 15 27 16 81 17 75 18 77 19 28 20 80 21 74 22 73 23
REMARK SMILES IDX 29 25 61 26 41 27 60 28 42 29 45 30 59 31 78 32 43 33 44 34
REMARK SMILES IDX 58 36 79 37 46 38 30 39 31 40 39 41 32 42 38 43 40 44 37 45
REMARK SMILES IDX 33 46 34 47 35 48 36 49 62 50 63 51 71 52 64 53 70 54 72 55
REMARK SMILES IDX 69 56 65 57 66 58 67 59 68 60 47 61 48 62 56 63 49 64 55 65
REMARK SMILES IDX 57 66 54 67 50 68 51 69 52 70 53 71 6 72 7 73 8 74 9 75
REMARK SMILES IDX 10 77 11 78 13 79 14 80 15 81 20 82 16 83 19 84 17 85 18 86
REMARK SMILES IDX 12 88
REMARK H PARENT 3 6 77 24 45 35 8 76 18 87 12 89
REMARK Flexibility Score: inf
ROOT
ATOM      1  C   UNL A   1      34.406  34.485  28.065  1.00  0.00     0.023 C 
ENDROOT
BRANCH   1   2
ATOM      2  C   UNL A   1      34.873  33.098  28.495  1.00  0.00     0.116 C 
BRANCH   2   3
ATOM      3  N   UNL A   1      34.052  32.026  27.955  1.00  0.00    -0.352 N 
ATOM      4  O   UNL A   1      33.599  29.973  27.145  1.00  0.00    -0.269 OA
ATOM      5  C   UNL A   1      34.388  30.711  27.730  1.00  0.00     0.251 C 
ATOM      6  H   UNL A   1      33.130  32.276  27.718  1.00  0.00     0.163 HD
BRANCH   5   7
ATOM      7  C   UNL A   1      35.704  30.196  28.172  1.00  0.00     0.039 A 
ATOM      8  C   UNL A   1      35.868  29.641  29.443  1.00  0.00     0.014 A 
ATOM      9  C   UNL A   1      36.790  30.266  27.293  1.00  0.00     0.014 A 
ATOM     10  C   UNL A   1      37.136  29.275  29.881  1.00  0.00     0.010 A 
ATOM     11  C   UNL A   1      38.052  29.829  27.711  1.00  0.00     0.010 A 
ATOM     12  C   UNL A   1      38.242  29.355  29.018  1.00  0.00    -0.014 A 
BRANCH  12  13
ATOM     13  C   UNL A   1      39.573  28.889  29.489  1.00  0.00     0.031 A 
ATOM     14  C   UNL A   1      40.287  29.586  30.615  1.00  0.00     0.074 A 
ATOM     15  C   UNL A   1      40.125  27.809  28.903  1.00  0.00     0.049 A 
ATOM     16  N   UNL A   1      41.448  29.310  31.152  1.00  0.00    -0.248 NA
ATOM     17  C   UNL A   1      39.614  30.750  31.210  1.00  0.00     0.031 C 
ATOM     18  C   UNL A   1      39.526  27.055  27.798  1.00  0.00     0.029 A 
ATOM     19  N   UNL A   1      41.298  27.146  29.156  1.00  0.00    -0.354 N 
ATOM     20  C   UNL A   1      41.654  30.270  32.137  1.00  0.00     0.074 A 
ATOM     21  C   UNL A   1      40.509  31.154  32.101  1.00  0.00     0.031 C 
ATOM     22  C   UNL A   1      40.317  26.017  27.494  1.00  0.00     0.029 A 
ATOM     23  C   UNL A   1      41.508  26.062  28.335  1.00  0.00     0.049 A 
ATOM     24  H   UNL A   1      41.932  27.421  29.858  1.00  0.00     0.167 HD
ATOM     25  C   UNL A   1      42.699  30.394  32.995  1.00  0.00     0.034 A 
ATOM     26  C   UNL A   1      42.548  25.212  28.252  1.00  0.00     0.034 A 
ATOM     27  C   UNL A   1      43.833  29.498  33.019  1.00  0.00     0.049 A 
ATOM     28  C   UNL A   1      43.708  25.392  29.191  1.00  0.00     0.074 A 
ATOM     29  C   UNL A   1      44.927  29.514  33.868  1.00  0.00     0.029 A 
ATOM     30  N   UNL A   1      44.026  28.432  32.150  1.00  0.00    -0.354 N 
ATOM     31  N   UNL A   1      43.876  26.295  30.131  1.00  0.00    -0.248 NA
ATOM     32  C   UNL A   1      44.817  24.439  29.064  1.00  0.00     0.031 C 
ATOM     33  C   UNL A   1      45.807  28.501  33.472  1.00  0.00     0.029 A 
ATOM     34  C   UNL A   1      45.233  27.804  32.423  1.00  0.00     0.049 A 
ATOM     35  H   UNL A   1      43.397  28.160  31.442  1.00  0.00     0.167 HD
ATOM     36  C   UNL A   1      45.103  26.004  30.718  1.00  0.00     0.074 A 
ATOM     37  C   UNL A   1      45.619  24.831  30.043  1.00  0.00     0.031 C 
ATOM     38  C   UNL A   1      45.744  26.646  31.728  1.00  0.00     0.034 A 
BRANCH  25  39
ATOM     39  C   UNL A   1      42.687  31.565  33.948  1.00  0.00     0.023 A 
ATOM     40  C   UNL A   1      42.170  31.457  35.252  1.00  0.00     0.031 A 
ATOM     41  C   UNL A   1      43.198  32.811  33.545  1.00  0.00     0.131 A 
ATOM     42  C   UNL A   1      42.125  32.587  36.083  1.00  0.00     0.055 A 
ATOM     43  C   UNL A   1      43.215  33.915  34.401  1.00  0.00     0.041 A 
ATOM     44  F   UNL A   1      43.687  32.981  32.306  1.00  0.00    -0.206 F 
ATOM     45  C   UNL A   1      42.665  33.809  35.676  1.00  0.00     0.022 A 
BRANCH  42  46
ATOM     46  S   UNL A   1      41.243  32.469  37.663  1.00  0.00     0.124 S 
ATOM     47  O   UNL A   1      39.958  31.913  37.244  1.00  0.00    -0.237 OA
ATOM     48  O   UNL A   1      42.101  31.580  38.439  1.00  0.00    -0.237 OA
ATOM     49  O   UNL A   1      41.192  33.852  38.133  1.00  0.00    -0.744 OA
ENDBRANCH  42  46
ENDBRANCH  25  39
BRANCH  26  50
ATOM     50  C   UNL A   1      42.556  24.137  27.219  1.00  0.00     0.023 A 
ATOM     51  C   UNL A   1      41.719  23.016  27.330  1.00  0.00     0.031 A 
ATOM     52  C   UNL A   1      43.428  24.205  26.117  1.00  0.00     0.131 A 
ATOM     53  C   UNL A   1      41.800  21.989  26.378  1.00  0.00     0.055 A 
ATOM     54  C   UNL A   1      43.466  23.207  25.144  1.00  0.00     0.041 A 
ATOM     55  F   UNL A   1      44.245  25.258  25.961  1.00  0.00    -0.206 F 
ATOM     56  C   UNL A   1      42.657  22.083  25.279  1.00  0.00     0.022 A 
BRANCH  53  57
ATOM     57  S   UNL A   1      40.823  20.483  26.640  1.00  0.00     0.124 S 
ATOM     58  O   UNL A   1      41.555  19.510  25.838  1.00  0.00    -0.237 OA
ATOM     59  O   UNL A   1      40.908  20.317  28.087  1.00  0.00    -0.237 OA
ATOM     60  O   UNL A   1      39.501  20.844  26.131  1.00  0.00    -0.744 OA
ENDBRANCH  53  57
ENDBRANCH  26  50
BRANCH  38  61
ATOM     61  C   UNL A   1      47.058  26.060  32.176  1.00  0.00     0.023 A 
ATOM     62  C   UNL A   1      47.129  25.123  33.222  1.00  0.00     0.031 A 
ATOM     63  C   UNL A   1      48.258  26.466  31.567  1.00  0.00     0.131 A 
ATOM     64  C   UNL A   1      48.379  24.667  33.667  1.00  0.00     0.055 A 
ATOM     65  C   UNL A   1      49.495  25.965  31.976  1.00  0.00     0.041 A 
ATOM     66  F   UNL A   1      48.247  27.360  30.564  1.00  0.00    -0.206 F 
ATOM     67  C   UNL A   1      49.561  25.071  33.040  1.00  0.00     0.022 A 
BRANCH  64  68
ATOM     68  S   UNL A   1      48.448  23.606  35.136  1.00  0.00     0.124 S 
ATOM     69  O   UNL A   1      47.543  22.521  34.769  1.00  0.00    -0.237 OA
ATOM     70  O   UNL A   1      49.863  23.259  35.206  1.00  0.00    -0.237 OA
ATOM     71  O   UNL A   1      47.969  24.475  36.210  1.00  0.00    -0.744 OA
ENDBRANCH  64  68
ENDBRANCH  38  61
ENDBRANCH  12  13
ENDBRANCH   5   7
ENDBRANCH   2   3
ENDBRANCH   1   2
BRANCH   1  72
ATOM     72  C   UNL A   1      34.411  35.555  29.161  1.00  0.00     0.023 C 
BRANCH  72  73
ATOM     73  C   UNL A   1      33.194  36.478  29.167  1.00  0.00     0.116 C 
BRANCH  73  74
ATOM     74  N   UNL A   1      33.236  37.431  30.261  1.00  0.00    -0.354 N 
ATOM     75  C   UNL A   1      33.216  37.214  31.612  1.00  0.00     0.249 C 
ATOM     76  H   UNL A   1      33.288  38.376  29.991  1.00  0.00     0.163 HD
ATOM     77  O   UNL A   1      33.236  38.197  32.353  1.00  0.00    -0.272 OA
BRANCH  75  78
ATOM     78  C   UNL A   1      33.206  35.769  32.144  1.00  0.00     0.207 C 
BRANCH  78  79
ATOM     79  C   UNL A   1      34.294  35.649  33.220  1.00  0.00     0.077 C 
BRANCH  79  80
ATOM     80  C   UNL A   1      34.972  34.297  33.204  1.00  0.00    -0.045 A 
ATOM     81  C   UNL A   1      34.702  33.387  32.171  1.00  0.00     0.007 A 
ATOM     82  C   UNL A   1      35.895  33.948  34.199  1.00  0.00     0.007 A 
ATOM     83  C   UNL A   1      35.345  32.150  32.130  1.00  0.00     0.046 A 
ATOM     84  C   UNL A   1      36.536  32.709  34.160  1.00  0.00     0.046 A 
ATOM     85  C   UNL A   1      36.260  31.822  33.126  1.00  0.00     0.115 A 
BRANCH  85  86
ATOM     86  O   UNL A   1      36.914  30.626  33.121  1.00  0.00    -0.508 OA
ATOM     87  H   UNL A   1      36.673  29.962  32.505  1.00  0.00     0.293 HD
ENDBRANCH  85  86
ENDBRANCH  79  80
ENDBRANCH  78  79
BRANCH  78  88
ATOM     88  O   UNL A   1      31.940  35.417  32.703  1.00  0.00    -0.383 OA
ATOM     89  H   UNL A   1      31.693  36.069  33.379  1.00  0.00     0.211 HD
ENDBRANCH  78  88
ENDBRANCH  75  78
ENDBRANCH  73  74
ENDBRANCH  72  73
ENDBRANCH   1  72
TORSDOF 18
ENDMDL
