MODEL 1
REMARK VINA RESULT:     -11.9      0.000      0.000
REMARK SMILES CN(CCS(C)(=O)=O)C(=O)Nc1cccc(C(=O)NCCCCNC(=O)c2ccc(-c3c4nc(c(-c5cc(S(=O)(=O)[O-])ccc5F)c5ccc([nH]5)c(-c5cc(S(=O)(=O)[O-])ccc5F)c5nc(c(-c6cc(S(=O)(=O)[O-])ccc6F)c6ccc3[nH]6)C=C5)C=C4)cc2)c1
REMARK SMILES IDX 20 1 19 2 17 3 18 4 16 6 12 7 13 8 90 9 14 10 15 11 11 12
REMARK SMILES IDX 9 13 10 14 2 16 1 17 3 18 4 19 5 20 6 21 7 22 8 23 21 24
REMARK SMILES IDX 22 25 23 26 24 27 25 28 26 30 27 31 28 32 89 33 29 34 88 35
REMARK SMILES IDX 30 36 31 37 32 38 82 39 33 40 87 41 81 42 83 43 34 44 86 45
REMARK SMILES IDX 80 46 79 47 35 49 67 50 47 51 66 52 48 53 51 54 65 55 84 56
REMARK SMILES IDX 49 57 50 58 64 60 85 61 52 62 36 63 37 64 45 65 38 66 44 67
REMARK SMILES IDX 46 68 43 69 39 70 40 71 41 72 42 73 68 74 69 75 77 76 70 77
REMARK SMILES IDX 76 78 78 79 75 80 71 81 72 82 73 83 74 84 53 85 54 86 62 87
REMARK SMILES IDX 55 88 61 89 63 90 60 91 56 92 57 93 58 94 59 95
REMARK H PARENT 19 5 11 15 24 29 83 48 51 59
REMARK Flexibility Score: inf
ROOT
ATOM      1  C   UNL A   1      34.292  21.361  27.159  1.00  0.00     0.116 C 
ENDROOT
BRANCH   1   2
ATOM      2  N   UNL A   1      33.504  20.356  26.481  1.00  0.00    -0.352 N 
ATOM      3  C   UNL A   1      32.550  20.469  25.485  1.00  0.00     0.251 C 
ATOM      4  O   UNL A   1      32.036  19.423  25.081  1.00  0.00    -0.269 OA
ATOM      5  H   UNL A   1      33.676  19.434  26.779  1.00  0.00     0.163 HD
BRANCH   3   6
ATOM      6  C   UNL A   1      32.061  21.766  24.883  1.00  0.00     0.041 A 
ATOM      7  C   UNL A   1      32.035  23.549  23.163  1.00  0.00     0.043 A 
ATOM      8  C   UNL A   1      31.040  24.189  23.929  1.00  0.00     0.026 A 
ATOM      9  C   UNL A   1      32.491  22.311  23.653  1.00  0.00     0.040 A 
ATOM     10  C   UNL A   1      30.548  23.646  25.116  1.00  0.00     0.003 A 
ATOM     11  C   UNL A   1      31.063  22.446  25.592  1.00  0.00     0.014 A 
BRANCH   7  12
ATOM     12  N   UNL A   1      32.439  24.319  22.040  1.00  0.00    -0.308 N 
ATOM     13  C   UNL A   1      32.654  25.523  21.474  1.00  0.00     0.321 C 
ATOM     14  O   UNL A   1      33.008  25.429  20.289  1.00  0.00    -0.248 OA
ATOM     15  H   UNL A   1      32.671  23.661  21.346  1.00  0.00     0.171 HD
BRANCH  13  16
ATOM     16  N   UNL A   1      32.483  26.743  22.034  1.00  0.00    -0.327 N 
ATOM     17  C   UNL A   1      31.134  27.307  22.135  1.00  0.00     0.148 C 
BRANCH  16  18
ATOM     18  C   UNL A   1      33.493  27.620  22.520  1.00  0.00     0.137 C 
BRANCH  18  19
ATOM     19  C   UNL A   1      33.864  27.498  23.980  1.00  0.00     0.158 C 
BRANCH  19  20
ATOM     20  S   UNL A   1      33.006  28.283  25.329  1.00  0.00     0.149 S 
ATOM     21  C   UNL A   1      33.980  28.502  26.797  1.00  0.00     0.158 C 
ATOM     22  O   UNL A   1      32.746  29.637  24.867  1.00  0.00    -0.229 OA
ATOM     23  O   UNL A   1      31.892  27.430  25.696  1.00  0.00    -0.229 OA
ENDBRANCH  19  20
ENDBRANCH  18  19
ENDBRANCH  16  18
ENDBRANCH  13  16
ENDBRANCH   7  12
ENDBRANCH   3   6
ENDBRANCH   1   2
BRANCH   1  24
ATOM     24  C   UNL A   1      35.432  22.028  26.375  1.00  0.00     0.023 C 
BRANCH  24  25
ATOM     25  C   UNL A   1      35.880  21.431  25.037  1.00  0.00     0.023 C 
BRANCH  25  26
ATOM     26  C   UNL A   1      37.336  21.606  24.594  1.00  0.00     0.116 C 
BRANCH  26  27
ATOM     27  N   UNL A   1      38.275  20.592  25.057  1.00  0.00    -0.352 N 
ATOM     28  C   UNL A   1      39.308  20.669  25.985  1.00  0.00     0.251 C 
ATOM     29  H   UNL A   1      38.160  19.707  24.644  1.00  0.00     0.163 HD
ATOM     30  O   UNL A   1      39.929  19.661  26.264  1.00  0.00    -0.269 OA
BRANCH  28  31
ATOM     31  C   UNL A   1      39.705  21.976  26.579  1.00  0.00     0.039 A 
ATOM     32  C   UNL A   1      40.755  21.998  27.507  1.00  0.00     0.014 A 
ATOM     33  C   UNL A   1      39.099  23.175  26.208  1.00  0.00     0.014 A 
ATOM     34  C   UNL A   1      41.280  23.222  27.945  1.00  0.00     0.010 A 
ATOM     35  C   UNL A   1      39.680  24.391  26.571  1.00  0.00     0.010 A 
ATOM     36  C   UNL A   1      40.796  24.432  27.421  1.00  0.00    -0.014 A 
BRANCH  36  37
ATOM     37  C   UNL A   1      41.469  25.734  27.712  1.00  0.00     0.031 A 
ATOM     38  C   UNL A   1      40.757  26.812  28.486  1.00  0.00     0.074 A 
ATOM     39  C   UNL A   1      42.697  25.981  27.205  1.00  0.00     0.049 A 
ATOM     40  N   UNL A   1      41.146  28.031  28.763  1.00  0.00    -0.248 NA
ATOM     41  C   UNL A   1      39.414  26.486  28.986  1.00  0.00     0.031 C 
ATOM     42  C   UNL A   1      43.478  25.049  26.388  1.00  0.00     0.029 A 
ATOM     43  N   UNL A   1      43.503  27.091  27.290  1.00  0.00    -0.354 N 
ATOM     44  C   UNL A   1      40.094  28.622  29.456  1.00  0.00     0.074 A 
ATOM     45  C   UNL A   1      39.025  27.646  29.494  1.00  0.00     0.031 C 
ATOM     46  C   UNL A   1      44.657  25.610  26.079  1.00  0.00     0.029 A 
ATOM     47  C   UNL A   1      44.704  26.961  26.627  1.00  0.00     0.049 A 
ATOM     48  H   UNL A   1      43.246  27.906  27.780  1.00  0.00     0.167 HD
ATOM     49  C   UNL A   1      40.033  29.849  30.031  1.00  0.00     0.034 A 
ATOM     50  C   UNL A   1      45.724  27.830  26.467  1.00  0.00     0.034 A 
ATOM     51  C   UNL A   1      41.110  30.811  29.997  1.00  0.00     0.049 A 
ATOM     52  C   UNL A   1      45.624  29.197  27.097  1.00  0.00     0.074 A 
ATOM     53  C   UNL A   1      41.173  32.057  30.597  1.00  0.00     0.029 A 
ATOM     54  N   UNL A   1      42.310  30.640  29.318  1.00  0.00    -0.354 N 
ATOM     55  N   UNL A   1      44.644  29.713  27.802  1.00  0.00    -0.248 NA
ATOM     56  C   UNL A   1      46.775  30.093  26.919  1.00  0.00     0.031 C 
ATOM     57  C   UNL A   1      42.374  32.668  30.221  1.00  0.00     0.029 A 
ATOM     58  C   UNL A   1      43.103  31.771  29.457  1.00  0.00     0.049 A 
ATOM     59  H   UNL A   1      42.563  29.835  28.812  1.00  0.00     0.167 HD
ATOM     60  C   UNL A   1      45.075  30.983  28.178  1.00  0.00     0.074 A 
ATOM     61  C   UNL A   1      46.411  31.143  27.639  1.00  0.00     0.031 C 
ATOM     62  C   UNL A   1      44.427  31.930  28.904  1.00  0.00     0.034 A 
BRANCH  49  63
ATOM     63  C   UNL A   1      38.744  30.227  30.729  1.00  0.00     0.023 A 
ATOM     64  C   UNL A   1      37.690  30.854  30.043  1.00  0.00     0.031 A 
ATOM     65  C   UNL A   1      38.576  29.979  32.103  1.00  0.00     0.131 A 
ATOM     66  C   UNL A   1      36.556  31.288  30.745  1.00  0.00     0.055 A 
ATOM     67  C   UNL A   1      37.406  30.333  32.778  1.00  0.00     0.041 A 
ATOM     68  F   UNL A   1      39.554  29.401  32.820  1.00  0.00    -0.206 F 
ATOM     69  C   UNL A   1      36.393  31.008  32.103  1.00  0.00     0.022 A 
BRANCH  66  70
ATOM     70  S   UNL A   1      35.369  32.362  29.891  1.00  0.00     0.124 S 
ATOM     71  O   UNL A   1      36.221  33.480  29.491  1.00  0.00    -0.237 OA
ATOM     72  O   UNL A   1      34.889  31.507  28.812  1.00  0.00    -0.237 OA
ATOM     73  O   UNL A   1      34.386  32.677  30.925  1.00  0.00    -0.744 OA
ENDBRANCH  66  70
ENDBRANCH  49  63
BRANCH  50  74
ATOM     74  C   UNL A   1      46.930  27.449  25.673  1.00  0.00     0.023 A 
ATOM     75  C   UNL A   1      47.077  27.860  24.338  1.00  0.00     0.031 A 
ATOM     76  C   UNL A   1      47.930  26.625  26.219  1.00  0.00     0.131 A 
ATOM     77  C   UNL A   1      48.168  27.405  23.579  1.00  0.00     0.055 A 
ATOM     78  C   UNL A   1      49.043  26.223  25.479  1.00  0.00     0.041 A 
ATOM     79  F   UNL A   1      47.842  26.203  27.491  1.00  0.00    -0.206 F 
ATOM     80  C   UNL A   1      49.160  26.601  24.145  1.00  0.00     0.022 A 
BRANCH  77  81
ATOM     81  S   UNL A   1      48.223  27.803  21.810  1.00  0.00     0.124 S 
ATOM     82  O   UNL A   1      48.441  26.488  21.217  1.00  0.00    -0.237 OA
ATOM     83  O   UNL A   1      46.908  28.396  21.592  1.00  0.00    -0.237 OA
ATOM     84  O   UNL A   1      49.349  28.730  21.704  1.00  0.00    -0.744 OA
ENDBRANCH  77  81
ENDBRANCH  50  74
BRANCH  62  85
ATOM     85  C   UNL A   1      45.180  33.210  29.190  1.00  0.00     0.023 A 
ATOM     86  C   UNL A   1      45.075  34.335  28.354  1.00  0.00     0.031 A 
ATOM     87  C   UNL A   1      46.035  33.293  30.304  1.00  0.00     0.131 A 
ATOM     88  C   UNL A   1      45.862  35.470  28.605  1.00  0.00     0.055 A 
ATOM     89  C   UNL A   1      46.762  34.450  30.588  1.00  0.00     0.041 A 
ATOM     90  F   UNL A   1      46.178  32.250  31.137  1.00  0.00    -0.206 F 
ATOM     91  C   UNL A   1      46.691  35.542  29.727  1.00  0.00     0.022 A 
BRANCH  88  92
ATOM     92  S   UNL A   1      45.873  36.809  27.382  1.00  0.00     0.124 S 
ATOM     93  O   UNL A   1      46.160  37.975  28.210  1.00  0.00    -0.237 OA
ATOM     94  O   UNL A   1      46.938  36.394  26.474  1.00  0.00    -0.237 OA
ATOM     95  O   UNL A   1      44.526  36.766  26.815  1.00  0.00    -0.744 OA
ENDBRANCH  88  92
ENDBRANCH  62  85
ENDBRANCH  36  37
ENDBRANCH  28  31
ENDBRANCH  26  27
ENDBRANCH  25  26
ENDBRANCH  24  25
ENDBRANCH   1  24
TORSDOF 19
ENDMDL
MODEL 2
REMARK VINA RESULT:     -11.5      1.568      7.606
REMARK SMILES CN(CCS(C)(=O)=O)C(=O)Nc1cccc(C(=O)NCCCCNC(=O)c2ccc(-c3c4nc(c(-c5cc(S(=O)(=O)[O-])ccc5F)c5ccc([nH]5)c(-c5cc(S(=O)(=O)[O-])ccc5F)c5nc(c(-c6cc(S(=O)(=O)[O-])ccc6F)c6ccc3[nH]6)C=C5)C=C4)cc2)c1
REMARK SMILES IDX 20 1 19 2 17 3 18 4 16 6 12 7 13 8 90 9 14 10 15 11 11 12
REMARK SMILES IDX 9 13 10 14 2 16 1 17 3 18 4 19 5 20 6 21 7 22 8 23 21 24
REMARK SMILES IDX 22 25 23 26 24 27 25 28 26 30 27 31 28 32 89 33 29 34 88 35
REMARK SMILES IDX 30 36 31 37 32 38 82 39 33 40 87 41 81 42 83 43 34 44 86 45
REMARK SMILES IDX 80 46 79 47 35 49 67 50 47 51 66 52 48 53 51 54 65 55 84 56
REMARK SMILES IDX 49 57 50 58 64 60 85 61 52 62 36 63 37 64 45 65 38 66 44 67
REMARK SMILES IDX 46 68 43 69 39 70 40 71 41 72 42 73 68 74 69 75 77 76 70 77
REMARK SMILES IDX 76 78 78 79 75 80 71 81 72 82 73 83 74 84 53 85 54 86 62 87
REMARK SMILES IDX 55 88 61 89 63 90 60 91 56 92 57 93 58 94 59 95
REMARK H PARENT 19 5 11 15 24 29 83 48 51 59
REMARK Flexibility Score: inf
ROOT
ATOM      1  C   UNL A   1      34.017  20.982  27.099  1.00  0.00     0.116 C 
ENDROOT
BRANCH   1   2
ATOM      2  N   UNL A   1      33.306  20.065  26.237  1.00  0.00    -0.352 N 
ATOM      3  C   UNL A   1      32.459  20.296  25.167  1.00  0.00     0.251 C 
ATOM      4  O   UNL A   1      31.991  19.306  24.599  1.00  0.00    -0.269 OA
ATOM      5  H   UNL A   1      33.449  19.114  26.446  1.00  0.00     0.163 HD
BRANCH   3   6
ATOM      6  C   UNL A   1      32.030  21.657  24.667  1.00  0.00     0.041 A 
ATOM      7  C   UNL A   1      32.027  23.529  23.044  1.00  0.00     0.043 A 
ATOM      8  C   UNL A   1      31.135  24.195  23.908  1.00  0.00     0.026 A 
ATOM      9  C   UNL A   1      32.420  22.236  23.439  1.00  0.00     0.040 A 
ATOM     10  C   UNL A   1      30.681  23.625  25.097  1.00  0.00     0.003 A 
ATOM     11  C   UNL A   1      31.135  22.366  25.476  1.00  0.00     0.014 A 
BRANCH   7  12
ATOM     12  N   UNL A   1      32.414  24.329  21.936  1.00  0.00    -0.308 N 
ATOM     13  C   UNL A   1      32.650  25.546  21.409  1.00  0.00     0.321 C 
ATOM     14  O   UNL A   1      32.953  25.488  20.207  1.00  0.00    -0.248 OA
ATOM     15  H   UNL A   1      32.594  23.692  21.208  1.00  0.00     0.171 HD
BRANCH  13  16
ATOM     16  N   UNL A   1      32.547  26.748  22.023  1.00  0.00    -0.327 N 
ATOM     17  C   UNL A   1      31.250  27.431  22.056  1.00  0.00     0.148 C 
BRANCH  16  18
ATOM     18  C   UNL A   1      33.591  27.501  22.629  1.00  0.00     0.137 C 
BRANCH  18  19
ATOM     19  C   UNL A   1      33.184  28.544  23.643  1.00  0.00     0.158 C 
BRANCH  19  20
ATOM     20  S   UNL A   1      33.029  28.270  25.397  1.00  0.00     0.149 S 
ATOM     21  C   UNL A   1      33.574  26.673  25.947  1.00  0.00     0.158 C 
ATOM     22  O   UNL A   1      33.971  29.199  26.003  1.00  0.00    -0.229 OA
ATOM     23  O   UNL A   1      31.622  28.365  25.732  1.00  0.00    -0.229 OA
ENDBRANCH  19  20
ENDBRANCH  18  19
ENDBRANCH  16  18
ENDBRANCH  13  16
ENDBRANCH   7  12
ENDBRANCH   3   6
ENDBRANCH   1   2
BRANCH   1  24
ATOM     24  C   UNL A   1      35.174  21.789  26.490  1.00  0.00     0.023 C 
BRANCH  24  25
ATOM     25  C   UNL A   1      35.941  21.223  25.291  1.00  0.00     0.023 C 
BRANCH  25  26
ATOM     26  C   UNL A   1      37.340  21.765  24.979  1.00  0.00     0.116 C 
BRANCH  26  27
ATOM     27  N   UNL A   1      38.459  20.903  25.340  1.00  0.00    -0.352 N 
ATOM     28  C   UNL A   1      39.550  21.133  26.171  1.00  0.00     0.251 C 
ATOM     29  H   UNL A   1      38.439  20.012  24.925  1.00  0.00     0.163 HD
ATOM     30  O   UNL A   1      40.337  20.229  26.377  1.00  0.00    -0.269 OA
BRANCH  28  31
ATOM     31  C   UNL A   1      39.800  22.484  26.747  1.00  0.00     0.039 A 
ATOM     32  C   UNL A   1      40.753  22.611  27.766  1.00  0.00     0.014 A 
ATOM     33  C   UNL A   1      39.153  23.624  26.274  1.00  0.00     0.014 A 
ATOM     34  C   UNL A   1      41.150  23.882  28.202  1.00  0.00     0.010 A 
ATOM     35  C   UNL A   1      39.614  24.889  26.640  1.00  0.00     0.010 A 
ATOM     36  C   UNL A   1      40.639  25.037  27.587  1.00  0.00    -0.014 A 
BRANCH  36  37
ATOM     37  C   UNL A   1      41.193  26.392  27.888  1.00  0.00     0.031 A 
ATOM     38  C   UNL A   1      42.613  26.741  27.527  1.00  0.00     0.074 A 
ATOM     39  C   UNL A   1      40.441  27.287  28.566  1.00  0.00     0.049 A 
ATOM     40  N   UNL A   1      43.290  27.832  27.782  1.00  0.00    -0.248 NA
ATOM     41  C   UNL A   1      43.382  25.712  26.814  1.00  0.00     0.031 C 
ATOM     42  C   UNL A   1      39.069  27.060  29.029  1.00  0.00     0.029 A 
ATOM     43  N   UNL A   1      40.720  28.562  28.995  1.00  0.00    -0.354 N 
ATOM     44  C   UNL A   1      44.568  27.617  27.274  1.00  0.00     0.074 A 
ATOM     45  C   UNL A   1      44.586  26.264  26.760  1.00  0.00     0.031 C 
ATOM     46  C   UNL A   1      38.619  28.165  29.642  1.00  0.00     0.029 A 
ATOM     47  C   UNL A   1      39.681  29.166  29.667  1.00  0.00     0.049 A 
ATOM     48  H   UNL A   1      41.586  29.004  28.836  1.00  0.00     0.167 HD
ATOM     49  C   UNL A   1      45.619  28.474  27.216  1.00  0.00     0.034 A 
ATOM     50  C   UNL A   1      39.590  30.381  30.247  1.00  0.00     0.034 A 
ATOM     51  C   UNL A   1      45.586  29.826  27.722  1.00  0.00     0.049 A 
ATOM     52  C   UNL A   1      40.779  31.308  30.189  1.00  0.00     0.074 A 
ATOM     53  C   UNL A   1      46.574  30.794  27.660  1.00  0.00     0.029 A 
ATOM     54  N   UNL A   1      44.514  30.400  28.393  1.00  0.00    -0.354 N 
ATOM     55  N   UNL A   1      41.958  31.108  29.649  1.00  0.00    -0.248 NA
ATOM     56  C   UNL A   1      40.617  32.630  30.808  1.00  0.00     0.031 C 
ATOM     57  C   UNL A   1      46.129  31.924  28.355  1.00  0.00     0.029 A 
ATOM     58  C   UNL A   1      44.830  31.696  28.779  1.00  0.00     0.049 A 
ATOM     59  H   UNL A   1      43.654  29.955  28.570  1.00  0.00     0.167 HD
ATOM     60  C   UNL A   1      42.668  32.291  29.836  1.00  0.00     0.074 A 
ATOM     61  C   UNL A   1      41.775  33.205  30.520  1.00  0.00     0.031 C 
ATOM     62  C   UNL A   1      43.941  32.596  29.475  1.00  0.00     0.034 A 
BRANCH  49  63
ATOM     63  C   UNL A   1      46.901  27.960  26.598  1.00  0.00     0.023 A 
ATOM     64  C   UNL A   1      47.162  28.093  25.223  1.00  0.00     0.031 A 
ATOM     65  C   UNL A   1      47.865  27.308  27.387  1.00  0.00     0.131 A 
ATOM     66  C   UNL A   1      48.309  27.509  24.667  1.00  0.00     0.055 A 
ATOM     67  C   UNL A   1      49.049  26.808  26.842  1.00  0.00     0.041 A 
ATOM     68  F   UNL A   1      47.667  27.132  28.703  1.00  0.00    -0.206 F 
ATOM     69  C   UNL A   1      49.269  26.891  25.470  1.00  0.00     0.022 A 
BRANCH  66  70
ATOM     70  S   UNL A   1      48.451  27.431  22.859  1.00  0.00     0.124 S 
ATOM     71  O   UNL A   1      47.266  28.178  22.441  1.00  0.00    -0.237 OA
ATOM     72  O   UNL A   1      49.734  28.079  22.615  1.00  0.00    -0.237 OA
ATOM     73  O   UNL A   1      48.408  25.999  22.574  1.00  0.00    -0.744 OA
ENDBRANCH  66  70
ENDBRANCH  49  63
BRANCH  50  74
ATOM     74  C   UNL A   1      38.337  30.800  30.944  1.00  0.00     0.023 A 
ATOM     75  C   UNL A   1      37.314  31.470  30.253  1.00  0.00     0.031 A 
ATOM     76  C   UNL A   1      38.165  30.585  32.323  1.00  0.00     0.131 A 
ATOM     77  C   UNL A   1      36.191  31.946  30.949  1.00  0.00     0.055 A 
ATOM     78  C   UNL A   1      37.020  31.008  33.000  1.00  0.00     0.041 A 
ATOM     79  F   UNL A   1      39.110  29.948  33.034  1.00  0.00    -0.206 F 
ATOM     80  C   UNL A   1      36.030  31.706  32.316  1.00  0.00     0.022 A 
BRANCH  77  81
ATOM     81  S   UNL A   1      34.985  32.968  30.060  1.00  0.00     0.124 S 
ATOM     82  O   UNL A   1      34.474  32.030  29.067  1.00  0.00    -0.237 OA
ATOM     83  O   UNL A   1      34.061  33.343  31.125  1.00  0.00    -0.237 OA
ATOM     84  O   UNL A   1      35.795  34.063  29.526  1.00  0.00    -0.744 OA
ENDBRANCH  77  81
ENDBRANCH  50  74
BRANCH  62  85
ATOM     85  C   UNL A   1      44.424  33.996  29.779  1.00  0.00     0.023 A 
ATOM     86  C   UNL A   1      45.086  34.307  30.979  1.00  0.00     0.031 A 
ATOM     87  C   UNL A   1      44.193  35.039  28.863  1.00  0.00     0.131 A 
ATOM     88  C   UNL A   1      45.436  35.638  31.261  1.00  0.00     0.055 A 
ATOM     89  C   UNL A   1      44.606  36.347  29.119  1.00  0.00     0.041 A 
ATOM     90  F   UNL A   1      43.562  34.803  27.702  1.00  0.00    -0.206 F 
ATOM     91  C   UNL A   1      45.217  36.656  30.331  1.00  0.00     0.022 A 
BRANCH  88  92
ATOM     92  S   UNL A   1      46.079  36.037  32.910  1.00  0.00     0.124 S 
ATOM     93  O   UNL A   1      44.861  36.376  33.637  1.00  0.00    -0.237 OA
ATOM     94  O   UNL A   1      46.729  34.791  33.301  1.00  0.00    -0.237 OA
ATOM     95  O   UNL A   1      46.986  37.156  32.661  1.00  0.00    -0.744 OA
ENDBRANCH  88  92
ENDBRANCH  62  85
ENDBRANCH  36  37
ENDBRANCH  28  31
ENDBRANCH  26  27
ENDBRANCH  25  26
ENDBRANCH  24  25
ENDBRANCH   1  24
TORSDOF 19
ENDMDL
MODEL 3
REMARK VINA RESULT:     -11.4      1.718      7.677
REMARK SMILES CN(CCS(C)(=O)=O)C(=O)Nc1cccc(C(=O)NCCCCNC(=O)c2ccc(-c3c4nc(c(-c5cc(S(=O)(=O)[O-])ccc5F)c5ccc([nH]5)c(-c5cc(S(=O)(=O)[O-])ccc5F)c5nc(c(-c6cc(S(=O)(=O)[O-])ccc6F)c6ccc3[nH]6)C=C5)C=C4)cc2)c1
REMARK SMILES IDX 20 1 19 2 17 3 18 4 16 6 12 7 13 8 90 9 14 10 15 11 11 12
REMARK SMILES IDX 9 13 10 14 2 16 1 17 3 18 4 19 5 20 6 21 7 22 8 23 21 24
REMARK SMILES IDX 22 25 23 26 24 27 25 28 26 30 27 31 28 32 89 33 29 34 88 35
REMARK SMILES IDX 30 36 31 37 32 38 82 39 33 40 87 41 81 42 83 43 34 44 86 45
REMARK SMILES IDX 80 46 79 47 35 49 67 50 47 51 66 52 48 53 51 54 65 55 84 56
REMARK SMILES IDX 49 57 50 58 64 60 85 61 52 62 36 63 37 64 45 65 38 66 44 67
REMARK SMILES IDX 46 68 43 69 39 70 40 71 41 72 42 73 68 74 69 75 77 76 70 77
REMARK SMILES IDX 76 78 78 79 75 80 71 81 72 82 73 83 74 84 53 85 54 86 62 87
REMARK SMILES IDX 55 88 61 89 63 90 60 91 56 92 57 93 58 94 59 95
REMARK H PARENT 19 5 11 15 24 29 83 48 51 59
REMARK Flexibility Score: inf
ROOT
ATOM      1  C   UNL A   1      33.962  21.548  26.929  1.00  0.00     0.116 C 
ENDROOT
BRANCH   1   2
ATOM      2  N   UNL A   1      33.414  20.218  26.783  1.00  0.00    -0.352 N 
ATOM      3  C   UNL A   1      32.803  19.601  25.705  1.00  0.00     0.251 C 
ATOM      4  O   UNL A   1      32.433  18.435  25.864  1.00  0.00    -0.269 OA
ATOM      5  H   UNL A   1      33.488  19.656  27.588  1.00  0.00     0.163 HD
BRANCH   3   6
ATOM      6  C   UNL A   1      32.518  20.250  24.370  1.00  0.00     0.041 A 
ATOM      7  C   UNL A   1      32.216  22.192  22.862  1.00  0.00     0.043 A 
ATOM      8  C   UNL A   1      31.961  21.270  21.826  1.00  0.00     0.026 A 
ATOM      9  C   UNL A   1      32.536  21.639  24.116  1.00  0.00     0.040 A 
ATOM     10  C   UNL A   1      31.998  19.891  22.030  1.00  0.00     0.003 A 
ATOM     11  C   UNL A   1      32.267  19.386  23.297  1.00  0.00     0.014 A 
BRANCH   7  12
ATOM     12  N   UNL A   1      32.045  23.540  22.447  1.00  0.00    -0.308 N 
ATOM     13  C   UNL A   1      32.050  24.854  22.742  1.00  0.00     0.321 C 
ATOM     14  O   UNL A   1      31.719  25.555  21.774  1.00  0.00    -0.248 OA
ATOM     15  H   UNL A   1      31.813  23.489  21.492  1.00  0.00     0.171 HD
BRANCH  13  16
ATOM     16  N   UNL A   1      32.320  25.434  23.935  1.00  0.00    -0.327 N 
ATOM     17  C   UNL A   1      33.714  25.592  24.359  1.00  0.00     0.148 C 
BRANCH  16  18
ATOM     18  C   UNL A   1      31.385  25.890  24.906  1.00  0.00     0.137 C 
BRANCH  18  19
ATOM     19  C   UNL A   1      30.726  27.225  24.649  1.00  0.00     0.158 C 
BRANCH  19  20
ATOM     20  S   UNL A   1      31.584  28.761  24.370  1.00  0.00     0.149 S 
ATOM     21  C   UNL A   1      32.543  28.812  22.877  1.00  0.00     0.158 C 
ATOM     22  O   UNL A   1      30.530  29.740  24.153  1.00  0.00    -0.229 OA
ATOM     23  O   UNL A   1      32.514  28.949  25.466  1.00  0.00    -0.229 OA
ENDBRANCH  19  20
ENDBRANCH  18  19
ENDBRANCH  16  18
ENDBRANCH  13  16
ENDBRANCH   7  12
ENDBRANCH   3   6
ENDBRANCH   1   2
BRANCH   1  24
ATOM     24  C   UNL A   1      35.385  21.799  26.409  1.00  0.00     0.023 C 
BRANCH  24  25
ATOM     25  C   UNL A   1      35.967  20.883  25.327  1.00  0.00     0.023 C 
BRANCH  25  26
ATOM     26  C   UNL A   1      37.362  21.184  24.769  1.00  0.00     0.116 C 
BRANCH  26  27
ATOM     27  N   UNL A   1      38.426  20.274  25.173  1.00  0.00    -0.352 N 
ATOM     28  C   UNL A   1      39.503  20.461  26.033  1.00  0.00     0.251 C 
ATOM     29  H   UNL A   1      38.375  19.378  24.769  1.00  0.00     0.163 HD
ATOM     30  O   UNL A   1      40.239  19.523  26.273  1.00  0.00    -0.269 OA
BRANCH  28  31
ATOM     31  C   UNL A   1      39.802  21.806  26.599  1.00  0.00     0.039 A 
ATOM     32  C   UNL A   1      40.794  21.912  27.583  1.00  0.00     0.014 A 
ATOM     33  C   UNL A   1      39.163  22.960  26.148  1.00  0.00     0.014 A 
ATOM     34  C   UNL A   1      41.234  23.174  28.004  1.00  0.00     0.010 A 
ATOM     35  C   UNL A   1      39.665  24.215  26.497  1.00  0.00     0.010 A 
ATOM     36  C   UNL A   1      40.726  24.340  27.407  1.00  0.00    -0.014 A 
BRANCH  36  37
ATOM     37  C   UNL A   1      41.319  25.683  27.687  1.00  0.00     0.031 A 
ATOM     38  C   UNL A   1      42.720  26.013  27.244  1.00  0.00     0.074 A 
ATOM     39  C   UNL A   1      40.624  26.582  28.419  1.00  0.00     0.049 A 
ATOM     40  N   UNL A   1      43.430  27.091  27.469  1.00  0.00    -0.248 NA
ATOM     41  C   UNL A   1      43.429  24.980  26.476  1.00  0.00     0.031 C 
ATOM     42  C   UNL A   1      39.280  26.372  28.961  1.00  0.00     0.029 A 
ATOM     43  N   UNL A   1      40.951  27.849  28.842  1.00  0.00    -0.354 N 
ATOM     44  C   UNL A   1      44.671  26.861  26.882  1.00  0.00     0.074 A 
ATOM     45  C   UNL A   1      44.636  25.513  26.354  1.00  0.00     0.031 C 
ATOM     46  C   UNL A   1      38.886  27.478  29.611  1.00  0.00     0.029 A 
ATOM     47  C   UNL A   1      39.963  28.462  29.582  1.00  0.00     0.049 A 
ATOM     48  H   UNL A   1      41.812  28.279  28.635  1.00  0.00     0.167 HD
ATOM     49  C   UNL A   1      45.730  27.701  26.769  1.00  0.00     0.034 A 
ATOM     50  C   UNL A   1      39.929  29.672  30.178  1.00  0.00     0.034 A 
ATOM     51  C   UNL A   1      45.751  29.048  27.290  1.00  0.00     0.049 A 
ATOM     52  C   UNL A   1      41.127  30.580  30.057  1.00  0.00     0.074 A 
ATOM     53  C   UNL A   1      46.749  30.001  27.177  1.00  0.00     0.029 A 
ATOM     54  N   UNL A   1      44.731  29.632  28.030  1.00  0.00    -0.354 N 
ATOM     55  N   UNL A   1      42.268  30.367  29.445  1.00  0.00    -0.248 NA
ATOM     56  C   UNL A   1      41.025  31.898  30.698  1.00  0.00     0.031 C 
ATOM     57  C   UNL A   1      46.366  31.130  27.909  1.00  0.00     0.029 A 
ATOM     58  C   UNL A   1      45.091  30.919  28.409  1.00  0.00     0.049 A 
ATOM     59  H   UNL A   1      43.876  29.199  28.254  1.00  0.00     0.167 HD
ATOM     60  C   UNL A   1      43.007  31.537  29.601  1.00  0.00     0.074 A 
ATOM     61  C   UNL A   1      42.172  32.457  30.346  1.00  0.00     0.031 C 
ATOM     62  C   UNL A   1      44.260  31.825  29.166  1.00  0.00     0.034 A 
BRANCH  49  63
ATOM     63  C   UNL A   1      46.965  27.174  26.070  1.00  0.00     0.023 A 
ATOM     64  C   UNL A   1      47.978  26.497  26.771  1.00  0.00     0.031 A 
ATOM     65  C   UNL A   1      47.144  27.372  24.689  1.00  0.00     0.131 A 
ATOM     66  C   UNL A   1      49.156  26.120  26.112  1.00  0.00     0.055 A 
ATOM     67  C   UNL A   1      48.281  26.913  24.020  1.00  0.00     0.041 A 
ATOM     68  F   UNL A   1      46.223  28.028  23.966  1.00  0.00    -0.206 F 
ATOM     69  C   UNL A   1      49.304  26.298  24.735  1.00  0.00     0.022 A 
BRANCH  66  70
ATOM     70  S   UNL A   1      50.556  25.537  27.108  1.00  0.00     0.124 S 
ATOM     71  O   UNL A   1      50.020  24.299  27.671  1.00  0.00    -0.237 OA
ATOM     72  O   UNL A   1      51.610  25.383  26.112  1.00  0.00    -0.237 OA
ATOM     73  O   UNL A   1      50.761  26.614  28.074  1.00  0.00    -0.744 OA
ENDBRANCH  66  70
ENDBRANCH  49  63
BRANCH  50  74
ATOM     74  C   UNL A   1      38.727  30.103  30.954  1.00  0.00     0.023 A 
ATOM     75  C   UNL A   1      37.692  30.828  30.341  1.00  0.00     0.031 A 
ATOM     76  C   UNL A   1      38.619  29.843  32.331  1.00  0.00     0.131 A 
ATOM     77  C   UNL A   1      36.622  31.312  31.110  1.00  0.00     0.055 A 
ATOM     78  C   UNL A   1      37.525  30.277  33.082  1.00  0.00     0.041 A 
ATOM     79  F   UNL A   1      39.578  29.153  32.970  1.00  0.00    -0.206 F 
ATOM     80  C   UNL A   1      36.524  31.029  32.475  1.00  0.00     0.022 A 
BRANCH  77  81
ATOM     81  S   UNL A   1      35.406  32.402  30.321  1.00  0.00     0.124 S 
ATOM     82  O   UNL A   1      35.006  31.612  29.162  1.00  0.00    -0.237 OA
ATOM     83  O   UNL A   1      34.405  32.552  31.373  1.00  0.00    -0.237 OA
ATOM     84  O   UNL A   1      36.175  33.609  30.019  1.00  0.00    -0.744 OA
ENDBRANCH  77  81
ENDBRANCH  50  74
BRANCH  62  85
ATOM     85  C   UNL A   1      44.785  33.214  29.454  1.00  0.00     0.023 A 
ATOM     86  C   UNL A   1      44.700  34.250  28.507  1.00  0.00     0.031 A 
ATOM     87  C   UNL A   1      45.402  33.495  30.687  1.00  0.00     0.131 A 
ATOM     88  C   UNL A   1      45.282  35.498  28.782  1.00  0.00     0.055 A 
ATOM     89  C   UNL A   1      45.917  34.759  30.980  1.00  0.00     0.041 A 
ATOM     90  F   UNL A   1      45.515  32.545  31.628  1.00  0.00    -0.206 F 
ATOM     91  C   UNL A   1      45.873  35.764  30.018  1.00  0.00     0.022 A 
BRANCH  88  92
ATOM     92  S   UNL A   1      45.355  36.733  27.455  1.00  0.00     0.124 S 
ATOM     93  O   UNL A   1      45.493  35.896  26.268  1.00  0.00    -0.237 OA
ATOM     94  O   UNL A   1      44.079  37.425  27.602  1.00  0.00    -0.237 OA
ATOM     95  O   UNL A   1      46.533  37.530  27.794  1.00  0.00    -0.744 OA
ENDBRANCH  88  92
ENDBRANCH  62  85
ENDBRANCH  36  37
ENDBRANCH  28  31
ENDBRANCH  26  27
ENDBRANCH  25  26
ENDBRANCH  24  25
ENDBRANCH   1  24
TORSDOF 19
ENDMDL
