MODEL 1
REMARK VINA RESULT:     -11.3      0.000      0.000
REMARK SMILES C[C@@H]1C[C@@]([NH2+]Cc2cccs2)(C(=O)NCCCCNC(=O)c2ccc(-c3c4nc(c(-c5cc(S(=O)(=O)[O-])ccc5F)c5ccc([nH]5)c(-c5cc(S(=O)(=O)[O-])ccc5F)c5nc(c(-c6cc(S(=O)(=O)[O-])ccc6F)c6ccc3[nH]6)C=C5)C=C4)cc2)CS1
REMARK SMILES IDX 16 1 15 2 14 3 12 4 13 5 4 7 1 8 2 9 3 10 86 11 85 12 5 13
REMARK SMILES IDX 6 16 7 17 8 18 11 19 9 20 10 21 17 22 18 23 19 24 20 25
REMARK SMILES IDX 21 27 22 28 23 29 84 30 24 31 83 32 25 33 26 34 27 35 77 36
REMARK SMILES IDX 28 37 82 38 76 39 78 40 29 41 81 42 75 43 74 44 30 46 62 47
REMARK SMILES IDX 42 48 61 49 43 50 46 51 60 52 79 53 44 54 45 55 59 57 80 58
REMARK SMILES IDX 47 59 31 60 32 61 40 62 33 63 39 64 41 65 38 66 34 67 35 68
REMARK SMILES IDX 36 69 37 70 63 71 64 72 72 73 65 74 71 75 73 76 70 77 66 78
REMARK SMILES IDX 67 79 68 80 69 81 48 82 49 83 57 84 50 85 56 86 58 87 55 88
REMARK SMILES IDX 51 89 52 90 53 91 54 92
REMARK H PARENT 14 6 5 14 5 15 19 26 78 45 46 56
REMARK Flexibility Score: inf
ROOT
ATOM      1  C   UNL A   1      32.147  27.229  26.543  1.00  0.00     0.023 C 
ENDROOT
BRANCH   1   2
ATOM      2  C   UNL A   1      31.918  25.896  25.824  1.00  0.00     0.116 C 
BRANCH   2   3
ATOM      3  N   UNL A   1      31.336  24.912  26.725  1.00  0.00    -0.351 N 
ATOM      4  C   UNL A   1      31.448  23.547  26.754  1.00  0.00     0.282 C 
ATOM      5  O   UNL A   1      30.801  22.957  27.624  1.00  0.00    -0.268 OA
ATOM      6  H   UNL A   1      30.768  25.293  27.434  1.00  0.00     0.163 HD
BRANCH   4   7
ATOM      7  C   UNL A   1      32.406  22.789  25.777  1.00  0.00     0.185 C 
ATOM      8  C   UNL A   1      36.127  23.792  25.287  1.00  0.00     0.019 C 
ATOM      9  C   UNL A   1      34.619  23.975  25.249  1.00  0.00     0.050 C 
ATOM     10  C   UNL A   1      33.890  23.039  26.210  1.00  0.00     0.094 C 
ATOM     11  S   UNL A   1      33.954  23.514  23.653  1.00  0.00    -0.151 SA
ATOM     12  C   UNL A   1      32.284  23.324  24.324  1.00  0.00     0.148 C 
BRANCH   7  13
ATOM     13  N   UNL A   1      32.127  21.312  25.857  1.00  0.00    -0.328 N 
ATOM     14  H   UNL A   1      31.491  21.080  25.095  1.00  0.00     0.347 HD
ATOM     15  H   UNL A   1      31.753  21.166  26.794  1.00  0.00     0.347 HD
BRANCH  13  16
ATOM     16  C   UNL A   1      33.285  20.400  25.762  1.00  0.00     0.309 C 
BRANCH  16  17
ATOM     17  C   UNL A   1      33.196  19.415  24.631  1.00  0.00     0.059 A 
ATOM     18  C   UNL A   1      32.450  19.510  23.470  1.00  0.00     0.021 A 
ATOM     19  S   UNL A   1      34.150  17.984  24.626  1.00  0.00    -0.143 S 
ATOM     20  C   UNL A   1      32.483  18.306  22.708  1.00  0.00     0.012 A 
ATOM     21  C   UNL A   1      33.295  17.355  23.283  1.00  0.00     0.065 A 
ENDBRANCH  16  17
ENDBRANCH  13  16
ENDBRANCH   7  13
ENDBRANCH   4   7
ENDBRANCH   2   3
ENDBRANCH   1   2
BRANCH   1  22
ATOM     22  C   UNL A   1      31.781  28.466  25.719  1.00  0.00     0.023 C 
BRANCH  22  23
ATOM     23  C   UNL A   1      32.907  29.479  25.548  1.00  0.00     0.116 C 
BRANCH  23  24
ATOM     24  N   UNL A   1      32.559  30.795  26.059  1.00  0.00    -0.352 N 
ATOM     25  C   UNL A   1      33.153  31.528  27.055  1.00  0.00     0.251 C 
ATOM     26  H   UNL A   1      31.784  31.222  25.627  1.00  0.00     0.163 HD
ATOM     27  O   UNL A   1      32.600  32.552  27.459  1.00  0.00    -0.269 OA
BRANCH  25  28
ATOM     28  C   UNL A   1      34.424  31.076  27.663  1.00  0.00     0.039 A 
ATOM     29  C   UNL A   1      35.436  32.014  27.879  1.00  0.00     0.014 A 
ATOM     30  C   UNL A   1      34.625  29.739  28.018  1.00  0.00     0.014 A 
ATOM     31  C   UNL A   1      36.621  31.621  28.505  1.00  0.00     0.010 A 
ATOM     32  C   UNL A   1      35.771  29.368  28.720  1.00  0.00     0.010 A 
ATOM     33  C   UNL A   1      36.785  30.304  28.966  1.00  0.00    -0.014 A 
BRANCH  33  34
ATOM     34  C   UNL A   1      38.010  29.909  29.711  1.00  0.00     0.031 A 
ATOM     35  C   UNL A   1      38.265  30.432  31.099  1.00  0.00     0.074 A 
ATOM     36  C   UNL A   1      38.909  29.095  29.122  1.00  0.00     0.049 A 
ATOM     37  N   UNL A   1      39.269  30.188  31.904  1.00  0.00    -0.248 NA
ATOM     38  C   UNL A   1      37.277  31.376  31.643  1.00  0.00     0.031 C 
ATOM     39  C   UNL A   1      38.800  28.564  27.760  1.00  0.00     0.029 A 
ATOM     40  N   UNL A   1      40.084  28.563  29.589  1.00  0.00    -0.354 N 
ATOM     41  C   UNL A   1      39.034  30.947  33.046  1.00  0.00     0.074 A 
ATOM     42  C   UNL A   1      37.834  31.716  32.795  1.00  0.00     0.031 C 
ATOM     43  C   UNL A   1      39.836  27.747  27.522  1.00  0.00     0.029 A 
ATOM     44  C   UNL A   1      40.710  27.730  28.690  1.00  0.00     0.049 A 
ATOM     45  H   UNL A   1      40.445  28.759  30.484  1.00  0.00     0.167 HD
ATOM     46  C   UNL A   1      39.737  30.977  34.208  1.00  0.00     0.034 A 
ATOM     47  C   UNL A   1      41.857  27.030  28.794  1.00  0.00     0.034 A 
ATOM     48  C   UNL A   1      40.935  30.205  34.440  1.00  0.00     0.049 A 
ATOM     49  C   UNL A   1      42.634  27.098  30.085  1.00  0.00     0.074 A 
ATOM     50  C   UNL A   1      41.702  30.127  35.590  1.00  0.00     0.029 A 
ATOM     51  N   UNL A   1      41.551  29.385  33.501  1.00  0.00    -0.354 N 
ATOM     52  N   UNL A   1      42.364  27.774  31.178  1.00  0.00    -0.248 NA
ATOM     53  C   UNL A   1      43.858  26.295  30.157  1.00  0.00     0.031 C 
ATOM     54  C   UNL A   1      42.818  29.327  35.322  1.00  0.00     0.029 A 
ATOM     55  C   UNL A   1      42.704  28.827  34.034  1.00  0.00     0.049 A 
ATOM     56  H   UNL A   1      41.217  29.225  32.589  1.00  0.00     0.167 HD
ATOM     57  C   UNL A   1      43.375  27.451  32.080  1.00  0.00     0.074 A 
ATOM     58  C   UNL A   1      44.236  26.498  31.409  1.00  0.00     0.031 C 
ATOM     59  C   UNL A   1      43.573  27.897  33.348  1.00  0.00     0.034 A 
BRANCH  46  60
ATOM     60  C   UNL A   1      39.234  31.897  35.299  1.00  0.00     0.023 A 
ATOM     61  C   UNL A   1      39.725  33.208  35.447  1.00  0.00     0.031 A 
ATOM     62  C   UNL A   1      38.277  31.451  36.227  1.00  0.00     0.131 A 
ATOM     63  C   UNL A   1      39.325  33.991  36.540  1.00  0.00     0.055 A 
ATOM     64  C   UNL A   1      37.813  32.268  37.260  1.00  0.00     0.041 A 
ATOM     65  F   UNL A   1      37.784  30.204  36.157  1.00  0.00    -0.206 F 
ATOM     66  C   UNL A   1      38.351  33.540  37.433  1.00  0.00     0.022 A 
BRANCH  63  67
ATOM     67  S   UNL A   1      40.217  35.535  36.872  1.00  0.00     0.124 S 
ATOM     68  O   UNL A   1      41.603  35.129  36.650  1.00  0.00    -0.237 OA
ATOM     69  O   UNL A   1      39.651  36.444  35.882  1.00  0.00    -0.237 OA
ATOM     70  O   UNL A   1      39.878  35.835  38.261  1.00  0.00    -0.744 OA
ENDBRANCH  63  67
ENDBRANCH  46  60
BRANCH  47  71
ATOM     71  C   UNL A   1      42.343  26.199  27.654  1.00  0.00     0.023 A 
ATOM     72  C   UNL A   1      41.944  24.861  27.509  1.00  0.00     0.031 A 
ATOM     73  C   UNL A   1      43.251  26.720  26.714  1.00  0.00     0.131 A 
ATOM     74  C   UNL A   1      42.488  24.075  26.482  1.00  0.00     0.055 A 
ATOM     75  C   UNL A   1      43.743  25.951  25.659  1.00  0.00     0.041 A 
ATOM     76  F   UNL A   1      43.663  27.995  26.802  1.00  0.00    -0.206 F 
ATOM     77  C   UNL A   1      43.373  24.615  25.547  1.00  0.00     0.022 A 
BRANCH  74  78
ATOM     78  S   UNL A   1      42.089  22.305  26.438  1.00  0.00     0.124 S 
ATOM     79  O   UNL A   1      40.633  22.330  26.370  1.00  0.00    -0.237 OA
ATOM     80  O   UNL A   1      42.782  21.869  25.230  1.00  0.00    -0.237 OA
ATOM     81  O   UNL A   1      42.648  21.800  27.691  1.00  0.00    -0.744 OA
ENDBRANCH  74  78
ENDBRANCH  47  71
BRANCH  59  82
ATOM     82  C   UNL A   1      44.756  27.323  34.095  1.00  0.00     0.023 A 
ATOM     83  C   UNL A   1      44.673  26.099  34.783  1.00  0.00     0.031 A 
ATOM     84  C   UNL A   1      45.967  28.035  34.165  1.00  0.00     0.131 A 
ATOM     85  C   UNL A   1      45.742  25.671  35.585  1.00  0.00     0.055 A 
ATOM     86  C   UNL A   1      47.057  27.562  34.898  1.00  0.00     0.041 A 
ATOM     87  F   UNL A   1      46.108  29.210  33.533  1.00  0.00    -0.206 F 
ATOM     88  C   UNL A   1      46.941  26.385  35.631  1.00  0.00     0.022 A 
BRANCH  85  89
ATOM     89  S   UNL A   1      45.488  24.249  36.683  1.00  0.00     0.124 S 
ATOM     90  O   UNL A   1      45.122  24.899  37.937  1.00  0.00    -0.237 OA
ATOM     91  O   UNL A   1      44.420  23.519  36.007  1.00  0.00    -0.237 OA
ATOM     92  O   UNL A   1      46.790  23.583  36.687  1.00  0.00    -0.744 OA
ENDBRANCH  85  89
ENDBRANCH  59  82
ENDBRANCH  33  34
ENDBRANCH  25  28
ENDBRANCH  23  24
ENDBRANCH  22  23
ENDBRANCH   1  22
TORSDOF 17
ENDMDL
MODEL 2
REMARK VINA RESULT:     -11.3      1.116      2.598
REMARK SMILES C[C@@H]1C[C@@]([NH2+]Cc2cccs2)(C(=O)NCCCCNC(=O)c2ccc(-c3c4nc(c(-c5cc(S(=O)(=O)[O-])ccc5F)c5ccc([nH]5)c(-c5cc(S(=O)(=O)[O-])ccc5F)c5nc(c(-c6cc(S(=O)(=O)[O-])ccc6F)c6ccc3[nH]6)C=C5)C=C4)cc2)CS1
REMARK SMILES IDX 16 1 15 2 14 3 12 4 13 5 4 7 1 8 2 9 3 10 86 11 85 12 5 13
REMARK SMILES IDX 6 16 7 17 8 18 11 19 9 20 10 21 17 22 18 23 19 24 20 25
REMARK SMILES IDX 21 27 22 28 23 29 84 30 24 31 83 32 25 33 26 34 27 35 77 36
REMARK SMILES IDX 28 37 82 38 76 39 78 40 29 41 81 42 75 43 74 44 30 46 62 47
REMARK SMILES IDX 42 48 61 49 43 50 46 51 60 52 79 53 44 54 45 55 59 57 80 58
REMARK SMILES IDX 47 59 31 60 32 61 40 62 33 63 39 64 41 65 38 66 34 67 35 68
REMARK SMILES IDX 36 69 37 70 63 71 64 72 72 73 65 74 71 75 73 76 70 77 66 78
REMARK SMILES IDX 67 79 68 80 69 81 48 82 49 83 57 84 50 85 56 86 58 87 55 88
REMARK SMILES IDX 51 89 52 90 53 91 54 92
REMARK H PARENT 14 6 5 14 5 15 19 26 78 45 46 56
REMARK Flexibility Score: inf
ROOT
ATOM      1  C   UNL A   1      31.802  27.778  27.021  1.00  0.00     0.023 C 
ENDROOT
BRANCH   1   2
ATOM      2  C   UNL A   1      32.119  26.424  26.381  1.00  0.00     0.116 C 
BRANCH   2   3
ATOM      3  N   UNL A   1      31.330  25.363  26.991  1.00  0.00    -0.351 N 
ATOM      4  C   UNL A   1      31.060  24.089  26.565  1.00  0.00     0.282 C 
ATOM      5  O   UNL A   1      30.317  23.412  27.281  1.00  0.00    -0.268 OA
ATOM      6  H   UNL A   1      30.923  25.602  27.855  1.00  0.00     0.163 HD
BRANCH   4   7
ATOM      7  C   UNL A   1      31.725  23.505  25.274  1.00  0.00     0.185 C 
ATOM      8  C   UNL A   1      33.249  19.935  25.128  1.00  0.00     0.019 C 
ATOM      9  C   UNL A   1      33.109  21.371  25.606  1.00  0.00     0.050 C 
ATOM     10  C   UNL A   1      31.716  21.941  25.350  1.00  0.00     0.094 C 
ATOM     11  S   UNL A   1      34.173  22.467  24.673  1.00  0.00    -0.151 SA
ATOM     12  C   UNL A   1      33.216  23.924  25.158  1.00  0.00     0.148 C 
BRANCH   7  13
ATOM     13  N   UNL A   1      30.927  23.931  24.072  1.00  0.00    -0.328 N 
ATOM     14  H   UNL A   1      30.059  24.344  24.410  1.00  0.00     0.347 HD
ATOM     15  H   UNL A   1      30.816  23.083  23.517  1.00  0.00     0.347 HD
BRANCH  13  16
ATOM     16  C   UNL A   1      31.554  24.905  23.155  1.00  0.00     0.309 C 
BRANCH  16  17
ATOM     17  C   UNL A   1      30.781  26.184  23.001  1.00  0.00     0.059 A 
ATOM     18  C   UNL A   1      31.096  27.287  22.227  1.00  0.00     0.021 A 
ATOM     19  S   UNL A   1      29.262  26.399  23.777  1.00  0.00    -0.143 S 
ATOM     20  C   UNL A   1      30.215  28.382  22.465  1.00  0.00     0.012 A 
ATOM     21  C   UNL A   1      29.228  28.061  23.370  1.00  0.00     0.065 A 
ENDBRANCH  16  17
ENDBRANCH  13  16
ENDBRANCH   7  13
ENDBRANCH   4   7
ENDBRANCH   2   3
ENDBRANCH   1   2
BRANCH   1  22
ATOM     22  C   UNL A   1      31.615  28.924  26.024  1.00  0.00     0.023 C 
BRANCH  22  23
ATOM     23  C   UNL A   1      32.835  29.818  25.835  1.00  0.00     0.116 C 
BRANCH  23  24
ATOM     24  N   UNL A   1      32.596  31.187  26.262  1.00  0.00    -0.352 N 
ATOM     25  C   UNL A   1      33.274  31.943  27.186  1.00  0.00     0.251 C 
ATOM     26  H   UNL A   1      31.839  31.638  25.824  1.00  0.00     0.163 HD
ATOM     27  O   UNL A   1      32.809  33.029  27.533  1.00  0.00    -0.269 OA
BRANCH  25  28
ATOM     28  C   UNL A   1      34.532  31.443  27.786  1.00  0.00     0.039 A 
ATOM     29  C   UNL A   1      35.596  32.332  27.952  1.00  0.00     0.014 A 
ATOM     30  C   UNL A   1      34.668  30.110  28.182  1.00  0.00     0.014 A 
ATOM     31  C   UNL A   1      36.770  31.897  28.570  1.00  0.00     0.010 A 
ATOM     32  C   UNL A   1      35.806  29.701  28.875  1.00  0.00     0.010 A 
ATOM     33  C   UNL A   1      36.873  30.589  29.072  1.00  0.00    -0.014 A 
BRANCH  33  34
ATOM     34  C   UNL A   1      38.089  30.153  29.808  1.00  0.00     0.031 A 
ATOM     35  C   UNL A   1      38.359  30.647  31.205  1.00  0.00     0.074 A 
ATOM     36  C   UNL A   1      38.969  29.329  29.203  1.00  0.00     0.049 A 
ATOM     37  N   UNL A   1      39.358  30.366  32.003  1.00  0.00    -0.248 NA
ATOM     38  C   UNL A   1      37.393  31.603  31.766  1.00  0.00     0.031 C 
ATOM     39  C   UNL A   1      38.846  28.824  27.833  1.00  0.00     0.029 A 
ATOM     40  N   UNL A   1      40.132  28.763  29.660  1.00  0.00    -0.354 N 
ATOM     41  C   UNL A   1      39.141  31.110  33.159  1.00  0.00     0.074 A 
ATOM     42  C   UNL A   1      37.959  31.911  32.923  1.00  0.00     0.031 C 
ATOM     43  C   UNL A   1      39.864  27.988  27.579  1.00  0.00     0.029 A 
ATOM     44  C   UNL A   1      40.738  27.931  28.745  1.00  0.00     0.049 A 
ATOM     45  H   UNL A   1      40.499  28.935  30.557  1.00  0.00     0.167 HD
ATOM     46  C   UNL A   1      39.846  31.105  34.320  1.00  0.00     0.034 A 
ATOM     47  C   UNL A   1      41.869  27.204  28.836  1.00  0.00     0.034 A 
ATOM     48  C   UNL A   1      41.027  30.302  34.537  1.00  0.00     0.049 A 
ATOM     49  C   UNL A   1      42.648  27.232  30.126  1.00  0.00     0.074 A 
ATOM     50  C   UNL A   1      41.793  30.186  35.684  1.00  0.00     0.029 A 
ATOM     51  N   UNL A   1      41.623  29.484  33.583  1.00  0.00    -0.354 N 
ATOM     52  N   UNL A   1      42.396  27.895  31.231  1.00  0.00    -0.248 NA
ATOM     53  C   UNL A   1      43.854  26.400  30.183  1.00  0.00     0.031 C 
ATOM     54  C   UNL A   1      42.891  29.365  35.401  1.00  0.00     0.029 A 
ATOM     55  C   UNL A   1      42.764  28.891  34.104  1.00  0.00     0.049 A 
ATOM     56  H   UNL A   1      41.284  29.347  32.669  1.00  0.00     0.167 HD
ATOM     57  C   UNL A   1      43.400  27.533  32.126  1.00  0.00     0.074 A 
ATOM     58  C   UNL A   1      44.239  26.573  31.437  1.00  0.00     0.031 C 
ATOM     59  C   UNL A   1      43.610  27.953  33.401  1.00  0.00     0.034 A 
BRANCH  46  60
ATOM     60  C   UNL A   1      39.366  32.017  35.428  1.00  0.00     0.023 A 
ATOM     61  C   UNL A   1      39.792  33.355  35.521  1.00  0.00     0.031 A 
ATOM     62  C   UNL A   1      38.498  31.538  36.425  1.00  0.00     0.131 A 
ATOM     63  C   UNL A   1      39.421  34.136  36.626  1.00  0.00     0.055 A 
ATOM     64  C   UNL A   1      38.059  32.348  37.473  1.00  0.00     0.041 A 
ATOM     65  F   UNL A   1      38.072  30.264  36.406  1.00  0.00    -0.206 F 
ATOM     66  C   UNL A   1      38.535  33.651  37.589  1.00  0.00     0.022 A 
BRANCH  63  67
ATOM     67  S   UNL A   1      40.246  35.733  36.873  1.00  0.00     0.124 S 
ATOM     68  O   UNL A   1      41.649  35.375  36.673  1.00  0.00    -0.237 OA
ATOM     69  O   UNL A   1      39.644  36.562  35.836  1.00  0.00    -0.237 OA
ATOM     70  O   UNL A   1      39.893  36.092  38.245  1.00  0.00    -0.744 OA
ENDBRANCH  63  67
ENDBRANCH  46  60
BRANCH  47  71
ATOM     71  C   UNL A   1      42.334  26.381  27.681  1.00  0.00     0.023 A 
ATOM     72  C   UNL A   1      41.903  25.056  27.512  1.00  0.00     0.031 A 
ATOM     73  C   UNL A   1      43.255  26.897  26.750  1.00  0.00     0.131 A 
ATOM     74  C   UNL A   1      42.427  24.276  26.471  1.00  0.00     0.055 A 
ATOM     75  C   UNL A   1      43.729  26.135  25.681  1.00  0.00     0.041 A 
ATOM     76  F   UNL A   1      43.699  28.159  26.861  1.00  0.00    -0.206 F 
ATOM     77  C   UNL A   1      43.325  24.810  25.545  1.00  0.00     0.022 A 
BRANCH  74  78
ATOM     78  S   UNL A   1      41.985  22.517  26.395  1.00  0.00     0.124 S 
ATOM     79  O   UNL A   1      42.649  22.097  25.167  1.00  0.00    -0.237 OA
ATOM     80  O   UNL A   1      42.553  22.009  27.639  1.00  0.00    -0.237 OA
ATOM     81  O   UNL A   1      40.524  22.536  26.342  1.00  0.00    -0.744 OA
ENDBRANCH  74  78
ENDBRANCH  47  71
BRANCH  59  82
ATOM     82  C   UNL A   1      44.780  27.339  34.136  1.00  0.00     0.023 A 
ATOM     83  C   UNL A   1      44.699  26.063  34.721  1.00  0.00     0.031 A 
ATOM     84  C   UNL A   1      45.975  28.062  34.301  1.00  0.00     0.131 A 
ATOM     85  C   UNL A   1      45.751  25.589  35.519  1.00  0.00     0.055 A 
ATOM     86  C   UNL A   1      47.052  27.549  35.027  1.00  0.00     0.041 A 
ATOM     87  F   UNL A   1      46.114  29.287  33.769  1.00  0.00    -0.206 F 
ATOM     88  C   UNL A   1      46.936  26.315  35.659  1.00  0.00     0.022 A 
BRANCH  85  89
ATOM     89  S   UNL A   1      45.491  24.079  36.492  1.00  0.00     0.124 S 
ATOM     90  O   UNL A   1      46.822  23.481  36.482  1.00  0.00    -0.237 OA
ATOM     91  O   UNL A   1      45.039  24.609  37.775  1.00  0.00    -0.237 OA
ATOM     92  O   UNL A   1      44.478  23.351  35.729  1.00  0.00    -0.744 OA
ENDBRANCH  85  89
ENDBRANCH  59  82
ENDBRANCH  33  34
ENDBRANCH  25  28
ENDBRANCH  23  24
ENDBRANCH  22  23
ENDBRANCH   1  22
TORSDOF 17
ENDMDL
MODEL 3
REMARK VINA RESULT:     -11.3      1.814      3.105
REMARK SMILES C[C@@H]1C[C@@]([NH2+]Cc2cccs2)(C(=O)NCCCCNC(=O)c2ccc(-c3c4nc(c(-c5cc(S(=O)(=O)[O-])ccc5F)c5ccc([nH]5)c(-c5cc(S(=O)(=O)[O-])ccc5F)c5nc(c(-c6cc(S(=O)(=O)[O-])ccc6F)c6ccc3[nH]6)C=C5)C=C4)cc2)CS1
REMARK SMILES IDX 16 1 15 2 14 3 12 4 13 5 4 7 1 8 2 9 3 10 86 11 85 12 5 13
REMARK SMILES IDX 6 16 7 17 8 18 11 19 9 20 10 21 17 22 18 23 19 24 20 25
REMARK SMILES IDX 21 27 22 28 23 29 84 30 24 31 83 32 25 33 26 34 27 35 77 36
REMARK SMILES IDX 28 37 82 38 76 39 78 40 29 41 81 42 75 43 74 44 30 46 62 47
REMARK SMILES IDX 42 48 61 49 43 50 46 51 60 52 79 53 44 54 45 55 59 57 80 58
REMARK SMILES IDX 47 59 31 60 32 61 40 62 33 63 39 64 41 65 38 66 34 67 35 68
REMARK SMILES IDX 36 69 37 70 63 71 64 72 72 73 65 74 71 75 73 76 70 77 66 78
REMARK SMILES IDX 67 79 68 80 69 81 48 82 49 83 57 84 50 85 56 86 58 87 55 88
REMARK SMILES IDX 51 89 52 90 53 91 54 92
REMARK H PARENT 14 6 5 14 5 15 19 26 78 45 46 56
REMARK Flexibility Score: inf
ROOT
ATOM      1  C   UNL A   1      31.339  27.926  26.559  1.00  0.00     0.023 C 
ENDROOT
BRANCH   1   2
ATOM      2  C   UNL A   1      32.122  26.623  26.377  1.00  0.00     0.116 C 
BRANCH   2   3
ATOM      3  N   UNL A   1      31.390  25.495  26.934  1.00  0.00    -0.351 N 
ATOM      4  C   UNL A   1      31.326  24.185  26.538  1.00  0.00     0.282 C 
ATOM      5  O   UNL A   1      30.582  23.446  27.188  1.00  0.00    -0.268 OA
ATOM      6  H   UNL A   1      30.852  25.710  27.731  1.00  0.00     0.163 HD
BRANCH   4   7
ATOM      7  C   UNL A   1      32.211  23.645  25.366  1.00  0.00     0.185 C 
ATOM      8  C   UNL A   1      32.551  19.860  24.561  1.00  0.00     0.019 C 
ATOM      9  C   UNL A   1      32.678  21.123  25.397  1.00  0.00     0.050 C 
ATOM     10  C   UNL A   1      31.712  22.219  24.955  1.00  0.00     0.094 C 
ATOM     11  S   UNL A   1      34.283  21.884  25.175  1.00  0.00    -0.151 SA
ATOM     12  C   UNL A   1      33.693  23.476  25.799  1.00  0.00     0.148 C 
BRANCH   7  13
ATOM     13  N   UNL A   1      32.074  24.561  24.180  1.00  0.00    -0.328 N 
ATOM     14  H   UNL A   1      32.720  24.233  23.463  1.00  0.00     0.347 HD
ATOM     15  H   UNL A   1      32.268  25.494  24.545  1.00  0.00     0.347 HD
BRANCH  13  16
ATOM     16  C   UNL A   1      30.738  24.667  23.559  1.00  0.00     0.309 C 
BRANCH  16  17
ATOM     17  C   UNL A   1      30.263  26.079  23.367  1.00  0.00     0.059 A 
ATOM     18  C   UNL A   1      29.123  26.676  23.876  1.00  0.00     0.021 A 
ATOM     19  S   UNL A   1      31.203  27.218  22.485  1.00  0.00    -0.143 S 
ATOM     20  C   UNL A   1      28.913  27.980  23.342  1.00  0.00     0.012 A 
ATOM     21  C   UNL A   1      29.925  28.356  22.489  1.00  0.00     0.065 A 
ENDBRANCH  16  17
ENDBRANCH  13  16
ENDBRANCH   7  13
ENDBRANCH   4   7
ENDBRANCH   2   3
ENDBRANCH   1   2
BRANCH   1  22
ATOM     22  C   UNL A   1      31.893  29.116  25.771  1.00  0.00     0.023 C 
BRANCH  22  23
ATOM     23  C   UNL A   1      33.220  29.664  26.283  1.00  0.00     0.116 C 
BRANCH  23  24
ATOM     24  N   UNL A   1      33.115  31.036  26.752  1.00  0.00    -0.352 N 
ATOM     25  C   UNL A   1      33.916  31.721  27.631  1.00  0.00     0.251 C 
ATOM     26  H   UNL A   1      32.360  31.550  26.383  1.00  0.00     0.163 HD
ATOM     27  O   UNL A   1      33.559  32.828  28.033  1.00  0.00    -0.269 OA
BRANCH  25  28
ATOM     28  C   UNL A   1      35.177  31.120  28.120  1.00  0.00     0.039 A 
ATOM     29  C   UNL A   1      36.345  31.883  28.078  1.00  0.00     0.014 A 
ATOM     30  C   UNL A   1      35.215  29.814  28.617  1.00  0.00     0.014 A 
ATOM     31  C   UNL A   1      37.534  31.359  28.589  1.00  0.00     0.010 A 
ATOM     32  C   UNL A   1      36.381  29.324  29.204  1.00  0.00     0.010 A 
ATOM     33  C   UNL A   1      37.556  30.089  29.191  1.00  0.00    -0.014 A 
BRANCH  33  34
ATOM     34  C   UNL A   1      38.801  29.567  29.814  1.00  0.00     0.031 A 
ATOM     35  C   UNL A   1      39.254  30.066  31.160  1.00  0.00     0.074 A 
ATOM     36  C   UNL A   1      39.542  28.657  29.149  1.00  0.00     0.049 A 
ATOM     37  N   UNL A   1      40.303  29.719  31.862  1.00  0.00    -0.248 NA
ATOM     38  C   UNL A   1      38.434  31.115  31.786  1.00  0.00     0.031 C 
ATOM     39  C   UNL A   1      39.236  28.134  27.815  1.00  0.00     0.029 A 
ATOM     40  N   UNL A   1      40.695  28.003  29.503  1.00  0.00    -0.354 N 
ATOM     41  C   UNL A   1      40.270  30.504  33.010  1.00  0.00     0.074 A 
ATOM     42  C   UNL A   1      39.140  31.399  32.869  1.00  0.00     0.031 C 
ATOM     43  C   UNL A   1      40.149  27.208  27.485  1.00  0.00     0.029 A 
ATOM     44  C   UNL A   1      41.131  27.102  28.558  1.00  0.00     0.049 A 
ATOM     45  H   UNL A   1      41.165  28.162  30.353  1.00  0.00     0.167 HD
ATOM     46  C   UNL A   1      41.087  30.464  34.093  1.00  0.00     0.034 A 
ATOM     47  C   UNL A   1      42.201  26.282  28.557  1.00  0.00     0.034 A 
ATOM     48  C   UNL A   1      42.214  29.568  34.215  1.00  0.00     0.049 A 
ATOM     49  C   UNL A   1      43.109  26.272  29.760  1.00  0.00     0.074 A 
ATOM     50  C   UNL A   1      43.082  29.412  35.281  1.00  0.00     0.029 A 
ATOM     51  N   UNL A   1      42.637  28.681  33.231  1.00  0.00    -0.354 N 
ATOM     52  N   UNL A   1      43.029  26.978  30.864  1.00  0.00    -0.248 NA
ATOM     53  C   UNL A   1      44.241  25.341  29.720  1.00  0.00     0.031 C 
ATOM     54  C   UNL A   1      44.072  28.494  34.914  1.00  0.00     0.029 A 
ATOM     55  C   UNL A   1      43.773  28.003  33.653  1.00  0.00     0.049 A 
ATOM     56  H   UNL A   1      42.196  28.553  32.360  1.00  0.00     0.167 HD
ATOM     57  C   UNL A   1      44.086  26.552  31.663  1.00  0.00     0.074 A 
ATOM     58  C   UNL A   1      44.766  25.508  30.923  1.00  0.00     0.031 C 
ATOM     59  C   UNL A   1      44.461  26.981  32.897  1.00  0.00     0.034 A 
BRANCH  46  60
ATOM     60  C   UNL A   1      40.802  31.439  35.215  1.00  0.00     0.023 A 
ATOM     61  C   UNL A   1      39.682  31.293  36.055  1.00  0.00     0.031 A 
ATOM     62  C   UNL A   1      41.637  32.549  35.429  1.00  0.00     0.131 A 
ATOM     63  C   UNL A   1      39.383  32.280  37.007  1.00  0.00     0.055 A 
ATOM     64  C   UNL A   1      41.385  33.480  36.438  1.00  0.00     0.041 A 
ATOM     65  F   UNL A   1      42.709  32.760  34.648  1.00  0.00    -0.206 F 
ATOM     66  C   UNL A   1      40.242  33.358  37.224  1.00  0.00     0.022 A 
BRANCH  63  67
ATOM     67  S   UNL A   1      37.772  32.220  37.838  1.00  0.00     0.124 S 
ATOM     68  O   UNL A   1      38.106  32.725  39.167  1.00  0.00    -0.237 OA
ATOM     69  O   UNL A   1      36.956  33.098  37.007  1.00  0.00    -0.237 OA
ATOM     70  O   UNL A   1      37.414  30.804  37.790  1.00  0.00    -0.744 OA
ENDBRANCH  63  67
ENDBRANCH  46  60
BRANCH  47  71
ATOM     71  C   UNL A   1      42.474  25.397  27.386  1.00  0.00     0.023 A 
ATOM     72  C   UNL A   1      42.032  24.065  27.364  1.00  0.00     0.031 A 
ATOM     73  C   UNL A   1      43.223  25.860  26.289  1.00  0.00     0.131 A 
ATOM     74  C   UNL A   1      42.382  23.228  26.294  1.00  0.00     0.055 A 
ATOM     75  C   UNL A   1      43.518  25.040  25.198  1.00  0.00     0.041 A 
ATOM     76  F   UNL A   1      43.668  27.126  26.255  1.00  0.00    -0.206 F 
ATOM     77  C   UNL A   1      43.109  23.710  25.204  1.00  0.00     0.022 A 
BRANCH  74  78
ATOM     78  S   UNL A   1      41.948  21.468  26.389  1.00  0.00     0.124 S 
ATOM     79  O   UNL A   1      40.522  21.498  26.087  1.00  0.00    -0.237 OA
ATOM     80  O   UNL A   1      42.810  20.889  25.364  1.00  0.00    -0.237 OA
ATOM     81  O   UNL A   1      42.290  21.108  27.764  1.00  0.00    -0.744 OA
ENDBRANCH  74  78
ENDBRANCH  47  71
BRANCH  59  82
ATOM     82  C   UNL A   1      45.646  26.285  33.529  1.00  0.00     0.023 A 
ATOM     83  C   UNL A   1      45.505  25.070  34.224  1.00  0.00     0.031 A 
ATOM     84  C   UNL A   1      46.923  26.871  33.482  1.00  0.00     0.131 A 
ATOM     85  C   UNL A   1      46.597  24.531  34.921  1.00  0.00     0.055 A 
ATOM     86  C   UNL A   1      48.025  26.286  34.108  1.00  0.00     0.041 A 
ATOM     87  F   UNL A   1      47.121  28.032  32.837  1.00  0.00    -0.206 F 
ATOM     88  C   UNL A   1      47.862  25.121  34.851  1.00  0.00     0.022 A 
BRANCH  85  89
ATOM     89  S   UNL A   1      46.308  23.134  36.041  1.00  0.00     0.124 S 
ATOM     90  O   UNL A   1      45.897  22.085  35.114  1.00  0.00    -0.237 OA
ATOM     91  O   UNL A   1      47.615  22.958  36.665  1.00  0.00    -0.237 OA
ATOM     92  O   UNL A   1      45.255  23.621  36.932  1.00  0.00    -0.744 OA
ENDBRANCH  85  89
ENDBRANCH  59  82
ENDBRANCH  33  34
ENDBRANCH  25  28
ENDBRANCH  23  24
ENDBRANCH  22  23
ENDBRANCH   1  22
TORSDOF 17
ENDMDL
