MODEL 1
REMARK VINA RESULT:     -10.3      0.000      0.000
REMARK SMILES CC(=O)/C=C(/C)NCC(=O)NCCCCNC(=O)c1ccc(-c2c3nc(c(-c4cc(S(=O)(=O)[O-])ccc4F)c4ccc([nH]4)c(-c4cc(S(=O)(=O)[O-])ccc4F)c4nc(c(-c5cc(S(=O)(=O)[O-])ccc5F)c5ccc2[nH]5)C=C4)C=C3)cc1
REMARK SMILES IDX 13 1 12 2 11 3 9 4 10 5 8 7 7 8 5 10 4 11 6 12 2 13 1 14
REMARK SMILES IDX 3 15 14 16 15 17 16 18 17 19 18 21 19 22 20 23 81 24 21 25
REMARK SMILES IDX 80 26 22 27 23 28 24 29 74 30 25 31 79 32 73 33 75 34 26 35
REMARK SMILES IDX 78 36 72 37 71 38 27 40 59 41 39 42 58 43 40 44 43 45 57 46
REMARK SMILES IDX 76 47 41 48 42 49 56 51 77 52 44 53 28 54 29 55 37 56 30 57
REMARK SMILES IDX 36 58 38 59 35 60 31 61 32 62 33 63 34 64 60 65 61 66 69 67
REMARK SMILES IDX 62 68 68 69 70 70 67 71 63 72 64 73 65 74 66 75 45 76 46 77
REMARK SMILES IDX 54 78 47 79 53 80 55 81 52 82 48 83 49 84 50 85 51 86
REMARK H PARENT 11 6 7 9 16 20 75 39 43 50
REMARK Flexibility Score: inf
ROOT
ATOM      1  C   UNL A   1      31.486  27.950  26.848  1.00  0.00     0.023 C 
ENDROOT
BRANCH   1   2
ATOM      2  C   UNL A   1      31.972  26.634  26.243  1.00  0.00     0.116 C 
BRANCH   2   3
ATOM      3  N   UNL A   1      31.228  25.494  26.740  1.00  0.00    -0.355 N 
ATOM      4  C   UNL A   1      31.546  24.169  26.757  1.00  0.00     0.239 C 
ATOM      5  O   UNL A   1      30.718  23.399  27.259  1.00  0.00    -0.273 OA
ATOM      6  H   UNL A   1      30.351  25.712  27.129  1.00  0.00     0.163 HD
BRANCH   4   7
ATOM      7  C   UNL A   1      32.895  23.619  26.266  1.00  0.00     0.213 C 
BRANCH   7   8
ATOM      8  N   UNL A   1      32.806  22.569  25.268  1.00  0.00    -0.380 N 
ATOM      9  H   UNL A   1      32.293  21.786  25.575  1.00  0.00     0.160 HD
BRANCH   8  10
ATOM     10  C   UNL A   1      33.288  22.433  23.980  1.00  0.00     0.011 C 
ATOM     11  C   UNL A   1      34.484  22.673  23.404  1.00  0.00     0.067 C 
ATOM     12  C   UNL A   1      32.181  21.995  23.017  1.00  0.00     0.064 C 
BRANCH  11  13
ATOM     13  C   UNL A   1      35.842  23.184  23.757  1.00  0.00     0.154 C 
ATOM     14  C   UNL A   1      36.269  23.489  25.157  1.00  0.00     0.093 C 
ATOM     15  O   UNL A   1      36.646  23.331  22.829  1.00  0.00    -0.295 OA
ENDBRANCH  11  13
ENDBRANCH   8  10
ENDBRANCH   7   8
ENDBRANCH   4   7
ENDBRANCH   2   3
ENDBRANCH   1   2
BRANCH   1  16
ATOM     16  C   UNL A   1      31.490  29.125  25.868  1.00  0.00     0.023 C 
BRANCH  16  17
ATOM     17  C   UNL A   1      32.748  29.987  25.895  1.00  0.00     0.116 C 
BRANCH  17  18
ATOM     18  N   UNL A   1      32.504  31.339  26.370  1.00  0.00    -0.352 N 
ATOM     19  C   UNL A   1      33.221  32.067  27.296  1.00  0.00     0.251 C 
ATOM     20  H   UNL A   1      31.724  31.795  25.980  1.00  0.00     0.163 HD
ATOM     21  O   UNL A   1      32.801  33.146  27.685  1.00  0.00    -0.269 OA
BRANCH  19  22
ATOM     22  C   UNL A   1      34.478  31.504  27.842  1.00  0.00     0.039 A 
ATOM     23  C   UNL A   1      35.580  32.347  28.002  1.00  0.00     0.014 A 
ATOM     24  C   UNL A   1      34.553  30.164  28.229  1.00  0.00     0.014 A 
ATOM     25  C   UNL A   1      36.734  31.865  28.624  1.00  0.00     0.010 A 
ATOM     26  C   UNL A   1      35.680  29.704  28.908  1.00  0.00     0.010 A 
ATOM     27  C   UNL A   1      36.777  30.552  29.122  1.00  0.00    -0.014 A 
BRANCH  27  28
ATOM     28  C   UNL A   1      37.954  30.054  29.883  1.00  0.00     0.031 A 
ATOM     29  C   UNL A   1      38.191  30.516  31.294  1.00  0.00     0.074 A 
ATOM     30  C   UNL A   1      38.847  29.246  29.275  1.00  0.00     0.049 A 
ATOM     31  N   UNL A   1      39.202  30.268  32.088  1.00  0.00    -0.248 NA
ATOM     32  C   UNL A   1      37.170  31.398  31.880  1.00  0.00     0.031 C 
ATOM     33  C   UNL A   1      38.749  28.765  27.894  1.00  0.00     0.029 A 
ATOM     34  N   UNL A   1      40.018  28.696  29.732  1.00  0.00    -0.354 N 
ATOM     35  C   UNL A   1      38.947  30.971  33.260  1.00  0.00     0.074 A 
ATOM     36  C   UNL A   1      37.712  31.699  33.051  1.00  0.00     0.031 C 
ATOM     37  C   UNL A   1      39.805  27.981  27.625  1.00  0.00     0.029 A 
ATOM     38  C   UNL A   1      40.679  27.938  28.792  1.00  0.00     0.049 A 
ATOM     39  H   UNL A   1      40.355  28.832  30.647  1.00  0.00     0.167 HD
ATOM     40  C   UNL A   1      39.666  30.993  34.409  1.00  0.00     0.034 A 
ATOM     41  C   UNL A   1      41.861  27.293  28.858  1.00  0.00     0.034 A 
ATOM     42  C   UNL A   1      40.886  30.249  34.608  1.00  0.00     0.049 A 
ATOM     43  C   UNL A   1      42.648  27.343  30.145  1.00  0.00     0.074 A 
ATOM     44  C   UNL A   1      41.656  30.149  35.754  1.00  0.00     0.029 A 
ATOM     45  N   UNL A   1      41.518  29.481  33.639  1.00  0.00    -0.354 N 
ATOM     46  N   UNL A   1      42.362  27.968  31.263  1.00  0.00    -0.248 NA
ATOM     47  C   UNL A   1      43.910  26.594  30.179  1.00  0.00     0.031 C 
ATOM     48  C   UNL A   1      42.784  29.376  35.459  1.00  0.00     0.029 A 
ATOM     49  C   UNL A   1      42.684  28.931  34.151  1.00  0.00     0.049 A 
ATOM     50  H   UNL A   1      41.187  29.347  32.721  1.00  0.00     0.167 HD
ATOM     51  C   UNL A   1      43.396  27.660  32.143  1.00  0.00     0.074 A 
ATOM     52  C   UNL A   1      44.299  26.781  31.431  1.00  0.00     0.031 C 
ATOM     53  C   UNL A   1      43.580  28.062  33.426  1.00  0.00     0.034 A 
BRANCH  40  54
ATOM     54  C   UNL A   1      39.162  31.869  35.530  1.00  0.00     0.023 A 
ATOM     55  C   UNL A   1      38.512  31.330  36.654  1.00  0.00     0.031 A 
ATOM     56  C   UNL A   1      39.326  33.264  35.471  1.00  0.00     0.131 A 
ATOM     57  C   UNL A   1      37.993  32.183  37.640  1.00  0.00     0.055 A 
ATOM     58  C   UNL A   1      38.875  34.102  36.492  1.00  0.00     0.041 A 
ATOM     59  F   UNL A   1      39.921  33.838  34.414  1.00  0.00    -0.206 F 
ATOM     60  C   UNL A   1      38.191  33.564  37.578  1.00  0.00     0.022 A 
BRANCH  57  61
ATOM     61  S   UNL A   1      36.946  31.471  38.938  1.00  0.00     0.124 S 
ATOM     62  O   UNL A   1      35.765  32.328  38.866  1.00  0.00    -0.237 OA
ATOM     63  O   UNL A   1      36.768  30.098  38.482  1.00  0.00    -0.237 OA
ATOM     64  O   UNL A   1      37.749  31.629  40.149  1.00  0.00    -0.744 OA
ENDBRANCH  57  61
ENDBRANCH  40  54
BRANCH  41  65
ATOM     65  C   UNL A   1      42.392  26.556  27.674  1.00  0.00     0.023 A 
ATOM     66  C   UNL A   1      42.084  25.203  27.466  1.00  0.00     0.031 A 
ATOM     67  C   UNL A   1      43.265  27.181  26.765  1.00  0.00     0.131 A 
ATOM     68  C   UNL A   1      42.685  24.502  26.408  1.00  0.00     0.055 A 
ATOM     69  C   UNL A   1      43.817  26.494  25.682  1.00  0.00     0.041 A 
ATOM     70  F   UNL A   1      43.589  28.476  26.914  1.00  0.00    -0.206 F 
ATOM     71  C   UNL A   1      43.540  25.142  25.508  1.00  0.00     0.022 A 
BRANCH  68  72
ATOM     72  S   UNL A   1      42.411  22.713  26.286  1.00  0.00     0.124 S 
ATOM     73  O   UNL A   1      43.408  22.196  27.214  1.00  0.00    -0.237 OA
ATOM     74  O   UNL A   1      41.018  22.593  26.706  1.00  0.00    -0.237 OA
ATOM     75  O   UNL A   1      42.661  22.428  24.875  1.00  0.00    -0.744 OA
ENDBRANCH  68  72
ENDBRANCH  41  65
BRANCH  53  76
ATOM     76  C   UNL A   1      44.785  27.515  34.150  1.00  0.00     0.023 A 
ATOM     77  C   UNL A   1      44.734  26.304  34.862  1.00  0.00     0.031 A 
ATOM     78  C   UNL A   1      45.999  28.225  34.138  1.00  0.00     0.131 A 
ATOM     79  C   UNL A   1      45.859  25.867  35.578  1.00  0.00     0.055 A 
ATOM     80  C   UNL A   1      47.131  27.755  34.803  1.00  0.00     0.041 A 
ATOM     81  F   UNL A   1      46.103  29.388  33.474  1.00  0.00    -0.206 F 
ATOM     82  C   UNL A   1      47.061  26.577  35.540  1.00  0.00     0.022 A 
BRANCH  79  83
ATOM     83  S   UNL A   1      45.703  24.400  36.634  1.00  0.00     0.124 S 
ATOM     84  O   UNL A   1      46.051  24.932  37.947  1.00  0.00    -0.237 OA
ATOM     85  O   UNL A   1      44.304  24.028  36.447  1.00  0.00    -0.237 OA
ATOM     86  O   UNL A   1      46.672  23.465  36.066  1.00  0.00    -0.744 OA
ENDBRANCH  79  83
ENDBRANCH  53  76
ENDBRANCH  27  28
ENDBRANCH  19  22
ENDBRANCH  17  18
ENDBRANCH  16  17
ENDBRANCH   1  16
TORSDOF 17
ENDMDL
MODEL 2
REMARK VINA RESULT:     -10.2      5.291     10.438
REMARK SMILES CC(=O)/C=C(/C)NCC(=O)NCCCCNC(=O)c1ccc(-c2c3nc(c(-c4cc(S(=O)(=O)[O-])ccc4F)c4ccc([nH]4)c(-c4cc(S(=O)(=O)[O-])ccc4F)c4nc(c(-c5cc(S(=O)(=O)[O-])ccc5F)c5ccc2[nH]5)C=C4)C=C3)cc1
REMARK SMILES IDX 13 1 12 2 11 3 9 4 10 5 8 7 7 8 5 10 4 11 6 12 2 13 1 14
REMARK SMILES IDX 3 15 14 16 15 17 16 18 17 19 18 21 19 22 20 23 81 24 21 25
REMARK SMILES IDX 80 26 22 27 23 28 24 29 74 30 25 31 79 32 73 33 75 34 26 35
REMARK SMILES IDX 78 36 72 37 71 38 27 40 59 41 39 42 58 43 40 44 43 45 57 46
REMARK SMILES IDX 76 47 41 48 42 49 56 51 77 52 44 53 28 54 29 55 37 56 30 57
REMARK SMILES IDX 36 58 38 59 35 60 31 61 32 62 33 63 34 64 60 65 61 66 69 67
REMARK SMILES IDX 62 68 68 69 70 70 67 71 63 72 64 73 65 74 66 75 45 76 46 77
REMARK SMILES IDX 54 78 47 79 53 80 55 81 52 82 48 83 49 84 50 85 51 86
REMARK H PARENT 11 6 7 9 16 20 75 39 43 50
REMARK Flexibility Score: inf
ROOT
ATOM      1  C   UNL A   1      35.800  23.280  23.890  1.00  0.00     0.023 C 
ENDROOT
BRANCH   1   2
ATOM      2  C   UNL A   1      34.556  22.638  23.279  1.00  0.00     0.116 C 
BRANCH   2   3
ATOM      3  N   UNL A   1      33.443  22.605  24.207  1.00  0.00    -0.355 N 
ATOM      4  C   UNL A   1      33.124  21.703  25.176  1.00  0.00     0.239 C 
ATOM      5  O   UNL A   1      32.105  21.927  25.839  1.00  0.00    -0.273 OA
ATOM      6  H   UNL A   1      32.815  23.359  24.123  1.00  0.00     0.163 HD
BRANCH   4   7
ATOM      7  C   UNL A   1      34.005  20.491  25.522  1.00  0.00     0.213 C 
BRANCH   7   8
ATOM      8  N   UNL A   1      33.348  19.202  25.415  1.00  0.00    -0.380 N 
ATOM      9  H   UNL A   1      33.012  18.866  26.278  1.00  0.00     0.160 HD
BRANCH   8  10
ATOM     10  C   UNL A   1      33.097  18.343  24.362  1.00  0.00     0.011 C 
ATOM     11  C   UNL A   1      33.325  17.030  24.157  1.00  0.00     0.067 C 
ATOM     12  C   UNL A   1      32.511  19.093  23.162  1.00  0.00     0.064 C 
BRANCH  11  13
ATOM     13  C   UNL A   1      33.930  15.852  24.848  1.00  0.00     0.154 C 
ATOM     14  C   UNL A   1      35.331  15.835  25.374  1.00  0.00     0.093 C 
ATOM     15  O   UNL A   1      33.209  14.861  25.005  1.00  0.00    -0.295 OA
ENDBRANCH  11  13
ENDBRANCH   8  10
ENDBRANCH   7   8
ENDBRANCH   4   7
ENDBRANCH   2   3
ENDBRANCH   1   2
BRANCH   1  16
ATOM     16  C   UNL A   1      36.928  22.291  24.191  1.00  0.00     0.023 C 
BRANCH  16  17
ATOM     17  C   UNL A   1      37.267  22.124  25.669  1.00  0.00     0.116 C 
BRANCH  17  18
ATOM     18  N   UNL A   1      38.375  21.214  25.902  1.00  0.00    -0.352 N 
ATOM     19  C   UNL A   1      39.634  21.498  26.388  1.00  0.00     0.251 C 
ATOM     20  H   UNL A   1      38.205  20.269  25.684  1.00  0.00     0.163 HD
ATOM     21  O   UNL A   1      40.496  20.634  26.396  1.00  0.00    -0.269 OA
BRANCH  19  22
ATOM     22  C   UNL A   1      39.936  22.871  26.854  1.00  0.00     0.039 A 
ATOM     23  C   UNL A   1      40.761  23.037  27.969  1.00  0.00     0.014 A 
ATOM     24  C   UNL A   1      39.439  23.984  26.171  1.00  0.00     0.014 A 
ATOM     25  C   UNL A   1      41.152  24.322  28.352  1.00  0.00     0.010 A 
ATOM     26  C   UNL A   1      39.884  25.260  26.515  1.00  0.00     0.010 A 
ATOM     27  C   UNL A   1      40.753  25.441  27.602  1.00  0.00    -0.014 A 
BRANCH  27  28
ATOM     28  C   UNL A   1      41.247  26.805  27.928  1.00  0.00     0.031 A 
ATOM     29  C   UNL A   1      42.675  27.181  27.640  1.00  0.00     0.074 A 
ATOM     30  C   UNL A   1      40.430  27.678  28.552  1.00  0.00     0.049 A 
ATOM     31  N   UNL A   1      43.316  28.283  27.932  1.00  0.00    -0.248 NA
ATOM     32  C   UNL A   1      43.498  26.169  26.961  1.00  0.00     0.031 C 
ATOM     33  C   UNL A   1      39.037  27.415  28.923  1.00  0.00     0.029 A 
ATOM     34  N   UNL A   1      40.651  28.958  28.995  1.00  0.00    -0.354 N 
ATOM     35  C   UNL A   1      44.619  28.095  27.485  1.00  0.00     0.074 A 
ATOM     36  C   UNL A   1      44.688  26.751  26.952  1.00  0.00     0.031 C 
ATOM     37  C   UNL A   1      38.527  28.503  29.521  1.00  0.00     0.029 A 
ATOM     38  C   UNL A   1      39.563  29.525  29.619  1.00  0.00     0.049 A 
ATOM     39  H   UNL A   1      41.509  29.427  28.878  1.00  0.00     0.167 HD
ATOM     40  C   UNL A   1      45.656  28.970  27.501  1.00  0.00     0.034 A 
ATOM     41  C   UNL A   1      39.420  30.726  30.215  1.00  0.00     0.034 A 
ATOM     42  C   UNL A   1      45.566  30.313  28.020  1.00  0.00     0.049 A 
ATOM     43  C   UNL A   1      40.593  31.676  30.231  1.00  0.00     0.074 A 
ATOM     44  C   UNL A   1      46.536  31.301  28.024  1.00  0.00     0.029 A 
ATOM     45  N   UNL A   1      44.445  30.857  28.632  1.00  0.00    -0.354 N 
ATOM     46  N   UNL A   1      41.803  31.501  29.751  1.00  0.00    -0.248 NA
ATOM     47  C   UNL A   1      40.377  32.986  30.858  1.00  0.00     0.031 C 
ATOM     48  C   UNL A   1      46.023  32.417  28.694  1.00  0.00     0.029 A 
ATOM     49  C   UNL A   1      44.709  32.155  29.045  1.00  0.00     0.049 A 
ATOM     50  H   UNL A   1      43.586  30.390  28.755  1.00  0.00     0.167 HD
ATOM     51  C   UNL A   1      42.481  32.693  29.993  1.00  0.00     0.074 A 
ATOM     52  C   UNL A   1      41.541  33.581  30.644  1.00  0.00     0.031 C 
ATOM     53  C   UNL A   1      43.763  33.026  29.701  1.00  0.00     0.034 A 
BRANCH  40  54
ATOM     54  C   UNL A   1      46.981  28.489  26.961  1.00  0.00     0.023 A 
ATOM     55  C   UNL A   1      47.171  28.229  25.593  1.00  0.00     0.031 A 
ATOM     56  C   UNL A   1      48.068  28.281  27.828  1.00  0.00     0.131 A 
ATOM     57  C   UNL A   1      48.396  27.714  25.141  1.00  0.00     0.055 A 
ATOM     58  C   UNL A   1      49.308  27.841  27.362  1.00  0.00     0.041 A 
ATOM     59  F   UNL A   1      47.941  28.493  29.147  1.00  0.00    -0.206 F 
ATOM     60  C   UNL A   1      49.473  27.541  26.013  1.00  0.00     0.022 A 
BRANCH  57  61
ATOM     61  S   UNL A   1      48.519  27.156  23.421  1.00  0.00     0.124 S 
ATOM     62  O   UNL A   1      49.954  27.273  23.176  1.00  0.00    -0.237 OA
ATOM     63  O   UNL A   1      47.993  25.798  23.491  1.00  0.00    -0.237 OA
ATOM     64  O   UNL A   1      47.689  28.111  22.690  1.00  0.00    -0.744 OA
ENDBRANCH  57  61
ENDBRANCH  40  54
BRANCH  41  65
ATOM     65  C   UNL A   1      38.132  31.104  30.866  1.00  0.00     0.023 A 
ATOM     66  C   UNL A   1      37.147  31.814  30.161  1.00  0.00     0.031 A 
ATOM     67  C   UNL A   1      37.892  30.811  32.220  1.00  0.00     0.131 A 
ATOM     68  C   UNL A   1      35.992  32.256  30.825  1.00  0.00     0.055 A 
ATOM     69  C   UNL A   1      36.716  31.205  32.862  1.00  0.00     0.041 A 
ATOM     70  F   UNL A   1      38.798  30.130  32.939  1.00  0.00    -0.206 F 
ATOM     71  C   UNL A   1      35.765  31.946  32.168  1.00  0.00     0.022 A 
BRANCH  68  72
ATOM     72  S   UNL A   1      34.835  33.330  29.933  1.00  0.00     0.124 S 
ATOM     73  O   UNL A   1      33.936  33.749  31.001  1.00  0.00    -0.237 OA
ATOM     74  O   UNL A   1      35.726  34.358  29.403  1.00  0.00    -0.237 OA
ATOM     75  O   UNL A   1      34.247  32.440  28.934  1.00  0.00    -0.744 OA
ENDBRANCH  68  72
ENDBRANCH  41  65
BRANCH  53  76
ATOM     76  C   UNL A   1      44.203  34.428  30.045  1.00  0.00     0.023 A 
ATOM     77  C   UNL A   1      43.933  35.517  29.198  1.00  0.00     0.031 A 
ATOM     78  C   UNL A   1      44.916  34.672  31.231  1.00  0.00     0.131 A 
ATOM     79  C   UNL A   1      44.422  36.792  29.523  1.00  0.00     0.055 A 
ATOM     80  C   UNL A   1      45.348  35.952  31.578  1.00  0.00     0.041 A 
ATOM     81  F   UNL A   1      45.203  33.668  32.076  1.00  0.00    -0.206 F 
ATOM     82  C   UNL A   1      45.113  37.019  30.716  1.00  0.00     0.022 A 
BRANCH  79  83
ATOM     83  S   UNL A   1      44.216  38.136  28.323  1.00  0.00     0.124 S 
ATOM     84  O   UNL A   1      45.343  39.004  28.642  1.00  0.00    -0.237 OA
ATOM     85  O   UNL A   1      44.296  37.430  27.047  1.00  0.00    -0.237 OA
ATOM     86  O   UNL A   1      42.899  38.684  28.644  1.00  0.00    -0.744 OA
ENDBRANCH  79  83
ENDBRANCH  53  76
ENDBRANCH  27  28
ENDBRANCH  19  22
ENDBRANCH  17  18
ENDBRANCH  16  17
ENDBRANCH   1  16
TORSDOF 17
ENDMDL
MODEL 3
REMARK VINA RESULT:     -10.2      5.175     10.723
REMARK SMILES CC(=O)/C=C(/C)NCC(=O)NCCCCNC(=O)c1ccc(-c2c3nc(c(-c4cc(S(=O)(=O)[O-])ccc4F)c4ccc([nH]4)c(-c4cc(S(=O)(=O)[O-])ccc4F)c4nc(c(-c5cc(S(=O)(=O)[O-])ccc5F)c5ccc2[nH]5)C=C4)C=C3)cc1
REMARK SMILES IDX 13 1 12 2 11 3 9 4 10 5 8 7 7 8 5 10 4 11 6 12 2 13 1 14
REMARK SMILES IDX 3 15 14 16 15 17 16 18 17 19 18 21 19 22 20 23 81 24 21 25
REMARK SMILES IDX 80 26 22 27 23 28 24 29 74 30 25 31 79 32 73 33 75 34 26 35
REMARK SMILES IDX 78 36 72 37 71 38 27 40 59 41 39 42 58 43 40 44 43 45 57 46
REMARK SMILES IDX 76 47 41 48 42 49 56 51 77 52 44 53 28 54 29 55 37 56 30 57
REMARK SMILES IDX 36 58 38 59 35 60 31 61 32 62 33 63 34 64 60 65 61 66 69 67
REMARK SMILES IDX 62 68 68 69 70 70 67 71 63 72 64 73 65 74 66 75 45 76 46 77
REMARK SMILES IDX 54 78 47 79 53 80 55 81 52 82 48 83 49 84 50 85 51 86
REMARK H PARENT 11 6 7 9 16 20 75 39 43 50
REMARK Flexibility Score: inf
ROOT
ATOM      1  C   UNL A   1      41.949  22.319  28.463  1.00  0.00     0.023 C 
ENDROOT
BRANCH   1   2
ATOM      2  C   UNL A   1      42.883  23.156  27.592  1.00  0.00     0.116 C 
BRANCH   2   3
ATOM      3  N   UNL A   1      44.085  23.552  28.298  1.00  0.00    -0.355 N 
ATOM      4  C   UNL A   1      45.327  23.860  27.829  1.00  0.00     0.239 C 
ATOM      5  O   UNL A   1      46.180  24.179  28.666  1.00  0.00    -0.273 OA
ATOM      6  H   UNL A   1      43.989  23.607  29.276  1.00  0.00     0.163 HD
BRANCH   4   7
ATOM      7  C   UNL A   1      45.676  23.905  26.332  1.00  0.00     0.213 C 
BRANCH   7   8
ATOM      8  N   UNL A   1      45.684  22.618  25.662  1.00  0.00    -0.380 N 
ATOM      9  H   UNL A   1      46.538  22.138  25.759  1.00  0.00     0.160 HD
BRANCH   8  10
ATOM     10  C   UNL A   1      44.751  21.925  24.916  1.00  0.00     0.011 C 
ATOM     11  C   UNL A   1      44.553  20.616  24.656  1.00  0.00     0.067 C 
ATOM     12  C   UNL A   1      43.811  22.881  24.176  1.00  0.00     0.064 C 
BRANCH  11  13
ATOM     13  C   UNL A   1      45.157  19.284  24.964  1.00  0.00     0.154 C 
ATOM     14  C   UNL A   1      46.455  19.116  25.687  1.00  0.00     0.093 C 
ATOM     15  O   UNL A   1      44.519  18.285  24.615  1.00  0.00    -0.295 OA
ENDBRANCH  11  13
ENDBRANCH   8  10
ENDBRANCH   7   8
ENDBRANCH   4   7
ENDBRANCH   2   3
ENDBRANCH   1   2
BRANCH   1  16
ATOM     16  C   UNL A   1      41.130  21.287  27.685  1.00  0.00     0.023 C 
BRANCH  16  17
ATOM     17  C   UNL A   1      40.881  21.629  26.219  1.00  0.00     0.116 C 
BRANCH  17  18
ATOM     18  N   UNL A   1      39.476  21.848  25.915  1.00  0.00    -0.352 N 
ATOM     19  C   UNL A   1      38.700  22.955  26.184  1.00  0.00     0.251 C 
ATOM     20  H   UNL A   1      39.019  21.107  25.455  1.00  0.00     0.163 HD
ATOM     21  O   UNL A   1      37.496  22.923  25.981  1.00  0.00    -0.269 OA
BRANCH  19  22
ATOM     22  C   UNL A   1      39.337  24.160  26.763  1.00  0.00     0.039 A 
ATOM     23  C   UNL A   1      40.072  25.001  25.925  1.00  0.00     0.014 A 
ATOM     24  C   UNL A   1      39.174  24.477  28.114  1.00  0.00     0.014 A 
ATOM     25  C   UNL A   1      40.580  26.202  26.426  1.00  0.00     0.010 A 
ATOM     26  C   UNL A   1      39.624  25.706  28.594  1.00  0.00     0.010 A 
ATOM     27  C   UNL A   1      40.323  26.585  27.753  1.00  0.00    -0.014 A 
BRANCH  27  28
ATOM     28  C   UNL A   1      40.760  27.908  28.273  1.00  0.00     0.031 A 
ATOM     29  C   UNL A   1      42.223  28.200  28.462  1.00  0.00     0.074 A 
ATOM     30  C   UNL A   1      39.834  28.817  28.644  1.00  0.00     0.049 A 
ATOM     31  N   UNL A   1      42.796  29.254  28.984  1.00  0.00    -0.248 NA
ATOM     32  C   UNL A   1      43.164  27.154  28.034  1.00  0.00     0.031 C 
ATOM     33  C   UNL A   1      38.384  28.632  28.549  1.00  0.00     0.029 A 
ATOM     34  N   UNL A   1      39.971  30.070  29.186  1.00  0.00    -0.354 N 
ATOM     35  C   UNL A   1      44.162  28.995  28.961  1.00  0.00     0.074 A 
ATOM     36  C   UNL A   1      44.325  27.661  28.422  1.00  0.00     0.031 C 
ATOM     37  C   UNL A   1      37.768  29.737  29.001  1.00  0.00     0.029 A 
ATOM     38  C   UNL A   1      38.773  30.690  29.460  1.00  0.00     0.049 A 
ATOM     39  H   UNL A   1      40.846  30.487  29.363  1.00  0.00     0.167 HD
ATOM     40  C   UNL A   1      45.185  29.802  29.336  1.00  0.00     0.034 A 
ATOM     41  C   UNL A   1      38.513  31.884  30.030  1.00  0.00     0.034 A 
ATOM     42  C   UNL A   1      45.007  31.137  29.855  1.00  0.00     0.049 A 
ATOM     43  C   UNL A   1      39.669  32.758  30.451  1.00  0.00     0.074 A 
ATOM     44  C   UNL A   1      45.976  32.062  30.203  1.00  0.00     0.029 A 
ATOM     45  N   UNL A   1      43.780  31.737  30.107  1.00  0.00    -0.354 N 
ATOM     46  N   UNL A   1      40.958  32.519  30.367  1.00  0.00    -0.248 NA
ATOM     47  C   UNL A   1      39.335  34.064  31.031  1.00  0.00     0.031 C 
ATOM     48  C   UNL A   1      45.338  33.193  30.723  1.00  0.00     0.029 A 
ATOM     49  C   UNL A   1      43.968  33.005  30.634  1.00  0.00     0.049 A 
ATOM     50  H   UNL A   1      42.903  31.321  29.936  1.00  0.00     0.167 HD
ATOM     51  C   UNL A   1      41.586  33.661  30.858  1.00  0.00     0.074 A 
ATOM     52  C   UNL A   1      40.536  34.591  31.217  1.00  0.00     0.031 C 
ATOM     53  C   UNL A   1      42.911  33.920  30.995  1.00  0.00     0.034 A 
BRANCH  40  54
ATOM     54  C   UNL A   1      46.586  29.252  29.220  1.00  0.00     0.023 A 
ATOM     55  C   UNL A   1      47.299  29.298  28.009  1.00  0.00     0.031 A 
ATOM     56  C   UNL A   1      47.214  28.667  30.333  1.00  0.00     0.131 A 
ATOM     57  C   UNL A   1      48.571  28.710  27.923  1.00  0.00     0.055 A 
ATOM     58  C   UNL A   1      48.510  28.152  30.260  1.00  0.00     0.041 A 
ATOM     59  F   UNL A   1      46.576  28.577  31.509  1.00  0.00    -0.206 F 
ATOM     60  C   UNL A   1      49.191  28.160  29.047  1.00  0.00     0.022 A 
BRANCH  57  61
ATOM     61  S   UNL A   1      49.349  28.565  26.292  1.00  0.00     0.124 S 
ATOM     62  O   UNL A   1      48.183  28.501  25.415  1.00  0.00    -0.237 OA
ATOM     63  O   UNL A   1      50.143  29.785  26.211  1.00  0.00    -0.237 OA
ATOM     64  O   UNL A   1      50.117  27.325  26.388  1.00  0.00    -0.744 OA
ENDBRANCH  57  61
ENDBRANCH  40  54
BRANCH  41  65
ATOM     65  C   UNL A   1      37.107  32.327  30.259  1.00  0.00     0.023 A 
ATOM     66  C   UNL A   1      36.367  32.943  29.237  1.00  0.00     0.031 A 
ATOM     67  C   UNL A   1      36.502  32.193  31.521  1.00  0.00     0.131 A 
ATOM     68  C   UNL A   1      35.088  33.452  29.509  1.00  0.00     0.055 A 
ATOM     69  C   UNL A   1      35.207  32.651  31.771  1.00  0.00     0.041 A 
ATOM     70  F   UNL A   1      37.163  31.605  32.532  1.00  0.00    -0.206 F 
ATOM     71  C   UNL A   1      34.498  33.300  30.766  1.00  0.00     0.022 A 
BRANCH  68  72
ATOM     72  S   UNL A   1      34.243  34.408  28.219  1.00  0.00     0.124 S 
ATOM     73  O   UNL A   1      35.200  34.337  27.121  1.00  0.00    -0.237 OA
ATOM     74  O   UNL A   1      33.007  33.652  28.045  1.00  0.00    -0.237 OA
ATOM     75  O   UNL A   1      34.084  35.729  28.825  1.00  0.00    -0.744 OA
ENDBRANCH  68  72
ENDBRANCH  41  65
BRANCH  53  76
ATOM     76  C   UNL A   1      43.292  35.283  31.516  1.00  0.00     0.023 A 
ATOM     77  C   UNL A   1      43.322  35.567  32.892  1.00  0.00     0.031 A 
ATOM     78  C   UNL A   1      43.616  36.316  30.619  1.00  0.00     0.131 A 
ATOM     79  C   UNL A   1      43.615  36.868  33.330  1.00  0.00     0.055 A 
ATOM     80  C   UNL A   1      43.964  37.592  31.063  1.00  0.00     0.041 A 
ATOM     81  F   UNL A   1      43.601  36.099  29.294  1.00  0.00    -0.206 F 
ATOM     82  C   UNL A   1      43.952  37.878  32.425  1.00  0.00     0.022 A 
BRANCH  79  83
ATOM     83  S   UNL A   1      43.465  37.247  35.098  1.00  0.00     0.124 S 
ATOM     84  O   UNL A   1      44.108  38.553  35.185  1.00  0.00    -0.237 OA
ATOM     85  O   UNL A   1      42.019  37.233  35.299  1.00  0.00    -0.237 OA
ATOM     86  O   UNL A   1      44.189  36.154  35.745  1.00  0.00    -0.744 OA
ENDBRANCH  79  83
ENDBRANCH  53  76
ENDBRANCH  27  28
ENDBRANCH  19  22
ENDBRANCH  17  18
ENDBRANCH  16  17
ENDBRANCH   1  16
TORSDOF 17
ENDMDL
