MODEL 1
REMARK VINA RESULT:     -13.0      0.000      0.000
REMARK SMILES Cc1ccccc1N[C@H](C(=O)NCCCCNC(=O)c1ccc(-c2c3nc(c(-c4cc(S(=O)(=O)[O-])ccc4F)c4ccc([nH]4)c(-c4cc(S(=O)(=O)[O-])ccc4F)c4nc(c(-c5cc(S(=O)(=O)[O-])ccc5F)c5ccc2[nH]5)C=C4)C=C3)cc1)c1cccc(C2CC2)c1
REMARK SMILES IDX 15 1 14 2 13 3 12 4 10 5 11 6 9 8 8 9 7 11 1 12 2 13 3 14
REMARK SMILES IDX 4 15 6 16 5 17 83 18 84 19 91 20 85 21 87 22 86 23 88 24
REMARK SMILES IDX 89 25 90 26 16 27 17 28 18 29 19 31 20 32 21 33 82 34 22 35
REMARK SMILES IDX 81 36 23 37 24 38 25 39 75 40 26 41 80 42 74 43 76 44 27 45
REMARK SMILES IDX 79 46 73 47 72 48 28 50 60 51 40 52 59 53 41 54 44 55 58 56
REMARK SMILES IDX 77 57 42 58 43 59 57 61 78 62 45 63 29 64 30 65 38 66 31 67
REMARK SMILES IDX 37 68 39 69 36 70 32 71 33 72 34 73 35 74 61 75 62 76 70 77
REMARK SMILES IDX 63 78 69 79 71 80 68 81 64 82 65 83 66 84 67 85 46 86 47 87
REMARK SMILES IDX 55 88 48 89 54 90 56 91 53 92 49 93 50 94 51 95 52 96
REMARK H PARENT 12 7 8 10 17 30 76 49 44 60
REMARK Flexibility Score: inf
ROOT
ATOM      1  C   UNL A   1      32.842  30.806  26.875  1.00  0.00     0.023 C 
ENDROOT
BRANCH   1   2
ATOM      2  C   UNL A   1      32.604  29.989  25.606  1.00  0.00     0.023 C 
BRANCH   2   3
ATOM      3  C   UNL A   1      33.673  28.927  25.361  1.00  0.00     0.116 C 
BRANCH   3   4
ATOM      4  N   UNL A   1      34.115  28.888  23.970  1.00  0.00    -0.354 N 
ATOM      5  C   UNL A   1      33.609  28.129  22.941  1.00  0.00     0.247 C 
ATOM      6  O   UNL A   1      34.088  28.313  21.813  1.00  0.00    -0.272 OA
ATOM      7  H   UNL A   1      34.869  29.479  23.740  1.00  0.00     0.163 HD
BRANCH   5   8
ATOM      8  C   UNL A   1      32.480  27.062  23.174  1.00  0.00     0.200 C 
BRANCH   8   9
ATOM      9  N   UNL A   1      31.312  27.470  22.362  1.00  0.00    -0.370 N 
ATOM     10  H   UNL A   1      31.283  26.985  21.506  1.00  0.00     0.161 HD
BRANCH   9  11
ATOM     11  C   UNL A   1      30.253  28.342  22.481  1.00  0.00     0.038 A 
ATOM     12  C   UNL A   1      28.994  26.701  24.006  1.00  0.00     0.046 C 
ATOM     13  C   UNL A   1      29.064  27.922  23.125  1.00  0.00    -0.028 A 
ATOM     14  C   UNL A   1      27.884  28.697  23.045  1.00  0.00     0.005 A 
ATOM     15  C   UNL A   1      27.885  29.935  22.420  1.00  0.00     0.000 A 
ATOM     16  C   UNL A   1      30.245  29.656  22.011  1.00  0.00     0.026 A 
ATOM     17  C   UNL A   1      29.082  30.433  21.946  1.00  0.00     0.002 A 
ENDBRANCH   9  11
ENDBRANCH   8   9
BRANCH   8  18
ATOM     18  C   UNL A   1      32.972  25.628  23.173  1.00  0.00    -0.016 A 
ATOM     19  C   UNL A   1      32.540  24.666  22.260  1.00  0.00     0.006 A 
ATOM     20  C   UNL A   1      33.928  25.235  24.125  1.00  0.00     0.010 A 
ATOM     21  C   UNL A   1      33.277  23.493  22.104  1.00  0.00     0.001 A 
ATOM     22  C   UNL A   1      34.725  24.103  23.974  1.00  0.00    -0.045 A 
ATOM     23  C   UNL A   1      34.388  23.253  22.917  1.00  0.00     0.004 A 
BRANCH  22  24
ATOM     24  C   UNL A   1      35.981  23.915  24.794  1.00  0.00     0.019 C 
ATOM     25  C   UNL A   1      35.999  23.180  26.118  1.00  0.00     0.009 C 
ATOM     26  C   UNL A   1      36.625  22.557  24.910  1.00  0.00     0.009 C 
ENDBRANCH  22  24
ENDBRANCH   8  18
ENDBRANCH   5   8
ENDBRANCH   3   4
ENDBRANCH   2   3
ENDBRANCH   1   2
BRANCH   1  27
ATOM     27  C   UNL A   1      34.006  30.311  27.734  1.00  0.00     0.116 C 
BRANCH  27  28
ATOM     28  N   UNL A   1      34.856  31.366  28.264  1.00  0.00    -0.352 N 
ATOM     29  C   UNL A   1      36.115  31.294  28.841  1.00  0.00     0.251 C 
ATOM     30  H   UNL A   1      34.479  32.274  28.203  1.00  0.00     0.163 HD
ATOM     31  O   UNL A   1      36.625  32.292  29.324  1.00  0.00    -0.269 OA
BRANCH  29  32
ATOM     32  C   UNL A   1      36.897  30.026  28.793  1.00  0.00     0.039 A 
ATOM     33  C   UNL A   1      37.047  29.303  29.988  1.00  0.00     0.014 A 
ATOM     34  C   UNL A   1      37.583  29.614  27.658  1.00  0.00     0.014 A 
ATOM     35  C   UNL A   1      38.039  28.324  30.093  1.00  0.00     0.010 A 
ATOM     36  C   UNL A   1      38.624  28.714  27.781  1.00  0.00     0.010 A 
ATOM     37  C   UNL A   1      38.900  28.119  29.014  1.00  0.00    -0.014 A 
BRANCH  37  38
ATOM     38  C   UNL A   1      40.225  27.518  29.148  1.00  0.00     0.031 A 
ATOM     39  C   UNL A   1      40.564  26.174  28.637  1.00  0.00     0.074 A 
ATOM     40  C   UNL A   1      41.242  28.303  29.572  1.00  0.00     0.049 A 
ATOM     41  N   UNL A   1      41.542  25.468  29.102  1.00  0.00    -0.248 NA
ATOM     42  C   UNL A   1      39.849  25.518  27.549  1.00  0.00     0.031 C 
ATOM     43  C   UNL A   1      42.674  28.046  29.430  1.00  0.00     0.029 A 
ATOM     44  N   UNL A   1      41.196  29.469  30.329  1.00  0.00    -0.354 N 
ATOM     45  C   UNL A   1      41.798  24.478  28.186  1.00  0.00     0.074 A 
ATOM     46  C   UNL A   1      40.662  24.488  27.290  1.00  0.00     0.031 C 
ATOM     47  C   UNL A   1      43.341  28.820  30.296  1.00  0.00     0.029 A 
ATOM     48  C   UNL A   1      42.350  29.494  31.114  1.00  0.00     0.049 A 
ATOM     49  H   UNL A   1      40.483  30.148  30.314  1.00  0.00     0.167 HD
ATOM     50  C   UNL A   1      43.013  23.859  28.160  1.00  0.00     0.034 A 
ATOM     51  C   UNL A   1      42.350  29.555  32.473  1.00  0.00     0.034 A 
ATOM     52  C   UNL A   1      43.952  24.431  29.125  1.00  0.00     0.049 A 
ATOM     53  C   UNL A   1      43.075  28.372  33.071  1.00  0.00     0.074 A 
ATOM     54  C   UNL A   1      45.046  25.272  28.988  1.00  0.00     0.029 A 
ATOM     55  N   UNL A   1      43.677  24.369  30.487  1.00  0.00    -0.354 N 
ATOM     56  N   UNL A   1      43.379  27.305  32.386  1.00  0.00    -0.248 NA
ATOM     57  C   UNL A   1      43.513  28.278  34.457  1.00  0.00     0.031 C 
ATOM     58  C   UNL A   1      45.409  25.739  30.277  1.00  0.00     0.029 A 
ATOM     59  C   UNL A   1      44.553  25.165  31.201  1.00  0.00     0.049 A 
ATOM     60  H   UNL A   1      42.957  23.832  30.888  1.00  0.00     0.167 HD
ATOM     61  C   UNL A   1      44.056  26.414  33.170  1.00  0.00     0.074 A 
ATOM     62  C   UNL A   1      44.108  27.070  34.467  1.00  0.00     0.031 C 
ATOM     63  C   UNL A   1      44.503  25.226  32.660  1.00  0.00     0.034 A 
BRANCH  50  64
ATOM     64  C   UNL A   1      43.432  22.929  27.047  1.00  0.00     0.023 A 
ATOM     65  C   UNL A   1      42.952  21.605  27.003  1.00  0.00     0.031 A 
ATOM     66  C   UNL A   1      44.294  23.302  25.997  1.00  0.00     0.131 A 
ATOM     67  C   UNL A   1      43.390  20.698  26.021  1.00  0.00     0.055 A 
ATOM     68  C   UNL A   1      44.771  22.388  25.048  1.00  0.00     0.041 A 
ATOM     69  F   UNL A   1      44.683  24.577  25.836  1.00  0.00    -0.206 F 
ATOM     70  C   UNL A   1      44.327  21.073  25.062  1.00  0.00     0.022 A 
BRANCH  67  71
ATOM     71  S   UNL A   1      42.695  19.020  26.000  1.00  0.00     0.124 S 
ATOM     72  O   UNL A   1      43.664  18.296  25.184  1.00  0.00    -0.237 OA
ATOM     73  O   UNL A   1      42.662  18.680  27.417  1.00  0.00    -0.237 OA
ATOM     74  O   UNL A   1      41.384  19.205  25.380  1.00  0.00    -0.744 OA
ENDBRANCH  67  71
ENDBRANCH  50  64
BRANCH  51  75
ATOM     75  C   UNL A   1      41.179  30.280  33.033  1.00  0.00     0.023 A 
ATOM     76  C   UNL A   1      41.237  31.690  32.983  1.00  0.00     0.031 A 
ATOM     77  C   UNL A   1      39.918  29.676  33.131  1.00  0.00     0.131 A 
ATOM     78  C   UNL A   1      40.061  32.442  32.865  1.00  0.00     0.055 A 
ATOM     79  C   UNL A   1      38.743  30.437  33.059  1.00  0.00     0.041 A 
ATOM     80  F   UNL A   1      39.800  28.340  33.117  1.00  0.00    -0.206 F 
ATOM     81  C   UNL A   1      38.811  31.820  32.881  1.00  0.00     0.022 A 
BRANCH  78  82
ATOM     82  S   UNL A   1      40.179  34.202  32.413  1.00  0.00     0.124 S 
ATOM     83  O   UNL A   1      41.493  34.263  31.782  1.00  0.00    -0.237 OA
ATOM     84  O   UNL A   1      39.041  34.381  31.517  1.00  0.00    -0.237 OA
ATOM     85  O   UNL A   1      40.060  34.882  33.699  1.00  0.00    -0.744 OA
ENDBRANCH  78  82
ENDBRANCH  51  75
BRANCH  63  86
ATOM     86  C   UNL A   1      45.029  24.047  33.452  1.00  0.00     0.023 A 
ATOM     87  C   UNL A   1      46.344  23.962  33.923  1.00  0.00     0.031 A 
ATOM     88  C   UNL A   1      44.174  22.983  33.841  1.00  0.00     0.131 A 
ATOM     89  C   UNL A   1      46.784  22.852  34.666  1.00  0.00     0.055 A 
ATOM     90  C   UNL A   1      44.593  21.917  34.641  1.00  0.00     0.041 A 
ATOM     91  F   UNL A   1      42.883  22.934  33.477  1.00  0.00    -0.206 F 
ATOM     92  C   UNL A   1      45.914  21.838  35.050  1.00  0.00     0.022 A 
BRANCH  89  93
ATOM     93  S   UNL A   1      48.545  22.748  35.073  1.00  0.00     0.124 S 
ATOM     94  O   UNL A   1      49.009  21.726  34.139  1.00  0.00    -0.237 OA
ATOM     95  O   UNL A   1      49.009  24.105  34.806  1.00  0.00    -0.237 OA
ATOM     96  O   UNL A   1      48.551  22.353  36.481  1.00  0.00    -0.744 OA
ENDBRANCH  89  93
ENDBRANCH  63  86
ENDBRANCH  37  38
ENDBRANCH  29  32
ENDBRANCH  27  28
ENDBRANCH   1  27
TORSDOF 18
ENDMDL
MODEL 2
REMARK VINA RESULT:     -12.8      4.297     10.702
REMARK SMILES Cc1ccccc1N[C@H](C(=O)NCCCCNC(=O)c1ccc(-c2c3nc(c(-c4cc(S(=O)(=O)[O-])ccc4F)c4ccc([nH]4)c(-c4cc(S(=O)(=O)[O-])ccc4F)c4nc(c(-c5cc(S(=O)(=O)[O-])ccc5F)c5ccc2[nH]5)C=C4)C=C3)cc1)c1cccc(C2CC2)c1
REMARK SMILES IDX 15 1 14 2 13 3 12 4 10 5 11 6 9 8 8 9 7 11 1 12 2 13 3 14
REMARK SMILES IDX 4 15 6 16 5 17 83 18 84 19 91 20 85 21 87 22 86 23 88 24
REMARK SMILES IDX 89 25 90 26 16 27 17 28 18 29 19 31 20 32 21 33 82 34 22 35
REMARK SMILES IDX 81 36 23 37 24 38 25 39 75 40 26 41 80 42 74 43 76 44 27 45
REMARK SMILES IDX 79 46 73 47 72 48 28 50 60 51 40 52 59 53 41 54 44 55 58 56
REMARK SMILES IDX 77 57 42 58 43 59 57 61 78 62 45 63 29 64 30 65 38 66 31 67
REMARK SMILES IDX 37 68 39 69 36 70 32 71 33 72 34 73 35 74 61 75 62 76 70 77
REMARK SMILES IDX 63 78 69 79 71 80 68 81 64 82 65 83 66 84 67 85 46 86 47 87
REMARK SMILES IDX 55 88 48 89 54 90 56 91 53 92 49 93 50 94 51 95 52 96
REMARK H PARENT 12 7 8 10 17 30 76 49 44 60
REMARK Flexibility Score: inf
ROOT
ATOM      1  C   UNL A   1      38.317  21.238  25.562  1.00  0.00     0.023 C 
ENDROOT
BRANCH   1   2
ATOM      2  C   UNL A   1      36.810  21.155  25.322  1.00  0.00     0.023 C 
BRANCH   2   3
ATOM      3  C   UNL A   1      36.076  22.458  25.630  1.00  0.00     0.116 C 
BRANCH   3   4
ATOM      4  N   UNL A   1      35.219  22.352  26.808  1.00  0.00    -0.354 N 
ATOM      5  C   UNL A   1      33.846  22.405  26.864  1.00  0.00     0.247 C 
ATOM      6  O   UNL A   1      33.317  22.213  27.968  1.00  0.00    -0.272 OA
ATOM      7  H   UNL A   1      35.681  22.225  27.668  1.00  0.00     0.163 HD
BRANCH   5   8
ATOM      8  C   UNL A   1      32.974  22.709  25.593  1.00  0.00     0.200 C 
BRANCH   8   9
ATOM      9  N   UNL A   1      32.234  21.472  25.258  1.00  0.00    -0.370 N 
ATOM     10  H   UNL A   1      31.298  21.521  25.560  1.00  0.00     0.161 HD
BRANCH   9  11
ATOM     11  C   UNL A   1      32.500  20.272  24.638  1.00  0.00     0.038 A 
ATOM     12  C   UNL A   1      32.167  21.327  22.319  1.00  0.00     0.046 C 
ATOM     13  C   UNL A   1      32.308  20.143  23.241  1.00  0.00    -0.028 A 
ATOM     14  C   UNL A   1      32.331  18.873  22.621  1.00  0.00     0.005 A 
ATOM     15  C   UNL A   1      32.641  17.732  23.344  1.00  0.00     0.000 A 
ATOM     16  C   UNL A   1      32.965  19.126  25.285  1.00  0.00     0.026 A 
ATOM     17  C   UNL A   1      33.006  17.869  24.668  1.00  0.00     0.002 A 
ENDBRANCH   9  11
ENDBRANCH   8   9
BRANCH   8  18
ATOM     18  C   UNL A   1      32.275  24.055  25.627  1.00  0.00    -0.016 A 
ATOM     19  C   UNL A   1      30.889  24.203  25.605  1.00  0.00     0.006 A 
ATOM     20  C   UNL A   1      33.052  25.224  25.705  1.00  0.00     0.010 A 
ATOM     21  C   UNL A   1      30.326  25.422  25.982  1.00  0.00     0.001 A 
ATOM     22  C   UNL A   1      32.539  26.445  26.135  1.00  0.00    -0.045 A 
ATOM     23  C   UNL A   1      31.153  26.504  26.297  1.00  0.00     0.004 A 
BRANCH  22  24
ATOM     24  C   UNL A   1      33.453  27.568  26.570  1.00  0.00     0.019 C 
ATOM     25  C   UNL A   1      33.884  28.686  25.643  1.00  0.00     0.009 C 
ATOM     26  C   UNL A   1      32.918  28.966  26.751  1.00  0.00     0.009 C 
ENDBRANCH  22  24
ENDBRANCH   8  18
ENDBRANCH   5   8
ENDBRANCH   3   4
ENDBRANCH   2   3
ENDBRANCH   1   2
BRANCH   1  27
ATOM     27  C   UNL A   1      38.821  22.635  25.927  1.00  0.00     0.116 C 
BRANCH  27  28
ATOM     28  N   UNL A   1      40.210  22.682  26.359  1.00  0.00    -0.352 N 
ATOM     29  C   UNL A   1      40.990  23.761  26.744  1.00  0.00     0.251 C 
ATOM     30  H   UNL A   1      40.668  21.810  26.381  1.00  0.00     0.163 HD
ATOM     31  O   UNL A   1      42.179  23.606  26.974  1.00  0.00    -0.269 OA
BRANCH  29  32
ATOM     32  C   UNL A   1      40.371  25.097  26.975  1.00  0.00     0.039 A 
ATOM     33  C   UNL A   1      40.847  26.180  26.219  1.00  0.00     0.014 A 
ATOM     34  C   UNL A   1      39.451  25.328  27.990  1.00  0.00     0.014 A 
ATOM     35  C   UNL A   1      40.574  27.490  26.624  1.00  0.00     0.010 A 
ATOM     36  C   UNL A   1      39.252  26.617  28.448  1.00  0.00     0.010 A 
ATOM     37  C   UNL A   1      39.869  27.695  27.811  1.00  0.00    -0.014 A 
BRANCH  37  38
ATOM     38  C   UNL A   1      39.938  28.935  28.580  1.00  0.00     0.031 A 
ATOM     39  C   UNL A   1      38.848  29.931  28.617  1.00  0.00     0.074 A 
ATOM     40  C   UNL A   1      40.953  29.084  29.462  1.00  0.00     0.049 A 
ATOM     41  N   UNL A   1      39.037  31.176  28.911  1.00  0.00    -0.248 NA
ATOM     42  C   UNL A   1      37.451  29.612  28.347  1.00  0.00     0.031 C 
ATOM     43  C   UNL A   1      41.024  30.028  30.576  1.00  0.00     0.029 A 
ATOM     44  N   UNL A   1      42.204  28.475  29.473  1.00  0.00    -0.354 N 
ATOM     45  C   UNL A   1      37.809  31.713  29.208  1.00  0.00     0.074 A 
ATOM     46  C   UNL A   1      36.847  30.735  28.749  1.00  0.00     0.031 C 
ATOM     47  C   UNL A   1      42.302  30.150  30.958  1.00  0.00     0.029 A 
ATOM     48  C   UNL A   1      43.103  29.396  30.013  1.00  0.00     0.049 A 
ATOM     49  H   UNL A   1      42.415  27.565  29.158  1.00  0.00     0.167 HD
ATOM     50  C   UNL A   1      37.716  32.845  29.963  1.00  0.00     0.034 A 
ATOM     51  C   UNL A   1      44.211  29.852  29.368  1.00  0.00     0.034 A 
ATOM     52  C   UNL A   1      39.020  33.308  30.440  1.00  0.00     0.049 A 
ATOM     53  C   UNL A   1      44.176  31.356  29.224  1.00  0.00     0.074 A 
ATOM     54  C   UNL A   1      39.642  33.251  31.678  1.00  0.00     0.029 A 
ATOM     55  N   UNL A   1      39.997  33.701  29.531  1.00  0.00    -0.354 N 
ATOM     56  N   UNL A   1      43.097  32.063  29.418  1.00  0.00    -0.248 NA
ATOM     57  C   UNL A   1      45.317  32.184  28.858  1.00  0.00     0.031 C 
ATOM     58  C   UNL A   1      41.008  33.586  31.501  1.00  0.00     0.029 A 
ATOM     59  C   UNL A   1      41.215  33.869  30.162  1.00  0.00     0.049 A 
ATOM     60  H   UNL A   1      39.842  33.841  28.570  1.00  0.00     0.167 HD
ATOM     61  C   UNL A   1      43.365  33.393  29.251  1.00  0.00     0.074 A 
ATOM     62  C   UNL A   1      44.774  33.416  28.892  1.00  0.00     0.031 C 
ATOM     63  C   UNL A   1      42.389  34.335  29.428  1.00  0.00     0.034 A 
BRANCH  50  64
ATOM     64  C   UNL A   1      36.405  33.358  30.506  1.00  0.00     0.023 A 
ATOM     65  C   UNL A   1      35.557  34.146  29.703  1.00  0.00     0.031 A 
ATOM     66  C   UNL A   1      35.938  33.089  31.808  1.00  0.00     0.131 A 
ATOM     67  C   UNL A   1      34.368  34.699  30.213  1.00  0.00     0.055 A 
ATOM     68  C   UNL A   1      34.781  33.680  32.335  1.00  0.00     0.041 A 
ATOM     69  F   UNL A   1      36.572  32.218  32.608  1.00  0.00    -0.206 F 
ATOM     70  C   UNL A   1      33.994  34.500  31.539  1.00  0.00     0.022 A 
BRANCH  67  71
ATOM     71  S   UNL A   1      33.302  35.668  29.108  1.00  0.00     0.124 S 
ATOM     72  O   UNL A   1      32.646  36.583  30.036  1.00  0.00    -0.237 OA
ATOM     73  O   UNL A   1      34.266  36.262  28.189  1.00  0.00    -0.237 OA
ATOM     74  O   UNL A   1      32.426  34.659  28.513  1.00  0.00    -0.744 OA
ENDBRANCH  67  71
ENDBRANCH  50  64
BRANCH  51  75
ATOM     75  C   UNL A   1      44.796  28.864  28.424  1.00  0.00     0.023 A 
ATOM     76  C   UNL A   1      45.499  27.787  29.008  1.00  0.00     0.031 A 
ATOM     77  C   UNL A   1      44.290  28.695  27.129  1.00  0.00     0.131 A 
ATOM     78  C   UNL A   1      45.538  26.540  28.370  1.00  0.00     0.055 A 
ATOM     79  C   UNL A   1      44.370  27.457  26.476  1.00  0.00     0.041 A 
ATOM     80  F   UNL A   1      43.558  29.660  26.552  1.00  0.00    -0.206 F 
ATOM     81  C   UNL A   1      44.956  26.362  27.113  1.00  0.00     0.022 A 
BRANCH  78  82
ATOM     82  S   UNL A   1      46.103  25.086  29.308  1.00  0.00     0.124 S 
ATOM     83  O   UNL A   1      47.397  25.535  29.811  1.00  0.00    -0.237 OA
ATOM     84  O   UNL A   1      45.058  24.924  30.314  1.00  0.00    -0.237 OA
ATOM     85  O   UNL A   1      46.147  24.035  28.295  1.00  0.00    -0.744 OA
ENDBRANCH  78  82
ENDBRANCH  51  75
BRANCH  63  86
ATOM     86  C   UNL A   1      42.464  35.795  29.034  1.00  0.00     0.023 A 
ATOM     87  C   UNL A   1      43.283  36.726  29.683  1.00  0.00     0.031 A 
ATOM     88  C   UNL A   1      41.759  36.288  27.905  1.00  0.00     0.131 A 
ATOM     89  C   UNL A   1      43.329  38.071  29.272  1.00  0.00     0.055 A 
ATOM     90  C   UNL A   1      41.862  37.606  27.452  1.00  0.00     0.041 A 
ATOM     91  F   UNL A   1      40.947  35.509  27.174  1.00  0.00    -0.206 F 
ATOM     92  C   UNL A   1      42.643  38.515  28.147  1.00  0.00     0.022 A 
BRANCH  89  93
ATOM     93  S   UNL A   1      44.274  39.235  30.285  1.00  0.00     0.124 S 
ATOM     94  O   UNL A   1      44.909  40.070  29.269  1.00  0.00    -0.237 OA
ATOM     95  O   UNL A   1      43.231  39.883  31.074  1.00  0.00    -0.237 OA
ATOM     96  O   UNL A   1      45.184  38.376  31.041  1.00  0.00    -0.744 OA
ENDBRANCH  89  93
ENDBRANCH  63  86
ENDBRANCH  37  38
ENDBRANCH  29  32
ENDBRANCH  27  28
ENDBRANCH   1  27
TORSDOF 18
ENDMDL
MODEL 3
REMARK VINA RESULT:     -12.7      2.237      2.624
REMARK SMILES Cc1ccccc1N[C@H](C(=O)NCCCCNC(=O)c1ccc(-c2c3nc(c(-c4cc(S(=O)(=O)[O-])ccc4F)c4ccc([nH]4)c(-c4cc(S(=O)(=O)[O-])ccc4F)c4nc(c(-c5cc(S(=O)(=O)[O-])ccc5F)c5ccc2[nH]5)C=C4)C=C3)cc1)c1cccc(C2CC2)c1
REMARK SMILES IDX 15 1 14 2 13 3 12 4 10 5 11 6 9 8 8 9 7 11 1 12 2 13 3 14
REMARK SMILES IDX 4 15 6 16 5 17 83 18 84 19 91 20 85 21 87 22 86 23 88 24
REMARK SMILES IDX 89 25 90 26 16 27 17 28 18 29 19 31 20 32 21 33 82 34 22 35
REMARK SMILES IDX 81 36 23 37 24 38 25 39 75 40 26 41 80 42 74 43 76 44 27 45
REMARK SMILES IDX 79 46 73 47 72 48 28 50 60 51 40 52 59 53 41 54 44 55 58 56
REMARK SMILES IDX 77 57 42 58 43 59 57 61 78 62 45 63 29 64 30 65 38 66 31 67
REMARK SMILES IDX 37 68 39 69 36 70 32 71 33 72 34 73 35 74 61 75 62 76 70 77
REMARK SMILES IDX 63 78 69 79 71 80 68 81 64 82 65 83 66 84 67 85 46 86 47 87
REMARK SMILES IDX 55 88 48 89 54 90 56 91 53 92 49 93 50 94 51 95 52 96
REMARK H PARENT 12 7 8 10 17 30 76 49 44 60
REMARK Flexibility Score: inf
ROOT
ATOM      1  C   UNL A   1      32.333  30.848  26.416  1.00  0.00     0.023 C 
ENDROOT
BRANCH   1   2
ATOM      2  C   UNL A   1      32.337  29.688  25.420  1.00  0.00     0.023 C 
BRANCH   2   3
ATOM      3  C   UNL A   1      33.692  28.992  25.309  1.00  0.00     0.116 C 
BRANCH   3   4
ATOM      4  N   UNL A   1      34.169  28.915  23.930  1.00  0.00    -0.354 N 
ATOM      5  C   UNL A   1      33.692  28.125  22.912  1.00  0.00     0.247 C 
ATOM      6  O   UNL A   1      34.199  28.278  21.791  1.00  0.00    -0.272 OA
ATOM      7  H   UNL A   1      34.926  29.502  23.702  1.00  0.00     0.163 HD
BRANCH   5   8
ATOM      8  C   UNL A   1      32.561  27.060  23.147  1.00  0.00     0.200 C 
BRANCH   8   9
ATOM      9  N   UNL A   1      31.391  27.472  22.341  1.00  0.00    -0.370 N 
ATOM     10  H   UNL A   1      31.425  27.086  21.435  1.00  0.00     0.161 HD
BRANCH   9  11
ATOM     11  C   UNL A   1      30.267  28.248  22.514  1.00  0.00     0.038 A 
ATOM     12  C   UNL A   1      29.225  26.497  24.079  1.00  0.00     0.046 C 
ATOM     13  C   UNL A   1      29.148  27.724  23.207  1.00  0.00    -0.028 A 
ATOM     14  C   UNL A   1      27.904  28.393  23.186  1.00  0.00     0.005 A 
ATOM     15  C   UNL A   1      27.769  29.629  22.572  1.00  0.00     0.000 A 
ATOM     16  C   UNL A   1      30.123  29.559  22.056  1.00  0.00     0.026 A 
ATOM     17  C   UNL A   1      28.895  30.232  22.049  1.00  0.00     0.002 A 
ENDBRANCH   9  11
ENDBRANCH   8   9
BRANCH   8  18
ATOM     18  C   UNL A   1      33.049  25.624  23.141  1.00  0.00    -0.016 A 
ATOM     19  C   UNL A   1      32.708  24.699  22.155  1.00  0.00     0.006 A 
ATOM     20  C   UNL A   1      33.907  25.192  24.167  1.00  0.00     0.010 A 
ATOM     21  C   UNL A   1      33.455  23.529  22.029  1.00  0.00     0.001 A 
ATOM     22  C   UNL A   1      34.714  24.063  24.054  1.00  0.00    -0.045 A 
ATOM     23  C   UNL A   1      34.481  23.254  22.938  1.00  0.00     0.004 A 
BRANCH  22  24
ATOM     24  C   UNL A   1      35.883  23.839  24.985  1.00  0.00     0.019 C 
ATOM     25  C   UNL A   1      36.217  22.485  25.578  1.00  0.00     0.009 C 
ATOM     26  C   UNL A   1      37.098  23.076  24.522  1.00  0.00     0.009 C 
ENDBRANCH  22  24
ENDBRANCH   8  18
ENDBRANCH   5   8
ENDBRANCH   3   4
ENDBRANCH   2   3
ENDBRANCH   1   2
BRANCH   1  27
ATOM     27  C   UNL A   1      33.169  30.602  27.672  1.00  0.00     0.116 C 
BRANCH  27  28
ATOM     28  N   UNL A   1      33.966  31.743  28.098  1.00  0.00    -0.352 N 
ATOM     29  C   UNL A   1      35.233  31.788  28.659  1.00  0.00     0.251 C 
ATOM     30  H   UNL A   1      33.539  32.621  27.968  1.00  0.00     0.163 HD
ATOM     31  O   UNL A   1      35.693  32.849  29.050  1.00  0.00    -0.269 OA
BRANCH  29  32
ATOM     32  C   UNL A   1      36.083  30.564  28.705  1.00  0.00     0.039 A 
ATOM     33  C   UNL A   1      36.456  30.071  29.967  1.00  0.00     0.014 A 
ATOM     34  C   UNL A   1      36.621  29.985  27.563  1.00  0.00     0.014 A 
ATOM     35  C   UNL A   1      37.516  29.167  30.079  1.00  0.00     0.010 A 
ATOM     36  C   UNL A   1      37.727  29.164  27.672  1.00  0.00     0.010 A 
ATOM     37  C   UNL A   1      38.221  28.809  28.929  1.00  0.00    -0.014 A 
BRANCH  37  38
ATOM     38  C   UNL A   1      39.588  28.295  28.954  1.00  0.00     0.031 A 
ATOM     39  C   UNL A   1      39.930  26.879  28.710  1.00  0.00     0.074 A 
ATOM     40  C   UNL A   1      40.604  29.188  28.996  1.00  0.00     0.049 A 
ATOM     41  N   UNL A   1      41.020  26.331  29.138  1.00  0.00    -0.248 NA
ATOM     42  C   UNL A   1      39.088  25.964  27.948  1.00  0.00     0.031 C 
ATOM     43  C   UNL A   1      42.006  28.946  28.660  1.00  0.00     0.029 A 
ATOM     44  N   UNL A   1      40.604  30.498  29.464  1.00  0.00    -0.354 N 
ATOM     45  C   UNL A   1      41.186  25.161  28.440  1.00  0.00     0.074 A 
ATOM     46  C   UNL A   1      39.916  24.926  27.787  1.00  0.00     0.031 C 
ATOM     47  C   UNL A   1      42.753  29.922  29.191  1.00  0.00     0.029 A 
ATOM     48  C   UNL A   1      41.871  30.741  30.000  1.00  0.00     0.049 A 
ATOM     49  H   UNL A   1      39.853  31.133  29.424  1.00  0.00     0.167 HD
ATOM     50  C   UNL A   1      42.419  24.589  28.335  1.00  0.00     0.034 A 
ATOM     51  C   UNL A   1      42.096  31.122  31.287  1.00  0.00     0.034 A 
ATOM     52  C   UNL A   1      43.466  25.400  28.959  1.00  0.00     0.049 A 
ATOM     53  C   UNL A   1      42.994  30.135  31.997  1.00  0.00     0.074 A 
ATOM     54  C   UNL A   1      44.458  26.216  28.438  1.00  0.00     0.029 A 
ATOM     55  N   UNL A   1      43.431  25.654  30.326  1.00  0.00    -0.354 N 
ATOM     56  N   UNL A   1      43.252  28.945  31.528  1.00  0.00    -0.248 NA
ATOM     57  C   UNL A   1      43.666  30.384  33.264  1.00  0.00     0.031 C 
ATOM     58  C   UNL A   1      45.001  26.985  29.499  1.00  0.00     0.029 A 
ATOM     59  C   UNL A   1      44.356  26.622  30.669  1.00  0.00     0.049 A 
ATOM     60  H   UNL A   1      42.829  25.207  30.963  1.00  0.00     0.167 HD
ATOM     61  C   UNL A   1      44.114  28.285  32.359  1.00  0.00     0.074 A 
ATOM     62  C   UNL A   1      44.338  29.231  33.441  1.00  0.00     0.031 C 
ATOM     63  C   UNL A   1      44.550  27.024  32.060  1.00  0.00     0.034 A 
BRANCH  50  64
ATOM     64  C   UNL A   1      42.708  23.435  27.406  1.00  0.00     0.023 A 
ATOM     65  C   UNL A   1      43.704  23.546  26.416  1.00  0.00     0.031 A 
ATOM     66  C   UNL A   1      42.036  22.198  27.462  1.00  0.00     0.131 A 
ATOM     67  C   UNL A   1      43.936  22.514  25.489  1.00  0.00     0.055 A 
ATOM     68  C   UNL A   1      42.230  21.188  26.510  1.00  0.00     0.041 A 
ATOM     69  F   UNL A   1      41.189  21.911  28.463  1.00  0.00    -0.206 F 
ATOM     70  C   UNL A   1      43.177  21.346  25.508  1.00  0.00     0.022 A 
BRANCH  67  71
ATOM     71  S   UNL A   1      45.265  22.709  24.268  1.00  0.00     0.124 S 
ATOM     72  O   UNL A   1      46.353  21.946  24.872  1.00  0.00    -0.237 OA
ATOM     73  O   UNL A   1      44.668  22.140  23.065  1.00  0.00    -0.237 OA
ATOM     74  O   UNL A   1      45.476  24.155  24.226  1.00  0.00    -0.744 OA
ENDBRANCH  67  71
ENDBRANCH  50  64
BRANCH  51  75
ATOM     75  C   UNL A   1      40.989  31.924  31.870  1.00  0.00     0.023 A 
ATOM     76  C   UNL A   1      40.212  31.285  32.861  1.00  0.00     0.031 A 
ATOM     77  C   UNL A   1      41.004  33.325  31.847  1.00  0.00     0.131 A 
ATOM     78  C   UNL A   1      39.617  32.035  33.884  1.00  0.00     0.055 A 
ATOM     79  C   UNL A   1      40.369  34.072  32.848  1.00  0.00     0.041 A 
ATOM     80  F   UNL A   1      41.776  33.983  30.969  1.00  0.00    -0.206 F 
ATOM     81  C   UNL A   1      39.710  33.428  33.896  1.00  0.00     0.022 A 
BRANCH  78  82
ATOM     82  S   UNL A   1      38.962  31.169  35.346  1.00  0.00     0.124 S 
ATOM     83  O   UNL A   1      38.067  32.172  35.915  1.00  0.00    -0.237 OA
ATOM     84  O   UNL A   1      38.309  30.001  34.764  1.00  0.00    -0.237 OA
ATOM     85  O   UNL A   1      40.163  30.877  36.123  1.00  0.00    -0.744 OA
ENDBRANCH  78  82
ENDBRANCH  51  75
BRANCH  63  86
ATOM     86  C   UNL A   1      45.284  26.081  32.990  1.00  0.00     0.023 A 
ATOM     87  C   UNL A   1      44.655  25.044  33.688  1.00  0.00     0.031 A 
ATOM     88  C   UNL A   1      46.694  26.147  33.140  1.00  0.00     0.131 A 
ATOM     89  C   UNL A   1      45.382  24.184  34.532  1.00  0.00     0.055 A 
ATOM     90  C   UNL A   1      47.425  25.247  33.921  1.00  0.00     0.041 A 
ATOM     91  F   UNL A   1      47.435  27.079  32.521  1.00  0.00    -0.206 F 
ATOM     92  C   UNL A   1      46.766  24.262  34.637  1.00  0.00     0.022 A 
BRANCH  89  93
ATOM     93  S   UNL A   1      44.455  22.992  35.530  1.00  0.00     0.124 S 
ATOM     94  O   UNL A   1      44.944  23.282  36.875  1.00  0.00    -0.237 OA
ATOM     95  O   UNL A   1      43.071  23.371  35.266  1.00  0.00    -0.237 OA
ATOM     96  O   UNL A   1      44.860  21.697  34.986  1.00  0.00    -0.744 OA
ENDBRANCH  89  93
ENDBRANCH  63  86
ENDBRANCH  37  38
ENDBRANCH  29  32
ENDBRANCH  27  28
ENDBRANCH   1  27
TORSDOF 18
ENDMDL
