MODEL 1
REMARK VINA RESULT:     -10.9      0.000      0.000
REMARK SMILES CC[C@@](C)(NC(=O)NCCc1cscn1)C(=O)NCCCCNC(=O)c1ccc(-c2c3nc(c(-c4cc(S(=O)(=O)[O-])ccc4F)c4ccc([nH]4)c(-c4cc(S(=O)(=O)[O-])ccc4F)c4nc(c(-c5cc(S(=O)(=O)[O-])ccc5F)c5ccc2[nH]5)C=C4)C=C3)cc1
REMARK SMILES IDX 20 1 19 2 18 3 16 4 17 5 3 7 4 8 2 9 1 10 5 11 6 12 7 14
REMARK SMILES IDX 8 15 9 17 10 18 11 19 12 20 15 21 13 22 14 23 21 24 22 25
REMARK SMILES IDX 23 26 24 27 25 29 26 30 27 31 88 32 28 33 87 34 29 35 30 36
REMARK SMILES IDX 31 37 81 38 32 39 86 40 80 41 82 42 33 43 85 44 79 45 78 46
REMARK SMILES IDX 34 48 66 49 46 50 65 51 47 52 50 53 64 54 83 55 48 56 49 57
REMARK SMILES IDX 63 59 84 60 51 61 35 62 36 63 44 64 37 65 43 66 45 67 42 68
REMARK SMILES IDX 38 69 39 70 40 71 41 72 67 73 68 74 76 75 69 76 75 77 77 78
REMARK SMILES IDX 74 79 70 80 71 81 72 82 73 83 52 84 53 85 61 86 54 87 60 88
REMARK SMILES IDX 62 89 59 90 55 91 56 92 57 93 58 94
REMARK H PARENT 18 6 5 13 8 16 23 28 82 47 50 58
REMARK Flexibility Score: inf
ROOT
ATOM      1  C   UNL A   1      31.522  30.728  26.445  1.00  0.00     0.023 C 
ENDROOT
BRANCH   1   2
ATOM      2  C   UNL A   1      32.850  29.977  26.562  1.00  0.00     0.116 C 
BRANCH   2   3
ATOM      3  N   UNL A   1      33.508  29.570  25.328  1.00  0.00    -0.354 N 
ATOM      4  C   UNL A   1      33.467  28.441  24.552  1.00  0.00     0.245 C 
ATOM      5  O   UNL A   1      33.966  28.547  23.426  1.00  0.00    -0.272 OA
ATOM      6  H   UNL A   1      34.116  30.258  24.972  1.00  0.00     0.163 HD
BRANCH   4   7
ATOM      7  C   UNL A   1      32.745  27.137  24.990  1.00  0.00     0.117 C 
ATOM      8  C   UNL A   1      33.631  26.482  26.084  1.00  0.00     0.045 C 
BRANCH   7   9
ATOM      9  C   UNL A   1      31.327  27.283  25.622  1.00  0.00     0.035 C 
ATOM     10  C   UNL A   1      30.308  26.188  25.326  1.00  0.00     0.007 C 
ENDBRANCH   7   9
BRANCH   7  11
ATOM     11  N   UNL A   1      32.651  26.233  23.831  1.00  0.00    -0.324 N 
ATOM     12  C   UNL A   1      32.060  26.263  22.635  1.00  0.00     0.315 C 
ATOM     13  H   UNL A   1      33.150  25.396  23.974  1.00  0.00     0.166 HD
ATOM     14  O   UNL A   1      32.109  25.217  21.977  1.00  0.00    -0.249 OA
ATOM     15  N   UNL A   1      31.469  27.308  22.055  1.00  0.00    -0.338 N 
ATOM     16  H   UNL A   1      31.289  27.124  21.105  1.00  0.00     0.165 HD
BRANCH  15  17
ATOM     17  C   UNL A   1      31.011  28.651  22.416  1.00  0.00     0.124 C 
BRANCH  17  18
ATOM     18  C   UNL A   1      29.514  28.824  22.678  1.00  0.00     0.078 C 
BRANCH  18  19
ATOM     19  C   UNL A   1      28.907  30.168  22.421  1.00  0.00     0.053 A 
ATOM     20  C   UNL A   1      28.494  30.722  21.223  1.00  0.00     0.090 A 
ATOM     21  N   UNL A   1      28.840  31.041  23.502  1.00  0.00    -0.250 NA
ATOM     22  S   UNL A   1      28.021  32.356  21.450  1.00  0.00    -0.130 S 
ATOM     23  C   UNL A   1      28.398  32.217  23.114  1.00  0.00     0.175 A 
ENDBRANCH  18  19
ENDBRANCH  17  18
ENDBRANCH  15  17
ENDBRANCH   7  11
ENDBRANCH   4   7
ENDBRANCH   2   3
ENDBRANCH   1   2
BRANCH   1  24
ATOM     24  C   UNL A   1      31.524  32.228  26.721  1.00  0.00     0.023 C 
BRANCH  24  25
ATOM     25  C   UNL A   1      32.839  32.825  27.201  1.00  0.00     0.116 C 
BRANCH  25  26
ATOM     26  N   UNL A   1      32.670  34.174  27.710  1.00  0.00    -0.352 N 
ATOM     27  C   UNL A   1      33.253  34.785  28.793  1.00  0.00     0.251 C 
ATOM     28  H   UNL A   1      32.042  34.735  27.201  1.00  0.00     0.163 HD
ATOM     29  O   UNL A   1      32.814  35.872  29.164  1.00  0.00    -0.269 OA
BRANCH  27  30
ATOM     30  C   UNL A   1      34.378  34.152  29.523  1.00  0.00     0.039 A 
ATOM     31  C   UNL A   1      35.682  34.564  29.228  1.00  0.00     0.014 A 
ATOM     32  C   UNL A   1      34.174  33.120  30.444  1.00  0.00     0.014 A 
ATOM     33  C   UNL A   1      36.771  33.974  29.877  1.00  0.00     0.010 A 
ATOM     34  C   UNL A   1      35.256  32.575  31.139  1.00  0.00     0.010 A 
ATOM     35  C   UNL A   1      36.567  32.985  30.853  1.00  0.00    -0.014 A 
BRANCH  35  36
ATOM     36  C   UNL A   1      37.715  32.346  31.551  1.00  0.00     0.031 A 
ATOM     37  C   UNL A   1      38.459  31.213  30.895  1.00  0.00     0.074 A 
ATOM     38  C   UNL A   1      38.064  32.754  32.786  1.00  0.00     0.049 A 
ATOM     39  N   UNL A   1      39.440  30.483  31.363  1.00  0.00    -0.248 NA
ATOM     40  C   UNL A   1      38.020  30.834  29.544  1.00  0.00     0.031 C 
ATOM     41  C   UNL A   1      37.403  33.822  33.540  1.00  0.00     0.029 A 
ATOM     42  N   UNL A   1      39.053  32.315  33.630  1.00  0.00    -0.354 N 
ATOM     43  C   UNL A   1      39.729  29.551  30.370  1.00  0.00     0.074 A 
ATOM     44  C   UNL A   1      38.777  29.774  29.301  1.00  0.00     0.031 C 
ATOM     45  C   UNL A   1      38.016  33.964  34.727  1.00  0.00     0.029 A 
ATOM     46  C   UNL A   1      39.085  32.976  34.836  1.00  0.00     0.049 A 
ATOM     47  H   UNL A   1      39.682  31.596  33.393  1.00  0.00     0.167 HD
ATOM     48  C   UNL A   1      40.707  28.611  30.342  1.00  0.00     0.034 A 
ATOM     49  C   UNL A   1      39.877  32.797  35.913  1.00  0.00     0.034 A 
ATOM     50  C   UNL A   1      41.657  28.406  31.410  1.00  0.00     0.049 A 
ATOM     51  C   UNL A   1      40.947  31.737  35.868  1.00  0.00     0.074 A 
ATOM     52  C   UNL A   1      42.714  27.514  31.466  1.00  0.00     0.029 A 
ATOM     53  N   UNL A   1      41.660  29.098  32.614  1.00  0.00    -0.354 N 
ATOM     54  N   UNL A   1      41.230  30.888  34.907  1.00  0.00    -0.248 NA
ATOM     55  C   UNL A   1      41.813  31.619  37.049  1.00  0.00     0.031 C 
ATOM     56  C   UNL A   1      43.318  27.625  32.725  1.00  0.00     0.029 A 
ATOM     57  C   UNL A   1      42.683  28.636  33.429  1.00  0.00     0.049 A 
ATOM     58  H   UNL A   1      41.029  29.815  32.855  1.00  0.00     0.167 HD
ATOM     59  C   UNL A   1      42.323  30.155  35.358  1.00  0.00     0.074 A 
ATOM     60  C   UNL A   1      42.656  30.670  36.670  1.00  0.00     0.031 C 
ATOM     61  C   UNL A   1      42.995  29.148  34.742  1.00  0.00     0.034 A 
BRANCH  48  62
ATOM     62  C   UNL A   1      40.776  27.720  29.124  1.00  0.00     0.023 A 
ATOM     63  C   UNL A   1      41.702  27.954  28.090  1.00  0.00     0.031 A 
ATOM     64  C   UNL A   1      39.883  26.644  28.975  1.00  0.00     0.131 A 
ATOM     65  C   UNL A   1      41.658  27.178  26.921  1.00  0.00     0.055 A 
ATOM     66  C   UNL A   1      39.901  25.824  27.844  1.00  0.00     0.041 A 
ATOM     67  F   UNL A   1      38.965  26.382  29.917  1.00  0.00    -0.206 F 
ATOM     68  C   UNL A   1      40.782  26.098  26.802  1.00  0.00     0.022 A 
BRANCH  65  69
ATOM     69  S   UNL A   1      42.664  27.695  25.503  1.00  0.00     0.124 S 
ATOM     70  O   UNL A   1      41.909  28.845  25.011  1.00  0.00    -0.237 OA
ATOM     71  O   UNL A   1      43.951  27.990  26.119  1.00  0.00    -0.237 OA
ATOM     72  O   UNL A   1      42.644  26.526  24.626  1.00  0.00    -0.744 OA
ENDBRANCH  65  69
ENDBRANCH  48  62
BRANCH  49  73
ATOM     73  C   UNL A   1      39.680  33.628  37.134  1.00  0.00     0.023 A 
ATOM     74  C   UNL A   1      40.491  34.746  37.390  1.00  0.00     0.031 A 
ATOM     75  C   UNL A   1      38.697  33.294  38.083  1.00  0.00     0.131 A 
ATOM     76  C   UNL A   1      40.332  35.465  38.585  1.00  0.00     0.055 A 
ATOM     77  C   UNL A   1      38.511  34.042  39.246  1.00  0.00     0.041 A 
ATOM     78  F   UNL A   1      37.890  32.239  37.882  1.00  0.00    -0.206 F 
ATOM     79  C   UNL A   1      39.341  35.128  39.508  1.00  0.00     0.022 A 
BRANCH  76  80
ATOM     80  S   UNL A   1      41.494  36.810  38.949  1.00  0.00     0.124 S 
ATOM     81  O   UNL A   1      40.599  37.848  39.449  1.00  0.00    -0.237 OA
ATOM     82  O   UNL A   1      42.374  36.192  39.934  1.00  0.00    -0.237 OA
ATOM     83  O   UNL A   1      42.109  37.087  37.652  1.00  0.00    -0.744 OA
ENDBRANCH  76  80
ENDBRANCH  49  73
BRANCH  61  84
ATOM     84  C   UNL A   1      44.181  28.570  35.473  1.00  0.00     0.023 A 
ATOM     85  C   UNL A   1      44.049  27.488  36.361  1.00  0.00     0.031 A 
ATOM     86  C   UNL A   1      45.462  29.120  35.286  1.00  0.00     0.131 A 
ATOM     87  C   UNL A   1      45.168  27.025  37.070  1.00  0.00     0.055 A 
ATOM     88  C   UNL A   1      46.582  28.620  35.952  1.00  0.00     0.041 A 
ATOM     89  F   UNL A   1      45.645  30.155  34.450  1.00  0.00    -0.206 F 
ATOM     90  C   UNL A   1      46.436  27.574  36.859  1.00  0.00     0.022 A 
BRANCH  87  91
ATOM     91  S   UNL A   1      44.932  25.747  38.335  1.00  0.00     0.124 S 
ATOM     92  O   UNL A   1      44.508  26.537  39.488  1.00  0.00    -0.237 OA
ATOM     93  O   UNL A   1      43.909  24.897  37.734  1.00  0.00    -0.237 OA
ATOM     94  O   UNL A   1      46.253  25.134  38.455  1.00  0.00    -0.744 OA
ENDBRANCH  87  91
ENDBRANCH  61  84
ENDBRANCH  35  36
ENDBRANCH  27  30
ENDBRANCH  25  26
ENDBRANCH  24  25
ENDBRANCH   1  24
TORSDOF 19
ENDMDL
MODEL 2
REMARK VINA RESULT:     -10.9      3.967      9.363
REMARK SMILES CC[C@@](C)(NC(=O)NCCc1cscn1)C(=O)NCCCCNC(=O)c1ccc(-c2c3nc(c(-c4cc(S(=O)(=O)[O-])ccc4F)c4ccc([nH]4)c(-c4cc(S(=O)(=O)[O-])ccc4F)c4nc(c(-c5cc(S(=O)(=O)[O-])ccc5F)c5ccc2[nH]5)C=C4)C=C3)cc1
REMARK SMILES IDX 20 1 19 2 18 3 16 4 17 5 3 7 4 8 2 9 1 10 5 11 6 12 7 14
REMARK SMILES IDX 8 15 9 17 10 18 11 19 12 20 15 21 13 22 14 23 21 24 22 25
REMARK SMILES IDX 23 26 24 27 25 29 26 30 27 31 88 32 28 33 87 34 29 35 30 36
REMARK SMILES IDX 31 37 81 38 32 39 86 40 80 41 82 42 33 43 85 44 79 45 78 46
REMARK SMILES IDX 34 48 66 49 46 50 65 51 47 52 50 53 64 54 83 55 48 56 49 57
REMARK SMILES IDX 63 59 84 60 51 61 35 62 36 63 44 64 37 65 43 66 45 67 42 68
REMARK SMILES IDX 38 69 39 70 40 71 41 72 67 73 68 74 76 75 69 76 75 77 77 78
REMARK SMILES IDX 74 79 70 80 71 81 72 82 73 83 52 84 53 85 61 86 54 87 60 88
REMARK SMILES IDX 62 89 59 90 55 91 56 92 57 93 58 94
REMARK H PARENT 18 6 5 13 8 16 23 28 82 47 50 58
REMARK Flexibility Score: inf
ROOT
ATOM      1  C   UNL A   1      33.177  26.505  25.833  1.00  0.00     0.023 C 
ENDROOT
BRANCH   1   2
ATOM      2  C   UNL A   1      34.292  25.458  25.791  1.00  0.00     0.116 C 
BRANCH   2   3
ATOM      3  N   UNL A   1      34.530  24.773  24.527  1.00  0.00    -0.354 N 
ATOM      4  C   UNL A   1      35.285  23.691  24.156  1.00  0.00     0.245 C 
ATOM      5  O   UNL A   1      35.043  23.230  23.035  1.00  0.00    -0.272 OA
ATOM      6  H   UNL A   1      34.038  25.175  23.775  1.00  0.00     0.163 HD
BRANCH   4   7
ATOM      7  C   UNL A   1      36.304  23.002  25.105  1.00  0.00     0.117 C 
ATOM      8  C   UNL A   1      36.755  21.693  24.403  1.00  0.00     0.045 C 
BRANCH   7   9
ATOM      9  C   UNL A   1      37.613  23.782  25.435  1.00  0.00     0.035 C 
ATOM     10  C   UNL A   1      38.601  23.126  26.395  1.00  0.00     0.007 C 
ENDBRANCH   7   9
BRANCH   7  11
ATOM     11  N   UNL A   1      35.625  22.670  26.369  1.00  0.00    -0.324 N 
ATOM     12  C   UNL A   1      34.677  21.814  26.754  1.00  0.00     0.315 C 
ATOM     13  H   UNL A   1      35.956  23.215  27.120  1.00  0.00     0.166 HD
ATOM     14  O   UNL A   1      34.273  21.935  27.917  1.00  0.00    -0.249 OA
ATOM     15  N   UNL A   1      34.155  20.815  26.040  1.00  0.00    -0.338 N 
ATOM     16  H   UNL A   1      33.622  20.218  26.613  1.00  0.00     0.165 HD
BRANCH  15  17
ATOM     17  C   UNL A   1      34.143  20.346  24.654  1.00  0.00     0.124 C 
BRANCH  17  18
ATOM     18  C   UNL A   1      32.823  20.471  23.892  1.00  0.00     0.078 C 
BRANCH  18  19
ATOM     19  C   UNL A   1      32.019  21.719  24.080  1.00  0.00     0.053 A 
ATOM     20  C   UNL A   1      31.746  22.725  23.170  1.00  0.00     0.090 A 
ATOM     21  N   UNL A   1      31.566  21.983  25.368  1.00  0.00    -0.250 NA
ATOM     22  S   UNL A   1      30.917  24.018  23.935  1.00  0.00    -0.130 S 
ATOM     23  C   UNL A   1      30.980  23.159  25.415  1.00  0.00     0.175 A 
ENDBRANCH  18  19
ENDBRANCH  17  18
ENDBRANCH  15  17
ENDBRANCH   7  11
ENDBRANCH   4   7
ENDBRANCH   2   3
ENDBRANCH   1   2
BRANCH   1  24
ATOM     24  C   UNL A   1      33.431  27.786  26.622  1.00  0.00     0.023 C 
BRANCH  24  25
ATOM     25  C   UNL A   1      34.082  28.931  25.859  1.00  0.00     0.116 C 
BRANCH  25  26
ATOM     26  N   UNL A   1      33.813  30.217  26.477  1.00  0.00    -0.352 N 
ATOM     27  C   UNL A   1      34.441  30.835  27.530  1.00  0.00     0.251 C 
ATOM     28  H   UNL A   1      33.067  30.722  26.080  1.00  0.00     0.163 HD
ATOM     29  O   UNL A   1      33.923  31.835  28.022  1.00  0.00    -0.269 OA
BRANCH  27  30
ATOM     30  C   UNL A   1      35.712  30.309  28.088  1.00  0.00     0.039 A 
ATOM     31  C   UNL A   1      36.900  30.559  27.392  1.00  0.00     0.014 A 
ATOM     32  C   UNL A   1      35.743  29.526  29.245  1.00  0.00     0.014 A 
ATOM     33  C   UNL A   1      38.115  30.059  27.872  1.00  0.00     0.010 A 
ATOM     34  C   UNL A   1      36.963  29.081  29.759  1.00  0.00     0.010 A 
ATOM     35  C   UNL A   1      38.160  29.330  29.070  1.00  0.00    -0.014 A 
BRANCH  35  36
ATOM     36  C   UNL A   1      39.444  28.790  29.592  1.00  0.00     0.031 A 
ATOM     37  C   UNL A   1      40.121  29.453  30.763  1.00  0.00     0.074 A 
ATOM     38  C   UNL A   1      40.023  27.732  28.992  1.00  0.00     0.049 A 
ATOM     39  N   UNL A   1      41.273  29.177  31.322  1.00  0.00    -0.248 NA
ATOM     40  C   UNL A   1      39.420  30.596  31.365  1.00  0.00     0.031 C 
ATOM     41  C   UNL A   1      39.483  27.020  27.832  1.00  0.00     0.029 A 
ATOM     42  N   UNL A   1      41.197  27.075  29.267  1.00  0.00    -0.354 N 
ATOM     43  C   UNL A   1      41.440  30.119  32.333  1.00  0.00     0.074 A 
ATOM     44  C   UNL A   1      40.298  31.007  32.268  1.00  0.00     0.031 C 
ATOM     45  C   UNL A   1      40.315  26.017  27.506  1.00  0.00     0.029 A 
ATOM     46  C   UNL A   1      41.465  26.037  28.405  1.00  0.00     0.049 A 
ATOM     47  H   UNL A   1      41.790  27.323  30.012  1.00  0.00     0.167 HD
ATOM     48  C   UNL A   1      42.440  30.222  33.244  1.00  0.00     0.034 A 
ATOM     49  C   UNL A   1      42.523  25.204  28.338  1.00  0.00     0.034 A 
ATOM     50  C   UNL A   1      43.569  29.322  33.305  1.00  0.00     0.049 A 
ATOM     51  C   UNL A   1      43.632  25.345  29.349  1.00  0.00     0.074 A 
ATOM     52  C   UNL A   1      44.614  29.309  34.213  1.00  0.00     0.029 A 
ATOM     53  N   UNL A   1      43.803  28.280  32.418  1.00  0.00    -0.354 N 
ATOM     54  N   UNL A   1      43.758  26.219  30.322  1.00  0.00    -0.248 NA
ATOM     55  C   UNL A   1      44.737  24.381  29.260  1.00  0.00     0.031 C 
ATOM     56  C   UNL A   1      45.508  28.298  33.840  1.00  0.00     0.029 A 
ATOM     57  C   UNL A   1      44.988  27.634  32.741  1.00  0.00     0.049 A 
ATOM     58  H   UNL A   1      43.213  28.033  31.669  1.00  0.00     0.167 HD
ATOM     59  C   UNL A   1      44.941  25.890  30.976  1.00  0.00     0.074 A 
ATOM     60  C   UNL A   1      45.484  24.732  30.296  1.00  0.00     0.031 C 
ATOM     61  C   UNL A   1      45.526  26.490  32.045  1.00  0.00     0.034 A 
BRANCH  48  62
ATOM     62  C   UNL A   1      42.365  31.365  34.228  1.00  0.00     0.023 A 
ATOM     63  C   UNL A   1      41.450  31.360  35.298  1.00  0.00     0.031 A 
ATOM     64  C   UNL A   1      43.192  32.492  34.078  1.00  0.00     0.131 A 
ATOM     65  C   UNL A   1      41.327  32.489  36.121  1.00  0.00     0.055 A 
ATOM     66  C   UNL A   1      43.122  33.579  34.953  1.00  0.00     0.041 A 
ATOM     67  F   UNL A   1      44.072  32.565  33.068  1.00  0.00    -0.206 F 
ATOM     68  C   UNL A   1      42.174  33.589  35.972  1.00  0.00     0.022 A 
BRANCH  65  69
ATOM     69  S   UNL A   1      39.945  32.558  37.293  1.00  0.00     0.124 S 
ATOM     70  O   UNL A   1      39.375  33.871  36.999  1.00  0.00    -0.237 OA
ATOM     71  O   UNL A   1      39.140  31.409  36.900  1.00  0.00    -0.237 OA
ATOM     72  O   UNL A   1      40.595  32.449  38.597  1.00  0.00    -0.744 OA
ENDBRANCH  65  69
ENDBRANCH  48  62
BRANCH  49  73
ATOM     73  C   UNL A   1      42.598  24.171  27.266  1.00  0.00     0.023 A 
ATOM     74  C   UNL A   1      42.060  22.889  27.455  1.00  0.00     0.031 A 
ATOM     75  C   UNL A   1      43.243  24.445  26.046  1.00  0.00     0.131 A 
ATOM     76  C   UNL A   1      42.211  21.913  26.458  1.00  0.00     0.055 A 
ATOM     77  C   UNL A   1      43.348  23.485  25.038  1.00  0.00     0.041 A 
ATOM     78  F   UNL A   1      43.768  25.658  25.812  1.00  0.00    -0.206 F 
ATOM     79  C   UNL A   1      42.841  22.207  25.246  1.00  0.00     0.022 A 
BRANCH  76  80
ATOM     80  S   UNL A   1      41.633  20.228  26.797  1.00  0.00     0.124 S 
ATOM     81  O   UNL A   1      42.574  19.792  27.823  1.00  0.00    -0.237 OA
ATOM     82  O   UNL A   1      40.263  20.461  27.241  1.00  0.00    -0.237 OA
ATOM     83  O   UNL A   1      41.762  19.558  25.505  1.00  0.00    -0.744 OA
ENDBRANCH  76  80
ENDBRANCH  49  73
BRANCH  61  84
ATOM     84  C   UNL A   1      46.800  25.870  32.564  1.00  0.00     0.023 A 
ATOM     85  C   UNL A   1      46.790  24.886  33.568  1.00  0.00     0.031 A 
ATOM     86  C   UNL A   1      48.044  26.282  32.052  1.00  0.00     0.131 A 
ATOM     87  C   UNL A   1      48.002  24.385  34.067  1.00  0.00     0.055 A 
ATOM     88  C   UNL A   1      49.245  25.739  32.514  1.00  0.00     0.041 A 
ATOM     89  F   UNL A   1      48.112  27.219  31.092  1.00  0.00    -0.206 F 
ATOM     90  C   UNL A   1      49.228  24.795  33.535  1.00  0.00     0.022 A 
BRANCH  87  91
ATOM     91  S   UNL A   1      47.960  23.250  35.481  1.00  0.00     0.124 S 
ATOM     92  O   UNL A   1      49.251  22.578  35.368  1.00  0.00    -0.237 OA
ATOM     93  O   UNL A   1      47.813  24.162  36.610  1.00  0.00    -0.237 OA
ATOM     94  O   UNL A   1      46.796  22.407  35.211  1.00  0.00    -0.744 OA
ENDBRANCH  87  91
ENDBRANCH  61  84
ENDBRANCH  35  36
ENDBRANCH  27  30
ENDBRANCH  25  26
ENDBRANCH  24  25
ENDBRANCH   1  24
TORSDOF 19
ENDMDL
MODEL 3
REMARK VINA RESULT:     -10.7      2.606      3.717
REMARK SMILES CC[C@@](C)(NC(=O)NCCc1cscn1)C(=O)NCCCCNC(=O)c1ccc(-c2c3nc(c(-c4cc(S(=O)(=O)[O-])ccc4F)c4ccc([nH]4)c(-c4cc(S(=O)(=O)[O-])ccc4F)c4nc(c(-c5cc(S(=O)(=O)[O-])ccc5F)c5ccc2[nH]5)C=C4)C=C3)cc1
REMARK SMILES IDX 20 1 19 2 18 3 16 4 17 5 3 7 4 8 2 9 1 10 5 11 6 12 7 14
REMARK SMILES IDX 8 15 9 17 10 18 11 19 12 20 15 21 13 22 14 23 21 24 22 25
REMARK SMILES IDX 23 26 24 27 25 29 26 30 27 31 88 32 28 33 87 34 29 35 30 36
REMARK SMILES IDX 31 37 81 38 32 39 86 40 80 41 82 42 33 43 85 44 79 45 78 46
REMARK SMILES IDX 34 48 66 49 46 50 65 51 47 52 50 53 64 54 83 55 48 56 49 57
REMARK SMILES IDX 63 59 84 60 51 61 35 62 36 63 44 64 37 65 43 66 45 67 42 68
REMARK SMILES IDX 38 69 39 70 40 71 41 72 67 73 68 74 76 75 69 76 75 77 77 78
REMARK SMILES IDX 74 79 70 80 71 81 72 82 73 83 52 84 53 85 61 86 54 87 60 88
REMARK SMILES IDX 62 89 59 90 55 91 56 92 57 93 58 94
REMARK H PARENT 18 6 5 13 8 16 23 28 82 47 50 58
REMARK Flexibility Score: inf
ROOT
ATOM      1  C   UNL A   1      31.815  30.104  26.917  1.00  0.00     0.023 C 
ENDROOT
BRANCH   1   2
ATOM      2  C   UNL A   1      31.600  29.290  25.639  1.00  0.00     0.116 C 
BRANCH   2   3
ATOM      3  N   UNL A   1      32.558  29.467  24.555  1.00  0.00    -0.354 N 
ATOM      4  C   UNL A   1      32.949  28.694  23.493  1.00  0.00     0.245 C 
ATOM      5  O   UNL A   1      33.606  29.275  22.622  1.00  0.00    -0.272 OA
ATOM      6  H   UNL A   1      33.026  30.332  24.594  1.00  0.00     0.163 HD
BRANCH   4   7
ATOM      7  C   UNL A   1      32.513  27.213  23.315  1.00  0.00     0.117 C 
ATOM      8  C   UNL A   1      33.437  26.362  24.228  1.00  0.00     0.045 C 
BRANCH   7   9
ATOM      9  C   UNL A   1      31.054  26.844  23.724  1.00  0.00     0.035 C 
ATOM     10  C   UNL A   1      29.918  27.513  22.957  1.00  0.00     0.007 C 
ENDBRANCH   7   9
BRANCH   7  11
ATOM     11  N   UNL A   1      32.719  26.822  21.910  1.00  0.00    -0.324 N 
ATOM     12  C   UNL A   1      32.736  25.677  21.225  1.00  0.00     0.315 C 
ATOM     13  H   UNL A   1      32.886  27.601  21.331  1.00  0.00     0.166 HD
ATOM     14  O   UNL A   1      33.088  25.757  20.041  1.00  0.00    -0.249 OA
ATOM     15  N   UNL A   1      32.369  24.472  21.660  1.00  0.00    -0.338 N 
ATOM     16  H   UNL A   1      32.290  23.839  20.910  1.00  0.00     0.165 HD
BRANCH  15  17
ATOM     17  C   UNL A   1      32.048  23.813  22.927  1.00  0.00     0.124 C 
BRANCH  17  18
ATOM     18  C   UNL A   1      32.850  22.559  23.278  1.00  0.00     0.078 C 
BRANCH  18  19
ATOM     19  C   UNL A   1      34.251  22.737  23.775  1.00  0.00     0.053 A 
ATOM     20  C   UNL A   1      34.720  22.739  25.076  1.00  0.00     0.090 A 
ATOM     21  N   UNL A   1      35.215  23.057  22.825  1.00  0.00    -0.250 NA
ATOM     22  S   UNL A   1      36.386  23.149  25.113  1.00  0.00    -0.130 S 
ATOM     23  C   UNL A   1      36.369  23.300  23.408  1.00  0.00     0.175 A 
ENDBRANCH  18  19
ENDBRANCH  17  18
ENDBRANCH  15  17
ENDBRANCH   7  11
ENDBRANCH   4   7
ENDBRANCH   2   3
ENDBRANCH   1   2
BRANCH   1  24
ATOM     24  C   UNL A   1      31.551  31.605  26.859  1.00  0.00     0.023 C 
BRANCH  24  25
ATOM     25  C   UNL A   1      32.774  32.502  26.733  1.00  0.00     0.116 C 
BRANCH  25  26
ATOM     26  N   UNL A   1      32.559  33.803  27.342  1.00  0.00    -0.352 N 
ATOM     27  C   UNL A   1      33.165  34.373  28.434  1.00  0.00     0.251 C 
ATOM     28  H   UNL A   1      31.875  34.359  26.905  1.00  0.00     0.163 HD
ATOM     29  O   UNL A   1      32.689  35.406  28.900  1.00  0.00    -0.269 OA
BRANCH  27  30
ATOM     30  C   UNL A   1      34.362  33.759  29.061  1.00  0.00     0.039 A 
ATOM     31  C   UNL A   1      34.176  32.703  29.960  1.00  0.00     0.014 A 
ATOM     32  C   UNL A   1      35.651  34.246  28.826  1.00  0.00     0.014 A 
ATOM     33  C   UNL A   1      35.277  32.115  30.591  1.00  0.00     0.010 A 
ATOM     34  C   UNL A   1      36.755  33.616  29.406  1.00  0.00     0.010 A 
ATOM     35  C   UNL A   1      36.579  32.554  30.305  1.00  0.00    -0.014 A 
BRANCH  35  36
ATOM     36  C   UNL A   1      37.760  31.940  30.970  1.00  0.00     0.031 A 
ATOM     37  C   UNL A   1      38.572  30.896  30.249  1.00  0.00     0.074 A 
ATOM     38  C   UNL A   1      38.078  32.286  32.232  1.00  0.00     0.049 A 
ATOM     39  N   UNL A   1      39.592  30.195  30.678  1.00  0.00    -0.248 NA
ATOM     40  C   UNL A   1      38.162  30.580  28.874  1.00  0.00     0.031 C 
ATOM     41  C   UNL A   1      37.353  33.263  33.047  1.00  0.00     0.029 A 
ATOM     42  N   UNL A   1      39.088  31.853  33.054  1.00  0.00    -0.354 N 
ATOM     43  C   UNL A   1      39.939  29.348  29.630  1.00  0.00     0.074 A 
ATOM     44  C   UNL A   1      38.981  29.583  28.570  1.00  0.00     0.031 C 
ATOM     45  C   UNL A   1      37.951  33.364  34.246  1.00  0.00     0.029 A 
ATOM     46  C   UNL A   1      39.075  32.435  34.301  1.00  0.00     0.049 A 
ATOM     47  H   UNL A   1      39.759  31.187  32.777  1.00  0.00     0.167 HD
ATOM     48  C   UNL A   1      40.971  28.471  29.550  1.00  0.00     0.034 A 
ATOM     49  C   UNL A   1      39.871  32.234  35.370  1.00  0.00     0.034 A 
ATOM     50  C   UNL A   1      41.926  28.253  30.611  1.00  0.00     0.049 A 
ATOM     51  C   UNL A   1      41.003  31.243  35.267  1.00  0.00     0.074 A 
ATOM     52  C   UNL A   1      43.033  27.422  30.619  1.00  0.00     0.029 A 
ATOM     53  N   UNL A   1      41.884  28.865  31.857  1.00  0.00    -0.354 N 
ATOM     54  N   UNL A   1      41.339  30.476  34.255  1.00  0.00    -0.248 NA
ATOM     55  C   UNL A   1      41.868  31.099  36.445  1.00  0.00     0.031 C 
ATOM     56  C   UNL A   1      43.624  27.487  31.887  1.00  0.00     0.029 A 
ATOM     57  C   UNL A   1      42.928  28.411  32.649  1.00  0.00     0.049 A 
ATOM     58  H   UNL A   1      41.210  29.526  32.137  1.00  0.00     0.167 HD
ATOM     59  C   UNL A   1      42.471  29.780  34.668  1.00  0.00     0.074 A 
ATOM     60  C   UNL A   1      42.767  30.227  36.013  1.00  0.00     0.031 C 
ATOM     61  C   UNL A   1      43.203  28.855  33.995  1.00  0.00     0.034 A 
BRANCH  48  62
ATOM     62  C   UNL A   1      41.097  27.665  28.278  1.00  0.00     0.023 A 
ATOM     63  C   UNL A   1      40.779  26.295  28.238  1.00  0.00     0.031 A 
ATOM     64  C   UNL A   1      41.576  28.263  27.099  1.00  0.00     0.131 A 
ATOM     65  C   UNL A   1      41.021  25.553  27.071  1.00  0.00     0.055 A 
ATOM     66  C   UNL A   1      41.735  27.536  25.917  1.00  0.00     0.041 A 
ATOM     67  F   UNL A   1      41.914  29.561  27.079  1.00  0.00    -0.206 F 
ATOM     68  C   UNL A   1      41.473  26.169  25.902  1.00  0.00     0.022 A 
BRANCH  65  69
ATOM     69  S   UNL A   1      40.877  23.747  27.150  1.00  0.00     0.124 S 
ATOM     70  O   UNL A   1      39.427  23.565  27.107  1.00  0.00    -0.237 OA
ATOM     71  O   UNL A   1      41.611  23.319  25.965  1.00  0.00    -0.237 OA
ATOM     72  O   UNL A   1      41.500  23.409  28.427  1.00  0.00    -0.744 OA
ENDBRANCH  65  69
ENDBRANCH  48  62
BRANCH  49  73
ATOM     73  C   UNL A   1      39.621  32.972  36.641  1.00  0.00     0.023 A 
ATOM     74  C   UNL A   1      38.739  32.470  37.610  1.00  0.00     0.031 A 
ATOM     75  C   UNL A   1      40.238  34.212  36.887  1.00  0.00     0.131 A 
ATOM     76  C   UNL A   1      38.465  33.223  38.763  1.00  0.00     0.055 A 
ATOM     77  C   UNL A   1      40.000  34.934  38.058  1.00  0.00     0.041 A 
ATOM     78  F   UNL A   1      41.096  34.733  35.995  1.00  0.00    -0.206 F 
ATOM     79  C   UNL A   1      39.099  34.445  38.998  1.00  0.00     0.022 A 
BRANCH  76  80
ATOM     80  S   UNL A   1      37.210  32.612  39.921  1.00  0.00     0.124 S 
ATOM     81  O   UNL A   1      37.274  33.610  40.983  1.00  0.00    -0.237 OA
ATOM     82  O   UNL A   1      36.006  32.627  39.097  1.00  0.00    -0.237 OA
ATOM     83  O   UNL A   1      37.699  31.283  40.281  1.00  0.00    -0.744 OA
ENDBRANCH  76  80
ENDBRANCH  49  73
BRANCH  61  84
ATOM     84  C   UNL A   1      44.418  28.301  34.697  1.00  0.00     0.023 A 
ATOM     85  C   UNL A   1      44.363  27.114  35.448  1.00  0.00     0.031 A 
ATOM     86  C   UNL A   1      45.647  28.981  34.622  1.00  0.00     0.131 A 
ATOM     87  C   UNL A   1      45.500  26.671  36.139  1.00  0.00     0.055 A 
ATOM     88  C   UNL A   1      46.791  28.505  35.267  1.00  0.00     0.041 A 
ATOM     89  F   UNL A   1      45.757  30.120  33.919  1.00  0.00    -0.206 F 
ATOM     90  C   UNL A   1      46.717  27.350  36.040  1.00  0.00     0.022 A 
BRANCH  87  91
ATOM     91  S   UNL A   1      45.349  25.236  37.239  1.00  0.00     0.124 S 
ATOM     92  O   UNL A   1      46.169  24.242  36.554  1.00  0.00    -0.237 OA
ATOM     93  O   UNL A   1      45.885  25.749  38.496  1.00  0.00    -0.237 OA
ATOM     94  O   UNL A   1      43.914  24.958  37.247  1.00  0.00    -0.744 OA
ENDBRANCH  87  91
ENDBRANCH  61  84
ENDBRANCH  35  36
ENDBRANCH  27  30
ENDBRANCH  25  26
ENDBRANCH  24  25
ENDBRANCH   1  24
TORSDOF 19
ENDMDL
