MODEL 1
REMARK VINA RESULT:     -11.3      0.000      0.000
REMARK SMILES O=C(NCCCCNC(=O)c1ccc(-n2cc(CSc3nc4ccccc4c(=O)n3-c3ccc(Br)cc3)nn2)cc1)c1ccc(-c2c3nc(c(-c4cc(S(=O)(=O)[O-])ccc4F)c4ccc([nH]4)c(-c4cc(S(=O)(=O)[O-])ccc4F)c4nc(c(-c5cc(S(=O)(=O)[O-])ccc5F)c5ccc2[nH]5)C=C4)C=C3)cc1
REMARK SMILES IDX 6 1 5 2 4 3 3 4 1 5 2 6 42 8 43 9 104 10 44 11 103 12 45 13
REMARK SMILES IDX 46 14 47 15 97 16 48 17 102 18 96 19 98 20 49 21 101 22
REMARK SMILES IDX 95 23 94 24 50 26 82 27 62 28 81 29 63 30 66 31 80 32 99 33
REMARK SMILES IDX 64 34 65 35 79 37 100 38 67 39 51 40 52 41 60 42 53 43 59 44
REMARK SMILES IDX 61 45 58 46 54 47 55 48 56 49 57 50 83 51 84 52 92 53 85 54
REMARK SMILES IDX 91 55 93 56 90 57 86 58 87 59 88 60 89 61 68 62 69 63 77 64
REMARK SMILES IDX 70 65 76 66 78 67 75 68 71 69 72 70 73 71 74 72 7 73 8 74
REMARK SMILES IDX 9 75 10 77 11 78 12 79 41 80 13 81 40 82 14 83 15 84 16 85
REMARK SMILES IDX 39 86 17 87 38 88 18 89 19 90 20 91 21 92 30 93 22 94 28 95
REMARK SMILES IDX 23 96 27 97 29 98 24 99 26 100 25 101 31 102 32 103 37 104
REMARK SMILES IDX 33 105 36 106 34 107 35 108
REMARK H PARENT 3 7 98 25 66 36 8 76
REMARK Flexibility Score: inf
ROOT
ATOM      1  C   UNL A   1      36.837  31.743  32.854  1.00  0.00     0.023 C 
ENDROOT
BRANCH   1   2
ATOM      2  C   UNL A   1      35.409  31.941  32.346  1.00  0.00     0.023 C 
BRANCH   2   3
ATOM      3  C   UNL A   1      35.181  33.149  31.434  1.00  0.00     0.116 C 
BRANCH   3   4
ATOM      4  N   UNL A   1      34.840  32.843  30.059  1.00  0.00    -0.352 N 
ATOM      5  O   UNL A   1      34.564  31.806  28.133  1.00  0.00    -0.269 OA
ATOM      6  C   UNL A   1      35.256  31.906  29.151  1.00  0.00     0.251 C 
ATOM      7  H   UNL A   1      34.152  33.445  29.695  1.00  0.00     0.163 HD
BRANCH   6   8
ATOM      8  C   UNL A   1      36.480  31.066  29.277  1.00  0.00     0.039 A 
ATOM      9  C   UNL A   1      36.500  29.677  29.396  1.00  0.00     0.014 A 
ATOM     10  C   UNL A   1      37.707  31.756  29.318  1.00  0.00     0.014 A 
ATOM     11  C   UNL A   1      37.693  29.002  29.646  1.00  0.00     0.010 A 
ATOM     12  C   UNL A   1      38.907  31.084  29.540  1.00  0.00     0.010 A 
ATOM     13  C   UNL A   1      38.894  29.706  29.737  1.00  0.00    -0.014 A 
BRANCH  13  14
ATOM     14  C   UNL A   1      40.125  28.933  29.898  1.00  0.00     0.031 A 
ATOM     15  C   UNL A   1      40.511  28.627  31.304  1.00  0.00     0.074 A 
ATOM     16  C   UNL A   1      40.814  28.381  28.880  1.00  0.00     0.049 A 
ATOM     17  N   UNL A   1      41.600  28.939  31.930  1.00  0.00    -0.248 NA
ATOM     18  C   UNL A   1      39.512  27.958  32.149  1.00  0.00     0.031 C 
ATOM     19  C   UNL A   1      40.421  28.316  27.472  1.00  0.00     0.029 A 
ATOM     20  N   UNL A   1      41.966  27.647  28.921  1.00  0.00    -0.354 N 
ATOM     21  C   UNL A   1      41.517  28.333  33.184  1.00  0.00     0.074 A 
ATOM     22  C   UNL A   1      40.158  27.880  33.312  1.00  0.00     0.031 C 
ATOM     23  C   UNL A   1      41.192  27.403  26.842  1.00  0.00     0.029 A 
ATOM     24  C   UNL A   1      42.205  26.914  27.765  1.00  0.00     0.049 A 
ATOM     25  H   UNL A   1      42.572  27.640  29.697  1.00  0.00     0.167 HD
ATOM     26  C   UNL A   1      42.626  28.086  33.938  1.00  0.00     0.034 A 
ATOM     27  C   UNL A   1      43.113  25.919  27.595  1.00  0.00     0.034 A 
ATOM     28  C   UNL A   1      43.741  28.902  33.512  1.00  0.00     0.049 A 
ATOM     29  C   UNL A   1      44.162  26.081  28.628  1.00  0.00     0.074 A 
ATOM     30  C   UNL A   1      43.955  30.262  33.385  1.00  0.00     0.029 A 
ATOM     31  N   UNL A   1      44.777  28.310  32.825  1.00  0.00    -0.354 N 
ATOM     32  N   UNL A   1      44.993  27.086  28.666  1.00  0.00    -0.248 NA
ATOM     33  C   UNL A   1      44.034  25.340  29.874  1.00  0.00     0.031 C 
ATOM     34  C   UNL A   1      44.781  30.401  32.231  1.00  0.00     0.029 A 
ATOM     35  C   UNL A   1      45.061  29.120  31.756  1.00  0.00     0.049 A 
ATOM     36  H   UNL A   1      45.227  27.465  33.056  1.00  0.00     0.167 HD
ATOM     37  C   UNL A   1      45.161  27.364  30.012  1.00  0.00     0.074 A 
ATOM     38  C   UNL A   1      44.645  26.188  30.706  1.00  0.00     0.031 C 
ATOM     39  C   UNL A   1      45.442  28.629  30.447  1.00  0.00     0.034 A 
BRANCH  26  40
ATOM     40  C   UNL A   1      42.819  26.867  34.826  1.00  0.00     0.023 A 
ATOM     41  C   UNL A   1      43.660  25.849  34.332  1.00  0.00     0.031 A 
ATOM     42  C   UNL A   1      42.020  26.505  35.932  1.00  0.00     0.131 A 
ATOM     43  C   UNL A   1      43.560  24.529  34.803  1.00  0.00     0.055 A 
ATOM     44  C   UNL A   1      41.984  25.207  36.454  1.00  0.00     0.041 A 
ATOM     45  F   UNL A   1      41.169  27.349  36.524  1.00  0.00    -0.206 F 
ATOM     46  C   UNL A   1      42.721  24.197  35.860  1.00  0.00     0.022 A 
BRANCH  43  47
ATOM     47  S   UNL A   1      44.368  23.222  33.843  1.00  0.00     0.124 S 
ATOM     48  O   UNL A   1      44.247  22.083  34.747  1.00  0.00    -0.237 OA
ATOM     49  O   UNL A   1      43.542  23.183  32.641  1.00  0.00    -0.237 OA
ATOM     50  O   UNL A   1      45.724  23.730  33.655  1.00  0.00    -0.744 OA
ENDBRANCH  43  47
ENDBRANCH  26  40
BRANCH  27  51
ATOM     51  C   UNL A   1      42.942  24.692  26.772  1.00  0.00     0.023 A 
ATOM     52  C   UNL A   1      43.852  24.313  25.764  1.00  0.00     0.031 A 
ATOM     53  C   UNL A   1      41.963  23.736  27.132  1.00  0.00     0.131 A 
ATOM     54  C   UNL A   1      43.749  23.041  25.155  1.00  0.00     0.055 A 
ATOM     55  C   UNL A   1      41.855  22.490  26.516  1.00  0.00     0.041 A 
ATOM     56  F   UNL A   1      41.123  23.952  28.158  1.00  0.00    -0.206 F 
ATOM     57  C   UNL A   1      42.754  22.133  25.527  1.00  0.00     0.022 A 
BRANCH  54  58
ATOM     58  S   UNL A   1      44.985  22.503  23.930  1.00  0.00     0.124 S 
ATOM     59  O   UNL A   1      44.169  22.290  22.740  1.00  0.00    -0.237 OA
ATOM     60  O   UNL A   1      45.904  23.633  23.894  1.00  0.00    -0.237 OA
ATOM     61  O   UNL A   1      45.540  21.284  24.519  1.00  0.00    -0.744 OA
ENDBRANCH  54  58
ENDBRANCH  27  51
BRANCH  39  62
ATOM     62  C   UNL A   1      45.927  29.655  29.449  1.00  0.00     0.023 A 
ATOM     63  C   UNL A   1      45.088  30.392  28.586  1.00  0.00     0.031 A 
ATOM     64  C   UNL A   1      47.295  29.988  29.475  1.00  0.00     0.131 A 
ATOM     65  C   UNL A   1      45.630  31.412  27.782  1.00  0.00     0.055 A 
ATOM     66  C   UNL A   1      47.824  31.010  28.689  1.00  0.00     0.041 A 
ATOM     67  F   UNL A   1      48.138  29.346  30.300  1.00  0.00    -0.206 F 
ATOM     68  C   UNL A   1      46.994  31.723  27.834  1.00  0.00     0.022 A 
BRANCH  65  69
ATOM     69  S   UNL A   1      44.564  32.357  26.648  1.00  0.00     0.124 S 
ATOM     70  O   UNL A   1      43.679  31.344  26.085  1.00  0.00    -0.237 OA
ATOM     71  O   UNL A   1      43.939  33.330  27.541  1.00  0.00    -0.237 OA
ATOM     72  O   UNL A   1      45.512  32.935  25.692  1.00  0.00    -0.744 OA
ENDBRANCH  65  69
ENDBRANCH  39  62
ENDBRANCH  13  14
ENDBRANCH   6   8
ENDBRANCH   3   4
ENDBRANCH   2   3
ENDBRANCH   1   2
BRANCH   1  73
ATOM     73  C   UNL A   1      37.099  32.200  34.283  1.00  0.00     0.116 C 
BRANCH  73  74
ATOM     74  N   UNL A   1      37.795  31.207  35.086  1.00  0.00    -0.352 N 
ATOM     75  C   UNL A   1      39.150  30.980  35.198  1.00  0.00     0.251 C 
ATOM     76  H   UNL A   1      37.221  30.615  35.623  1.00  0.00     0.163 HD
ATOM     77  O   UNL A   1      39.589  30.084  35.894  1.00  0.00    -0.269 OA
BRANCH  75  78
ATOM     78  C   UNL A   1      40.076  31.843  34.437  1.00  0.00     0.039 A 
ATOM     79  C   UNL A   1      40.869  32.761  35.137  1.00  0.00     0.016 A 
ATOM     80  C   UNL A   1      40.176  31.716  33.049  1.00  0.00     0.016 A 
ATOM     81  C   UNL A   1      41.845  33.497  34.462  1.00  0.00     0.029 A 
ATOM     82  C   UNL A   1      41.121  32.474  32.367  1.00  0.00     0.029 A 
ATOM     83  C   UNL A   1      41.966  33.345  33.080  1.00  0.00     0.066 A 
BRANCH  83  84
ATOM     84  N   UNL A   1      42.858  34.153  32.358  1.00  0.00    -0.220 N 
ATOM     85  C   UNL A   1      42.480  35.198  31.565  1.00  0.00     0.141 A 
ATOM     86  N   UNL A   1      44.177  33.930  32.215  1.00  0.00    -0.062 NA
ATOM     87  C   UNL A   1      43.586  35.556  30.844  1.00  0.00     0.093 A 
ATOM     88  N   UNL A   1      44.619  34.734  31.244  1.00  0.00    -0.134 NA
BRANCH  87  89
ATOM     89  C   UNL A   1      43.678  36.393  29.624  1.00  0.00     0.138 C 
BRANCH  89  90
ATOM     90  S   UNL A   1      44.738  37.831  29.455  1.00  0.00    -0.081 SA
BRANCH  90  91
ATOM     91  C   UNL A   1      44.055  39.274  30.151  1.00  0.00     0.176 A 
ATOM     92  N   UNL A   1      44.330  39.368  31.421  1.00  0.00    -0.223 NA
ATOM     93  N   UNL A   1      43.338  40.259  29.481  1.00  0.00    -0.255 N 
ATOM     94  C   UNL A   1      43.803  40.438  32.146  1.00  0.00     0.079 A 
ATOM     95  C   UNL A   1      42.342  40.856  30.267  1.00  0.00     0.266 A 
ATOM     96  C   UNL A   1      44.309  40.780  33.400  1.00  0.00     0.029 A 
ATOM     97  C   UNL A   1      42.703  41.127  31.663  1.00  0.00     0.066 A 
ATOM     98  O   UNL A   1      41.202  41.143  29.905  1.00  0.00    -0.268 OA
ATOM     99  C   UNL A   1      43.678  41.764  34.171  1.00  0.00     0.002 A 
ATOM    100  C   UNL A   1      42.028  42.075  32.438  1.00  0.00     0.016 A 
ATOM    101  C   UNL A   1      42.519  42.389  33.704  1.00  0.00     0.001 A 
BRANCH  93 102
ATOM    102  C   UNL A   1      43.440  40.652  28.083  1.00  0.00     0.051 A 
ATOM    103  C   UNL A   1      44.325  41.687  27.700  1.00  0.00     0.028 A 
ATOM    104  C   UNL A   1      42.670  40.107  27.046  1.00  0.00     0.028 A 
ATOM    105  C   UNL A   1      44.263  42.303  26.445  1.00  0.00     0.018 A 
ATOM    106  C   UNL A   1      42.570  40.741  25.795  1.00  0.00     0.018 A 
ATOM    107  C   UNL A   1      43.338  41.863  25.516  1.00  0.00     0.018 A 
ATOM    108  Br  UNL A   1      43.114  42.793  23.892  1.00  0.00    -0.051 Br
ENDBRANCH  93 102
ENDBRANCH  90  91
ENDBRANCH  89  90
ENDBRANCH  87  89
ENDBRANCH  83  84
ENDBRANCH  75  78
ENDBRANCH  73  74
ENDBRANCH   1  73
TORSDOF 19
ENDMDL
MODEL 2
REMARK VINA RESULT:     -11.1      5.083     13.343
REMARK SMILES O=C(NCCCCNC(=O)c1ccc(-n2cc(CSc3nc4ccccc4c(=O)n3-c3ccc(Br)cc3)nn2)cc1)c1ccc(-c2c3nc(c(-c4cc(S(=O)(=O)[O-])ccc4F)c4ccc([nH]4)c(-c4cc(S(=O)(=O)[O-])ccc4F)c4nc(c(-c5cc(S(=O)(=O)[O-])ccc5F)c5ccc2[nH]5)C=C4)C=C3)cc1
REMARK SMILES IDX 6 1 5 2 4 3 3 4 1 5 2 6 42 8 43 9 104 10 44 11 103 12 45 13
REMARK SMILES IDX 46 14 47 15 97 16 48 17 102 18 96 19 98 20 49 21 101 22
REMARK SMILES IDX 95 23 94 24 50 26 82 27 62 28 81 29 63 30 66 31 80 32 99 33
REMARK SMILES IDX 64 34 65 35 79 37 100 38 67 39 51 40 52 41 60 42 53 43 59 44
REMARK SMILES IDX 61 45 58 46 54 47 55 48 56 49 57 50 83 51 84 52 92 53 85 54
REMARK SMILES IDX 91 55 93 56 90 57 86 58 87 59 88 60 89 61 68 62 69 63 77 64
REMARK SMILES IDX 70 65 76 66 78 67 75 68 71 69 72 70 73 71 74 72 7 73 8 74
REMARK SMILES IDX 9 75 10 77 11 78 12 79 41 80 13 81 40 82 14 83 15 84 16 85
REMARK SMILES IDX 39 86 17 87 38 88 18 89 19 90 20 91 21 92 30 93 22 94 28 95
REMARK SMILES IDX 23 96 27 97 29 98 24 99 26 100 25 101 31 102 32 103 37 104
REMARK SMILES IDX 33 105 36 106 34 107 35 108
REMARK H PARENT 3 7 98 25 66 36 8 76
REMARK Flexibility Score: inf
ROOT
ATOM      1  C   UNL A   1      44.432  25.018  25.434  1.00  0.00     0.023 C 
ENDROOT
BRANCH   1   2
ATOM      2  C   UNL A   1      44.198  23.517  25.611  1.00  0.00     0.023 C 
BRANCH   2   3
ATOM      3  C   UNL A   1      42.946  22.948  24.940  1.00  0.00     0.116 C 
BRANCH   3   4
ATOM      4  N   UNL A   1      42.005  22.288  25.822  1.00  0.00    -0.352 N 
ATOM      5  O   UNL A   1      40.287  21.857  27.135  1.00  0.00    -0.269 OA
ATOM      6  C   UNL A   1      41.076  22.717  26.731  1.00  0.00     0.251 C 
ATOM      7  H   UNL A   1      42.042  21.307  25.752  1.00  0.00     0.163 HD
BRANCH   6   8
ATOM      8  C   UNL A   1      40.990  24.095  27.292  1.00  0.00     0.039 A 
ATOM      9  C   UNL A   1      40.141  25.103  26.838  1.00  0.00     0.014 A 
ATOM     10  C   UNL A   1      41.880  24.395  28.343  1.00  0.00     0.014 A 
ATOM     11  C   UNL A   1      40.239  26.397  27.346  1.00  0.00     0.010 A 
ATOM     12  C   UNL A   1      41.963  25.680  28.873  1.00  0.00     0.010 A 
ATOM     13  C   UNL A   1      41.162  26.691  28.350  1.00  0.00    -0.014 A 
BRANCH  13  14
ATOM     14  C   UNL A   1      41.148  28.041  28.913  1.00  0.00     0.031 A 
ATOM     15  C   UNL A   1      42.149  28.986  28.342  1.00  0.00     0.074 A 
ATOM     16  C   UNL A   1      40.217  28.494  29.776  1.00  0.00     0.049 A 
ATOM     17  N   UNL A   1      43.091  29.631  28.950  1.00  0.00    -0.248 NA
ATOM     18  C   UNL A   1      42.152  29.166  26.883  1.00  0.00     0.031 C 
ATOM     19  C   UNL A   1      38.996  27.812  30.205  1.00  0.00     0.029 A 
ATOM     20  N   UNL A   1      40.114  29.726  30.358  1.00  0.00    -0.354 N 
ATOM     21  C   UNL A   1      43.679  30.458  27.993  1.00  0.00     0.074 A 
ATOM     22  C   UNL A   1      43.166  30.016  26.724  1.00  0.00     0.031 C 
ATOM     23  C   UNL A   1      38.174  28.710  30.790  1.00  0.00     0.029 A 
ATOM     24  C   UNL A   1      38.856  29.991  30.885  1.00  0.00     0.049 A 
ATOM     25  H   UNL A   1      40.861  30.365  30.401  1.00  0.00     0.167 HD
ATOM     26  C   UNL A   1      44.398  31.563  28.341  1.00  0.00     0.034 A 
ATOM     27  C   UNL A   1      38.373  31.192  31.298  1.00  0.00     0.034 A 
ATOM     28  C   UNL A   1      44.833  31.492  29.718  1.00  0.00     0.049 A 
ATOM     29  C   UNL A   1      39.531  32.065  31.604  1.00  0.00     0.074 A 
ATOM     30  C   UNL A   1      45.587  30.595  30.453  1.00  0.00     0.029 A 
ATOM     31  N   UNL A   1      44.222  32.297  30.653  1.00  0.00    -0.354 N 
ATOM     32  N   UNL A   1      40.361  31.850  32.586  1.00  0.00    -0.248 NA
ATOM     33  C   UNL A   1      40.023  32.959  30.566  1.00  0.00     0.031 C 
ATOM     34  C   UNL A   1      44.992  30.584  31.748  1.00  0.00     0.029 A 
ATOM     35  C   UNL A   1      43.947  31.509  31.740  1.00  0.00     0.049 A 
ATOM     36  H   UNL A   1      44.020  33.257  30.559  1.00  0.00     0.167 HD
ATOM     37  C   UNL A   1      41.602  32.223  32.098  1.00  0.00     0.074 A 
ATOM     38  C   UNL A   1      41.316  33.006  30.900  1.00  0.00     0.031 C 
ATOM     39  C   UNL A   1      42.750  31.631  32.547  1.00  0.00     0.034 A 
BRANCH  26  40
ATOM     40  C   UNL A   1      44.416  32.869  27.562  1.00  0.00     0.023 A 
ATOM     41  C   UNL A   1      43.729  33.959  28.134  1.00  0.00     0.031 A 
ATOM     42  C   UNL A   1      44.773  33.026  26.205  1.00  0.00     0.131 A 
ATOM     43  C   UNL A   1      43.282  35.033  27.346  1.00  0.00     0.055 A 
ATOM     44  C   UNL A   1      44.398  34.138  25.442  1.00  0.00     0.041 A 
ATOM     45  F   UNL A   1      45.430  32.091  25.511  1.00  0.00    -0.206 F 
ATOM     46  C   UNL A   1      43.606  35.129  25.998  1.00  0.00     0.022 A 
BRANCH  43  47
ATOM     47  S   UNL A   1      42.068  36.167  28.069  1.00  0.00     0.124 S 
ATOM     48  O   UNL A   1      42.717  36.519  29.328  1.00  0.00    -0.237 OA
ATOM     49  O   UNL A   1      42.006  37.219  27.059  1.00  0.00    -0.237 OA
ATOM     50  O   UNL A   1      40.868  35.344  28.192  1.00  0.00    -0.744 OA
ENDBRANCH  43  47
ENDBRANCH  26  40
BRANCH  27  51
ATOM     51  C   UNL A   1      36.978  31.687  31.153  1.00  0.00     0.023 A 
ATOM     52  C   UNL A   1      36.256  32.262  32.218  1.00  0.00     0.031 A 
ATOM     53  C   UNL A   1      36.403  31.796  29.866  1.00  0.00     0.131 A 
ATOM     54  C   UNL A   1      35.015  32.894  31.975  1.00  0.00     0.055 A 
ATOM     55  C   UNL A   1      35.170  32.405  29.633  1.00  0.00     0.041 A 
ATOM     56  F   UNL A   1      37.062  31.385  28.771  1.00  0.00    -0.206 F 
ATOM     57  C   UNL A   1      34.471  32.965  30.689  1.00  0.00     0.022 A 
BRANCH  54  58
ATOM     58  S   UNL A   1      34.127  33.734  33.326  1.00  0.00     0.124 S 
ATOM     59  O   UNL A   1      32.835  33.057  33.316  1.00  0.00    -0.237 OA
ATOM     60  O   UNL A   1      34.986  33.475  34.475  1.00  0.00    -0.237 OA
ATOM     61  O   UNL A   1      34.092  35.131  32.894  1.00  0.00    -0.744 OA
ENDBRANCH  54  58
ENDBRANCH  27  51
BRANCH  39  62
ATOM     62  C   UNL A   1      42.707  30.831  33.830  1.00  0.00     0.023 A 
ATOM     63  C   UNL A   1      42.288  29.487  33.921  1.00  0.00     0.031 A 
ATOM     64  C   UNL A   1      43.243  31.431  34.985  1.00  0.00     0.131 A 
ATOM     65  C   UNL A   1      42.403  28.797  35.142  1.00  0.00     0.055 A 
ATOM     66  C   UNL A   1      43.372  30.739  36.187  1.00  0.00     0.041 A 
ATOM     67  F   UNL A   1      43.691  32.697  34.952  1.00  0.00    -0.206 F 
ATOM     68  C   UNL A   1      42.946  29.419  36.273  1.00  0.00     0.022 A 
BRANCH  65  69
ATOM     69  S   UNL A   1      41.847  27.069  35.281  1.00  0.00     0.124 S 
ATOM     70  O   UNL A   1      41.438  26.952  36.676  1.00  0.00    -0.237 OA
ATOM     71  O   UNL A   1      40.774  27.004  34.291  1.00  0.00    -0.237 OA
ATOM     72  O   UNL A   1      43.041  26.298  34.930  1.00  0.00    -0.744 OA
ENDBRANCH  65  69
ENDBRANCH  39  62
ENDBRANCH  13  14
ENDBRANCH   6   8
ENDBRANCH   3   4
ENDBRANCH   2   3
ENDBRANCH   1   2
BRANCH   1  73
ATOM     73  C   UNL A   1      45.876  25.439  25.200  1.00  0.00     0.116 C 
BRANCH  73  74
ATOM     74  N   UNL A   1      46.031  26.869  24.982  1.00  0.00    -0.352 N 
ATOM     75  C   UNL A   1      46.238  27.867  25.909  1.00  0.00     0.251 C 
ATOM     76  H   UNL A   1      45.979  27.164  24.045  1.00  0.00     0.163 HD
ATOM     77  O   UNL A   1      46.318  29.035  25.578  1.00  0.00    -0.269 OA
BRANCH  75  78
ATOM     78  C   UNL A   1      46.346  27.497  27.334  1.00  0.00     0.039 A 
ATOM     79  C   UNL A   1      47.614  27.470  27.928  1.00  0.00     0.016 A 
ATOM     80  C   UNL A   1      45.197  27.212  28.077  1.00  0.00     0.016 A 
ATOM     81  C   UNL A   1      47.737  27.252  29.302  1.00  0.00     0.029 A 
ATOM     82  C   UNL A   1      45.317  26.957  29.438  1.00  0.00     0.029 A 
ATOM     83  C   UNL A   1      46.585  27.000  30.048  1.00  0.00     0.066 A 
BRANCH  83  84
ATOM     84  N   UNL A   1      46.686  26.664  31.407  1.00  0.00    -0.220 N 
ATOM     85  C   UNL A   1      46.620  25.389  31.891  1.00  0.00     0.141 A 
ATOM     86  N   UNL A   1      46.705  27.537  32.431  1.00  0.00    -0.062 NA
ATOM     87  C   UNL A   1      46.494  25.498  33.250  1.00  0.00     0.093 A 
ATOM     88  N   UNL A   1      46.521  26.842  33.557  1.00  0.00    -0.134 NA
BRANCH  87  89
ATOM     89  C   UNL A   1      46.067  24.477  34.235  1.00  0.00     0.138 C 
BRANCH  89  90
ATOM     90  S   UNL A   1      47.059  23.925  35.625  1.00  0.00    -0.081 SA
BRANCH  90  91
ATOM     91  C   UNL A   1      48.313  22.805  35.173  1.00  0.00     0.176 A 
ATOM     92  N   UNL A   1      49.302  23.409  34.580  1.00  0.00    -0.223 NA
ATOM     93  N   UNL A   1      48.333  21.437  35.424  1.00  0.00    -0.255 N 
ATOM     94  C   UNL A   1      50.366  22.643  34.096  1.00  0.00     0.079 A 
ATOM     95  C   UNL A   1      48.974  20.695  34.421  1.00  0.00     0.266 A 
ATOM     96  C   UNL A   1      51.584  23.232  33.755  1.00  0.00     0.029 A 
ATOM     97  C   UNL A   1      50.195  21.289  33.865  1.00  0.00     0.066 A 
ATOM     98  O   UNL A   1      48.596  19.622  33.954  1.00  0.00    -0.268 OA
ATOM     99  C   UNL A   1      52.587  22.472  33.142  1.00  0.00     0.002 A 
ATOM    100  C   UNL A   1      51.164  20.525  33.207  1.00  0.00     0.016 A 
ATOM    101  C   UNL A   1      52.366  21.127  32.839  1.00  0.00     0.001 A 
BRANCH  93 102
ATOM    102  C   UNL A   1      47.703  20.714  36.519  1.00  0.00     0.051 A 
ATOM    103  C   UNL A   1      48.407  20.501  37.727  1.00  0.00     0.028 A 
ATOM    104  C   UNL A   1      46.424  20.143  36.462  1.00  0.00     0.028 A 
ATOM    105  C   UNL A   1      47.982  19.583  38.693  1.00  0.00     0.018 A 
ATOM    106  C   UNL A   1      46.003  19.190  37.405  1.00  0.00     0.018 A 
ATOM    107  C   UNL A   1      46.805  18.884  38.496  1.00  0.00     0.018 A 
ATOM    108  Br  UNL A   1      46.308  17.514  39.692  1.00  0.00    -0.051 Br
ENDBRANCH  93 102
ENDBRANCH  90  91
ENDBRANCH  89  90
ENDBRANCH  87  89
ENDBRANCH  83  84
ENDBRANCH  75  78
ENDBRANCH  73  74
ENDBRANCH   1  73
TORSDOF 19
ENDMDL
MODEL 3
REMARK VINA RESULT:     -11.1      4.994      9.767
REMARK SMILES O=C(NCCCCNC(=O)c1ccc(-n2cc(CSc3nc4ccccc4c(=O)n3-c3ccc(Br)cc3)nn2)cc1)c1ccc(-c2c3nc(c(-c4cc(S(=O)(=O)[O-])ccc4F)c4ccc([nH]4)c(-c4cc(S(=O)(=O)[O-])ccc4F)c4nc(c(-c5cc(S(=O)(=O)[O-])ccc5F)c5ccc2[nH]5)C=C4)C=C3)cc1
REMARK SMILES IDX 6 1 5 2 4 3 3 4 1 5 2 6 42 8 43 9 104 10 44 11 103 12 45 13
REMARK SMILES IDX 46 14 47 15 97 16 48 17 102 18 96 19 98 20 49 21 101 22
REMARK SMILES IDX 95 23 94 24 50 26 82 27 62 28 81 29 63 30 66 31 80 32 99 33
REMARK SMILES IDX 64 34 65 35 79 37 100 38 67 39 51 40 52 41 60 42 53 43 59 44
REMARK SMILES IDX 61 45 58 46 54 47 55 48 56 49 57 50 83 51 84 52 92 53 85 54
REMARK SMILES IDX 91 55 93 56 90 57 86 58 87 59 88 60 89 61 68 62 69 63 77 64
REMARK SMILES IDX 70 65 76 66 78 67 75 68 71 69 72 70 73 71 74 72 7 73 8 74
REMARK SMILES IDX 9 75 10 77 11 78 12 79 41 80 13 81 40 82 14 83 15 84 16 85
REMARK SMILES IDX 39 86 17 87 38 88 18 89 19 90 20 91 21 92 30 93 22 94 28 95
REMARK SMILES IDX 23 96 27 97 29 98 24 99 26 100 25 101 31 102 32 103 37 104
REMARK SMILES IDX 33 105 36 106 34 107 35 108
REMARK H PARENT 3 7 98 25 66 36 8 76
REMARK Flexibility Score: inf
ROOT
ATOM      1  C   UNL A   1      34.929  35.982  32.820  1.00  0.00     0.023 C 
ENDROOT
BRANCH   1   2
ATOM      2  C   UNL A   1      35.524  34.785  33.562  1.00  0.00     0.023 C 
BRANCH   2   3
ATOM      3  C   UNL A   1      36.395  33.844  32.728  1.00  0.00     0.116 C 
BRANCH   3   4
ATOM      4  N   UNL A   1      35.680  32.926  31.863  1.00  0.00    -0.352 N 
ATOM      5  O   UNL A   1      34.984  31.107  30.830  1.00  0.00    -0.269 OA
ATOM      6  C   UNL A   1      35.943  31.683  31.353  1.00  0.00     0.251 C 
ATOM      7  H   UNL A   1      34.806  33.277  31.577  1.00  0.00     0.163 HD
BRANCH   6   8
ATOM      8  C   UNL A   1      37.278  31.022  31.337  1.00  0.00     0.039 A 
ATOM      9  C   UNL A   1      38.507  31.679  31.293  1.00  0.00     0.014 A 
ATOM     10  C   UNL A   1      37.274  29.613  31.325  1.00  0.00     0.014 A 
ATOM     11  C   UNL A   1      39.691  30.961  31.144  1.00  0.00     0.010 A 
ATOM     12  C   UNL A   1      38.458  28.889  31.203  1.00  0.00     0.010 A 
ATOM     13  C   UNL A   1      39.666  29.567  31.080  1.00  0.00    -0.014 A 
BRANCH  13  14
ATOM     14  C   UNL A   1      40.949  28.865  31.025  1.00  0.00     0.031 A 
ATOM     15  C   UNL A   1      41.614  28.640  32.339  1.00  0.00     0.074 A 
ATOM     16  C   UNL A   1      41.461  28.305  29.912  1.00  0.00     0.049 A 
ATOM     17  N   UNL A   1      42.782  29.034  32.732  1.00  0.00    -0.248 NA
ATOM     18  C   UNL A   1      40.835  27.959  33.383  1.00  0.00     0.031 C 
ATOM     19  C   UNL A   1      40.810  28.159  28.609  1.00  0.00     0.029 A 
ATOM     20  N   UNL A   1      42.640  27.634  29.753  1.00  0.00    -0.354 N 
ATOM     21  C   UNL A   1      42.976  28.480  33.998  1.00  0.00     0.074 A 
ATOM     22  C   UNL A   1      41.695  27.964  34.401  1.00  0.00     0.031 C 
ATOM     23  C   UNL A   1      41.499  27.261  27.872  1.00  0.00     0.029 A 
ATOM     24  C   UNL A   1      42.695  26.864  28.597  1.00  0.00     0.049 A 
ATOM     25  H   UNL A   1      43.382  27.691  30.397  1.00  0.00     0.167 HD
ATOM     26  C   UNL A   1      44.221  28.322  34.531  1.00  0.00     0.034 A 
ATOM     27  C   UNL A   1      43.610  25.909  28.288  1.00  0.00     0.034 A 
ATOM     28  C   UNL A   1      45.184  29.174  33.871  1.00  0.00     0.049 A 
ATOM     29  C   UNL A   1      44.827  26.170  29.092  1.00  0.00     0.074 A 
ATOM     30  C   UNL A   1      45.291  30.536  33.660  1.00  0.00     0.029 A 
ATOM     31  N   UNL A   1      46.102  28.606  33.016  1.00  0.00    -0.354 N 
ATOM     32  N   UNL A   1      45.590  27.216  28.936  1.00  0.00    -0.248 NA
ATOM     33  C   UNL A   1      44.983  25.478  30.363  1.00  0.00     0.031 C 
ATOM     34  C   UNL A   1      45.871  30.667  32.365  1.00  0.00     0.029 A 
ATOM     35  C   UNL A   1      46.129  29.382  31.886  1.00  0.00     0.049 A 
ATOM     36  H   UNL A   1      46.637  27.796  33.184  1.00  0.00     0.167 HD
ATOM     37  C   UNL A   1      45.996  27.560  30.215  1.00  0.00     0.074 A 
ATOM     38  C   UNL A   1      45.692  26.390  31.033  1.00  0.00     0.031 C 
ATOM     39  C   UNL A   1      46.281  28.855  30.546  1.00  0.00     0.034 A 
BRANCH  26  40
ATOM     40  C   UNL A   1      44.650  27.153  35.404  1.00  0.00     0.023 A 
ATOM     41  C   UNL A   1      44.668  25.881  34.798  1.00  0.00     0.031 A 
ATOM     42  C   UNL A   1      44.733  27.151  36.814  1.00  0.00     0.131 A 
ATOM     43  C   UNL A   1      44.589  24.706  35.566  1.00  0.00     0.055 A 
ATOM     44  C   UNL A   1      44.739  25.976  37.575  1.00  0.00     0.041 A 
ATOM     45  F   UNL A   1      44.731  28.269  37.546  1.00  0.00    -0.206 F 
ATOM     46  C   UNL A   1      44.618  24.744  36.955  1.00  0.00     0.022 A 
BRANCH  43  47
ATOM     47  S   UNL A   1      44.203  23.158  34.709  1.00  0.00     0.124 S 
ATOM     48  O   UNL A   1      44.757  22.172  35.632  1.00  0.00    -0.237 OA
ATOM     49  O   UNL A   1      42.747  23.218  34.626  1.00  0.00    -0.237 OA
ATOM     50  O   UNL A   1      44.909  23.290  33.437  1.00  0.00    -0.744 OA
ENDBRANCH  43  47
ENDBRANCH  26  40
BRANCH  27  51
ATOM     51  C   UNL A   1      43.357  24.641  27.554  1.00  0.00     0.023 A 
ATOM     52  C   UNL A   1      44.186  24.181  26.511  1.00  0.00     0.031 A 
ATOM     53  C   UNL A   1      42.386  23.733  28.037  1.00  0.00     0.131 A 
ATOM     54  C   UNL A   1      44.015  22.879  25.988  1.00  0.00     0.055 A 
ATOM     55  C   UNL A   1      42.209  22.455  27.507  1.00  0.00     0.041 A 
ATOM     56  F   UNL A   1      41.625  24.029  29.103  1.00  0.00    -0.206 F 
ATOM     57  C   UNL A   1      43.030  22.019  26.481  1.00  0.00     0.022 A 
BRANCH  54  58
ATOM     58  S   UNL A   1      45.150  22.238  24.716  1.00  0.00     0.124 S 
ATOM     59  O   UNL A   1      46.266  21.746  25.515  1.00  0.00    -0.237 OA
ATOM     60  O   UNL A   1      44.335  21.231  24.047  1.00  0.00    -0.237 OA
ATOM     61  O   UNL A   1      45.450  23.417  23.902  1.00  0.00    -0.744 OA
ENDBRANCH  54  58
ENDBRANCH  27  51
BRANCH  39  62
ATOM     62  C   UNL A   1      46.506  29.861  29.439  1.00  0.00     0.023 A 
ATOM     63  C   UNL A   1      45.490  30.374  28.605  1.00  0.00     0.031 A 
ATOM     64  C   UNL A   1      47.794  30.415  29.320  1.00  0.00     0.131 A 
ATOM     65  C   UNL A   1      45.786  31.399  27.687  1.00  0.00     0.055 A 
ATOM     66  C   UNL A   1      48.079  31.441  28.422  1.00  0.00     0.041 A 
ATOM     67  F   UNL A   1      48.795  29.992  30.110  1.00  0.00    -0.206 F 
ATOM     68  C   UNL A   1      47.076  31.934  27.596  1.00  0.00     0.022 A 
BRANCH  65  69
ATOM     69  S   UNL A   1      44.491  32.056  26.589  1.00  0.00     0.124 S 
ATOM     70  O   UNL A   1      43.600  30.920  26.391  1.00  0.00    -0.237 OA
ATOM     71  O   UNL A   1      43.951  33.167  27.370  1.00  0.00    -0.237 OA
ATOM     72  O   UNL A   1      45.233  32.463  25.394  1.00  0.00    -0.744 OA
ENDBRANCH  65  69
ENDBRANCH  39  62
ENDBRANCH  13  14
ENDBRANCH   6   8
ENDBRANCH   3   4
ENDBRANCH   2   3
ENDBRANCH   1   2
BRANCH   1  73
ATOM     73  C   UNL A   1      33.727  35.681  31.935  1.00  0.00     0.116 C 
BRANCH  73  74
ATOM     74  N   UNL A   1      33.489  36.698  30.922  1.00  0.00    -0.352 N 
ATOM     75  C   UNL A   1      33.537  36.579  29.550  1.00  0.00     0.251 C 
ATOM     76  H   UNL A   1      33.264  37.593  31.263  1.00  0.00     0.163 HD
ATOM     77  O   UNL A   1      33.343  37.535  28.822  1.00  0.00    -0.269 OA
BRANCH  75  78
ATOM     78  C   UNL A   1      33.850  35.259  28.965  1.00  0.00     0.039 A 
ATOM     79  C   UNL A   1      35.193  34.885  28.829  1.00  0.00     0.016 A 
ATOM     80  C   UNL A   1      32.819  34.394  28.588  1.00  0.00     0.016 A 
ATOM     81  C   UNL A   1      35.518  33.596  28.403  1.00  0.00     0.029 A 
ATOM     82  C   UNL A   1      33.139  33.122  28.128  1.00  0.00     0.029 A 
ATOM     83  C   UNL A   1      34.487  32.722  28.058  1.00  0.00     0.066 A 
BRANCH  83  84
ATOM     84  N   UNL A   1      34.784  31.460  27.518  1.00  0.00    -0.220 N 
ATOM     85  C   UNL A   1      33.865  30.638  26.934  1.00  0.00     0.141 A 
ATOM     86  N   UNL A   1      35.961  30.817  27.631  1.00  0.00    -0.062 NA
ATOM     87  C   UNL A   1      34.476  29.424  26.778  1.00  0.00     0.093 A 
ATOM     88  N   UNL A   1      35.766  29.553  27.246  1.00  0.00    -0.134 NA
BRANCH  87  89
ATOM     89  C   UNL A   1      33.870  28.099  26.502  1.00  0.00     0.138 C 
BRANCH  89  90
ATOM     90  S   UNL A   1      33.954  27.251  24.924  1.00  0.00    -0.081 SA
BRANCH  90  91
ATOM     91  C   UNL A   1      33.306  25.635  24.977  1.00  0.00     0.176 A 
ATOM     92  N   UNL A   1      33.953  24.888  25.824  1.00  0.00    -0.223 NA
ATOM     93  N   UNL A   1      32.213  25.157  24.263  1.00  0.00    -0.255 N 
ATOM     94  C   UNL A   1      33.599  23.542  25.942  1.00  0.00     0.079 A 
ATOM     95  C   UNL A   1      32.329  23.806  23.904  1.00  0.00     0.266 A 
ATOM     96  C   UNL A   1      34.012  22.780  27.035  1.00  0.00     0.029 A 
ATOM     97  C   UNL A   1      32.899  22.918  24.923  1.00  0.00     0.066 A 
ATOM     98  O   UNL A   1      32.026  23.310  22.819  1.00  0.00    -0.268 OA
ATOM     99  C   UNL A   1      33.766  21.402  27.067  1.00  0.00     0.002 A 
ATOM    100  C   UNL A   1      32.691  21.536  24.911  1.00  0.00     0.016 A 
ATOM    101  C   UNL A   1      33.134  20.775  25.991  1.00  0.00     0.001 A 
BRANCH  93 102
ATOM    102  C   UNL A   1      31.056  25.899  23.783  1.00  0.00     0.051 A 
ATOM    103  C   UNL A   1      31.219  26.914  22.811  1.00  0.00     0.028 A 
ATOM    104  C   UNL A   1      29.748  25.723  24.253  1.00  0.00     0.028 A 
ATOM    105  C   UNL A   1      30.215  27.847  22.523  1.00  0.00     0.018 A 
ATOM    106  C   UNL A   1      28.743  26.674  24.003  1.00  0.00     0.018 A 
ATOM    107  C   UNL A   1      28.996  27.756  23.171  1.00  0.00     0.018 A 
ATOM    108  Br  UNL A   1      27.699  29.103  22.935  1.00  0.00    -0.051 Br
ENDBRANCH  93 102
ENDBRANCH  90  91
ENDBRANCH  89  90
ENDBRANCH  87  89
ENDBRANCH  83  84
ENDBRANCH  75  78
ENDBRANCH  73  74
ENDBRANCH   1  73
TORSDOF 19
ENDMDL
