MODEL 1
REMARK VINA RESULT:     -11.2      0.000      0.000
REMARK SMILES CC(C)OCCS(=O)(=O)N[C@H]1COC[C@@H]1C(=O)NCCCCNC(=O)c1ccc(-c2c3nc(c(-c4cc(S(=O)(=O)[O-])ccc4F)c4ccc([nH]4)c(-c4cc(S(=O)(=O)[O-])ccc4F)c4nc(c(-c5cc(S(=O)(=O)[O-])ccc5F)c5ccc2[nH]5)C=C4)C=C3)cc1
REMARK SMILES IDX 19 1 18 2 16 3 17 4 15 6 11 7 12 8 13 9 14 10 10 11 7 13
REMARK SMILES IDX 8 14 9 15 6 16 5 17 4 18 2 19 1 20 3 21 20 22 21 23 22 24
REMARK SMILES IDX 23 25 24 26 25 28 26 29 27 30 88 31 28 32 87 33 29 34 30 35
REMARK SMILES IDX 31 36 81 37 32 38 86 39 80 40 82 41 33 42 85 43 79 44 78 45
REMARK SMILES IDX 34 47 66 48 46 49 65 50 47 51 50 52 64 53 83 54 48 55 49 56
REMARK SMILES IDX 63 58 84 59 51 60 35 61 36 62 44 63 37 64 43 65 45 66 42 67
REMARK SMILES IDX 38 68 39 69 40 70 41 71 67 72 68 73 76 74 69 75 75 76 77 77
REMARK SMILES IDX 74 78 70 79 71 80 72 81 73 82 52 83 53 84 61 85 54 86 60 87
REMARK SMILES IDX 62 88 59 89 55 90 56 91 57 92 58 93
REMARK H PARENT 18 5 10 12 23 27 82 46 50 57
REMARK Flexibility Score: inf
ROOT
ATOM      1  C   UNL A   1      31.841  29.919  25.596  1.00  0.00     0.116 C 
ENDROOT
BRANCH   1   2
ATOM      2  N   UNL A   1      33.203  29.596  25.244  1.00  0.00    -0.356 N 
ATOM      3  C   UNL A   1      33.665  28.344  25.415  1.00  0.00     0.227 C 
ATOM      4  O   UNL A   1      34.388  28.152  26.400  1.00  0.00    -0.275 OA
ATOM      5  H   UNL A   1      33.794  30.294  24.878  1.00  0.00     0.163 HD
BRANCH   3   6
ATOM      6  C   UNL A   1      33.246  27.167  24.518  1.00  0.00     0.124 C 
ATOM      7  C   UNL A   1      33.665  25.232  24.782  1.00  0.00     0.110 C 
ATOM      8  C   UNL A   1      33.984  24.489  22.911  1.00  0.00     0.181 C 
ATOM      9  O   UNL A   1      33.845  25.932  21.692  1.00  0.00    -0.379 OA
ATOM     10  C   UNL A   1      33.377  27.556  22.572  1.00  0.00     0.175 C 
BRANCH   7  11
ATOM     11  N   UNL A   1      32.918  24.802  26.010  1.00  0.00    -0.209 NA
ATOM     12  H   UNL A   1      33.642  24.646  26.711  1.00  0.00     0.141 HD
BRANCH  11  13
ATOM     13  S   UNL A   1      31.881  23.514  26.190  1.00  0.00     0.214 S 
ATOM     14  O   UNL A   1      30.864  23.669  25.182  1.00  0.00    -0.212 OA
ATOM     15  O   UNL A   1      31.489  23.624  27.584  1.00  0.00    -0.212 OA
BRANCH  13  16
ATOM     16  C   UNL A   1      32.740  21.913  26.052  1.00  0.00     0.182 C 
BRANCH  16  17
ATOM     17  C   UNL A   1      33.802  21.517  25.001  1.00  0.00     0.178 C 
BRANCH  17  18
ATOM     18  O   UNL A   1      35.147  21.007  25.242  1.00  0.00    -0.378 OA
BRANCH  18  19
ATOM     19  C   UNL A   1      36.530  21.784  25.112  1.00  0.00     0.112 C 
ATOM     20  C   UNL A   1      36.968  23.790  25.903  1.00  0.00     0.038 C 
ATOM     21  C   UNL A   1      37.399  20.348  24.856  1.00  0.00     0.038 C 
ENDBRANCH  18  19
ENDBRANCH  17  18
ENDBRANCH  16  17
ENDBRANCH  13  16
ENDBRANCH  11  13
ENDBRANCH   7  11
ENDBRANCH   3   6
ENDBRANCH   1   2
BRANCH   1  22
ATOM     22  C   UNL A   1      31.763  31.147  26.512  1.00  0.00     0.023 C 
BRANCH  22  23
ATOM     23  C   UNL A   1      32.897  31.240  27.533  1.00  0.00     0.023 C 
BRANCH  23  24
ATOM     24  C   UNL A   1      33.747  32.489  27.389  1.00  0.00     0.116 C 
BRANCH  24  25
ATOM     25  N   UNL A   1      33.014  33.708  27.711  1.00  0.00    -0.352 N 
ATOM     26  C   UNL A   1      33.278  34.586  28.729  1.00  0.00     0.251 C 
ATOM     27  H   UNL A   1      32.246  33.923  27.134  1.00  0.00     0.163 HD
ATOM     28  O   UNL A   1      32.587  35.577  28.915  1.00  0.00    -0.269 OA
BRANCH  26  29
ATOM     29  C   UNL A   1      34.386  34.225  29.617  1.00  0.00     0.039 A 
ATOM     30  C   UNL A   1      34.107  33.376  30.686  1.00  0.00     0.014 A 
ATOM     31  C   UNL A   1      35.696  34.524  29.231  1.00  0.00     0.014 A 
ATOM     32  C   UNL A   1      35.166  32.793  31.370  1.00  0.00     0.010 A 
ATOM     33  C   UNL A   1      36.742  33.861  29.853  1.00  0.00     0.010 A 
ATOM     34  C   UNL A   1      36.486  33.008  30.939  1.00  0.00    -0.014 A 
BRANCH  34  35
ATOM     35  C   UNL A   1      37.621  32.391  31.662  1.00  0.00     0.031 A 
ATOM     36  C   UNL A   1      38.370  31.267  31.008  1.00  0.00     0.074 A 
ATOM     37  C   UNL A   1      37.955  32.828  32.892  1.00  0.00     0.049 A 
ATOM     38  N   UNL A   1      39.363  30.556  31.472  1.00  0.00    -0.248 NA
ATOM     39  C   UNL A   1      37.920  30.866  29.664  1.00  0.00     0.031 C 
ATOM     40  C   UNL A   1      37.273  33.895  33.628  1.00  0.00     0.029 A 
ATOM     41  N   UNL A   1      38.955  32.428  33.741  1.00  0.00    -0.354 N 
ATOM     42  C   UNL A   1      39.644  29.619  30.484  1.00  0.00     0.074 A 
ATOM     43  C   UNL A   1      38.668  29.800  29.435  1.00  0.00     0.031 C 
ATOM     44  C   UNL A   1      37.899  34.091  34.799  1.00  0.00     0.029 A 
ATOM     45  C   UNL A   1      38.989  33.128  34.926  1.00  0.00     0.049 A 
ATOM     46  H   UNL A   1      39.590  31.709  33.524  1.00  0.00     0.167 HD
ATOM     47  C   UNL A   1      40.649  28.712  30.445  1.00  0.00     0.034 A 
ATOM     48  C   UNL A   1      39.800  32.994  35.994  1.00  0.00     0.034 A 
ATOM     49  C   UNL A   1      41.616  28.560  31.500  1.00  0.00     0.049 A 
ATOM     50  C   UNL A   1      40.881  31.943  35.947  1.00  0.00     0.074 A 
ATOM     51  C   UNL A   1      42.702  27.706  31.553  1.00  0.00     0.029 A 
ATOM     52  N   UNL A   1      41.607  29.270  32.695  1.00  0.00    -0.354 N 
ATOM     53  N   UNL A   1      41.167  31.093  34.986  1.00  0.00    -0.248 NA
ATOM     54  C   UNL A   1      41.756  31.839  37.121  1.00  0.00     0.031 C 
ATOM     55  C   UNL A   1      43.296  27.836  32.812  1.00  0.00     0.029 A 
ATOM     56  C   UNL A   1      42.646  28.846  33.505  1.00  0.00     0.049 A 
ATOM     57  H   UNL A   1      40.959  29.973  32.929  1.00  0.00     0.167 HD
ATOM     58  C   UNL A   1      42.279  30.380  35.427  1.00  0.00     0.074 A 
ATOM     59  C   UNL A   1      42.616  30.909  36.734  1.00  0.00     0.031 C 
ATOM     60  C   UNL A   1      42.964  29.384  34.809  1.00  0.00     0.034 A 
BRANCH  47  61
ATOM     61  C   UNL A   1      40.719  27.804  29.241  1.00  0.00     0.023 A 
ATOM     62  C   UNL A   1      41.646  28.017  28.204  1.00  0.00     0.031 A 
ATOM     63  C   UNL A   1      39.821  26.731  29.109  1.00  0.00     0.131 A 
ATOM     64  C   UNL A   1      41.601  27.219  27.051  1.00  0.00     0.055 A 
ATOM     65  C   UNL A   1      39.844  25.883  28.001  1.00  0.00     0.041 A 
ATOM     66  F   UNL A   1      38.893  26.497  30.050  1.00  0.00    -0.206 F 
ATOM     67  C   UNL A   1      40.727  26.135  26.956  1.00  0.00     0.022 A 
BRANCH  64  68
ATOM     68  S   UNL A   1      42.591  27.719  25.615  1.00  0.00     0.124 S 
ATOM     69  O   UNL A   1      41.870  28.907  25.160  1.00  0.00    -0.237 OA
ATOM     70  O   UNL A   1      43.904  27.954  26.201  1.00  0.00    -0.237 OA
ATOM     71  O   UNL A   1      42.501  26.567  24.720  1.00  0.00    -0.744 OA
ENDBRANCH  64  68
ENDBRANCH  47  61
BRANCH  48  72
ATOM     72  C   UNL A   1      39.617  33.854  37.199  1.00  0.00     0.023 A 
ATOM     73  C   UNL A   1      38.965  33.372  38.346  1.00  0.00     0.031 A 
ATOM     74  C   UNL A   1      40.048  35.194  37.205  1.00  0.00     0.131 A 
ATOM     75  C   UNL A   1      38.713  34.235  39.424  1.00  0.00     0.055 A 
ATOM     76  C   UNL A   1      39.853  36.029  38.306  1.00  0.00     0.041 A 
ATOM     77  F   UNL A   1      40.676  35.710  36.136  1.00  0.00    -0.206 F 
ATOM     78  C   UNL A   1      39.168  35.555  39.419  1.00  0.00     0.022 A 
BRANCH  75  79
ATOM     79  S   UNL A   1      37.687  33.635  40.795  1.00  0.00     0.124 S 
ATOM     80  O   UNL A   1      37.326  34.883  41.459  1.00  0.00    -0.237 OA
ATOM     81  O   UNL A   1      36.610  32.948  40.090  1.00  0.00    -0.237 OA
ATOM     82  O   UNL A   1      38.593  32.769  41.545  1.00  0.00    -0.744 OA
ENDBRANCH  75  79
ENDBRANCH  48  72
BRANCH  60  83
ATOM     83  C   UNL A   1      44.186  28.845  35.511  1.00  0.00     0.023 A 
ATOM     84  C   UNL A   1      44.114  27.775  36.418  1.00  0.00     0.031 A 
ATOM     85  C   UNL A   1      45.449  29.411  35.254  1.00  0.00     0.131 A 
ATOM     86  C   UNL A   1      45.274  27.340  37.077  1.00  0.00     0.055 A 
ATOM     87  C   UNL A   1      46.609  28.926  35.856  1.00  0.00     0.041 A 
ATOM     88  F   UNL A   1      45.577  30.439  34.400  1.00  0.00    -0.206 F 
ATOM     89  C   UNL A   1      46.524  27.893  36.784  1.00  0.00     0.022 A 
BRANCH  86  90
ATOM     90  S   UNL A   1      45.114  26.110  38.399  1.00  0.00     0.124 S 
ATOM     91  O   UNL A   1      46.510  25.805  38.698  1.00  0.00    -0.237 OA
ATOM     92  O   UNL A   1      44.388  26.848  39.428  1.00  0.00    -0.237 OA
ATOM     93  O   UNL A   1      44.364  25.025  37.769  1.00  0.00    -0.744 OA
ENDBRANCH  86  90
ENDBRANCH  60  83
ENDBRANCH  34  35
ENDBRANCH  26  29
ENDBRANCH  24  25
ENDBRANCH  23  24
ENDBRANCH  22  23
ENDBRANCH   1  22
TORSDOF 20
ENDMDL
MODEL 2
REMARK VINA RESULT:     -10.8      1.293      2.061
REMARK SMILES CC(C)OCCS(=O)(=O)N[C@H]1COC[C@@H]1C(=O)NCCCCNC(=O)c1ccc(-c2c3nc(c(-c4cc(S(=O)(=O)[O-])ccc4F)c4ccc([nH]4)c(-c4cc(S(=O)(=O)[O-])ccc4F)c4nc(c(-c5cc(S(=O)(=O)[O-])ccc5F)c5ccc2[nH]5)C=C4)C=C3)cc1
REMARK SMILES IDX 19 1 18 2 16 3 17 4 15 6 11 7 12 8 13 9 14 10 10 11 7 13
REMARK SMILES IDX 8 14 9 15 6 16 5 17 4 18 2 19 1 20 3 21 20 22 21 23 22 24
REMARK SMILES IDX 23 25 24 26 25 28 26 29 27 30 88 31 28 32 87 33 29 34 30 35
REMARK SMILES IDX 31 36 81 37 32 38 86 39 80 40 82 41 33 42 85 43 79 44 78 45
REMARK SMILES IDX 34 47 66 48 46 49 65 50 47 51 50 52 64 53 83 54 48 55 49 56
REMARK SMILES IDX 63 58 84 59 51 60 35 61 36 62 44 63 37 64 43 65 45 66 42 67
REMARK SMILES IDX 38 68 39 69 40 70 41 71 67 72 68 73 76 74 69 75 75 76 77 77
REMARK SMILES IDX 74 78 70 79 71 80 72 81 73 82 52 83 53 84 61 85 54 86 60 87
REMARK SMILES IDX 62 88 59 89 55 90 56 91 57 92 58 93
REMARK H PARENT 18 5 10 12 23 27 82 46 50 57
REMARK Flexibility Score: inf
ROOT
ATOM      1  C   UNL A   1      31.048  30.320  25.563  1.00  0.00     0.116 C 
ENDROOT
BRANCH   1   2
ATOM      2  N   UNL A   1      31.964  29.916  24.524  1.00  0.00    -0.356 N 
ATOM      3  C   UNL A   1      32.630  28.751  24.627  1.00  0.00     0.227 C 
ATOM      4  O   UNL A   1      33.816  28.821  24.972  1.00  0.00    -0.275 OA
ATOM      5  H   UNL A   1      32.101  30.494  23.738  1.00  0.00     0.163 HD
BRANCH   3   6
ATOM      6  C   UNL A   1      31.955  27.381  24.444  1.00  0.00     0.124 C 
ATOM      7  C   UNL A   1      30.810  26.787  22.920  1.00  0.00     0.110 C 
ATOM      8  C   UNL A   1      29.359  25.625  23.755  1.00  0.00     0.181 C 
ATOM      9  O   UNL A   1      29.619  25.646  25.631  1.00  0.00    -0.379 OA
ATOM     10  C   UNL A   1      31.166  26.647  26.116  1.00  0.00     0.175 C 
BRANCH   7  11
ATOM     11  N   UNL A   1      31.711  26.708  21.721  1.00  0.00    -0.209 NA
ATOM     12  H   UNL A   1      31.080  26.568  20.933  1.00  0.00     0.141 HD
BRANCH  11  13
ATOM     13  S   UNL A   1      32.967  25.654  21.441  1.00  0.00     0.214 S 
ATOM     14  O   UNL A   1      34.125  26.224  22.081  1.00  0.00    -0.212 OA
ATOM     15  O   UNL A   1      32.964  25.547  19.993  1.00  0.00    -0.212 OA
BRANCH  13  16
ATOM     16  C   UNL A   1      32.606  23.976  22.052  1.00  0.00     0.182 C 
BRANCH  16  17
ATOM     17  C   UNL A   1      32.335  23.558  23.515  1.00  0.00     0.178 C 
BRANCH  17  18
ATOM     18  O   UNL A   1      33.235  23.679  24.657  1.00  0.00    -0.378 OA
BRANCH  18  19
ATOM     19  C   UNL A   1      34.813  23.876  24.648  1.00  0.00     0.112 C 
ATOM     20  C   UNL A   1      36.229  22.941  23.245  1.00  0.00     0.038 C 
ATOM     21  C   UNL A   1      34.710  25.347  25.489  1.00  0.00     0.038 C 
ENDBRANCH  18  19
ENDBRANCH  17  18
ENDBRANCH  16  17
ENDBRANCH  13  16
ENDBRANCH  11  13
ENDBRANCH   7  11
ENDBRANCH   3   6
ENDBRANCH   1   2
BRANCH   1  22
ATOM     22  C   UNL A   1      31.607  31.480  26.398  1.00  0.00     0.023 C 
BRANCH  22  23
ATOM     23  C   UNL A   1      32.789  31.098  27.289  1.00  0.00     0.023 C 
BRANCH  23  24
ATOM     24  C   UNL A   1      33.768  32.234  27.524  1.00  0.00     0.116 C 
BRANCH  24  25
ATOM     25  N   UNL A   1      33.101  33.511  27.759  1.00  0.00    -0.352 N 
ATOM     26  C   UNL A   1      33.421  34.446  28.707  1.00  0.00     0.251 C 
ATOM     27  H   UNL A   1      32.339  33.722  27.173  1.00  0.00     0.163 HD
ATOM     28  O   UNL A   1      32.783  35.483  28.824  1.00  0.00    -0.269 OA
BRANCH  26  29
ATOM     29  C   UNL A   1      34.518  34.095  29.613  1.00  0.00     0.039 A 
ATOM     30  C   UNL A   1      34.234  33.230  30.667  1.00  0.00     0.014 A 
ATOM     31  C   UNL A   1      35.829  34.420  29.255  1.00  0.00     0.014 A 
ATOM     32  C   UNL A   1      35.289  32.658  31.364  1.00  0.00     0.010 A 
ATOM     33  C   UNL A   1      36.875  33.769  29.889  1.00  0.00     0.010 A 
ATOM     34  C   UNL A   1      36.614  32.900  30.961  1.00  0.00    -0.014 A 
BRANCH  34  35
ATOM     35  C   UNL A   1      37.745  32.295  31.699  1.00  0.00     0.031 A 
ATOM     36  C   UNL A   1      38.542  31.209  31.037  1.00  0.00     0.074 A 
ATOM     37  C   UNL A   1      38.034  32.708  32.949  1.00  0.00     0.049 A 
ATOM     38  N   UNL A   1      39.542  30.513  31.510  1.00  0.00    -0.248 NA
ATOM     39  C   UNL A   1      38.139  30.832  29.672  1.00  0.00     0.031 C 
ATOM     40  C   UNL A   1      37.304  33.737  33.692  1.00  0.00     0.029 A 
ATOM     41  N   UNL A   1      39.021  32.313  33.814  1.00  0.00    -0.354 N 
ATOM     42  C   UNL A   1      39.875  29.611  30.506  1.00  0.00     0.074 A 
ATOM     43  C   UNL A   1      38.922  29.792  29.436  1.00  0.00     0.031 C 
ATOM     44  C   UNL A   1      37.892  33.918  34.885  1.00  0.00     0.029 A 
ATOM     45  C   UNL A   1      39.005  32.982  35.017  1.00  0.00     0.049 A 
ATOM     46  H   UNL A   1      39.682  31.617  33.596  1.00  0.00     0.167 HD
ATOM     47  C   UNL A   1      40.905  28.731  30.472  1.00  0.00     0.034 A 
ATOM     48  C   UNL A   1      39.790  32.842  36.103  1.00  0.00     0.034 A 
ATOM     49  C   UNL A   1      41.847  28.578  31.549  1.00  0.00     0.049 A 
ATOM     50  C   UNL A   1      40.901  31.822  36.059  1.00  0.00     0.074 A 
ATOM     51  C   UNL A   1      42.954  27.752  31.610  1.00  0.00     0.029 A 
ATOM     52  N   UNL A   1      41.786  29.256  32.761  1.00  0.00    -0.354 N 
ATOM     53  N   UNL A   1      41.236  31.006  35.085  1.00  0.00    -0.248 NA
ATOM     54  C   UNL A   1      41.746  31.710  37.254  1.00  0.00     0.031 C 
ATOM     55  C   UNL A   1      43.511  27.865  32.887  1.00  0.00     0.029 A 
ATOM     56  C   UNL A   1      42.815  28.838  33.588  1.00  0.00     0.049 A 
ATOM     57  H   UNL A   1      41.113  29.934  32.995  1.00  0.00     0.167 HD
ATOM     58  C   UNL A   1      42.354  30.311  35.538  1.00  0.00     0.074 A 
ATOM     59  C   UNL A   1      42.642  30.814  36.866  1.00  0.00     0.031 C 
ATOM     60  C   UNL A   1      43.083  29.351  34.913  1.00  0.00     0.034 A 
BRANCH  47  61
ATOM     61  C   UNL A   1      41.032  27.858  29.247  1.00  0.00     0.023 A 
ATOM     62  C   UNL A   1      42.045  28.062  28.292  1.00  0.00     0.031 A 
ATOM     63  C   UNL A   1      40.104  26.829  29.011  1.00  0.00     0.131 A 
ATOM     64  C   UNL A   1      42.058  27.301  27.114  1.00  0.00     0.055 A 
ATOM     65  C   UNL A   1      40.180  26.015  27.881  1.00  0.00     0.041 A 
ATOM     66  F   UNL A   1      39.097  26.607  29.870  1.00  0.00    -0.206 F 
ATOM     67  C   UNL A   1      41.151  26.259  26.915  1.00  0.00     0.022 A 
BRANCH  64  68
ATOM     68  S   UNL A   1      43.176  27.801  25.775  1.00  0.00     0.124 S 
ATOM     69  O   UNL A   1      42.258  27.887  24.641  1.00  0.00    -0.237 OA
ATOM     70  O   UNL A   1      43.709  29.067  26.264  1.00  0.00    -0.237 OA
ATOM     71  O   UNL A   1      44.138  26.703  25.704  1.00  0.00    -0.744 OA
ENDBRANCH  64  68
ENDBRANCH  47  61
BRANCH  48  72
ATOM     72  C   UNL A   1      39.551  33.665  37.325  1.00  0.00     0.023 A 
ATOM     73  C   UNL A   1      38.838  33.152  38.420  1.00  0.00     0.031 A 
ATOM     74  C   UNL A   1      39.991  35.000  37.396  1.00  0.00     0.131 A 
ATOM     75  C   UNL A   1      38.537  33.982  39.511  1.00  0.00     0.055 A 
ATOM     76  C   UNL A   1      39.745  35.801  38.511  1.00  0.00     0.041 A 
ATOM     77  F   UNL A   1      40.676  35.544  36.377  1.00  0.00    -0.206 F 
ATOM     78  C   UNL A   1      39.000  35.298  39.572  1.00  0.00     0.022 A 
BRANCH  75  79
ATOM     79  S   UNL A   1      37.437  33.348  40.808  1.00  0.00     0.124 S 
ATOM     80  O   UNL A   1      36.380  32.727  40.019  1.00  0.00    -0.237 OA
ATOM     81  O   UNL A   1      38.316  32.438  41.534  1.00  0.00    -0.237 OA
ATOM     82  O   UNL A   1      37.046  34.551  41.539  1.00  0.00    -0.744 OA
ENDBRANCH  75  79
ENDBRANCH  48  72
BRANCH  60  83
ATOM     83  C   UNL A   1      44.301  28.826  35.634  1.00  0.00     0.023 A 
ATOM     84  C   UNL A   1      44.219  27.791  36.581  1.00  0.00     0.031 A 
ATOM     85  C   UNL A   1      45.568  29.370  35.357  1.00  0.00     0.131 A 
ATOM     86  C   UNL A   1      45.374  27.370  37.256  1.00  0.00     0.055 A 
ATOM     87  C   UNL A   1      46.724  28.896  35.976  1.00  0.00     0.041 A 
ATOM     88  F   UNL A   1      45.706  30.365  34.466  1.00  0.00    -0.206 F 
ATOM     89  C   UNL A   1      46.630  27.900  36.942  1.00  0.00     0.022 A 
BRANCH  86  90
ATOM     90  S   UNL A   1      45.204  26.191  38.622  1.00  0.00     0.124 S 
ATOM     91  O   UNL A   1      44.729  24.996  37.932  1.00  0.00    -0.237 OA
ATOM     92  O   UNL A   1      46.563  26.125  39.151  1.00  0.00    -0.237 OA
ATOM     93  O   UNL A   1      44.226  26.827  39.503  1.00  0.00    -0.744 OA
ENDBRANCH  86  90
ENDBRANCH  60  83
ENDBRANCH  34  35
ENDBRANCH  26  29
ENDBRANCH  24  25
ENDBRANCH  23  24
ENDBRANCH  22  23
ENDBRANCH   1  22
TORSDOF 20
ENDMDL
MODEL 3
REMARK VINA RESULT:     -10.6      3.288      8.816
REMARK SMILES CC(C)OCCS(=O)(=O)N[C@H]1COC[C@@H]1C(=O)NCCCCNC(=O)c1ccc(-c2c3nc(c(-c4cc(S(=O)(=O)[O-])ccc4F)c4ccc([nH]4)c(-c4cc(S(=O)(=O)[O-])ccc4F)c4nc(c(-c5cc(S(=O)(=O)[O-])ccc5F)c5ccc2[nH]5)C=C4)C=C3)cc1
REMARK SMILES IDX 19 1 18 2 16 3 17 4 15 6 11 7 12 8 13 9 14 10 10 11 7 13
REMARK SMILES IDX 8 14 9 15 6 16 5 17 4 18 2 19 1 20 3 21 20 22 21 23 22 24
REMARK SMILES IDX 23 25 24 26 25 28 26 29 27 30 88 31 28 32 87 33 29 34 30 35
REMARK SMILES IDX 31 36 81 37 32 38 86 39 80 40 82 41 33 42 85 43 79 44 78 45
REMARK SMILES IDX 34 47 66 48 46 49 65 50 47 51 50 52 64 53 83 54 48 55 49 56
REMARK SMILES IDX 63 58 84 59 51 60 35 61 36 62 44 63 37 64 43 65 45 66 42 67
REMARK SMILES IDX 38 68 39 69 40 70 41 71 67 72 68 73 76 74 69 75 75 76 77 77
REMARK SMILES IDX 74 78 70 79 71 80 72 81 73 82 52 83 53 84 61 85 54 86 60 87
REMARK SMILES IDX 62 88 59 89 55 90 56 91 57 92 58 93
REMARK H PARENT 18 5 10 12 23 27 82 46 50 57
REMARK Flexibility Score: inf
ROOT
ATOM      1  C   UNL A   1      32.845  28.635  22.866  1.00  0.00     0.116 C 
ENDROOT
BRANCH   1   2
ATOM      2  N   UNL A   1      31.650  27.851  22.664  1.00  0.00    -0.356 N 
ATOM      3  C   UNL A   1      31.724  26.507  22.624  1.00  0.00     0.227 C 
ATOM      4  O   UNL A   1      31.671  25.985  21.504  1.00  0.00    -0.275 OA
ATOM      5  H   UNL A   1      30.780  28.300  22.555  1.00  0.00     0.163 HD
BRANCH   3   6
ATOM      6  C   UNL A   1      31.974  25.645  23.873  1.00  0.00     0.124 C 
ATOM      7  C   UNL A   1      32.192  23.662  23.953  1.00  0.00     0.110 C 
ATOM      8  C   UNL A   1      31.271  23.087  25.678  1.00  0.00     0.181 C 
ATOM      9  O   UNL A   1      30.508  24.634  26.461  1.00  0.00    -0.379 OA
ATOM     10  C   UNL A   1      30.912  26.203  25.458  1.00  0.00     0.175 C 
BRANCH   7  11
ATOM     11  N   UNL A   1      33.483  23.350  23.253  1.00  0.00    -0.209 NA
ATOM     12  H   UNL A   1      33.334  22.431  22.836  1.00  0.00     0.141 HD
BRANCH  11  13
ATOM     13  S   UNL A   1      35.014  23.271  23.898  1.00  0.00     0.214 S 
ATOM     14  O   UNL A   1      35.171  24.448  24.714  1.00  0.00    -0.212 OA
ATOM     15  O   UNL A   1      35.842  23.141  22.712  1.00  0.00    -0.212 OA
BRANCH  13  16
ATOM     16  C   UNL A   1      35.283  21.740  24.848  1.00  0.00     0.182 C 
BRANCH  16  17
ATOM     17  C   UNL A   1      34.216  20.697  25.250  1.00  0.00     0.178 C 
BRANCH  17  18
ATOM     18  O   UNL A   1      34.010  19.369  24.683  1.00  0.00    -0.378 OA
BRANCH  18  19
ATOM     19  C   UNL A   1      32.979  18.933  23.553  1.00  0.00     0.112 C 
ATOM     20  C   UNL A   1      31.951  20.278  22.147  1.00  0.00     0.038 C 
ATOM     21  C   UNL A   1      33.573  17.343  23.519  1.00  0.00     0.038 C 
ENDBRANCH  18  19
ENDBRANCH  17  18
ENDBRANCH  16  17
ENDBRANCH  13  16
ENDBRANCH  11  13
ENDBRANCH   7  11
ENDBRANCH   3   6
ENDBRANCH   1   2
BRANCH   1  22
ATOM     22  C   UNL A   1      32.859  29.308  24.245  1.00  0.00     0.023 C 
BRANCH  22  23
ATOM     23  C   UNL A   1      33.775  28.630  25.264  1.00  0.00     0.023 C 
BRANCH  23  24
ATOM     24  C   UNL A   1      33.390  28.901  26.707  1.00  0.00     0.116 C 
BRANCH  24  25
ATOM     25  N   UNL A   1      33.415  30.321  27.039  1.00  0.00    -0.352 N 
ATOM     26  C   UNL A   1      34.431  31.008  27.647  1.00  0.00     0.251 C 
ATOM     27  H   UNL A   1      32.615  30.842  26.799  1.00  0.00     0.163 HD
ATOM     28  O   UNL A   1      34.341  32.203  27.890  1.00  0.00    -0.269 OA
BRANCH  26  29
ATOM     29  C   UNL A   1      35.592  30.212  28.054  1.00  0.00     0.039 A 
ATOM     30  C   UNL A   1      36.721  30.253  27.239  1.00  0.00     0.014 A 
ATOM     31  C   UNL A   1      35.625  29.657  29.337  1.00  0.00     0.014 A 
ATOM     32  C   UNL A   1      37.918  29.748  27.731  1.00  0.00     0.010 A 
ATOM     33  C   UNL A   1      36.842  29.249  29.856  1.00  0.00     0.010 A 
ATOM     34  C   UNL A   1      37.993  29.271  29.051  1.00  0.00    -0.014 A 
BRANCH  34  35
ATOM     35  C   UNL A   1      39.263  28.731  29.582  1.00  0.00     0.031 A 
ATOM     36  C   UNL A   1      39.847  29.344  30.823  1.00  0.00     0.074 A 
ATOM     37  C   UNL A   1      39.885  27.718  28.947  1.00  0.00     0.049 A 
ATOM     38  N   UNL A   1      40.965  29.060  31.436  1.00  0.00    -0.248 NA
ATOM     39  C   UNL A   1      39.088  30.447  31.435  1.00  0.00     0.031 C 
ATOM     40  C   UNL A   1      39.416  27.071  27.720  1.00  0.00     0.029 A 
ATOM     41  N   UNL A   1      41.046  27.054  29.248  1.00  0.00    -0.354 N 
ATOM     42  C   UNL A   1      41.047  29.957  32.495  1.00  0.00     0.074 A 
ATOM     43  C   UNL A   1      39.911  30.844  32.392  1.00  0.00     0.031 C 
ATOM     44  C   UNL A   1      40.260  26.079  27.396  1.00  0.00     0.029 A 
ATOM     45  C   UNL A   1      41.360  26.054  28.356  1.00  0.00     0.049 A 
ATOM     46  H   UNL A   1      41.604  27.271  30.029  1.00  0.00     0.167 HD
ATOM     47  C   UNL A   1      41.972  30.013  33.482  1.00  0.00     0.034 A 
ATOM     48  C   UNL A   1      42.422  25.225  28.313  1.00  0.00     0.034 A 
ATOM     49  C   UNL A   1      43.090  29.110  33.568  1.00  0.00     0.049 A 
ATOM     50  C   UNL A   1      43.464  25.339  29.397  1.00  0.00     0.074 A 
ATOM     51  C   UNL A   1      44.066  29.043  34.544  1.00  0.00     0.029 A 
ATOM     52  N   UNL A   1      43.388  28.124  32.635  1.00  0.00    -0.354 N 
ATOM     53  N   UNL A   1      43.506  26.161  30.422  1.00  0.00    -0.248 NA
ATOM     54  C   UNL A   1      44.597  24.407  29.328  1.00  0.00     0.031 C 
ATOM     55  C   UNL A   1      45.001  28.078  34.158  1.00  0.00     0.029 A 
ATOM     56  C   UNL A   1      44.554  27.470  32.994  1.00  0.00     0.049 A 
ATOM     57  H   UNL A   1      42.849  27.920  31.837  1.00  0.00     0.167 HD
ATOM     58  C   UNL A   1      44.650  25.819  31.137  1.00  0.00     0.074 A 
ATOM     59  C   UNL A   1      45.261  24.708  30.434  1.00  0.00     0.031 C 
ATOM     60  C   UNL A   1      45.149  26.366  32.276  1.00  0.00     0.034 A 
BRANCH  47  61
ATOM     61  C   UNL A   1      41.822  31.105  34.515  1.00  0.00     0.023 A 
ATOM     62  C   UNL A   1      40.773  31.100  35.453  1.00  0.00     0.031 A 
ATOM     63  C   UNL A   1      42.719  32.186  34.538  1.00  0.00     0.131 A 
ATOM     64  C   UNL A   1      40.604  32.190  36.319  1.00  0.00     0.055 A 
ATOM     65  C   UNL A   1      42.600  33.221  35.466  1.00  0.00     0.041 A 
ATOM     66  F   UNL A   1      43.721  32.262  33.649  1.00  0.00    -0.206 F 
ATOM     67  C   UNL A   1      41.527  33.236  36.353  1.00  0.00     0.022 A 
BRANCH  64  68
ATOM     68  S   UNL A   1      39.073  32.296  37.286  1.00  0.00     0.124 S 
ATOM     69  O   UNL A   1      38.418  31.036  36.940  1.00  0.00    -0.237 OA
ATOM     70  O   UNL A   1      39.569  32.405  38.653  1.00  0.00    -0.237 OA
ATOM     71  O   UNL A   1      38.418  33.493  36.760  1.00  0.00    -0.744 OA
ENDBRANCH  64  68
ENDBRANCH  47  61
BRANCH  48  72
ATOM     72  C   UNL A   1      42.567  24.233  27.208  1.00  0.00     0.023 A 
ATOM     73  C   UNL A   1      41.925  22.984  27.262  1.00  0.00     0.031 A 
ATOM     74  C   UNL A   1      43.393  24.498  26.101  1.00  0.00     0.131 A 
ATOM     75  C   UNL A   1      42.164  22.030  26.261  1.00  0.00     0.055 A 
ATOM     76  C   UNL A   1      43.575  23.570  25.075  1.00  0.00     0.041 A 
ATOM     77  F   UNL A   1      44.033  25.674  25.997  1.00  0.00    -0.206 F 
ATOM     78  C   UNL A   1      42.971  22.320  25.158  1.00  0.00     0.022 A 
BRANCH  75  79
ATOM     79  S   UNL A   1      41.487  20.360  26.473  1.00  0.00     0.124 S 
ATOM     80  O   UNL A   1      40.069  20.583  26.218  1.00  0.00    -0.237 OA
ATOM     81  O   UNL A   1      42.212  19.608  25.455  1.00  0.00    -0.237 OA
ATOM     82  O   UNL A   1      41.829  20.028  27.854  1.00  0.00    -0.744 OA
ENDBRANCH  75  79
ENDBRANCH  48  72
BRANCH  60  83
ATOM     83  C   UNL A   1      46.383  25.729  32.867  1.00  0.00     0.023 A 
ATOM     84  C   UNL A   1      46.312  24.610  33.715  1.00  0.00     0.031 A 
ATOM     85  C   UNL A   1      47.655  26.249  32.563  1.00  0.00     0.131 A 
ATOM     86  C   UNL A   1      47.486  24.083  34.274  1.00  0.00     0.055 A 
ATOM     87  C   UNL A   1      48.824  25.675  33.062  1.00  0.00     0.041 A 
ATOM     88  F   UNL A   1      47.783  27.319  31.763  1.00  0.00    -0.206 F 
ATOM     89  C   UNL A   1      48.742  24.593  33.934  1.00  0.00     0.022 A 
BRANCH  86  90
ATOM     90  S   UNL A   1      47.345  22.786  35.531  1.00  0.00     0.124 S 
ATOM     91  O   UNL A   1      46.209  23.251  36.320  1.00  0.00    -0.237 OA
ATOM     92  O   UNL A   1      47.115  21.591  34.725  1.00  0.00    -0.237 OA
ATOM     93  O   UNL A   1      48.636  22.831  36.217  1.00  0.00    -0.744 OA
ENDBRANCH  86  90
ENDBRANCH  60  83
ENDBRANCH  34  35
ENDBRANCH  26  29
ENDBRANCH  24  25
ENDBRANCH  23  24
ENDBRANCH  22  23
ENDBRANCH   1  22
TORSDOF 20
ENDMDL
