MODEL 1
REMARK VINA RESULT:     -11.4      0.000      0.000
REMARK SMILES C[C@]12C[C@@H](O)[C@H]3[C@@H](CCC4=CC(=O)C=C[C@]43C)[C@H]1CC[C@]2(O)C(=O)COC(=O)CCC(=O)NCCCCNC(=O)c1ccc(-c2c3nc(c(-c4cc(S(=O)(=O)[O-])ccc4F)c4ccc([nH]4)c(-c4cc(S(=O)(=O)[O-])ccc4F)c4nc(c(-c5cc(S(=O)(=O)[O-])ccc5F)c5ccc2[nH]5)C=C4)C=C3)cc1
REMARK SMILES IDX 31 1 32 2 33 3 30 5 29 6 27 7 28 8 26 9 25 10 23 11 24 12
REMARK SMILES IDX 21 13 17 14 16 15 15 16 10 17 6 18 14 19 11 20 9 21 7 22
REMARK SMILES IDX 4 23 12 24 8 25 18 26 3 27 13 28 2 29 19 30 1 31 20 32 5 33
REMARK SMILES IDX 22 35 34 37 35 38 36 39 37 40 38 41 39 42 40 44 41 45 42 46
REMARK SMILES IDX 103 47 43 48 102 49 44 50 45 51 46 52 96 53 47 54 101 55
REMARK SMILES IDX 95 56 97 57 48 58 100 59 94 60 93 61 49 63 81 64 61 65 80 66
REMARK SMILES IDX 62 67 65 68 79 69 98 70 63 71 64 72 78 74 99 75 66 76 50 77
REMARK SMILES IDX 51 78 59 79 52 80 58 81 60 82 57 83 53 84 54 85 55 86 56 87
REMARK SMILES IDX 82 88 83 89 91 90 84 91 90 92 92 93 89 94 85 95 86 96 87 97
REMARK SMILES IDX 88 98 67 99 68 100 76 101 69 102 75 103 77 104 74 105 70 106
REMARK SMILES IDX 71 107 72 108 73 109
REMARK H PARENT 33 4 5 34 22 36 38 43 97 62 65 73
REMARK Flexibility Score: inf
ROOT
ATOM      1  C   UNL A   1      40.003  25.741  26.887  1.00  0.00     0.220 C 
ATOM      2  O   UNL A   1      40.639  25.697  25.832  1.00  0.00    -0.275 OA
ATOM      3  N   UNL A   1      39.963  26.914  27.572  1.00  0.00    -0.356 N 
ATOM      4  H   UNL A   1      40.501  27.636  27.175  1.00  0.00     0.163 HD
ENDROOT
BRANCH   1   5
ATOM      5  C   UNL A   1      39.260  24.523  27.381  1.00  0.00     0.111 C 
BRANCH   5   6
ATOM      6  C   UNL A   1      38.123  24.082  26.472  1.00  0.00     0.132 C 
BRANCH   6   7
ATOM      7  C   UNL A   1      38.319  22.654  26.031  1.00  0.00     0.306 C 
ATOM      8  O   UNL A   1      39.323  21.996  26.284  1.00  0.00    -0.252 OA
BRANCH   7   9
ATOM      9  O   UNL A   1      37.313  22.230  25.222  1.00  0.00    -0.458 OA
BRANCH   9  10
ATOM     10  C   UNL A   1      36.589  21.091  25.668  1.00  0.00     0.311 C 
BRANCH  10  11
ATOM     11  C   UNL A   1      35.127  20.779  25.279  1.00  0.00     0.202 C 
ATOM     12  O   UNL A   1      34.920  19.815  24.530  1.00  0.00    -0.293 OA
BRANCH  11  13
ATOM     13  C   UNL A   1      33.964  21.724  25.679  1.00  0.00     0.132 C 
ATOM     14  C   UNL A   1      29.322  26.343  24.545  1.00  0.00     0.021 C 
ATOM     15  C   UNL A   1      30.819  26.558  24.146  1.00  0.00     0.013 C 
ATOM     16  C   UNL A   1      30.833  26.897  22.649  1.00  0.00    -0.012 C 
ATOM     17  C   UNL A   1      31.287  27.828  24.892  1.00  0.00    -0.056 C 
ATOM     18  C   UNL A   1      31.578  25.220  24.566  1.00  0.00     0.035 C 
ATOM     19  C   UNL A   1      30.502  28.118  22.190  1.00  0.00     0.048 C 
ATOM     20  C   UNL A   1      30.919  29.054  24.464  1.00  0.00     0.052 C 
ATOM     21  C   UNL A   1      32.296  27.786  26.001  1.00  0.00     0.032 C 
ATOM     22  C   UNL A   1      32.966  25.476  25.190  1.00  0.00    -0.000 C 
ATOM     23  C   UNL A   1      31.667  24.120  23.484  1.00  0.00     0.119 C 
ATOM     24  C   UNL A   1      30.247  29.211  23.157  1.00  0.00     0.178 C 
ATOM     25  C   UNL A   1      32.789  26.411  26.394  1.00  0.00     0.009 C 
ATOM     26  C   UNL A   1      33.749  24.211  25.623  1.00  0.00     0.002 C 
ATOM     27  C   UNL A   1      32.253  22.840  24.074  1.00  0.00     0.042 C 
ATOM     28  O   UNL A   1      29.618  30.219  22.868  1.00  0.00    -0.290 OA
ATOM     29  C   UNL A   1      33.661  22.959  24.698  1.00  0.00     0.009 C 
ATOM     30  C   UNL A   1      33.457  23.650  27.016  1.00  0.00     0.008 C 
ATOM     31  C   UNL A   1      34.689  23.127  23.563  1.00  0.00     0.015 C 
ATOM     32  C   UNL A   1      34.314  22.393  27.023  1.00  0.00     0.044 C 
BRANCH  23  33
ATOM     33  O   UNL A   1      30.377  23.734  23.003  1.00  0.00    -0.393 OA
ATOM     34  H   UNL A   1      30.434  22.856  22.596  1.00  0.00     0.210 HD
ENDBRANCH  23  33
BRANCH  13  35
ATOM     35  O   UNL A   1      32.752  21.026  25.928  1.00  0.00    -0.381 OA
ATOM     36  H   UNL A   1      32.389  20.699  25.090  1.00  0.00     0.212 HD
ENDBRANCH  13  35
ENDBRANCH  11  13
ENDBRANCH  10  11
ENDBRANCH   9  10
ENDBRANCH   7   9
ENDBRANCH   6   7
ENDBRANCH   5   6
ENDBRANCH   1   5
BRANCH   3  37
ATOM     37  C   UNL A   1      39.263  27.286  28.791  1.00  0.00     0.116 C 
BRANCH  37  38
ATOM     38  C   UNL A   1      38.142  28.295  28.514  1.00  0.00     0.023 C 
BRANCH  38  39
ATOM     39  C   UNL A   1      38.624  29.700  28.151  1.00  0.00     0.023 C 
BRANCH  39  40
ATOM     40  C   UNL A   1      38.588  30.742  29.264  1.00  0.00     0.116 C 
BRANCH  40  41
ATOM     41  N   UNL A   1      37.429  30.661  30.138  1.00  0.00    -0.352 N 
ATOM     42  C   UNL A   1      37.368  30.156  31.424  1.00  0.00     0.251 C 
ATOM     43  H   UNL A   1      36.584  31.007  29.769  1.00  0.00     0.163 HD
ATOM     44  O   UNL A   1      36.292  30.112  32.014  1.00  0.00    -0.269 OA
BRANCH  42  45
ATOM     45  C   UNL A   1      38.594  29.597  32.048  1.00  0.00     0.039 A 
ATOM     46  C   UNL A   1      38.680  28.213  32.229  1.00  0.00     0.014 A 
ATOM     47  C   UNL A   1      39.696  30.409  32.330  1.00  0.00     0.014 A 
ATOM     48  C   UNL A   1      39.912  27.632  32.545  1.00  0.00     0.010 A 
ATOM     49  C   UNL A   1      40.936  29.824  32.575  1.00  0.00     0.010 A 
ATOM     50  C   UNL A   1      41.065  28.428  32.638  1.00  0.00    -0.014 A 
BRANCH  50  51
ATOM     51  C   UNL A   1      42.426  27.827  32.706  1.00  0.00     0.031 A 
ATOM     52  C   UNL A   1      43.101  27.622  34.032  1.00  0.00     0.074 A 
ATOM     53  C   UNL A   1      43.095  27.581  31.560  1.00  0.00     0.049 A 
ATOM     54  N   UNL A   1      44.328  27.248  34.288  1.00  0.00    -0.248 NA
ATOM     55  C   UNL A   1      42.295  27.912  35.226  1.00  0.00     0.031 C 
ATOM     56  C   UNL A   1      42.566  27.795  30.210  1.00  0.00     0.029 A 
ATOM     57  N   UNL A   1      44.369  27.119  31.341  1.00  0.00    -0.354 N 
ATOM     58  C   UNL A   1      44.450  27.271  35.673  1.00  0.00     0.074 A 
ATOM     59  C   UNL A   1      43.186  27.753  36.194  1.00  0.00     0.031 C 
ATOM     60  C   UNL A   1      43.499  27.450  29.309  1.00  0.00     0.029 A 
ATOM     61  C   UNL A   1      44.709  27.035  30.010  1.00  0.00     0.049 A 
ATOM     62  H   UNL A   1      44.984  26.872  32.070  1.00  0.00     0.167 HD
ATOM     63  C   UNL A   1      45.510  26.904  36.437  1.00  0.00     0.034 A 
ATOM     64  C   UNL A   1      45.867  26.679  29.419  1.00  0.00     0.034 A 
ATOM     65  C   UNL A   1      46.758  26.417  35.898  1.00  0.00     0.049 A 
ATOM     66  C   UNL A   1      47.032  26.279  30.288  1.00  0.00     0.074 A 
ATOM     67  C   UNL A   1      47.880  25.978  36.579  1.00  0.00     0.029 A 
ATOM     68  N   UNL A   1      47.051  26.308  34.544  1.00  0.00    -0.354 N 
ATOM     69  N   UNL A   1      47.115  26.263  31.598  1.00  0.00    -0.248 NA
ATOM     70  C   UNL A   1      48.252  25.838  29.600  1.00  0.00     0.031 C 
ATOM     71  C   UNL A   1      48.868  25.658  35.642  1.00  0.00     0.029 A 
ATOM     72  C   UNL A   1      48.341  25.829  34.372  1.00  0.00     0.049 A 
ATOM     73  H   UNL A   1      46.433  26.539  33.813  1.00  0.00     0.167 HD
ATOM     74  C   UNL A   1      48.385  25.773  31.889  1.00  0.00     0.074 A 
ATOM     75  C   UNL A   1      49.028  25.501  30.621  1.00  0.00     0.031 C 
ATOM     76  C   UNL A   1      48.966  25.562  33.098  1.00  0.00     0.034 A 
BRANCH  63  77
ATOM     77  C   UNL A   1      45.361  27.041  37.934  1.00  0.00     0.023 A 
ATOM     78  C   UNL A   1      45.764  28.207  38.608  1.00  0.00     0.031 A 
ATOM     79  C   UNL A   1      44.850  25.982  38.704  1.00  0.00     0.131 A 
ATOM     80  C   UNL A   1      45.733  28.253  40.009  1.00  0.00     0.055 A 
ATOM     81  C   UNL A   1      44.739  26.068  40.093  1.00  0.00     0.041 A 
ATOM     82  F   UNL A   1      44.466  24.835  38.121  1.00  0.00    -0.206 F 
ATOM     83  C   UNL A   1      45.199  27.202  40.757  1.00  0.00     0.022 A 
BRANCH  80  84
ATOM     84  S   UNL A   1      46.550  29.641  40.844  1.00  0.00     0.124 S 
ATOM     85  O   UNL A   1      45.435  30.567  41.029  1.00  0.00    -0.237 OA
ATOM     86  O   UNL A   1      47.070  29.020  42.056  1.00  0.00    -0.237 OA
ATOM     87  O   UNL A   1      47.558  30.076  39.882  1.00  0.00    -0.744 OA
ENDBRANCH  80  84
ENDBRANCH  63  77
BRANCH  64  88
ATOM     88  C   UNL A   1      45.993  26.681  27.933  1.00  0.00     0.023 A 
ATOM     89  C   UNL A   1      45.835  25.498  27.194  1.00  0.00     0.031 A 
ATOM     90  C   UNL A   1      46.311  27.858  27.232  1.00  0.00     0.131 A 
ATOM     91  C   UNL A   1      46.043  25.506  25.805  1.00  0.00     0.055 A 
ATOM     92  C   UNL A   1      46.468  27.871  25.844  1.00  0.00     0.041 A 
ATOM     93  F   UNL A   1      46.464  29.019  27.889  1.00  0.00    -0.206 F 
ATOM     94  C   UNL A   1      46.347  26.686  25.124  1.00  0.00     0.022 A 
BRANCH  91  95
ATOM     95  S   UNL A   1      45.991  23.928  24.912  1.00  0.00     0.124 S 
ATOM     96  O   UNL A   1      44.591  23.861  24.508  1.00  0.00    -0.237 OA
ATOM     97  O   UNL A   1      46.957  24.155  23.843  1.00  0.00    -0.237 OA
ATOM     98  O   UNL A   1      46.398  22.953  25.922  1.00  0.00    -0.744 OA
ENDBRANCH  91  95
ENDBRANCH  64  88
BRANCH  76  99
ATOM     99  C   UNL A   1      50.344  24.950  33.097  1.00  0.00     0.023 A 
ATOM    100  C   UNL A   1      50.541  23.560  33.042  1.00  0.00     0.031 A 
ATOM    101  C   UNL A   1      51.479  25.778  33.158  1.00  0.00     0.131 A 
ATOM    102  C   UNL A   1      51.841  23.036  33.101  1.00  0.00     0.055 A 
ATOM    103  C   UNL A   1      52.772  25.255  33.161  1.00  0.00     0.041 A 
ATOM    104  F   UNL A   1      51.347  27.114  33.214  1.00  0.00    -0.206 F 
ATOM    105  C   UNL A   1      52.958  23.875  33.145  1.00  0.00     0.022 A 
BRANCH 102 106
ATOM    106  S   UNL A   1      52.053  21.238  33.201  1.00  0.00     0.124 S 
ATOM    107  O   UNL A   1      52.472  21.057  34.587  1.00  0.00    -0.237 OA
ATOM    108  O   UNL A   1      50.719  20.747  32.870  1.00  0.00    -0.237 OA
ATOM    109  O   UNL A   1      53.080  20.956  32.200  1.00  0.00    -0.744 OA
ENDBRANCH 102 106
ENDBRANCH  76  99
ENDBRANCH  50  51
ENDBRANCH  42  45
ENDBRANCH  40  41
ENDBRANCH  39  40
ENDBRANCH  38  39
ENDBRANCH  37  38
ENDBRANCH   3  37
TORSDOF 22
ENDMDL
MODEL 2
REMARK VINA RESULT:     -11.1      0.482      7.208
REMARK SMILES C[C@]12C[C@@H](O)[C@H]3[C@@H](CCC4=CC(=O)C=C[C@]43C)[C@H]1CC[C@]2(O)C(=O)COC(=O)CCC(=O)NCCCCNC(=O)c1ccc(-c2c3nc(c(-c4cc(S(=O)(=O)[O-])ccc4F)c4ccc([nH]4)c(-c4cc(S(=O)(=O)[O-])ccc4F)c4nc(c(-c5cc(S(=O)(=O)[O-])ccc5F)c5ccc2[nH]5)C=C4)C=C3)cc1
REMARK SMILES IDX 31 1 32 2 33 3 30 5 29 6 27 7 28 8 26 9 25 10 23 11 24 12
REMARK SMILES IDX 21 13 17 14 16 15 15 16 10 17 6 18 14 19 11 20 9 21 7 22
REMARK SMILES IDX 4 23 12 24 8 25 18 26 3 27 13 28 2 29 19 30 1 31 20 32 5 33
REMARK SMILES IDX 22 35 34 37 35 38 36 39 37 40 38 41 39 42 40 44 41 45 42 46
REMARK SMILES IDX 103 47 43 48 102 49 44 50 45 51 46 52 96 53 47 54 101 55
REMARK SMILES IDX 95 56 97 57 48 58 100 59 94 60 93 61 49 63 81 64 61 65 80 66
REMARK SMILES IDX 62 67 65 68 79 69 98 70 63 71 64 72 78 74 99 75 66 76 50 77
REMARK SMILES IDX 51 78 59 79 52 80 58 81 60 82 57 83 53 84 54 85 55 86 56 87
REMARK SMILES IDX 82 88 83 89 91 90 84 91 90 92 92 93 89 94 85 95 86 96 87 97
REMARK SMILES IDX 88 98 67 99 68 100 76 101 69 102 75 103 77 104 74 105 70 106
REMARK SMILES IDX 71 107 72 108 73 109
REMARK H PARENT 33 4 5 34 22 36 38 43 97 62 65 73
REMARK Flexibility Score: inf
ROOT
ATOM      1  C   UNL A   1      39.961  25.008  27.128  1.00  0.00     0.220 C 
ATOM      2  O   UNL A   1      40.809  24.690  26.293  1.00  0.00    -0.275 OA
ATOM      3  N   UNL A   1      40.149  26.149  27.842  1.00  0.00    -0.356 N 
ATOM      4  H   UNL A   1      40.997  26.612  27.653  1.00  0.00     0.163 HD
ENDROOT
BRANCH   1   5
ATOM      5  C   UNL A   1      38.727  24.160  27.325  1.00  0.00     0.111 C 
BRANCH   5   6
ATOM      6  C   UNL A   1      38.008  23.807  26.031  1.00  0.00     0.132 C 
BRANCH   6   7
ATOM      7  C   UNL A   1      38.218  22.354  25.686  1.00  0.00     0.306 C 
ATOM      8  O   UNL A   1      39.222  21.721  25.991  1.00  0.00    -0.252 OA
BRANCH   7   9
ATOM      9  O   UNL A   1      37.222  21.872  24.898  1.00  0.00    -0.458 OA
BRANCH   9  10
ATOM     10  C   UNL A   1      36.465  20.795  25.435  1.00  0.00     0.311 C 
BRANCH  10  11
ATOM     11  C   UNL A   1      34.969  20.548  25.140  1.00  0.00     0.202 C 
ATOM     12  O   UNL A   1      34.672  19.588  24.416  1.00  0.00    -0.293 OA
BRANCH  11  13
ATOM     13  C   UNL A   1      33.878  21.550  25.599  1.00  0.00     0.132 C 
ATOM     14  C   UNL A   1      29.378  26.357  24.693  1.00  0.00     0.021 C 
ATOM     15  C   UNL A   1      30.854  26.499  24.195  1.00  0.00     0.013 C 
ATOM     16  C   UNL A   1      30.784  26.817  22.695  1.00  0.00    -0.012 C 
ATOM     17  C   UNL A   1      31.425  27.757  24.887  1.00  0.00    -0.056 C 
ATOM     18  C   UNL A   1      31.580  25.135  24.586  1.00  0.00     0.035 C 
ATOM     19  C   UNL A   1      30.478  28.046  22.238  1.00  0.00     0.048 C 
ATOM     20  C   UNL A   1      31.084  28.993  24.464  1.00  0.00     0.052 C 
ATOM     21  C   UNL A   1      32.503  27.684  25.929  1.00  0.00     0.032 C 
ATOM     22  C   UNL A   1      33.015  25.336  25.115  1.00  0.00    -0.000 C 
ATOM     23  C   UNL A   1      31.549  24.017  23.518  1.00  0.00     0.119 C 
ATOM     24  C   UNL A   1      30.335  29.162  23.201  1.00  0.00     0.178 C 
ATOM     25  C   UNL A   1      32.959  26.294  26.311  1.00  0.00     0.009 C 
ATOM     26  C   UNL A   1      33.769  24.043  25.516  1.00  0.00     0.002 C 
ATOM     27  C   UNL A   1      32.115  22.719  24.090  1.00  0.00     0.042 C 
ATOM     28  O   UNL A   1      29.734  30.193  22.937  1.00  0.00    -0.290 OA
ATOM     29  C   UNL A   1      33.565  22.784  24.619  1.00  0.00     0.009 C 
ATOM     30  C   UNL A   1      33.544  23.515  26.934  1.00  0.00     0.008 C 
ATOM     31  C   UNL A   1      34.522  22.890  23.418  1.00  0.00     0.015 C 
ATOM     32  C   UNL A   1      34.344  22.221  26.905  1.00  0.00     0.044 C 
BRANCH  23  33
ATOM     33  O   UNL A   1      30.214  23.683  23.129  1.00  0.00    -0.393 OA
ATOM     34  H   UNL A   1      30.065  23.964  22.213  1.00  0.00     0.210 HD
ENDBRANCH  23  33
BRANCH  13  35
ATOM     35  O   UNL A   1      32.655  20.910  25.937  1.00  0.00    -0.381 OA
ATOM     36  H   UNL A   1      31.954  21.216  25.340  1.00  0.00     0.212 HD
ENDBRANCH  13  35
ENDBRANCH  11  13
ENDBRANCH  10  11
ENDBRANCH   9  10
ENDBRANCH   7   9
ENDBRANCH   6   7
ENDBRANCH   5   6
ENDBRANCH   1   5
BRANCH   3  37
ATOM     37  C   UNL A   1      39.314  26.805  28.836  1.00  0.00     0.116 C 
BRANCH  37  38
ATOM     38  C   UNL A   1      38.704  28.103  28.295  1.00  0.00     0.023 C 
BRANCH  38  39
ATOM     39  C   UNL A   1      39.438  29.377  28.717  1.00  0.00     0.023 C 
BRANCH  39  40
ATOM     40  C   UNL A   1      38.573  30.601  28.999  1.00  0.00     0.116 C 
BRANCH  40  41
ATOM     41  N   UNL A   1      37.402  30.343  29.821  1.00  0.00    -0.352 N 
ATOM     42  C   UNL A   1      37.359  29.824  31.102  1.00  0.00     0.251 C 
ATOM     43  H   UNL A   1      36.532  30.563  29.416  1.00  0.00     0.163 HD
ATOM     44  O   UNL A   1      36.277  29.617  31.644  1.00  0.00    -0.269 OA
BRANCH  42  45
ATOM     45  C   UNL A   1      38.626  29.446  31.779  1.00  0.00     0.039 A 
ATOM     46  C   UNL A   1      38.851  28.097  32.071  1.00  0.00     0.014 A 
ATOM     47  C   UNL A   1      39.634  30.387  32.004  1.00  0.00     0.014 A 
ATOM     48  C   UNL A   1      40.131  27.673  32.443  1.00  0.00     0.010 A 
ATOM     49  C   UNL A   1      40.924  29.955  32.304  1.00  0.00     0.010 A 
ATOM     50  C   UNL A   1      41.194  28.589  32.481  1.00  0.00    -0.014 A 
BRANCH  50  51
ATOM     51  C   UNL A   1      42.608  28.139  32.607  1.00  0.00     0.031 A 
ATOM     52  C   UNL A   1      43.423  27.839  31.382  1.00  0.00     0.074 A 
ATOM     53  C   UNL A   1      43.111  27.888  33.834  1.00  0.00     0.049 A 
ATOM     54  N   UNL A   1      44.614  27.306  31.289  1.00  0.00    -0.248 NA
ATOM     55  C   UNL A   1      42.796  28.147  30.089  1.00  0.00     0.031 C 
ATOM     56  C   UNL A   1      42.396  28.085  35.098  1.00  0.00     0.029 A 
ATOM     57  N   UNL A   1      44.331  27.393  34.224  1.00  0.00    -0.354 N 
ATOM     58  C   UNL A   1      44.877  27.199  29.928  1.00  0.00     0.074 A 
ATOM     59  C   UNL A   1      43.693  27.671  29.238  1.00  0.00     0.031 C 
ATOM     60  C   UNL A   1      43.193  27.733  36.118  1.00  0.00     0.029 A 
ATOM     61  C   UNL A   1      44.459  27.239  35.586  1.00  0.00     0.049 A 
ATOM     62  H   UNL A   1      45.048  27.167  33.587  1.00  0.00     0.167 HD
ATOM     63  C   UNL A   1      46.008  26.769  29.313  1.00  0.00     0.034 A 
ATOM     64  C   UNL A   1      45.472  26.744  36.324  1.00  0.00     0.034 A 
ATOM     65  C   UNL A   1      47.181  26.311  30.020  1.00  0.00     0.049 A 
ATOM     66  C   UNL A   1      46.717  26.268  35.619  1.00  0.00     0.074 A 
ATOM     67  C   UNL A   1      48.395  25.895  29.501  1.00  0.00     0.029 A 
ATOM     68  N   UNL A   1      47.288  26.208  31.402  1.00  0.00    -0.354 N 
ATOM     69  N   UNL A   1      46.967  26.217  34.331  1.00  0.00    -0.248 NA
ATOM     70  C   UNL A   1      47.819  25.796  36.467  1.00  0.00     0.031 C 
ATOM     71  C   UNL A   1      49.212  25.487  30.561  1.00  0.00     0.029 A 
ATOM     72  C   UNL A   1      48.536  25.714  31.749  1.00  0.00     0.049 A 
ATOM     73  H   UNL A   1      46.578  26.448  32.041  1.00  0.00     0.167 HD
ATOM     74  C   UNL A   1      48.270  25.742  34.218  1.00  0.00     0.074 A 
ATOM     75  C   UNL A   1      48.755  25.529  35.566  1.00  0.00     0.031 C 
ATOM     76  C   UNL A   1      49.003  25.509  33.099  1.00  0.00     0.034 A 
BRANCH  63  77
ATOM     77  C   UNL A   1      46.010  26.756  27.802  1.00  0.00     0.023 A 
ATOM     78  C   UNL A   1      45.853  25.560  27.079  1.00  0.00     0.031 A 
ATOM     79  C   UNL A   1      46.211  27.941  27.075  1.00  0.00     0.131 A 
ATOM     80  C   UNL A   1      45.989  25.563  25.684  1.00  0.00     0.055 A 
ATOM     81  C   UNL A   1      46.257  27.950  25.679  1.00  0.00     0.041 A 
ATOM     82  F   UNL A   1      46.386  29.111  27.709  1.00  0.00    -0.206 F 
ATOM     83  C   UNL A   1      46.164  26.753  24.975  1.00  0.00     0.022 A 
BRANCH  80  84
ATOM     84  S   UNL A   1      46.094  23.969  24.825  1.00  0.00     0.124 S 
ATOM     85  O   UNL A   1      47.132  24.239  23.832  1.00  0.00    -0.237 OA
ATOM     86  O   UNL A   1      46.461  23.054  25.899  1.00  0.00    -0.237 OA
ATOM     87  O   UNL A   1      44.752  23.784  24.278  1.00  0.00    -0.744 OA
ENDBRANCH  80  84
ENDBRANCH  63  77
BRANCH  64  88
ATOM     88  C   UNL A   1      45.364  26.667  37.809  1.00  0.00     0.023 A 
ATOM     89  C   UNL A   1      45.527  27.813  38.604  1.00  0.00     0.031 A 
ATOM     90  C   UNL A   1      45.133  25.442  38.460  1.00  0.00     0.131 A 
ATOM     91  C   UNL A   1      45.507  27.704  40.004  1.00  0.00     0.055 A 
ATOM     92  C   UNL A   1      45.063  25.347  39.851  1.00  0.00     0.041 A 
ATOM     93  F   UNL A   1      44.960  24.317  37.747  1.00  0.00    -0.206 F 
ATOM     94  C   UNL A   1      45.265  26.481  40.632  1.00  0.00     0.022 A 
BRANCH  91  95
ATOM     95  S   UNL A   1      45.885  29.176  40.994  1.00  0.00     0.124 S 
ATOM     96  O   UNL A   1      46.679  29.967  40.060  1.00  0.00    -0.237 OA
ATOM     97  O   UNL A   1      44.552  29.686  41.296  1.00  0.00    -0.237 OA
ATOM     98  O   UNL A   1      46.618  28.636  42.138  1.00  0.00    -0.744 OA
ENDBRANCH  91  95
ENDBRANCH  64  88
BRANCH  76  99
ATOM     99  C   UNL A   1      50.428  25.057  33.298  1.00  0.00     0.023 A 
ATOM    100  C   UNL A   1      50.804  23.708  33.182  1.00  0.00     0.031 A 
ATOM    101  C   UNL A   1      51.424  25.998  33.617  1.00  0.00     0.131 A 
ATOM    102  C   UNL A   1      52.131  23.329  33.434  1.00  0.00     0.055 A 
ATOM    103  C   UNL A   1      52.753  25.623  33.811  1.00  0.00     0.041 A 
ATOM    104  F   UNL A   1      51.119  27.300  33.741  1.00  0.00    -0.206 F 
ATOM    105  C   UNL A   1      53.111  24.280  33.732  1.00  0.00     0.022 A 
BRANCH 102 106
ATOM    106  S   UNL A   1      52.546  21.564  33.444  1.00  0.00     0.124 S 
ATOM    107  O   UNL A   1      51.692  21.056  34.512  1.00  0.00    -0.237 OA
ATOM    108  O   UNL A   1      52.189  21.151  32.091  1.00  0.00    -0.237 OA
ATOM    109  O   UNL A   1      53.979  21.549  33.736  1.00  0.00    -0.744 OA
ENDBRANCH 102 106
ENDBRANCH  76  99
ENDBRANCH  50  51
ENDBRANCH  42  45
ENDBRANCH  40  41
ENDBRANCH  39  40
ENDBRANCH  38  39
ENDBRANCH  37  38
ENDBRANCH   3  37
TORSDOF 22
ENDMDL
MODEL 3
REMARK VINA RESULT:     -11.1      5.011      8.237
REMARK SMILES C[C@]12C[C@@H](O)[C@H]3[C@@H](CCC4=CC(=O)C=C[C@]43C)[C@H]1CC[C@]2(O)C(=O)COC(=O)CCC(=O)NCCCCNC(=O)c1ccc(-c2c3nc(c(-c4cc(S(=O)(=O)[O-])ccc4F)c4ccc([nH]4)c(-c4cc(S(=O)(=O)[O-])ccc4F)c4nc(c(-c5cc(S(=O)(=O)[O-])ccc5F)c5ccc2[nH]5)C=C4)C=C3)cc1
REMARK SMILES IDX 31 1 32 2 33 3 30 5 29 6 27 7 28 8 26 9 25 10 23 11 24 12
REMARK SMILES IDX 21 13 17 14 16 15 15 16 10 17 6 18 14 19 11 20 9 21 7 22
REMARK SMILES IDX 4 23 12 24 8 25 18 26 3 27 13 28 2 29 19 30 1 31 20 32 5 33
REMARK SMILES IDX 22 35 34 37 35 38 36 39 37 40 38 41 39 42 40 44 41 45 42 46
REMARK SMILES IDX 103 47 43 48 102 49 44 50 45 51 46 52 96 53 47 54 101 55
REMARK SMILES IDX 95 56 97 57 48 58 100 59 94 60 93 61 49 63 81 64 61 65 80 66
REMARK SMILES IDX 62 67 65 68 79 69 98 70 63 71 64 72 78 74 99 75 66 76 50 77
REMARK SMILES IDX 51 78 59 79 52 80 58 81 60 82 57 83 53 84 54 85 55 86 56 87
REMARK SMILES IDX 82 88 83 89 91 90 84 91 90 92 92 93 89 94 85 95 86 96 87 97
REMARK SMILES IDX 88 98 67 99 68 100 76 101 69 102 75 103 77 104 74 105 70 106
REMARK SMILES IDX 71 107 72 108 73 109
REMARK H PARENT 33 4 5 34 22 36 38 43 97 62 65 73
REMARK Flexibility Score: inf
ROOT
ATOM      1  C   UNL A   1      34.836  32.928  29.989  1.00  0.00     0.220 C 
ATOM      2  O   UNL A   1      34.328  32.192  29.142  1.00  0.00    -0.275 OA
ATOM      3  N   UNL A   1      34.067  33.892  30.557  1.00  0.00    -0.356 N 
ATOM      4  H   UNL A   1      33.152  33.949  30.197  1.00  0.00     0.163 HD
ENDROOT
BRANCH   1   5
ATOM      5  C   UNL A   1      36.276  32.733  30.404  1.00  0.00     0.111 C 
BRANCH   5   6
ATOM      6  C   UNL A   1      36.765  31.298  30.278  1.00  0.00     0.132 C 
BRANCH   6   7
ATOM      7  C   UNL A   1      37.942  31.220  29.339  1.00  0.00     0.306 C 
ATOM      8  O   UNL A   1      39.011  31.785  29.540  1.00  0.00    -0.252 OA
BRANCH   7   9
ATOM      9  O   UNL A   1      37.634  30.554  28.196  1.00  0.00    -0.458 OA
BRANCH   9  10
ATOM     10  C   UNL A   1      37.634  29.135  28.279  1.00  0.00     0.311 C 
BRANCH  10  11
ATOM     11  C   UNL A   1      38.592  28.314  29.172  1.00  0.00     0.202 C 
ATOM     12  O   UNL A   1      38.153  27.878  30.245  1.00  0.00    -0.293 OA
BRANCH  11  13
ATOM     13  C   UNL A   1      40.095  28.164  28.822  1.00  0.00     0.132 C 
ATOM     14  C   UNL A   1      45.243  25.804  25.343  1.00  0.00     0.021 C 
ATOM     15  C   UNL A   1      44.167  24.861  25.973  1.00  0.00     0.013 C 
ATOM     16  C   UNL A   1      43.619  23.993  24.831  1.00  0.00    -0.012 C 
ATOM     17  C   UNL A   1      44.928  23.911  26.925  1.00  0.00    -0.056 C 
ATOM     18  C   UNL A   1      43.112  25.818  26.689  1.00  0.00     0.035 C 
ATOM     19  C   UNL A   1      44.302  22.940  24.343  1.00  0.00     0.048 C 
ATOM     20  C   UNL A   1      45.654  22.882  26.438  1.00  0.00     0.052 C 
ATOM     21  C   UNL A   1      44.768  23.965  28.416  1.00  0.00     0.032 C 
ATOM     22  C   UNL A   1      42.630  25.284  28.053  1.00  0.00    -0.000 C 
ATOM     23  C   UNL A   1      41.909  26.269  25.829  1.00  0.00     0.119 C 
ATOM     24  C   UNL A   1      45.556  22.518  25.008  1.00  0.00     0.178 C 
ATOM     25  C   UNL A   1      43.858  25.052  28.943  1.00  0.00     0.009 C 
ATOM     26  C   UNL A   1      41.606  26.176  28.799  1.00  0.00     0.002 C 
ATOM     27  C   UNL A   1      41.086  27.317  26.574  1.00  0.00     0.042 C 
ATOM     28  O   UNL A   1      46.401  21.831  24.455  1.00  0.00    -0.290 OA
ATOM     29  C   UNL A   1      40.513  26.886  27.943  1.00  0.00     0.009 C 
ATOM     30  C   UNL A   1      42.166  27.301  29.673  1.00  0.00     0.008 C 
ATOM     31  C   UNL A   1      39.367  25.886  27.704  1.00  0.00     0.015 C 
ATOM     32  C   UNL A   1      40.890  27.991  30.131  1.00  0.00     0.044 C 
BRANCH  23  33
ATOM     33  O   UNL A   1      42.323  26.927  24.630  1.00  0.00    -0.393 OA
ATOM     34  H   UNL A   1      43.219  27.278  24.746  1.00  0.00     0.210 HD
ENDBRANCH  23  33
BRANCH  13  35
ATOM     35  O   UNL A   1      40.637  29.332  28.222  1.00  0.00    -0.381 OA
ATOM     36  H   UNL A   1      40.842  29.984  28.911  1.00  0.00     0.212 HD
ENDBRANCH  13  35
ENDBRANCH  11  13
ENDBRANCH  10  11
ENDBRANCH   9  10
ENDBRANCH   7   9
ENDBRANCH   6   7
ENDBRANCH   5   6
ENDBRANCH   1   5
BRANCH   3  37
ATOM     37  C   UNL A   1      34.360  34.857  31.606  1.00  0.00     0.116 C 
BRANCH  37  38
ATOM     38  C   UNL A   1      34.166  34.252  33.001  1.00  0.00     0.023 C 
BRANCH  38  39
ATOM     39  C   UNL A   1      35.217  34.672  34.030  1.00  0.00     0.023 C 
BRANCH  39  40
ATOM     40  C   UNL A   1      36.511  33.865  34.052  1.00  0.00     0.116 C 
BRANCH  40  41
ATOM     41  N   UNL A   1      36.734  33.104  35.271  1.00  0.00    -0.352 N 
ATOM     42  C   UNL A   1      37.774  32.236  35.553  1.00  0.00     0.251 C 
ATOM     43  H   UNL A   1      36.063  33.220  35.982  1.00  0.00     0.163 HD
ATOM     44  O   UNL A   1      37.790  31.627  36.618  1.00  0.00    -0.269 OA
BRANCH  42  45
ATOM     45  C   UNL A   1      38.818  31.991  34.526  1.00  0.00     0.039 A 
ATOM     46  C   UNL A   1      40.089  32.541  34.721  1.00  0.00     0.014 A 
ATOM     47  C   UNL A   1      38.589  31.124  33.454  1.00  0.00     0.014 A 
ATOM     48  C   UNL A   1      41.160  32.104  33.935  1.00  0.00     0.010 A 
ATOM     49  C   UNL A   1      39.667  30.637  32.720  1.00  0.00     0.010 A 
ATOM     50  C   UNL A   1      40.970  31.088  32.985  1.00  0.00    -0.014 A 
BRANCH  50  51
ATOM     51  C   UNL A   1      42.120  30.412  32.323  1.00  0.00     0.031 A 
ATOM     52  C   UNL A   1      42.752  29.201  32.947  1.00  0.00     0.074 A 
ATOM     53  C   UNL A   1      42.665  30.970  31.221  1.00  0.00     0.049 A 
ATOM     54  N   UNL A   1      43.841  28.563  32.601  1.00  0.00    -0.248 NA
ATOM     55  C   UNL A   1      42.089  28.661  34.142  1.00  0.00     0.031 C 
ATOM     56  C   UNL A   1      42.175  32.180  30.555  1.00  0.00     0.029 A 
ATOM     57  N   UNL A   1      43.762  30.609  30.477  1.00  0.00    -0.354 N 
ATOM     58  C   UNL A   1      44.004  27.553  33.542  1.00  0.00     0.074 A 
ATOM     59  C   UNL A   1      42.932  27.705  34.505  1.00  0.00     0.031 C 
ATOM     60  C   UNL A   1      42.955  32.449  29.496  1.00  0.00     0.029 A 
ATOM     61  C   UNL A   1      44.028  31.463  29.431  1.00  0.00     0.049 A 
ATOM     62  H   UNL A   1      44.308  29.813  30.675  1.00  0.00     0.167 HD
ATOM     63  C   UNL A   1      44.947  26.578  33.585  1.00  0.00     0.034 A 
ATOM     64  C   UNL A   1      45.030  31.463  28.530  1.00  0.00     0.034 A 
ATOM     65  C   UNL A   1      46.002  26.438  32.610  1.00  0.00     0.049 A 
ATOM     66  C   UNL A   1      46.069  30.373  28.600  1.00  0.00     0.074 A 
ATOM     67  C   UNL A   1      46.984  25.465  32.533  1.00  0.00     0.029 A 
ATOM     68  N   UNL A   1      46.217  27.300  31.541  1.00  0.00    -0.354 N 
ATOM     69  N   UNL A   1      46.182  29.397  29.471  1.00  0.00    -0.248 NA
ATOM     70  C   UNL A   1      47.106  30.377  27.559  1.00  0.00     0.031 C 
ATOM     71  C   UNL A   1      47.822  25.769  31.455  1.00  0.00     0.029 A 
ATOM     72  C   UNL A   1      47.325  26.892  30.813  1.00  0.00     0.049 A 
ATOM     73  H   UNL A   1      45.663  28.086  31.331  1.00  0.00     0.167 HD
ATOM     74  C   UNL A   1      47.282  28.649  29.059  1.00  0.00     0.074 A 
ATOM     75  C   UNL A   1      47.791  29.282  27.861  1.00  0.00     0.031 C 
ATOM     76  C   UNL A   1      47.818  27.535  29.619  1.00  0.00     0.034 A 
BRANCH  63  77
ATOM     77  C   UNL A   1      44.883  25.607  34.741  1.00  0.00     0.023 A 
ATOM     78  C   UNL A   1      45.533  25.873  35.960  1.00  0.00     0.031 A 
ATOM     79  C   UNL A   1      44.202  24.384  34.614  1.00  0.00     0.131 A 
ATOM     80  C   UNL A   1      45.563  24.896  36.965  1.00  0.00     0.055 A 
ATOM     81  C   UNL A   1      44.161  23.452  35.653  1.00  0.00     0.041 A 
ATOM     82  F   UNL A   1      43.579  24.064  33.469  1.00  0.00    -0.206 F 
ATOM     83  C   UNL A   1      44.860  23.698  36.832  1.00  0.00     0.022 A 
BRANCH  80  84
ATOM     84  S   UNL A   1      46.666  25.152  38.382  1.00  0.00     0.124 S 
ATOM     85  O   UNL A   1      47.503  23.956  38.320  1.00  0.00    -0.237 OA
ATOM     86  O   UNL A   1      47.325  26.409  38.048  1.00  0.00    -0.237 OA
ATOM     87  O   UNL A   1      45.754  25.208  39.522  1.00  0.00    -0.744 OA
ENDBRANCH  80  84
ENDBRANCH  63  77
BRANCH  64  88
ATOM     88  C   UNL A   1      45.111  32.522  27.483  1.00  0.00     0.023 A 
ATOM     89  C   UNL A   1      45.963  33.627  27.639  1.00  0.00     0.031 A 
ATOM     90  C   UNL A   1      44.309  32.468  26.329  1.00  0.00     0.131 A 
ATOM     91  C   UNL A   1      45.960  34.656  26.684  1.00  0.00     0.055 A 
ATOM     92  C   UNL A   1      44.346  33.469  25.357  1.00  0.00     0.041 A 
ATOM     93  F   UNL A   1      43.482  31.429  26.125  1.00  0.00    -0.206 F 
ATOM     94  C   UNL A   1      45.165  34.579  25.538  1.00  0.00     0.022 A 
BRANCH  91  95
ATOM     95  S   UNL A   1      46.953  36.140  27.004  1.00  0.00     0.124 S 
ATOM     96  O   UNL A   1      46.728  36.346  28.430  1.00  0.00    -0.237 OA
ATOM     97  O   UNL A   1      48.289  35.696  26.622  1.00  0.00    -0.237 OA
ATOM     98  O   UNL A   1      46.356  37.144  26.124  1.00  0.00    -0.744 OA
ENDBRANCH  91  95
ENDBRANCH  64  88
BRANCH  76  99
ATOM     99  C   UNL A   1      48.980  26.900  28.898  1.00  0.00     0.023 A 
ATOM    100  C   UNL A   1      50.310  27.268  29.160  1.00  0.00     0.031 A 
ATOM    101  C   UNL A   1      48.746  25.912  27.924  1.00  0.00     0.131 A 
ATOM    102  C   UNL A   1      51.353  26.690  28.421  1.00  0.00     0.055 A 
ATOM    103  C   UNL A   1      49.790  25.300  27.231  1.00  0.00     0.041 A 
ATOM    104  F   UNL A   1      47.493  25.524  27.633  1.00  0.00    -0.206 F 
ATOM    105  C   UNL A   1      51.103  25.697  27.469  1.00  0.00     0.022 A 
BRANCH 102 106
ATOM    106  S   UNL A   1      53.041  27.309  28.663  1.00  0.00     0.124 S 
ATOM    107  O   UNL A   1      53.702  26.878  27.436  1.00  0.00    -0.237 OA
ATOM    108  O   UNL A   1      52.829  28.746  28.802  1.00  0.00    -0.237 OA
ATOM    109  O   UNL A   1      53.485  26.630  29.879  1.00  0.00    -0.744 OA
ENDBRANCH 102 106
ENDBRANCH  76  99
ENDBRANCH  50  51
ENDBRANCH  42  45
ENDBRANCH  40  41
ENDBRANCH  39  40
ENDBRANCH  38  39
ENDBRANCH  37  38
ENDBRANCH   3  37
TORSDOF 22
ENDMDL
