MODEL 1
REMARK VINA RESULT:     -12.9      0.000      0.000
REMARK SMILES Cc1cc(Br)cc2c1O[C@H](C(F)(F)F)C(C(=O)NCCCCNC(=O)c1ccc(-c3c4nc(c(-c5cc(S(=O)(=O)[O-])ccc5F)c5ccc([nH]5)c(-c5cc(S(=O)(=O)[O-])ccc5F)c5nc(c(-c6cc(S(=O)(=O)[O-])ccc6F)c6ccc3[nH]6)C=C5)C=C4)cc1)=C2
REMARK SMILES IDX 21 1 20 2 19 3 18 4 16 5 17 6 15 8 1 9 2 10 3 11 8 12 4 13
REMARK SMILES IDX 7 14 9 15 5 16 6 17 89 18 10 19 11 20 12 21 13 22 14 23
REMARK SMILES IDX 22 24 23 25 24 26 25 28 26 29 27 30 88 31 28 32 87 33 29 34
REMARK SMILES IDX 30 35 31 36 81 37 32 38 86 39 80 40 82 41 33 42 85 43 79 44
REMARK SMILES IDX 78 45 34 47 66 48 46 49 65 50 47 51 50 52 64 53 83 54 48 55
REMARK SMILES IDX 49 56 63 58 84 59 51 60 35 61 36 62 44 63 37 64 43 65 45 66
REMARK SMILES IDX 42 67 38 68 39 69 40 70 41 71 67 72 68 73 76 74 69 75 75 76
REMARK SMILES IDX 77 77 74 78 70 79 71 80 72 81 73 82 52 83 53 84 61 85 54 86
REMARK SMILES IDX 60 87 62 88 59 89 55 90 56 91 57 92 58 93
REMARK H PARENT 18 7 23 27 82 46 50 57
REMARK Flexibility Score: inf
ROOT
ATOM      1  C   UNL A   1      33.472  28.571  24.630  1.00  0.00     0.023 C 
ENDROOT
BRANCH   1   2
ATOM      2  C   UNL A   1      32.701  28.953  23.363  1.00  0.00     0.023 C 
BRANCH   2   3
ATOM      3  C   UNL A   1      31.716  27.889  22.890  1.00  0.00     0.116 C 
BRANCH   3   4
ATOM      4  N   UNL A   1      32.294  27.030  21.872  1.00  0.00    -0.352 N 
ATOM      5  C   UNL A   1      32.926  25.834  21.830  1.00  0.00     0.251 C 
ATOM      6  O   UNL A   1      33.277  25.463  20.705  1.00  0.00    -0.270 OA
ATOM      7  H   UNL A   1      32.202  27.422  20.974  1.00  0.00     0.163 HD
BRANCH   5   8
ATOM      8  C   UNL A   1      33.216  24.967  23.011  1.00  0.00     0.067 C 
ATOM      9  C   UNL A   1      33.444  22.535  27.566  1.00  0.00     0.048 C 
ATOM     10  C   UNL A   1      34.298  22.610  26.332  1.00  0.00    -0.007 A 
ATOM     11  C   UNL A   1      35.437  21.797  26.241  1.00  0.00     0.023 A 
ATOM     12  C   UNL A   1      33.964  23.427  25.242  1.00  0.00     0.130 A 
ATOM     13  C   UNL A   1      36.232  21.827  25.095  1.00  0.00     0.019 A 
ATOM     14  C   UNL A   1      34.765  23.460  24.096  1.00  0.00     0.019 A 
ATOM     15  O   UNL A   1      32.862  24.226  25.367  1.00  0.00    -0.475 OA
ATOM     16  Br  UNL A   1      37.773  20.734  25.000  1.00  0.00    -0.051 Br
ATOM     17  C   UNL A   1      35.906  22.656  24.024  1.00  0.00     0.027 A 
ATOM     18  C   UNL A   1      34.416  24.358  23.001  1.00  0.00     0.025 C 
ATOM     19  C   UNL A   1      32.257  24.713  24.138  1.00  0.00     0.314 C 
BRANCH  19  20
ATOM     20  C   UNL A   1      31.103  23.774  23.742  1.00  0.00     0.429 C 
ATOM     21  F   UNL A   1      31.537  22.834  22.866  1.00  0.00    -0.167 F 
ATOM     22  F   UNL A   1      30.586  23.107  24.798  1.00  0.00    -0.167 F 
ATOM     23  F   UNL A   1      30.079  24.432  23.152  1.00  0.00    -0.167 F 
ENDBRANCH  19  20
ENDBRANCH   5   8
ENDBRANCH   3   4
ENDBRANCH   2   3
ENDBRANCH   1   2
BRANCH   1  24
ATOM     24  C   UNL A   1      32.718  28.777  25.944  1.00  0.00     0.116 C 
BRANCH  24  25
ATOM     25  N   UNL A   1      32.263  30.145  26.143  1.00  0.00    -0.352 N 
ATOM     26  C   UNL A   1      32.848  31.134  26.896  1.00  0.00     0.251 C 
ATOM     27  H   UNL A   1      31.430  30.392  25.679  1.00  0.00     0.163 HD
ATOM     28  O   UNL A   1      32.282  32.214  27.043  1.00  0.00    -0.269 OA
BRANCH  26  29
ATOM     29  C   UNL A   1      34.141  30.863  27.551  1.00  0.00     0.039 A 
ATOM     30  C   UNL A   1      34.994  31.932  27.832  1.00  0.00     0.014 A 
ATOM     31  C   UNL A   1      34.481  29.560  27.927  1.00  0.00     0.014 A 
ATOM     32  C   UNL A   1      36.167  31.704  28.551  1.00  0.00     0.010 A 
ATOM     33  C   UNL A   1      35.622  29.343  28.691  1.00  0.00     0.010 A 
ATOM     34  C   UNL A   1      36.472  30.413  29.012  1.00  0.00    -0.014 A 
BRANCH  34  35
ATOM     35  C   UNL A   1      37.694  30.145  29.807  1.00  0.00     0.031 A 
ATOM     36  C   UNL A   1      38.781  29.291  29.219  1.00  0.00     0.074 A 
ATOM     37  C   UNL A   1      37.798  30.613  31.065  1.00  0.00     0.049 A 
ATOM     38  N   UNL A   1      39.852  28.806  29.791  1.00  0.00    -0.248 NA
ATOM     39  C   UNL A   1      38.624  28.912  27.807  1.00  0.00     0.031 C 
ATOM     40  C   UNL A   1      36.804  31.448  31.744  1.00  0.00     0.029 A 
ATOM     41  N   UNL A   1      38.785  30.445  32.002  1.00  0.00    -0.354 N 
ATOM     42  C   UNL A   1      40.489  28.050  28.814  1.00  0.00     0.074 A 
ATOM     43  C   UNL A   1      39.659  28.106  27.629  1.00  0.00     0.031 C 
ATOM     44  C   UNL A   1      37.246  31.738  32.979  1.00  0.00     0.029 A 
ATOM     45  C   UNL A   1      38.526  31.073  33.197  1.00  0.00     0.049 A 
ATOM     46  H   UNL A   1      39.603  29.924  31.833  1.00  0.00     0.167 HD
ATOM     47  C   UNL A   1      41.666  27.384  28.893  1.00  0.00     0.034 A 
ATOM     48  C   UNL A   1      39.235  31.095  34.343  1.00  0.00     0.034 A 
ATOM     49  C   UNL A   1      42.492  27.352  30.072  1.00  0.00     0.049 A 
ATOM     50  C   UNL A   1      40.526  30.325  34.416  1.00  0.00     0.074 A 
ATOM     51  C   UNL A   1      43.709  26.720  30.258  1.00  0.00     0.029 A 
ATOM     52  N   UNL A   1      42.188  27.987  31.270  1.00  0.00    -0.354 N 
ATOM     53  N   UNL A   1      41.099  29.584  33.496  1.00  0.00    -0.248 NA
ATOM     54  C   UNL A   1      41.263  30.391  35.685  1.00  0.00     0.031 C 
ATOM     55  C   UNL A   1      44.120  26.938  31.578  1.00  0.00     0.029 A 
ATOM     56  C   UNL A   1      43.187  27.753  32.200  1.00  0.00     0.049 A 
ATOM     57  H   UNL A   1      41.381  28.527  31.433  1.00  0.00     0.167 HD
ATOM     58  C   UNL A   1      42.270  29.104  34.072  1.00  0.00     0.074 A 
ATOM     59  C   UNL A   1      42.329  29.651  35.413  1.00  0.00     0.031 C 
ATOM     60  C   UNL A   1      43.214  28.287  33.541  1.00  0.00     0.034 A 
BRANCH  47  61
ATOM     61  C   UNL A   1      42.108  26.621  27.672  1.00  0.00     0.023 A 
ATOM     62  C   UNL A   1      41.796  25.261  27.505  1.00  0.00     0.031 A 
ATOM     63  C   UNL A   1      42.871  27.253  26.675  1.00  0.00     0.131 A 
ATOM     64  C   UNL A   1      42.297  24.560  26.399  1.00  0.00     0.055 A 
ATOM     65  C   UNL A   1      43.309  26.568  25.541  1.00  0.00     0.041 A 
ATOM     66  F   UNL A   1      43.215  28.545  26.796  1.00  0.00    -0.206 F 
ATOM     67  C   UNL A   1      43.032  25.210  25.403  1.00  0.00     0.022 A 
BRANCH  64  68
ATOM     68  S   UNL A   1      42.060  22.765  26.326  1.00  0.00     0.124 S 
ATOM     69  O   UNL A   1      42.649  22.445  25.027  1.00  0.00    -0.237 OA
ATOM     70  O   UNL A   1      42.798  22.298  27.494  1.00  0.00    -0.237 OA
ATOM     71  O   UNL A   1      40.609  22.609  26.402  1.00  0.00    -0.744 OA
ENDBRANCH  64  68
ENDBRANCH  47  61
BRANCH  48  72
ATOM     72  C   UNL A   1      38.735  31.857  35.518  1.00  0.00     0.023 A 
ATOM     73  C   UNL A   1      38.151  31.194  36.607  1.00  0.00     0.031 A 
ATOM     74  C   UNL A   1      38.823  33.260  35.562  1.00  0.00     0.131 A 
ATOM     75  C   UNL A   1      37.650  31.935  37.688  1.00  0.00     0.055 A 
ATOM     76  C   UNL A   1      38.354  33.990  36.655  1.00  0.00     0.041 A 
ATOM     77  F   UNL A   1      39.384  33.936  34.549  1.00  0.00    -0.206 F 
ATOM     78  C   UNL A   1      37.757  33.328  37.723  1.00  0.00     0.022 A 
BRANCH  75  79
ATOM     79  S   UNL A   1      36.832  31.051  39.045  1.00  0.00     0.124 S 
ATOM     80  O   UNL A   1      35.593  31.808  39.187  1.00  0.00    -0.237 OA
ATOM     81  O   UNL A   1      36.703  29.705  38.498  1.00  0.00    -0.237 OA
ATOM     82  O   UNL A   1      37.776  31.183  40.152  1.00  0.00    -0.744 OA
ENDBRANCH  75  79
ENDBRANCH  48  72
BRANCH  60  83
ATOM     83  C   UNL A   1      44.395  27.955  34.411  1.00  0.00     0.023 A 
ATOM     84  C   UNL A   1      44.398  26.822  35.242  1.00  0.00     0.031 A 
ATOM     85  C   UNL A   1      45.534  28.780  34.406  1.00  0.00     0.131 A 
ATOM     86  C   UNL A   1      45.502  26.566  36.068  1.00  0.00     0.055 A 
ATOM     87  C   UNL A   1      46.648  28.495  35.194  1.00  0.00     0.041 A 
ATOM     88  F   UNL A   1      45.579  29.874  33.629  1.00  0.00    -0.206 F 
ATOM     89  C   UNL A   1      46.633  27.387  36.038  1.00  0.00     0.022 A 
BRANCH  86  90
ATOM     90  S   UNL A   1      45.416  25.177  37.230  1.00  0.00     0.124 S 
ATOM     91  O   UNL A   1      43.984  25.090  37.492  1.00  0.00    -0.237 OA
ATOM     92  O   UNL A   1      45.991  24.082  36.454  1.00  0.00    -0.237 OA
ATOM     93  O   UNL A   1      46.228  25.624  38.361  1.00  0.00    -0.744 OA
ENDBRANCH  86  90
ENDBRANCH  60  83
ENDBRANCH  34  35
ENDBRANCH  26  29
ENDBRANCH  24  25
ENDBRANCH   1  24
TORSDOF 15
ENDMDL
MODEL 2
REMARK VINA RESULT:     -12.8      5.889     10.854
REMARK SMILES Cc1cc(Br)cc2c1O[C@H](C(F)(F)F)C(C(=O)NCCCCNC(=O)c1ccc(-c3c4nc(c(-c5cc(S(=O)(=O)[O-])ccc5F)c5ccc([nH]5)c(-c5cc(S(=O)(=O)[O-])ccc5F)c5nc(c(-c6cc(S(=O)(=O)[O-])ccc6F)c6ccc3[nH]6)C=C5)C=C4)cc1)=C2
REMARK SMILES IDX 21 1 20 2 19 3 18 4 16 5 17 6 15 8 1 9 2 10 3 11 8 12 4 13
REMARK SMILES IDX 7 14 9 15 5 16 6 17 89 18 10 19 11 20 12 21 13 22 14 23
REMARK SMILES IDX 22 24 23 25 24 26 25 28 26 29 27 30 88 31 28 32 87 33 29 34
REMARK SMILES IDX 30 35 31 36 81 37 32 38 86 39 80 40 82 41 33 42 85 43 79 44
REMARK SMILES IDX 78 45 34 47 66 48 46 49 65 50 47 51 50 52 64 53 83 54 48 55
REMARK SMILES IDX 49 56 63 58 84 59 51 60 35 61 36 62 44 63 37 64 43 65 45 66
REMARK SMILES IDX 42 67 38 68 39 69 40 70 41 71 67 72 68 73 76 74 69 75 75 76
REMARK SMILES IDX 77 77 74 78 70 79 71 80 72 81 73 82 52 83 53 84 61 85 54 86
REMARK SMILES IDX 60 87 62 88 59 89 55 90 56 91 57 92 58 93
REMARK H PARENT 18 7 23 27 82 46 50 57
REMARK Flexibility Score: inf
ROOT
ATOM      1  C   UNL A   1      38.124  20.274  24.993  1.00  0.00     0.023 C 
ENDROOT
BRANCH   1   2
ATOM      2  C   UNL A   1      37.429  21.555  24.521  1.00  0.00     0.023 C 
BRANCH   2   3
ATOM      3  C   UNL A   1      37.486  22.700  25.528  1.00  0.00     0.116 C 
BRANCH   3   4
ATOM      4  N   UNL A   1      36.341  22.693  26.421  1.00  0.00    -0.352 N 
ATOM      5  C   UNL A   1      35.061  23.129  26.390  1.00  0.00     0.251 C 
ATOM      6  O   UNL A   1      34.407  22.916  27.416  1.00  0.00    -0.270 OA
ATOM      7  H   UNL A   1      36.553  22.253  27.275  1.00  0.00     0.163 HD
BRANCH   5   8
ATOM      8  C   UNL A   1      34.412  23.825  25.239  1.00  0.00     0.067 C 
ATOM      9  C   UNL A   1      32.752  25.564  20.663  1.00  0.00     0.048 C 
ATOM     10  C   UNL A   1      32.684  26.029  22.090  1.00  0.00    -0.007 A 
ATOM     11  C   UNL A   1      31.940  27.177  22.399  1.00  0.00     0.023 A 
ATOM     12  C   UNL A   1      33.295  25.322  23.136  1.00  0.00     0.130 A 
ATOM     13  C   UNL A   1      31.838  27.616  23.719  1.00  0.00     0.019 A 
ATOM     14  C   UNL A   1      33.197  25.765  24.459  1.00  0.00     0.019 A 
ATOM     15  O   UNL A   1      34.032  24.219  22.804  1.00  0.00    -0.475 OA
ATOM     16  Br  UNL A   1      30.843  29.176  24.110  1.00  0.00    -0.051 Br
ATOM     17  C   UNL A   1      32.465  26.920  24.750  1.00  0.00     0.027 A 
ATOM     18  C   UNL A   1      33.886  25.033  25.515  1.00  0.00     0.025 C 
ATOM     19  C   UNL A   1      34.279  23.249  23.859  1.00  0.00     0.314 C 
BRANCH  19  20
ATOM     20  C   UNL A   1      33.219  22.136  23.774  1.00  0.00     0.429 C 
ATOM     21  F   UNL A   1      33.745  20.951  24.171  1.00  0.00    -0.167 F 
ATOM     22  F   UNL A   1      32.152  22.370  24.571  1.00  0.00    -0.167 F 
ATOM     23  F   UNL A   1      32.744  21.967  22.519  1.00  0.00    -0.167 F 
ENDBRANCH  19  20
ENDBRANCH   5   8
ENDBRANCH   3   4
ENDBRANCH   2   3
ENDBRANCH   1   2
BRANCH   1  24
ATOM     24  C   UNL A   1      39.336  20.481  25.901  1.00  0.00     0.116 C 
BRANCH  24  25
ATOM     25  N   UNL A   1      40.253  19.351  25.912  1.00  0.00    -0.352 N 
ATOM     26  C   UNL A   1      41.614  19.362  26.098  1.00  0.00     0.251 C 
ATOM     27  H   UNL A   1      39.845  18.465  25.769  1.00  0.00     0.163 HD
ATOM     28  O   UNL A   1      42.262  18.326  25.979  1.00  0.00    -0.269 OA
BRANCH  26  29
ATOM     29  C   UNL A   1      42.283  20.641  26.401  1.00  0.00     0.039 A 
ATOM     30  C   UNL A   1      42.748  21.429  25.347  1.00  0.00     0.014 A 
ATOM     31  C   UNL A   1      42.403  21.077  27.725  1.00  0.00     0.014 A 
ATOM     32  C   UNL A   1      43.279  22.690  25.614  1.00  0.00     0.010 A 
ATOM     33  C   UNL A   1      42.882  22.355  27.984  1.00  0.00     0.010 A 
ATOM     34  C   UNL A   1      43.321  23.174  26.932  1.00  0.00    -0.014 A 
BRANCH  34  35
ATOM     35  C   UNL A   1      43.849  24.523  27.243  1.00  0.00     0.031 A 
ATOM     36  C   UNL A   1      42.911  25.581  27.750  1.00  0.00     0.074 A 
ATOM     37  C   UNL A   1      45.144  24.810  27.015  1.00  0.00     0.049 A 
ATOM     38  N   UNL A   1      43.126  26.857  27.935  1.00  0.00    -0.248 NA
ATOM     39  C   UNL A   1      41.542  25.146  28.064  1.00  0.00     0.031 C 
ATOM     40  C   UNL A   1      46.148  23.866  26.519  1.00  0.00     0.029 A 
ATOM     41  N   UNL A   1      45.838  25.984  27.162  1.00  0.00    -0.354 N 
ATOM     42  C   UNL A   1      41.915  27.382  28.370  1.00  0.00     0.074 A 
ATOM     43  C   UNL A   1      40.961  26.294  28.378  1.00  0.00     0.031 C 
ATOM     44  C   UNL A   1      47.333  24.493  26.426  1.00  0.00     0.029 A 
ATOM     45  C   UNL A   1      47.163  25.891  26.808  1.00  0.00     0.049 A 
ATOM     46  H   UNL A   1      45.425  26.815  27.489  1.00  0.00     0.167 HD
ATOM     47  C   UNL A   1      41.630  28.653  28.745  1.00  0.00     0.034 A 
ATOM     48  C   UNL A   1      48.127  26.833  26.783  1.00  0.00     0.034 A 
ATOM     49  C   UNL A   1      42.594  29.723  28.752  1.00  0.00     0.049 A 
ATOM     50  C   UNL A   1      47.781  28.243  27.177  1.00  0.00     0.074 A 
ATOM     51  C   UNL A   1      42.416  31.044  29.124  1.00  0.00     0.029 A 
ATOM     52  N   UNL A   1      43.924  29.593  28.372  1.00  0.00    -0.354 N 
ATOM     53  N   UNL A   1      46.622  28.733  27.552  1.00  0.00    -0.248 NA
ATOM     54  C   UNL A   1      48.871  29.226  27.139  1.00  0.00     0.031 C 
ATOM     55  C   UNL A   1      43.625  31.721  28.931  1.00  0.00     0.029 A 
ATOM     56  C   UNL A   1      44.573  30.811  28.490  1.00  0.00     0.049 A 
ATOM     57  H   UNL A   1      44.344  28.758  28.064  1.00  0.00     0.167 HD
ATOM     58  C   UNL A   1      46.847  30.083  27.805  1.00  0.00     0.074 A 
ATOM     59  C   UNL A   1      48.255  30.324  27.555  1.00  0.00     0.031 C 
ATOM     60  C   UNL A   1      45.971  31.036  28.211  1.00  0.00     0.034 A 
BRANCH  47  61
ATOM     61  C   UNL A   1      40.211  28.946  29.155  1.00  0.00     0.023 A 
ATOM     62  C   UNL A   1      39.822  28.936  30.506  1.00  0.00     0.031 A 
ATOM     63  C   UNL A   1      39.230  29.213  28.185  1.00  0.00     0.131 A 
ATOM     64  C   UNL A   1      38.475  29.127  30.845  1.00  0.00     0.055 A 
ATOM     65  C   UNL A   1      37.904  29.472  28.533  1.00  0.00     0.041 A 
ATOM     66  F   UNL A   1      39.544  29.213  26.880  1.00  0.00    -0.206 F 
ATOM     67  C   UNL A   1      37.517  29.419  29.870  1.00  0.00     0.022 A 
BRANCH  64  68
ATOM     68  S   UNL A   1      37.972  28.893  32.571  1.00  0.00     0.124 S 
ATOM     69  O   UNL A   1      38.107  27.446  32.720  1.00  0.00    -0.237 OA
ATOM     70  O   UNL A   1      38.940  29.704  33.298  1.00  0.00    -0.237 OA
ATOM     71  O   UNL A   1      36.598  29.391  32.596  1.00  0.00    -0.744 OA
ENDBRANCH  64  68
ENDBRANCH  47  61
BRANCH  48  72
ATOM     72  C   UNL A   1      49.507  26.479  26.354  1.00  0.00     0.023 A 
ATOM     73  C   UNL A   1      50.013  26.929  25.125  1.00  0.00     0.031 A 
ATOM     74  C   UNL A   1      50.333  25.677  27.160  1.00  0.00     0.131 A 
ATOM     75  C   UNL A   1      51.303  26.551  24.722  1.00  0.00     0.055 A 
ATOM     76  C   UNL A   1      51.627  25.332  26.770  1.00  0.00     0.041 A 
ATOM     77  F   UNL A   1      49.896  25.233  28.348  1.00  0.00    -0.206 F 
ATOM     78  C   UNL A   1      52.117  25.764  25.541  1.00  0.00     0.022 A 
BRANCH  75  79
ATOM     79  S   UNL A   1      51.898  27.086  23.094  1.00  0.00     0.124 S 
ATOM     80  O   UNL A   1      50.719  26.869  22.261  1.00  0.00    -0.237 OA
ATOM     81  O   UNL A   1      52.261  28.476  23.343  1.00  0.00    -0.237 OA
ATOM     82  O   UNL A   1      53.022  26.189  22.832  1.00  0.00    -0.744 OA
ENDBRANCH  75  79
ENDBRANCH  48  72
BRANCH  60  83
ATOM     83  C   UNL A   1      46.522  32.420  28.423  1.00  0.00     0.023 A 
ATOM     84  C   UNL A   1      46.667  33.323  27.357  1.00  0.00     0.031 A 
ATOM     85  C   UNL A   1      46.901  32.842  29.710  1.00  0.00     0.131 A 
ATOM     86  C   UNL A   1      47.221  34.590  27.588  1.00  0.00     0.055 A 
ATOM     87  C   UNL A   1      47.406  34.121  29.942  1.00  0.00     0.041 A 
ATOM     88  F   UNL A   1      46.782  32.015  30.761  1.00  0.00    -0.206 F 
ATOM     89  C   UNL A   1      47.577  35.000  28.876  1.00  0.00     0.022 A 
BRANCH  86  90
ATOM     90  S   UNL A   1      47.525  35.678  26.170  1.00  0.00     0.124 S 
ATOM     91  O   UNL A   1      47.594  34.725  25.067  1.00  0.00    -0.237 OA
ATOM     92  O   UNL A   1      46.355  36.551  26.186  1.00  0.00    -0.237 OA
ATOM     93  O   UNL A   1      48.789  36.333  26.505  1.00  0.00    -0.744 OA
ENDBRANCH  86  90
ENDBRANCH  60  83
ENDBRANCH  34  35
ENDBRANCH  26  29
ENDBRANCH  24  25
ENDBRANCH   1  24
TORSDOF 15
ENDMDL
MODEL 3
REMARK VINA RESULT:     -12.8      5.210     10.139
REMARK SMILES Cc1cc(Br)cc2c1O[C@H](C(F)(F)F)C(C(=O)NCCCCNC(=O)c1ccc(-c3c4nc(c(-c5cc(S(=O)(=O)[O-])ccc5F)c5ccc([nH]5)c(-c5cc(S(=O)(=O)[O-])ccc5F)c5nc(c(-c6cc(S(=O)(=O)[O-])ccc6F)c6ccc3[nH]6)C=C5)C=C4)cc1)=C2
REMARK SMILES IDX 21 1 20 2 19 3 18 4 16 5 17 6 15 8 1 9 2 10 3 11 8 12 4 13
REMARK SMILES IDX 7 14 9 15 5 16 6 17 89 18 10 19 11 20 12 21 13 22 14 23
REMARK SMILES IDX 22 24 23 25 24 26 25 28 26 29 27 30 88 31 28 32 87 33 29 34
REMARK SMILES IDX 30 35 31 36 81 37 32 38 86 39 80 40 82 41 33 42 85 43 79 44
REMARK SMILES IDX 78 45 34 47 66 48 46 49 65 50 47 51 50 52 64 53 83 54 48 55
REMARK SMILES IDX 49 56 63 58 84 59 51 60 35 61 36 62 44 63 37 64 43 65 45 66
REMARK SMILES IDX 42 67 38 68 39 69 40 70 41 71 67 72 68 73 76 74 69 75 75 76
REMARK SMILES IDX 77 77 74 78 70 79 71 80 72 81 73 82 52 83 53 84 61 85 54 86
REMARK SMILES IDX 60 87 62 88 59 89 55 90 56 91 57 92 58 93
REMARK H PARENT 18 7 23 27 82 46 50 57
REMARK Flexibility Score: inf
ROOT
ATOM      1  C   UNL A   1      35.223  22.116  24.745  1.00  0.00     0.023 C 
ENDROOT
BRANCH   1   2
ATOM      2  C   UNL A   1      33.809  22.159  25.331  1.00  0.00     0.023 C 
BRANCH   2   3
ATOM      3  C   UNL A   1      32.702  22.012  24.291  1.00  0.00     0.116 C 
BRANCH   3   4
ATOM      4  N   UNL A   1      33.113  22.508  22.989  1.00  0.00    -0.352 N 
ATOM      5  C   UNL A   1      33.162  23.704  22.358  1.00  0.00     0.251 C 
ATOM      6  O   UNL A   1      33.590  23.671  21.199  1.00  0.00    -0.270 OA
ATOM      7  H   UNL A   1      33.444  21.781  22.414  1.00  0.00     0.163 HD
BRANCH   5   8
ATOM      8  C   UNL A   1      32.749  25.012  22.949  1.00  0.00     0.067 C 
ATOM      9  C   UNL A   1      30.610  29.549  24.196  1.00  0.00     0.048 C 
ATOM     10  C   UNL A   1      31.849  28.791  24.581  1.00  0.00    -0.007 A 
ATOM     11  C   UNL A   1      32.680  29.308  25.586  1.00  0.00     0.023 A 
ATOM     12  C   UNL A   1      32.175  27.553  24.008  1.00  0.00     0.130 A 
ATOM     13  C   UNL A   1      33.822  28.612  25.981  1.00  0.00     0.019 A 
ATOM     14  C   UNL A   1      33.323  26.858  24.402  1.00  0.00     0.019 A 
ATOM     15  O   UNL A   1      31.360  27.083  23.016  1.00  0.00    -0.475 OA
ATOM     16  Br  UNL A   1      34.938  29.335  27.326  1.00  0.00    -0.051 Br
ATOM     17  C   UNL A   1      34.151  27.392  25.393  1.00  0.00     0.027 A 
ATOM     18  C   UNL A   1      33.658  25.597  23.750  1.00  0.00     0.025 C 
ATOM     19  C   UNL A   1      31.409  25.656  22.742  1.00  0.00     0.314 C 
BRANCH  19  20
ATOM     20  C   UNL A   1      30.281  24.957  23.522  1.00  0.00     0.429 C 
ATOM     21  F   UNL A   1      30.683  24.682  24.788  1.00  0.00    -0.167 F 
ATOM     22  F   UNL A   1      29.170  25.720  23.628  1.00  0.00    -0.167 F 
ATOM     23  F   UNL A   1      29.906  23.788  22.955  1.00  0.00    -0.167 F 
ENDBRANCH  19  20
ENDBRANCH   5   8
ENDBRANCH   3   4
ENDBRANCH   2   3
ENDBRANCH   1   2
BRANCH   1  24
ATOM     24  C   UNL A   1      36.359  22.187  25.767  1.00  0.00     0.116 C 
BRANCH  24  25
ATOM     25  N   UNL A   1      37.281  21.064  25.688  1.00  0.00    -0.352 N 
ATOM     26  C   UNL A   1      38.632  21.055  25.934  1.00  0.00     0.251 C 
ATOM     27  H   UNL A   1      36.886  20.201  25.424  1.00  0.00     0.163 HD
ATOM     28  O   UNL A   1      39.292  20.041  25.725  1.00  0.00    -0.269 OA
BRANCH  26  29
ATOM     29  C   UNL A   1      39.279  22.291  26.414  1.00  0.00     0.039 A 
ATOM     30  C   UNL A   1      40.328  22.194  27.329  1.00  0.00     0.014 A 
ATOM     31  C   UNL A   1      38.876  23.535  25.919  1.00  0.00     0.014 A 
ATOM     32  C   UNL A   1      41.022  23.345  27.703  1.00  0.00     0.010 A 
ATOM     33  C   UNL A   1      39.602  24.673  26.250  1.00  0.00     0.010 A 
ATOM     34  C   UNL A   1      40.683  24.587  27.142  1.00  0.00    -0.014 A 
BRANCH  34  35
ATOM     35  C   UNL A   1      41.422  25.822  27.495  1.00  0.00     0.031 A 
ATOM     36  C   UNL A   1      40.750  26.864  28.343  1.00  0.00     0.074 A 
ATOM     37  C   UNL A   1      42.660  26.031  27.009  1.00  0.00     0.049 A 
ATOM     38  N   UNL A   1      41.149  28.074  28.638  1.00  0.00    -0.248 NA
ATOM     39  C   UNL A   1      39.442  26.503  28.909  1.00  0.00     0.031 C 
ATOM     40  C   UNL A   1      43.412  25.093  26.172  1.00  0.00     0.029 A 
ATOM     41  N   UNL A   1      43.503  27.105  27.141  1.00  0.00    -0.354 N 
ATOM     42  C   UNL A   1      40.134  28.626  29.410  1.00  0.00     0.074 A 
ATOM     43  C   UNL A   1      39.084  27.634  29.499  1.00  0.00     0.031 C 
ATOM     44  C   UNL A   1      44.612  25.625  25.887  1.00  0.00     0.029 A 
ATOM     45  C   UNL A   1      44.697  26.956  26.478  1.00  0.00     0.049 A 
ATOM     46  H   UNL A   1      43.272  27.907  27.663  1.00  0.00     0.167 HD
ATOM     47  C   UNL A   1      40.090  29.842  30.005  1.00  0.00     0.034 A 
ATOM     48  C   UNL A   1      45.736  27.805  26.350  1.00  0.00     0.034 A 
ATOM     49  C   UNL A   1      41.151  30.813  29.925  1.00  0.00     0.049 A 
ATOM     50  C   UNL A   1      45.653  29.161  26.996  1.00  0.00     0.074 A 
ATOM     51  C   UNL A   1      41.216  32.071  30.500  1.00  0.00     0.029 A 
ATOM     52  N   UNL A   1      42.340  30.632  29.230  1.00  0.00    -0.354 N 
ATOM     53  N   UNL A   1      44.671  29.684  27.694  1.00  0.00    -0.248 NA
ATOM     54  C   UNL A   1      46.816  30.043  26.833  1.00  0.00     0.031 C 
ATOM     55  C   UNL A   1      42.424  32.665  30.119  1.00  0.00     0.029 A 
ATOM     56  C   UNL A   1      43.138  31.758  29.352  1.00  0.00     0.049 A 
ATOM     57  H   UNL A   1      42.581  29.822  28.726  1.00  0.00     0.167 HD
ATOM     58  C   UNL A   1      45.103  30.954  28.063  1.00  0.00     0.074 A 
ATOM     59  C   UNL A   1      46.440  31.111  27.522  1.00  0.00     0.031 C 
ATOM     60  C   UNL A   1      44.457  31.904  28.784  1.00  0.00     0.034 A 
BRANCH  47  61
ATOM     61  C   UNL A   1      38.841  30.188  30.772  1.00  0.00     0.023 A 
ATOM     62  C   UNL A   1      37.876  31.063  30.244  1.00  0.00     0.031 A 
ATOM     63  C   UNL A   1      38.623  29.657  32.055  1.00  0.00     0.131 A 
ATOM     64  C   UNL A   1      36.768  31.430  31.021  1.00  0.00     0.055 A 
ATOM     65  C   UNL A   1      37.484  29.972  32.796  1.00  0.00     0.041 A 
ATOM     66  F   UNL A   1      39.524  28.834  32.614  1.00  0.00    -0.206 F 
ATOM     67  C   UNL A   1      36.553  30.873  32.284  1.00  0.00     0.022 A 
BRANCH  64  68
ATOM     68  S   UNL A   1      35.660  32.723  30.399  1.00  0.00     0.124 S 
ATOM     69  O   UNL A   1      34.434  32.438  31.140  1.00  0.00    -0.237 OA
ATOM     70  O   UNL A   1      36.359  33.948  30.768  1.00  0.00    -0.237 OA
ATOM     71  O   UNL A   1      35.592  32.453  28.964  1.00  0.00    -0.744 OA
ENDBRANCH  64  68
ENDBRANCH  47  61
BRANCH  48  72
ATOM     72  C   UNL A   1      46.936  27.407  25.567  1.00  0.00     0.023 A 
ATOM     73  C   UNL A   1      47.069  27.781  24.222  1.00  0.00     0.031 A 
ATOM     74  C   UNL A   1      47.958  26.637  26.149  1.00  0.00     0.131 A 
ATOM     75  C   UNL A   1      48.191  27.361  23.490  1.00  0.00     0.055 A 
ATOM     76  C   UNL A   1      49.087  26.251  25.426  1.00  0.00     0.041 A 
ATOM     77  F   UNL A   1      47.878  26.266  27.435  1.00  0.00    -0.206 F 
ATOM     78  C   UNL A   1      49.205  26.608  24.086  1.00  0.00     0.022 A 
BRANCH  75  79
ATOM     79  S   UNL A   1      48.296  27.797  21.732  1.00  0.00     0.124 S 
ATOM     80  O   UNL A   1      49.352  28.804  21.738  1.00  0.00    -0.237 OA
ATOM     81  O   UNL A   1      48.633  26.516  21.119  1.00  0.00    -0.237 OA
ATOM     82  O   UNL A   1      46.957  28.296  21.426  1.00  0.00    -0.744 OA
ENDBRANCH  75  79
ENDBRANCH  48  72
BRANCH  60  83
ATOM     83  C   UNL A   1      45.200  33.187  29.041  1.00  0.00     0.023 A 
ATOM     84  C   UNL A   1      45.150  34.257  28.133  1.00  0.00     0.031 A 
ATOM     85  C   UNL A   1      45.963  33.341  30.212  1.00  0.00     0.131 A 
ATOM     86  C   UNL A   1      45.887  35.423  28.388  1.00  0.00     0.055 A 
ATOM     87  C   UNL A   1      46.656  34.520  30.484  1.00  0.00     0.041 A 
ATOM     88  F   UNL A   1      46.043  32.346  31.110  1.00  0.00    -0.206 F 
ATOM     89  C   UNL A   1      46.627  35.567  29.565  1.00  0.00     0.022 A 
BRANCH  86  90
ATOM     90  S   UNL A   1      45.913  36.729  27.131  1.00  0.00     0.124 S 
ATOM     91  O   UNL A   1      44.506  37.110  27.062  1.00  0.00    -0.237 OA
ATOM     92  O   UNL A   1      46.813  37.716  27.720  1.00  0.00    -0.237 OA
ATOM     93  O   UNL A   1      46.432  36.052  25.944  1.00  0.00    -0.744 OA
ENDBRANCH  86  90
ENDBRANCH  60  83
ENDBRANCH  34  35
ENDBRANCH  26  29
ENDBRANCH  24  25
ENDBRANCH   1  24
TORSDOF 15
ENDMDL
