MODEL 1
REMARK VINA RESULT:     -12.4      0.000      0.000
REMARK SMILES CCc1ccc2nc(NC(=O)/C=C/C(=O)NCCCCNC(=O)c3ccc(-c4c5nc(c(-c6cc(S(=O)(=O)[O-])ccc6F)c6ccc([nH]6)c(-c6cc(S(=O)(=O)[O-])ccc6F)c6nc(c(-c7cc(S(=O)(=O)[O-])ccc7F)c7ccc4[nH]7)C=C6)C=C5)cc3)sc2c1
REMARK SMILES IDX 18 1 17 2 16 3 14 4 15 5 13 7 12 8 10 9 9 10 11 12 8 13 3 14
REMARK SMILES IDX 4 15 89 16 5 17 88 18 6 19 87 20 7 21 2 22 1 23 19 24 20 25
REMARK SMILES IDX 21 26 22 27 23 29 24 30 25 31 86 32 26 33 85 34 27 35 28 36
REMARK SMILES IDX 29 37 79 38 30 39 84 40 78 41 80 42 31 43 83 44 77 45 76 46
REMARK SMILES IDX 32 48 64 49 44 50 63 51 45 52 48 53 62 54 81 55 46 56 47 57
REMARK SMILES IDX 61 59 82 60 49 61 33 62 34 63 42 64 35 65 41 66 43 67 40 68
REMARK SMILES IDX 36 69 37 70 38 71 39 72 65 73 66 74 74 75 67 76 73 77 75 78
REMARK SMILES IDX 72 79 68 80 69 81 70 82 71 83 50 84 51 85 59 86 52 87 58 88
REMARK SMILES IDX 60 89 57 90 53 91 54 92 55 93 56 94
REMARK H PARENT 16 6 9 11 21 28 80 47 48 58
REMARK Flexibility Score: inf
ROOT
ATOM      1  C   UNL A   1      35.113  21.848  26.319  1.00  0.00     0.023 C 
ENDROOT
BRANCH   1   2
ATOM      2  C   UNL A   1      33.619  21.530  26.302  1.00  0.00     0.116 C 
BRANCH   2   3
ATOM      3  N   UNL A   1      33.386  20.103  26.400  1.00  0.00    -0.353 N 
ATOM      4  C   UNL A   1      32.848  19.277  25.464  1.00  0.00     0.244 C 
ATOM      5  O   UNL A   1      32.443  18.162  25.776  1.00  0.00    -0.270 OA
ATOM      6  H   UNL A   1      33.648  19.680  27.249  1.00  0.00     0.163 HD
BRANCH   4   7
ATOM      7  C   UNL A   1      32.719  19.761  24.076  1.00  0.00     0.077 C 
ATOM      8  C   UNL A   1      32.035  20.889  23.837  1.00  0.00     0.077 C 
BRANCH   8   9
ATOM      9  C   UNL A   1      32.059  21.532  22.507  1.00  0.00     0.250 C 
ATOM     10  N   UNL A   1      32.141  22.889  22.389  1.00  0.00    -0.298 N 
ATOM     11  H   UNL A   1      32.123  23.262  21.478  1.00  0.00     0.172 HD
ATOM     12  O   UNL A   1      31.951  20.828  21.503  1.00  0.00    -0.270 OA
BRANCH  10  13
ATOM     13  C   UNL A   1      32.246  23.776  23.422  1.00  0.00     0.190 A 
ATOM     14  C   UNL A   1      32.222  27.361  26.471  1.00  0.00    -0.047 A 
ATOM     15  C   UNL A   1      33.583  27.083  26.312  1.00  0.00     0.006 A 
ATOM     16  C   UNL A   1      31.255  26.584  25.804  1.00  0.00     0.025 A 
ATOM     17  C   UNL A   1      34.006  26.025  25.509  1.00  0.00     0.030 A 
ATOM     18  C   UNL A   1      31.696  25.542  24.973  1.00  0.00     0.057 A 
ATOM     19  C   UNL A   1      33.053  25.244  24.835  1.00  0.00     0.084 A 
ATOM     20  S   UNL A   1      30.788  24.460  23.971  1.00  0.00    -0.097 S 
ATOM     21  N   UNL A   1      33.334  24.186  24.006  1.00  0.00    -0.220 NA
BRANCH  14  22
ATOM     22  C   UNL A   1      31.798  28.474  27.395  1.00  0.00     0.032 C 
ATOM     23  C   UNL A   1      31.778  29.808  26.664  1.00  0.00     0.009 C 
ENDBRANCH  14  22
ENDBRANCH  10  13
ENDBRANCH   8   9
ENDBRANCH   4   7
ENDBRANCH   2   3
ENDBRANCH   1   2
BRANCH   1  24
ATOM     24  C   UNL A   1      35.887  21.327  25.106  1.00  0.00     0.023 C 
BRANCH  24  25
ATOM     25  C   UNL A   1      37.350  21.751  25.040  1.00  0.00     0.116 C 
BRANCH  25  26
ATOM     26  N   UNL A   1      38.269  20.717  25.493  1.00  0.00    -0.352 N 
ATOM     27  C   UNL A   1      39.428  20.865  26.214  1.00  0.00     0.251 C 
ATOM     28  H   UNL A   1      38.029  19.793  25.252  1.00  0.00     0.163 HD
ATOM     29  O   UNL A   1      40.139  19.893  26.452  1.00  0.00    -0.269 OA
BRANCH  27  30
ATOM     30  C   UNL A   1      39.825  22.217  26.651  1.00  0.00     0.039 A 
ATOM     31  C   UNL A   1      40.871  22.349  27.567  1.00  0.00     0.014 A 
ATOM     32  C   UNL A   1      39.207  23.345  26.104  1.00  0.00     0.014 A 
ATOM     33  C   UNL A   1      41.348  23.620  27.885  1.00  0.00     0.010 A 
ATOM     34  C   UNL A   1      39.726  24.606  26.375  1.00  0.00     0.010 A 
ATOM     35  C   UNL A   1      40.801  24.755  27.265  1.00  0.00    -0.014 A 
BRANCH  35  36
ATOM     36  C   UNL A   1      41.320  26.117  27.547  1.00  0.00     0.031 A 
ATOM     37  C   UNL A   1      42.711  26.481  27.111  1.00  0.00     0.074 A 
ATOM     38  C   UNL A   1      40.576  26.985  28.260  1.00  0.00     0.049 A 
ATOM     39  N   UNL A   1      43.408  27.556  27.372  1.00  0.00    -0.248 NA
ATOM     40  C   UNL A   1      43.422  25.479  26.304  1.00  0.00     0.031 C 
ATOM     41  C   UNL A   1      39.225  26.729  28.762  1.00  0.00     0.029 A 
ATOM     42  N   UNL A   1      40.859  28.252  28.701  1.00  0.00    -0.354 N 
ATOM     43  C   UNL A   1      44.650  27.351  26.781  1.00  0.00     0.074 A 
ATOM     44  C   UNL A   1      44.626  26.023  26.204  1.00  0.00     0.031 C 
ATOM     45  C   UNL A   1      38.792  27.812  29.429  1.00  0.00     0.029 A 
ATOM     46  C   UNL A   1      39.848  28.819  29.441  1.00  0.00     0.049 A 
ATOM     47  H   UNL A   1      41.707  28.715  28.504  1.00  0.00     0.167 HD
ATOM     48  C   UNL A   1      45.705  28.201  26.709  1.00  0.00     0.034 A 
ATOM     49  C   UNL A   1      39.788  30.009  30.072  1.00  0.00     0.034 A 
ATOM     50  C   UNL A   1      45.702  29.525  27.280  1.00  0.00     0.049 A 
ATOM     51  C   UNL A   1      40.976  30.934  29.992  1.00  0.00     0.074 A 
ATOM     52  C   UNL A   1      46.693  30.489  27.233  1.00  0.00     0.029 A 
ATOM     53  N   UNL A   1      44.649  30.074  28.004  1.00  0.00    -0.354 N 
ATOM     54  N   UNL A   1      42.135  30.740  29.405  1.00  0.00    -0.248 NA
ATOM     55  C   UNL A   1      40.846  32.240  30.651  1.00  0.00     0.031 C 
ATOM     56  C   UNL A   1      46.265  31.597  27.974  1.00  0.00     0.029 A 
ATOM     57  C   UNL A   1      44.977  31.353  28.426  1.00  0.00     0.049 A 
ATOM     58  H   UNL A   1      43.796  29.619  28.190  1.00  0.00     0.167 HD
ATOM     59  C   UNL A   1      42.857  31.915  29.594  1.00  0.00     0.074 A 
ATOM     60  C   UNL A   1      42.002  32.811  30.346  1.00  0.00     0.031 C 
ATOM     61  C   UNL A   1      44.109  32.230  29.176  1.00  0.00     0.034 A 
BRANCH  48  62
ATOM     62  C   UNL A   1      46.948  27.697  26.016  1.00  0.00     0.023 A 
ATOM     63  C   UNL A   1      47.223  28.015  24.674  1.00  0.00     0.031 A 
ATOM     64  C   UNL A   1      47.841  26.840  26.682  1.00  0.00     0.131 A 
ATOM     65  C   UNL A   1      48.301  27.407  24.014  1.00  0.00     0.055 A 
ATOM     66  C   UNL A   1      48.966  26.309  26.046  1.00  0.00     0.041 A 
ATOM     67  F   UNL A   1      47.623  26.482  27.957  1.00  0.00    -0.206 F 
ATOM     68  C   UNL A   1      49.190  26.576  24.698  1.00  0.00     0.022 A 
BRANCH  65  69
ATOM     69  S   UNL A   1      48.422  27.584  22.214  1.00  0.00     0.124 S 
ATOM     70  O   UNL A   1      48.637  26.201  21.796  1.00  0.00    -0.237 OA
ATOM     71  O   UNL A   1      47.131  28.164  21.865  1.00  0.00    -0.237 OA
ATOM     72  O   UNL A   1      49.574  28.467  22.033  1.00  0.00    -0.744 OA
ENDBRANCH  65  69
ENDBRANCH  48  62
BRANCH  49  73
ATOM     73  C   UNL A   1      38.570  30.397  30.836  1.00  0.00     0.023 A 
ATOM     74  C   UNL A   1      37.537  31.126  30.225  1.00  0.00     0.031 A 
ATOM     75  C   UNL A   1      38.432  30.071  32.196  1.00  0.00     0.131 A 
ATOM     76  C   UNL A   1      36.432  31.542  30.983  1.00  0.00     0.055 A 
ATOM     77  C   UNL A   1      37.307  30.447  32.935  1.00  0.00     0.041 A 
ATOM     78  F   UNL A   1      39.386  29.368  32.826  1.00  0.00    -0.206 F 
ATOM     79  C   UNL A   1      36.304  31.198  32.330  1.00  0.00     0.022 A 
BRANCH  76  80
ATOM     80  S   UNL A   1      35.190  32.603  30.194  1.00  0.00     0.124 S 
ATOM     81  O   UNL A   1      34.671  31.727  29.149  1.00  0.00    -0.237 OA
ATOM     82  O   UNL A   1      34.284  32.885  31.302  1.00  0.00    -0.237 OA
ATOM     83  O   UNL A   1      35.968  33.746  29.721  1.00  0.00    -0.744 OA
ENDBRANCH  76  80
ENDBRANCH  49  73
BRANCH  61  84
ATOM     84  C   UNL A   1      44.600  33.625  29.472  1.00  0.00     0.023 A 
ATOM     85  C   UNL A   1      44.455  34.674  28.550  1.00  0.00     0.031 A 
ATOM     86  C   UNL A   1      45.219  33.902  30.704  1.00  0.00     0.131 A 
ATOM     87  C   UNL A   1      44.964  35.946  28.856  1.00  0.00     0.055 A 
ATOM     88  C   UNL A   1      45.675  35.181  31.024  1.00  0.00     0.041 A 
ATOM     89  F   UNL A   1      45.381  32.934  31.619  1.00  0.00    -0.206 F 
ATOM     90  C   UNL A   1      45.558  36.209  30.094  1.00  0.00     0.022 A 
BRANCH  87  91
ATOM     91  S   UNL A   1      44.900  37.241  27.589  1.00  0.00     0.124 S 
ATOM     92  O   UNL A   1      45.784  36.703  26.560  1.00  0.00    -0.237 OA
ATOM     93  O   UNL A   1      43.481  37.281  27.252  1.00  0.00    -0.237 OA
ATOM     94  O   UNL A   1      45.404  38.425  28.282  1.00  0.00    -0.744 OA
ENDBRANCH  87  91
ENDBRANCH  61  84
ENDBRANCH  35  36
ENDBRANCH  27  30
ENDBRANCH  25  26
ENDBRANCH  24  25
ENDBRANCH   1  24
TORSDOF 17
ENDMDL
MODEL 2
REMARK VINA RESULT:     -12.1      2.890      3.374
REMARK SMILES CCc1ccc2nc(NC(=O)/C=C/C(=O)NCCCCNC(=O)c3ccc(-c4c5nc(c(-c6cc(S(=O)(=O)[O-])ccc6F)c6ccc([nH]6)c(-c6cc(S(=O)(=O)[O-])ccc6F)c6nc(c(-c7cc(S(=O)(=O)[O-])ccc7F)c7ccc4[nH]7)C=C6)C=C5)cc3)sc2c1
REMARK SMILES IDX 18 1 17 2 16 3 14 4 15 5 13 7 12 8 10 9 9 10 11 12 8 13 3 14
REMARK SMILES IDX 4 15 89 16 5 17 88 18 6 19 87 20 7 21 2 22 1 23 19 24 20 25
REMARK SMILES IDX 21 26 22 27 23 29 24 30 25 31 86 32 26 33 85 34 27 35 28 36
REMARK SMILES IDX 29 37 79 38 30 39 84 40 78 41 80 42 31 43 83 44 77 45 76 46
REMARK SMILES IDX 32 48 64 49 44 50 63 51 45 52 48 53 62 54 81 55 46 56 47 57
REMARK SMILES IDX 61 59 82 60 49 61 33 62 34 63 42 64 35 65 41 66 43 67 40 68
REMARK SMILES IDX 36 69 37 70 38 71 39 72 65 73 66 74 74 75 67 76 73 77 75 78
REMARK SMILES IDX 72 79 68 80 69 81 70 82 71 83 50 84 51 85 59 86 52 87 58 88
REMARK SMILES IDX 60 89 57 90 53 91 54 92 55 93 56 94
REMARK H PARENT 16 6 9 11 21 28 80 47 48 58
REMARK Flexibility Score: inf
ROOT
ATOM      1  C   UNL A   1      34.543  22.966  26.799  1.00  0.00     0.023 C 
ENDROOT
BRANCH   1   2
ATOM      2  C   UNL A   1      33.247  22.174  26.957  1.00  0.00     0.116 C 
BRANCH   2   3
ATOM      3  N   UNL A   1      33.481  20.750  26.820  1.00  0.00    -0.353 N 
ATOM      4  C   UNL A   1      32.903  19.887  25.945  1.00  0.00     0.244 C 
ATOM      5  O   UNL A   1      32.973  18.676  26.125  1.00  0.00    -0.270 OA
ATOM      6  H   UNL A   1      34.141  20.361  27.439  1.00  0.00     0.163 HD
BRANCH   4   7
ATOM      7  C   UNL A   1      32.151  20.432  24.798  1.00  0.00     0.077 C 
ATOM      8  C   UNL A   1      32.814  21.082  23.830  1.00  0.00     0.077 C 
BRANCH   8   9
ATOM      9  C   UNL A   1      32.149  21.453  22.564  1.00  0.00     0.250 C 
ATOM     10  N   UNL A   1      31.789  22.746  22.317  1.00  0.00    -0.298 N 
ATOM     11  H   UNL A   1      31.322  22.927  21.470  1.00  0.00     0.172 HD
ATOM     12  O   UNL A   1      31.876  20.568  21.753  1.00  0.00    -0.270 OA
BRANCH  10  13
ATOM     13  C   UNL A   1      32.018  23.810  23.141  1.00  0.00     0.190 A 
ATOM     14  C   UNL A   1      33.576  27.165  26.050  1.00  0.00    -0.047 A 
ATOM     15  C   UNL A   1      32.508  26.599  26.755  1.00  0.00     0.006 A 
ATOM     16  C   UNL A   1      33.900  26.704  24.760  1.00  0.00     0.025 A 
ATOM     17  C   UNL A   1      31.738  25.585  26.188  1.00  0.00     0.030 A 
ATOM     18  C   UNL A   1      33.137  25.660  24.215  1.00  0.00     0.057 A 
ATOM     19  C   UNL A   1      32.054  25.112  24.903  1.00  0.00     0.084 A 
ATOM     20  S   UNL A   1      33.312  24.826  22.707  1.00  0.00    -0.097 S 
ATOM     21  N   UNL A   1      31.387  24.112  24.238  1.00  0.00    -0.220 NA
BRANCH  14  22
ATOM     22  C   UNL A   1      34.349  28.302  26.670  1.00  0.00     0.032 C 
ATOM     23  C   UNL A   1      33.407  29.359  27.227  1.00  0.00     0.009 C 
ENDBRANCH  14  22
ENDBRANCH  10  13
ENDBRANCH   8   9
ENDBRANCH   4   7
ENDBRANCH   2   3
ENDBRANCH   1   2
BRANCH   1  24
ATOM     24  C   UNL A   1      35.569  22.324  25.862  1.00  0.00     0.023 C 
BRANCH  24  25
ATOM     25  C   UNL A   1      36.898  23.063  25.753  1.00  0.00     0.116 C 
BRANCH  25  26
ATOM     26  N   UNL A   1      38.051  22.214  26.016  1.00  0.00    -0.352 N 
ATOM     27  C   UNL A   1      39.281  22.577  26.507  1.00  0.00     0.251 C 
ATOM     28  H   UNL A   1      37.934  21.257  25.816  1.00  0.00     0.163 HD
ATOM     29  O   UNL A   1      40.181  21.748  26.598  1.00  0.00    -0.269 OA
BRANCH  27  30
ATOM     30  C   UNL A   1      39.511  23.987  26.874  1.00  0.00     0.039 A 
ATOM     31  C   UNL A   1      39.292  24.383  28.195  1.00  0.00     0.014 A 
ATOM     32  C   UNL A   1      40.005  24.891  25.929  1.00  0.00     0.014 A 
ATOM     33  C   UNL A   1      39.635  25.676  28.589  1.00  0.00     0.010 A 
ATOM     34  C   UNL A   1      40.404  26.157  26.340  1.00  0.00     0.010 A 
ATOM     35  C   UNL A   1      40.225  26.561  27.672  1.00  0.00    -0.014 A 
BRANCH  35  36
ATOM     36  C   UNL A   1      40.645  27.926  28.074  1.00  0.00     0.031 A 
ATOM     37  C   UNL A   1      42.103  28.288  28.045  1.00  0.00     0.074 A 
ATOM     38  C   UNL A   1      39.731  28.802  28.539  1.00  0.00     0.049 A 
ATOM     39  N   UNL A   1      42.700  29.366  28.481  1.00  0.00    -0.248 NA
ATOM     40  C   UNL A   1      43.012  27.278  27.484  1.00  0.00     0.031 C 
ATOM     41  C   UNL A   1      38.293  28.549  28.641  1.00  0.00     0.029 A 
ATOM     42  N   UNL A   1      39.881  30.074  29.027  1.00  0.00    -0.354 N 
ATOM     43  C   UNL A   1      44.058  29.157  28.267  1.00  0.00     0.074 A 
ATOM     44  C   UNL A   1      44.195  27.823  27.722  1.00  0.00     0.031 C 
ATOM     45  C   UNL A   1      37.691  29.638  29.146  1.00  0.00     0.029 A 
ATOM     46  C   UNL A   1      38.702  30.647  29.445  1.00  0.00     0.049 A 
ATOM     47  H   UNL A   1      40.750  30.535  29.073  1.00  0.00     0.167 HD
ATOM     48  C   UNL A   1      45.091  30.007  28.488  1.00  0.00     0.034 A 
ATOM     49  C   UNL A   1      38.469  31.844  30.020  1.00  0.00     0.034 A 
ATOM     50  C   UNL A   1      44.929  31.338  29.019  1.00  0.00     0.049 A 
ATOM     51  C   UNL A   1      39.632  32.770  30.270  1.00  0.00     0.074 A 
ATOM     52  C   UNL A   1      45.895  32.303  29.244  1.00  0.00     0.029 A 
ATOM     53  N   UNL A   1      43.716  31.893  29.410  1.00  0.00    -0.354 N 
ATOM     54  N   UNL A   1      40.910  32.571  30.036  1.00  0.00    -0.248 NA
ATOM     55  C   UNL A   1      39.323  34.082  30.850  1.00  0.00     0.031 C 
ATOM     56  C   UNL A   1      45.276  33.418  29.822  1.00  0.00     0.029 A 
ATOM     57  C   UNL A   1      43.913  33.177  29.893  1.00  0.00     0.049 A 
ATOM     58  H   UNL A   1      42.844  31.440  29.353  1.00  0.00     0.167 HD
ATOM     59  C   UNL A   1      41.550  33.749  30.409  1.00  0.00     0.074 A 
ATOM     60  C   UNL A   1      40.519  34.652  30.878  1.00  0.00     0.031 C 
ATOM     61  C   UNL A   1      42.870  34.061  30.358  1.00  0.00     0.034 A 
BRANCH  48  62
ATOM     62  C   UNL A   1      46.479  29.498  28.179  1.00  0.00     0.023 A 
ATOM     63  C   UNL A   1      47.253  28.835  29.149  1.00  0.00     0.031 A 
ATOM     64  C   UNL A   1      47.062  29.729  26.921  1.00  0.00     0.131 A 
ATOM     65  C   UNL A   1      48.591  28.513  28.880  1.00  0.00     0.055 A 
ATOM     66  C   UNL A   1      48.366  29.323  26.628  1.00  0.00     0.041 A 
ATOM     67  F   UNL A   1      46.383  30.375  25.961  1.00  0.00    -0.206 F 
ATOM     68  C   UNL A   1      49.146  28.729  27.617  1.00  0.00     0.022 A 
BRANCH  65  69
ATOM     69  S   UNL A   1      49.640  27.966  30.254  1.00  0.00     0.124 S 
ATOM     70  O   UNL A   1      49.962  26.599  29.851  1.00  0.00    -0.237 OA
ATOM     71  O   UNL A   1      50.741  28.921  30.211  1.00  0.00    -0.237 OA
ATOM     72  O   UNL A   1      48.763  28.074  31.419  1.00  0.00    -0.744 OA
ENDBRANCH  65  69
ENDBRANCH  48  62
BRANCH  49  73
ATOM     73  C   UNL A   1      37.084  32.239  30.405  1.00  0.00     0.023 A 
ATOM     74  C   UNL A   1      36.213  32.816  29.467  1.00  0.00     0.031 A 
ATOM     75  C   UNL A   1      36.621  32.072  31.721  1.00  0.00     0.131 A 
ATOM     76  C   UNL A   1      34.938  33.245  29.869  1.00  0.00     0.055 A 
ATOM     77  C   UNL A   1      35.335  32.458  32.105  1.00  0.00     0.041 A 
ATOM     78  F   UNL A   1      37.412  31.518  32.654  1.00  0.00    -0.206 F 
ATOM     79  C   UNL A   1      34.490  33.060  31.178  1.00  0.00     0.022 A 
BRANCH  76  80
ATOM     80  S   UNL A   1      33.897  34.114  28.665  1.00  0.00     0.124 S 
ATOM     81  O   UNL A   1      33.570  33.045  27.727  1.00  0.00    -0.237 OA
ATOM     82  O   UNL A   1      32.800  34.591  29.500  1.00  0.00    -0.237 OA
ATOM     83  O   UNL A   1      34.778  35.156  28.142  1.00  0.00    -0.744 OA
ENDBRANCH  76  80
ENDBRANCH  49  73
BRANCH  61  84
ATOM     84  C   UNL A   1      43.260  35.460  30.765  1.00  0.00     0.023 A 
ATOM     85  C   UNL A   1      43.454  35.815  32.111  1.00  0.00     0.031 A 
ATOM     86  C   UNL A   1      43.442  36.449  29.783  1.00  0.00     0.131 A 
ATOM     87  C   UNL A   1      43.778  37.140  32.441  1.00  0.00     0.055 A 
ATOM     88  C   UNL A   1      43.816  37.752  30.114  1.00  0.00     0.041 A 
ATOM     89  F   UNL A   1      43.269  36.161  28.483  1.00  0.00    -0.206 F 
ATOM     90  C   UNL A   1      43.976  38.106  31.451  1.00  0.00     0.022 A 
BRANCH  87  91
ATOM     91  S   UNL A   1      43.873  37.605  34.191  1.00  0.00     0.124 S 
ATOM     92  O   UNL A   1      45.123  38.358  34.238  1.00  0.00    -0.237 OA
ATOM     93  O   UNL A   1      42.654  38.384  34.376  1.00  0.00    -0.237 OA
ATOM     94  O   UNL A   1      43.898  36.320  34.888  1.00  0.00    -0.744 OA
ENDBRANCH  87  91
ENDBRANCH  61  84
ENDBRANCH  35  36
ENDBRANCH  27  30
ENDBRANCH  25  26
ENDBRANCH  24  25
ENDBRANCH   1  24
TORSDOF 17
ENDMDL
MODEL 3
REMARK VINA RESULT:     -12.0      2.189      2.837
REMARK SMILES CCc1ccc2nc(NC(=O)/C=C/C(=O)NCCCCNC(=O)c3ccc(-c4c5nc(c(-c6cc(S(=O)(=O)[O-])ccc6F)c6ccc([nH]6)c(-c6cc(S(=O)(=O)[O-])ccc6F)c6nc(c(-c7cc(S(=O)(=O)[O-])ccc7F)c7ccc4[nH]7)C=C6)C=C5)cc3)sc2c1
REMARK SMILES IDX 18 1 17 2 16 3 14 4 15 5 13 7 12 8 10 9 9 10 11 12 8 13 3 14
REMARK SMILES IDX 4 15 89 16 5 17 88 18 6 19 87 20 7 21 2 22 1 23 19 24 20 25
REMARK SMILES IDX 21 26 22 27 23 29 24 30 25 31 86 32 26 33 85 34 27 35 28 36
REMARK SMILES IDX 29 37 79 38 30 39 84 40 78 41 80 42 31 43 83 44 77 45 76 46
REMARK SMILES IDX 32 48 64 49 44 50 63 51 45 52 48 53 62 54 81 55 46 56 47 57
REMARK SMILES IDX 61 59 82 60 49 61 33 62 34 63 42 64 35 65 41 66 43 67 40 68
REMARK SMILES IDX 36 69 37 70 38 71 39 72 65 73 66 74 74 75 67 76 73 77 75 78
REMARK SMILES IDX 72 79 68 80 69 81 70 82 71 83 50 84 51 85 59 86 52 87 58 88
REMARK SMILES IDX 60 89 57 90 53 91 54 92 55 93 56 94
REMARK H PARENT 16 6 9 11 21 28 80 47 48 58
REMARK Flexibility Score: inf
ROOT
ATOM      1  C   UNL A   1      34.333  23.387  26.535  1.00  0.00     0.023 C 
ENDROOT
BRANCH   1   2
ATOM      2  C   UNL A   1      33.958  21.951  26.894  1.00  0.00     0.116 C 
BRANCH   2   3
ATOM      3  N   UNL A   1      34.778  20.998  26.174  1.00  0.00    -0.353 N 
ATOM      4  C   UNL A   1      34.431  20.235  25.104  1.00  0.00     0.244 C 
ATOM      5  O   UNL A   1      35.117  19.272  24.777  1.00  0.00    -0.270 OA
ATOM      6  H   UNL A   1      35.701  20.890  26.500  1.00  0.00     0.163 HD
BRANCH   4   7
ATOM      7  C   UNL A   1      33.192  20.556  24.371  1.00  0.00     0.077 C 
ATOM      8  C   UNL A   1      33.202  21.555  23.475  1.00  0.00     0.077 C 
BRANCH   8   9
ATOM      9  C   UNL A   1      32.061  21.775  22.563  1.00  0.00     0.250 C 
ATOM     10  N   UNL A   1      31.374  22.954  22.576  1.00  0.00    -0.298 N 
ATOM     11  H   UNL A   1      30.605  23.032  21.967  1.00  0.00     0.172 HD
ATOM     12  O   UNL A   1      31.704  20.858  21.823  1.00  0.00    -0.270 OA
BRANCH  10  13
ATOM     13  C   UNL A   1      31.659  24.036  23.359  1.00  0.00     0.190 A 
ATOM     14  C   UNL A   1      33.409  27.448  26.086  1.00  0.00    -0.047 A 
ATOM     15  C   UNL A   1      32.387  26.904  26.869  1.00  0.00     0.006 A 
ATOM     16  C   UNL A   1      33.650  26.957  24.789  1.00  0.00     0.025 A 
ATOM     17  C   UNL A   1      31.579  25.881  26.376  1.00  0.00     0.030 A 
ATOM     18  C   UNL A   1      32.850  25.904  24.317  1.00  0.00     0.057 A 
ATOM     19  C   UNL A   1      31.811  25.378  25.085  1.00  0.00     0.084 A 
ATOM     20  S   UNL A   1      32.926  25.035  22.821  1.00  0.00    -0.097 S 
ATOM     21  N   UNL A   1      31.100  24.366  24.487  1.00  0.00    -0.220 NA
BRANCH  14  22
ATOM     22  C   UNL A   1      34.224  28.595  26.629  1.00  0.00     0.032 C 
ATOM     23  C   UNL A   1      33.502  29.918  26.425  1.00  0.00     0.009 C 
ENDBRANCH  14  22
ENDBRANCH  10  13
ENDBRANCH   8   9
ENDBRANCH   4   7
ENDBRANCH   2   3
ENDBRANCH   1   2
BRANCH   1  24
ATOM     24  C   UNL A   1      35.417  23.511  25.461  1.00  0.00     0.023 C 
BRANCH  24  25
ATOM     25  C   UNL A   1      36.797  23.906  25.976  1.00  0.00     0.116 C 
BRANCH  25  26
ATOM     26  N   UNL A   1      37.738  22.797  26.006  1.00  0.00    -0.352 N 
ATOM     27  C   UNL A   1      39.054  22.808  26.401  1.00  0.00     0.251 C 
ATOM     28  H   UNL A   1      37.388  21.927  25.706  1.00  0.00     0.163 HD
ATOM     29  O   UNL A   1      39.742  21.797  26.292  1.00  0.00    -0.269 OA
BRANCH  27  30
ATOM     30  C   UNL A   1      39.632  24.066  26.908  1.00  0.00     0.039 A 
ATOM     31  C   UNL A   1      40.168  24.977  25.995  1.00  0.00     0.014 A 
ATOM     32  C   UNL A   1      39.582  24.367  28.272  1.00  0.00     0.014 A 
ATOM     33  C   UNL A   1      40.594  26.227  26.444  1.00  0.00     0.010 A 
ATOM     34  C   UNL A   1      39.948  25.635  28.705  1.00  0.00     0.010 A 
ATOM     35  C   UNL A   1      40.455  26.577  27.796  1.00  0.00    -0.014 A 
BRANCH  35  36
ATOM     36  C   UNL A   1      40.854  27.917  28.294  1.00  0.00     0.031 A 
ATOM     37  C   UNL A   1      42.311  28.236  28.470  1.00  0.00     0.074 A 
ATOM     38  C   UNL A   1      39.910  28.806  28.662  1.00  0.00     0.049 A 
ATOM     39  N   UNL A   1      42.873  29.282  29.015  1.00  0.00    -0.248 NA
ATOM     40  C   UNL A   1      43.260  27.215  28.000  1.00  0.00     0.031 C 
ATOM     41  C   UNL A   1      38.464  28.594  28.565  1.00  0.00     0.029 A 
ATOM     42  N   UNL A   1      40.026  30.059  29.207  1.00  0.00    -0.354 N 
ATOM     43  C   UNL A   1      44.242  29.038  28.976  1.00  0.00     0.074 A 
ATOM     44  C   UNL A   1      44.416  27.717  28.410  1.00  0.00     0.031 C 
ATOM     45  C   UNL A   1      37.829  29.686  29.022  1.00  0.00     0.029 A 
ATOM     46  C   UNL A   1      38.818  30.655  29.485  1.00  0.00     0.049 A 
ATOM     47  H   UNL A   1      40.893  30.492  29.383  1.00  0.00     0.167 HD
ATOM     48  C   UNL A   1      45.259  29.850  29.359  1.00  0.00     0.034 A 
ATOM     49  C   UNL A   1      38.541  31.841  30.063  1.00  0.00     0.034 A 
ATOM     50  C   UNL A   1      45.063  31.169  29.908  1.00  0.00     0.049 A 
ATOM     51  C   UNL A   1      39.685  32.723  30.494  1.00  0.00     0.074 A 
ATOM     52  C   UNL A   1      46.014  32.098  30.290  1.00  0.00     0.029 A 
ATOM     53  N   UNL A   1      43.823  31.749  30.153  1.00  0.00    -0.354 N 
ATOM     54  N   UNL A   1      40.977  32.493  30.424  1.00  0.00    -0.248 NA
ATOM     55  C   UNL A   1      39.336  34.027  31.071  1.00  0.00     0.031 C 
ATOM     56  C   UNL A   1      45.354  33.214  30.817  1.00  0.00     0.029 A 
ATOM     57  C   UNL A   1      43.987  33.012  30.700  1.00  0.00     0.049 A 
ATOM     58  H   UNL A   1      42.954  31.324  29.966  1.00  0.00     0.167 HD
ATOM     59  C   UNL A   1      41.593  33.640  30.917  1.00  0.00     0.074 A 
ATOM     60  C   UNL A   1      40.532  34.559  31.276  1.00  0.00     0.031 C 
ATOM     61  C   UNL A   1      42.916  33.913  31.051  1.00  0.00     0.034 A 
BRANCH  48  62
ATOM     62  C   UNL A   1      46.662  29.308  29.220  1.00  0.00     0.023 A 
ATOM     63  C   UNL A   1      47.344  29.339  27.991  1.00  0.00     0.031 A 
ATOM     64  C   UNL A   1      47.303  28.698  30.312  1.00  0.00     0.131 A 
ATOM     65  C   UNL A   1      48.580  28.689  27.858  1.00  0.00     0.055 A 
ATOM     66  C   UNL A   1      48.576  28.134  30.197  1.00  0.00     0.041 A 
ATOM     67  F   UNL A   1      46.695  28.619  31.506  1.00  0.00    -0.206 F 
ATOM     68  C   UNL A   1      49.214  28.109  28.959  1.00  0.00     0.022 A 
BRANCH  65  69
ATOM     69  S   UNL A   1      49.264  28.468  26.193  1.00  0.00     0.124 S 
ATOM     70  O   UNL A   1      50.123  29.644  26.071  1.00  0.00    -0.237 OA
ATOM     71  O   UNL A   1      49.949  27.185  26.301  1.00  0.00    -0.237 OA
ATOM     72  O   UNL A   1      48.082  28.476  25.333  1.00  0.00    -0.744 OA
ENDBRANCH  65  69
ENDBRANCH  48  62
BRANCH  49  73
ATOM     73  C   UNL A   1      37.129  32.266  30.274  1.00  0.00     0.023 A 
ATOM     74  C   UNL A   1      36.414  32.920  29.257  1.00  0.00     0.031 A 
ATOM     75  C   UNL A   1      36.482  32.052  31.503  1.00  0.00     0.131 A 
ATOM     76  C   UNL A   1      35.109  33.374  29.502  1.00  0.00     0.055 A 
ATOM     77  C   UNL A   1      35.167  32.465  31.726  1.00  0.00     0.041 A 
ATOM     78  F   UNL A   1      37.119  31.424  32.504  1.00  0.00    -0.206 F 
ATOM     79  C   UNL A   1      34.477  33.142  30.726  1.00  0.00     0.022 A 
BRANCH  76  80
ATOM     80  S   UNL A   1      34.271  34.339  28.215  1.00  0.00     0.124 S 
ATOM     81  O   UNL A   1      33.120  33.495  27.912  1.00  0.00    -0.237 OA
ATOM     82  O   UNL A   1      33.984  35.589  28.911  1.00  0.00    -0.237 OA
ATOM     83  O   UNL A   1      35.272  34.435  27.155  1.00  0.00    -0.744 OA
ENDBRANCH  76  80
ENDBRANCH  49  73
BRANCH  61  84
ATOM     84  C   UNL A   1      43.284  35.287  31.552  1.00  0.00     0.023 A 
ATOM     85  C   UNL A   1      43.585  36.342  30.674  1.00  0.00     0.031 A 
ATOM     86  C   UNL A   1      43.328  35.540  32.935  1.00  0.00     0.131 A 
ATOM     87  C   UNL A   1      43.960  37.592  31.190  1.00  0.00     0.055 A 
ATOM     88  C   UNL A   1      43.650  36.799  33.441  1.00  0.00     0.041 A 
ATOM     89  F   UNL A   1      43.049  34.565  33.816  1.00  0.00    -0.206 F 
ATOM     90  C   UNL A   1      43.979  37.831  32.567  1.00  0.00     0.022 A 
BRANCH  87  91
ATOM     91  S   UNL A   1      44.490  38.888  30.039  1.00  0.00     0.124 S 
ATOM     92  O   UNL A   1      45.102  39.861  30.939  1.00  0.00    -0.237 OA
ATOM     93  O   UNL A   1      45.406  38.171  29.159  1.00  0.00    -0.237 OA
ATOM     94  O   UNL A   1      43.243  39.323  29.412  1.00  0.00    -0.744 OA
ENDBRANCH  87  91
ENDBRANCH  61  84
ENDBRANCH  35  36
ENDBRANCH  27  30
ENDBRANCH  25  26
ENDBRANCH  24  25
ENDBRANCH   1  24
TORSDOF 17
ENDMDL
