MODEL 1
REMARK VINA RESULT:     -11.4      0.000      0.000
REMARK SMILES C[C@H](C(=O)NCCCCNC(=O)c1ccc(-c2c3nc(c(-c4cc(S(=O)(=O)[O-])ccc4F)c4ccc([nH]4)c(-c4cc(S(=O)(=O)[O-])ccc4F)c4nc(c(-c5cc(S(=O)(=O)[O-])ccc5F)c5ccc2[nH]5)C=C4)C=C3)cc1)[C@@H](C)C(=O)[C@H]1CC[C@H](C)CC1
REMARK SMILES IDX 7 1 6 2 5 3 3 4 4 5 2 7 1 8 76 9 77 10 78 11 79 12 80 13
REMARK SMILES IDX 84 14 83 15 82 16 85 17 81 18 86 19 8 20 9 21 10 22 11 23
REMARK SMILES IDX 12 25 13 26 14 27 75 28 15 29 74 30 16 31 17 32 18 33 68 34
REMARK SMILES IDX 19 35 73 36 67 37 69 38 20 39 72 40 66 41 65 42 21 44 53 45
REMARK SMILES IDX 33 46 52 47 34 48 37 49 51 50 70 51 35 52 36 53 50 55 71 56
REMARK SMILES IDX 38 57 22 58 23 59 31 60 24 61 30 62 32 63 29 64 25 65 26 66
REMARK SMILES IDX 27 67 28 68 54 69 55 70 63 71 56 72 62 73 64 74 61 75 57 76
REMARK SMILES IDX 58 77 59 78 60 79 39 80 40 81 48 82 41 83 47 84 49 85 46 86
REMARK SMILES IDX 42 87 43 88 44 89 45 90
REMARK H PARENT 5 6 10 24 69 43 37 54
REMARK Flexibility Score: inf
ROOT
ATOM      1  C   UNL A   1      35.481  21.860  26.478  1.00  0.00     0.023 C 
ENDROOT
BRANCH   1   2
ATOM      2  C   UNL A   1      34.034  21.717  26.921  1.00  0.00     0.116 C 
BRANCH   2   3
ATOM      3  N   UNL A   1      33.360  20.592  26.302  1.00  0.00    -0.356 N 
ATOM      4  C   UNL A   1      32.362  20.563  25.382  1.00  0.00     0.223 C 
ATOM      5  O   UNL A   1      32.113  19.480  24.843  1.00  0.00    -0.275 OA
ATOM      6  H   UNL A   1      33.678  19.707  26.595  1.00  0.00     0.163 HD
BRANCH   4   7
ATOM      7  C   UNL A   1      31.532  21.787  25.027  1.00  0.00     0.085 C 
ATOM      8  C   UNL A   1      30.741  22.214  26.275  1.00  0.00     0.019 C 
BRANCH   7   9
ATOM      9  C   UNL A   1      32.176  22.885  24.129  1.00  0.00     0.065 C 
ATOM     10  C   UNL A   1      32.552  22.333  22.741  1.00  0.00     0.017 C 
BRANCH   9  11
ATOM     11  C   UNL A   1      31.451  24.222  23.913  1.00  0.00     0.139 C 
ATOM     12  O   UNL A   1      30.453  24.263  23.182  1.00  0.00    -0.299 OA
BRANCH  11  13
ATOM     13  C   UNL A   1      31.996  25.540  24.497  1.00  0.00     0.056 C 
ATOM     14  C   UNL A   1      33.154  28.892  27.077  1.00  0.00     0.007 C 
ATOM     15  C   UNL A   1      32.582  27.558  26.602  1.00  0.00    -0.014 C 
ATOM     16  C   UNL A   1      33.675  26.632  26.051  1.00  0.00     0.004 C 
ATOM     17  C   UNL A   1      31.511  27.801  25.541  1.00  0.00     0.004 C 
ATOM     18  C   UNL A   1      33.096  25.307  25.537  1.00  0.00     0.012 C 
ATOM     19  C   UNL A   1      30.929  26.489  25.032  1.00  0.00     0.012 C 
ENDBRANCH  11  13
ENDBRANCH   9  11
ENDBRANCH   7   9
ENDBRANCH   4   7
ENDBRANCH   2   3
ENDBRANCH   1   2
BRANCH   1  20
ATOM     20  C   UNL A   1      35.636  22.255  25.006  1.00  0.00     0.023 C 
BRANCH  20  21
ATOM     21  C   UNL A   1      37.033  22.056  24.416  1.00  0.00     0.116 C 
BRANCH  21  22
ATOM     22  N   UNL A   1      37.722  20.903  24.974  1.00  0.00    -0.352 N 
ATOM     23  C   UNL A   1      38.871  20.854  25.732  1.00  0.00     0.251 C 
ATOM     24  H   UNL A   1      37.307  20.031  24.783  1.00  0.00     0.163 HD
ATOM     25  O   UNL A   1      39.423  19.783  25.942  1.00  0.00    -0.269 OA
BRANCH  23  26
ATOM     26  C   UNL A   1      39.444  22.109  26.267  1.00  0.00     0.039 A 
ATOM     27  C   UNL A   1      40.615  22.053  27.024  1.00  0.00     0.014 A 
ATOM     28  C   UNL A   1      38.833  23.340  26.006  1.00  0.00     0.014 A 
ATOM     29  C   UNL A   1      41.218  23.239  27.449  1.00  0.00     0.010 A 
ATOM     30  C   UNL A   1      39.481  24.520  26.356  1.00  0.00     0.010 A 
ATOM     31  C   UNL A   1      40.683  24.485  27.080  1.00  0.00    -0.014 A 
BRANCH  31  32
ATOM     32  C   UNL A   1      41.369  25.756  27.435  1.00  0.00     0.031 A 
ATOM     33  C   UNL A   1      40.652  26.805  28.242  1.00  0.00     0.074 A 
ATOM     34  C   UNL A   1      42.617  25.992  26.980  1.00  0.00     0.049 A 
ATOM     35  N   UNL A   1      41.054  28.000  28.590  1.00  0.00    -0.248 NA
ATOM     36  C   UNL A   1      39.290  26.477  28.691  1.00  0.00     0.031 C 
ATOM     37  C   UNL A   1      43.402  25.070  26.153  1.00  0.00     0.029 A 
ATOM     38  N   UNL A   1      43.444  27.077  27.137  1.00  0.00    -0.354 N 
ATOM     39  C   UNL A   1      39.993  28.571  29.287  1.00  0.00     0.074 A 
ATOM     40  C   UNL A   1      38.910  27.612  29.255  1.00  0.00     0.031 C 
ATOM     41  C   UNL A   1      44.602  25.616  25.903  1.00  0.00     0.029 A 
ATOM     42  C   UNL A   1      44.658  26.946  26.500  1.00  0.00     0.049 A 
ATOM     43  H   UNL A   1      43.192  27.873  27.658  1.00  0.00     0.167 HD
ATOM     44  C   UNL A   1      39.938  29.772  29.913  1.00  0.00     0.034 A 
ATOM     45  C   UNL A   1      45.692  27.806  26.394  1.00  0.00     0.034 A 
ATOM     46  C   UNL A   1      41.033  30.712  29.943  1.00  0.00     0.049 A 
ATOM     47  C   UNL A   1      45.594  29.149  27.073  1.00  0.00     0.074 A 
ATOM     48  C   UNL A   1      41.104  31.929  30.598  1.00  0.00     0.029 A 
ATOM     49  N   UNL A   1      42.244  30.548  29.281  1.00  0.00    -0.354 N 
ATOM     50  N   UNL A   1      44.604  29.651  27.775  1.00  0.00    -0.248 NA
ATOM     51  C   UNL A   1      46.758  30.037  26.955  1.00  0.00     0.031 C 
ATOM     52  C   UNL A   1      42.319  32.537  30.265  1.00  0.00     0.029 A 
ATOM     53  C   UNL A   1      43.050  31.661  29.480  1.00  0.00     0.049 A 
ATOM     54  H   UNL A   1      42.494  29.759  28.749  1.00  0.00     0.167 HD
ATOM     55  C   UNL A   1      45.040  30.900  28.208  1.00  0.00     0.074 A 
ATOM     56  C   UNL A   1      46.387  31.067  27.701  1.00  0.00     0.031 C 
ATOM     57  C   UNL A   1      44.388  31.824  28.960  1.00  0.00     0.034 A 
BRANCH  44  58
ATOM     58  C   UNL A   1      38.640  30.149  30.588  1.00  0.00     0.023 A 
ATOM     59  C   UNL A   1      37.632  30.863  29.916  1.00  0.00     0.031 A 
ATOM     60  C   UNL A   1      38.410  29.799  31.931  1.00  0.00     0.131 A 
ATOM     61  C   UNL A   1      36.479  31.269  30.606  1.00  0.00     0.055 A 
ATOM     62  C   UNL A   1      37.223  30.130  32.587  1.00  0.00     0.041 A 
ATOM     63  F   UNL A   1      39.342  29.137  32.634  1.00  0.00    -0.206 F 
ATOM     64  C   UNL A   1      36.255  30.882  31.929  1.00  0.00     0.022 A 
BRANCH  61  65
ATOM     65  S   UNL A   1      35.347  32.430  29.794  1.00  0.00     0.124 S 
ATOM     66  O   UNL A   1      34.465  32.802  30.899  1.00  0.00    -0.237 OA
ATOM     67  O   UNL A   1      36.251  33.472  29.320  1.00  0.00    -0.237 OA
ATOM     68  O   UNL A   1      34.719  31.624  28.750  1.00  0.00    -0.744 OA
ENDBRANCH  61  65
ENDBRANCH  44  58
BRANCH  45  69
ATOM     69  C   UNL A   1      46.901  27.438  25.600  1.00  0.00     0.023 A 
ATOM     70  C   UNL A   1      47.053  27.856  24.269  1.00  0.00     0.031 A 
ATOM     71  C   UNL A   1      47.907  26.624  26.153  1.00  0.00     0.131 A 
ATOM     72  C   UNL A   1      48.158  27.421  23.519  1.00  0.00     0.055 A 
ATOM     73  C   UNL A   1      49.034  26.243  25.422  1.00  0.00     0.041 A 
ATOM     74  F   UNL A   1      47.814  26.196  27.422  1.00  0.00    -0.206 F 
ATOM     75  C   UNL A   1      49.157  26.630  24.092  1.00  0.00     0.022 A 
BRANCH  72  76
ATOM     76  S   UNL A   1      48.225  27.827  21.752  1.00  0.00     0.124 S 
ATOM     77  O   UNL A   1      46.922  28.450  21.542  1.00  0.00    -0.237 OA
ATOM     78  O   UNL A   1      49.379  28.716  21.690  1.00  0.00    -0.237 OA
ATOM     79  O   UNL A   1      48.406  26.527  21.112  1.00  0.00    -0.744 OA
ENDBRANCH  72  76
ENDBRANCH  45  69
BRANCH  57  80
ATOM     80  C   UNL A   1      45.147  33.079  29.322  1.00  0.00     0.023 A 
ATOM     81  C   UNL A   1      45.036  34.259  28.568  1.00  0.00     0.031 A 
ATOM     82  C   UNL A   1      45.999  33.089  30.441  1.00  0.00     0.131 A 
ATOM     83  C   UNL A   1      45.809  35.381  28.906  1.00  0.00     0.055 A 
ATOM     84  C   UNL A   1      46.712  34.229  30.814  1.00  0.00     0.041 A 
ATOM     85  F   UNL A   1      46.149  31.989  31.198  1.00  0.00    -0.206 F 
ATOM     86  C   UNL A   1      46.630  35.380  30.037  1.00  0.00     0.022 A 
BRANCH  83  87
ATOM     87  S   UNL A   1      45.806  36.811  27.789  1.00  0.00     0.124 S 
ATOM     88  O   UNL A   1      47.004  36.572  26.990  1.00  0.00    -0.237 OA
ATOM     89  O   UNL A   1      44.534  36.659  27.091  1.00  0.00    -0.237 OA
ATOM     90  O   UNL A   1      45.883  37.955  28.696  1.00  0.00    -0.744 OA
ENDBRANCH  83  87
ENDBRANCH  57  80
ENDBRANCH  31  32
ENDBRANCH  23  26
ENDBRANCH  21  22
ENDBRANCH  20  21
ENDBRANCH   1  20
TORSDOF 17
ENDMDL
MODEL 2
REMARK VINA RESULT:     -11.4      5.946     11.121
REMARK SMILES C[C@H](C(=O)NCCCCNC(=O)c1ccc(-c2c3nc(c(-c4cc(S(=O)(=O)[O-])ccc4F)c4ccc([nH]4)c(-c4cc(S(=O)(=O)[O-])ccc4F)c4nc(c(-c5cc(S(=O)(=O)[O-])ccc5F)c5ccc2[nH]5)C=C4)C=C3)cc1)[C@@H](C)C(=O)[C@H]1CC[C@H](C)CC1
REMARK SMILES IDX 7 1 6 2 5 3 3 4 4 5 2 7 1 8 76 9 77 10 78 11 79 12 80 13
REMARK SMILES IDX 84 14 83 15 82 16 85 17 81 18 86 19 8 20 9 21 10 22 11 23
REMARK SMILES IDX 12 25 13 26 14 27 75 28 15 29 74 30 16 31 17 32 18 33 68 34
REMARK SMILES IDX 19 35 73 36 67 37 69 38 20 39 72 40 66 41 65 42 21 44 53 45
REMARK SMILES IDX 33 46 52 47 34 48 37 49 51 50 70 51 35 52 36 53 50 55 71 56
REMARK SMILES IDX 38 57 22 58 23 59 31 60 24 61 30 62 32 63 29 64 25 65 26 66
REMARK SMILES IDX 27 67 28 68 54 69 55 70 63 71 56 72 62 73 64 74 61 75 57 76
REMARK SMILES IDX 58 77 59 78 60 79 39 80 40 81 48 82 41 83 47 84 49 85 46 86
REMARK SMILES IDX 42 87 43 88 44 89 45 90
REMARK H PARENT 5 6 10 24 69 43 37 54
REMARK Flexibility Score: inf
ROOT
ATOM      1  C   UNL A   1      31.932  30.155  26.679  1.00  0.00     0.023 C 
ENDROOT
BRANCH   1   2
ATOM      2  C   UNL A   1      32.611  29.632  25.424  1.00  0.00     0.116 C 
BRANCH   2   3
ATOM      3  N   UNL A   1      31.736  29.623  24.267  1.00  0.00    -0.356 N 
ATOM      4  C   UNL A   1      31.688  28.776  23.207  1.00  0.00     0.223 C 
ATOM      5  O   UNL A   1      30.704  28.845  22.465  1.00  0.00    -0.275 OA
ATOM      6  H   UNL A   1      31.069  30.347  24.248  1.00  0.00     0.163 HD
BRANCH   4   7
ATOM      7  C   UNL A   1      32.801  27.789  22.890  1.00  0.00     0.085 C 
ATOM      8  C   UNL A   1      34.075  28.585  22.562  1.00  0.00     0.019 C 
BRANCH   7   9
ATOM      9  C   UNL A   1      32.918  26.499  23.755  1.00  0.00     0.065 C 
ATOM     10  C   UNL A   1      31.589  26.165  24.458  1.00  0.00     0.017 C 
BRANCH   9  11
ATOM     11  C   UNL A   1      33.448  25.200  23.129  1.00  0.00     0.139 C 
ATOM     12  O   UNL A   1      33.996  25.238  22.019  1.00  0.00    -0.299 OA
BRANCH  11  13
ATOM     13  C   UNL A   1      33.222  23.830  23.797  1.00  0.00     0.056 C 
ATOM     14  C   UNL A   1      33.315  19.609  24.985  1.00  0.00     0.007 C 
ATOM     15  C   UNL A   1      33.616  20.917  24.257  1.00  0.00    -0.014 C 
ATOM     16  C   UNL A   1      34.221  21.968  25.199  1.00  0.00     0.004 C 
ATOM     17  C   UNL A   1      32.341  21.457  23.612  1.00  0.00     0.004 C 
ATOM     18  C   UNL A   1      34.487  23.296  24.477  1.00  0.00     0.012 C 
ATOM     19  C   UNL A   1      32.601  22.773  22.890  1.00  0.00     0.012 C 
ENDBRANCH  11  13
ENDBRANCH   9  11
ENDBRANCH   7   9
ENDBRANCH   4   7
ENDBRANCH   2   3
ENDBRANCH   1   2
BRANCH   1  20
ATOM     20  C   UNL A   1      31.778  31.679  26.705  1.00  0.00     0.023 C 
BRANCH  20  21
ATOM     21  C   UNL A   1      32.957  32.449  27.301  1.00  0.00     0.116 C 
BRANCH  21  22
ATOM     22  N   UNL A   1      32.633  33.836  27.596  1.00  0.00    -0.352 N 
ATOM     23  C   UNL A   1      33.116  34.653  28.594  1.00  0.00     0.251 C 
ATOM     24  H   UNL A   1      31.973  34.251  26.995  1.00  0.00     0.163 HD
ATOM     25  O   UNL A   1      32.579  35.728  28.821  1.00  0.00    -0.269 OA
BRANCH  23  26
ATOM     26  C   UNL A   1      34.271  34.208  29.404  1.00  0.00     0.039 A 
ATOM     27  C   UNL A   1      34.043  33.455  30.557  1.00  0.00     0.014 A 
ATOM     28  C   UNL A   1      35.578  34.518  29.014  1.00  0.00     0.014 A 
ATOM     29  C   UNL A   1      35.128  32.945  31.274  1.00  0.00     0.010 A 
ATOM     30  C   UNL A   1      36.654  33.939  29.679  1.00  0.00     0.010 A 
ATOM     31  C   UNL A   1      36.443  33.143  30.816  1.00  0.00    -0.014 A 
BRANCH  31  32
ATOM     32  C   UNL A   1      37.603  32.520  31.508  1.00  0.00     0.031 A 
ATOM     33  C   UNL A   1      38.344  31.378  30.865  1.00  0.00     0.074 A 
ATOM     34  C   UNL A   1      37.952  32.941  32.740  1.00  0.00     0.049 A 
ATOM     35  N   UNL A   1      39.331  30.661  31.338  1.00  0.00    -0.248 NA
ATOM     36  C   UNL A   1      37.895  30.970  29.525  1.00  0.00     0.031 C 
ATOM     37  C   UNL A   1      37.285  34.012  33.487  1.00  0.00     0.029 A 
ATOM     38  N   UNL A   1      38.946  32.520  33.589  1.00  0.00    -0.354 N 
ATOM     39  C   UNL A   1      39.613  29.710  30.362  1.00  0.00     0.074 A 
ATOM     40  C   UNL A   1      38.649  29.905  29.299  1.00  0.00     0.031 C 
ATOM     41  C   UNL A   1      37.905  34.181  34.665  1.00  0.00     0.029 A 
ATOM     42  C   UNL A   1      38.978  33.199  34.787  1.00  0.00     0.049 A 
ATOM     43  H   UNL A   1      39.577  31.800  33.362  1.00  0.00     0.167 HD
ATOM     44  C   UNL A   1      40.597  28.778  30.344  1.00  0.00     0.034 A 
ATOM     45  C   UNL A   1      39.768  33.039  35.868  1.00  0.00     0.034 A 
ATOM     46  C   UNL A   1      41.556  28.605  31.409  1.00  0.00     0.049 A 
ATOM     47  C   UNL A   1      40.836  31.974  35.837  1.00  0.00     0.074 A 
ATOM     48  C   UNL A   1      42.629  27.733  31.465  1.00  0.00     0.029 A 
ATOM     49  N   UNL A   1      41.553  29.307  32.608  1.00  0.00    -0.354 N 
ATOM     50  N   UNL A   1      41.125  31.120  34.882  1.00  0.00    -0.248 NA
ATOM     51  C   UNL A   1      41.693  31.860  37.025  1.00  0.00     0.031 C 
ATOM     52  C   UNL A   1      43.222  27.847  32.727  1.00  0.00     0.029 A 
ATOM     53  C   UNL A   1      42.581  28.857  33.425  1.00  0.00     0.049 A 
ATOM     54  H   UNL A   1      40.916  30.018  32.844  1.00  0.00     0.167 HD
ATOM     55  C   UNL A   1      42.216  30.389  35.343  1.00  0.00     0.074 A 
ATOM     56  C   UNL A   1      42.542  30.914  36.653  1.00  0.00     0.031 C 
ATOM     57  C   UNL A   1      42.891  29.378  34.737  1.00  0.00     0.034 A 
BRANCH  44  58
ATOM     58  C   UNL A   1      40.664  27.855  29.150  1.00  0.00     0.023 A 
ATOM     59  C   UNL A   1      41.591  28.049  28.111  1.00  0.00     0.031 A 
ATOM     60  C   UNL A   1      39.777  26.769  29.041  1.00  0.00     0.131 A 
ATOM     61  C   UNL A   1      41.562  27.221  26.978  1.00  0.00     0.055 A 
ATOM     62  C   UNL A   1      39.810  25.895  27.952  1.00  0.00     0.041 A 
ATOM     63  F   UNL A   1      38.853  26.542  29.988  1.00  0.00    -0.206 F 
ATOM     64  C   UNL A   1      40.697  26.127  26.905  1.00  0.00     0.022 A 
BRANCH  61  65
ATOM     65  S   UNL A   1      42.568  27.681  25.541  1.00  0.00     0.124 S 
ATOM     66  O   UNL A   1      42.458  26.485  24.710  1.00  0.00    -0.237 OA
ATOM     67  O   UNL A   1      41.885  28.869  25.045  1.00  0.00    -0.237 OA
ATOM     68  O   UNL A   1      43.893  27.914  26.112  1.00  0.00    -0.744 OA
ENDBRANCH  61  65
ENDBRANCH  44  58
BRANCH  45  69
ATOM     69  C   UNL A   1      39.574  33.890  37.079  1.00  0.00     0.023 A 
ATOM     70  C   UNL A   1      38.938  33.388  38.226  1.00  0.00     0.031 A 
ATOM     71  C   UNL A   1      39.986  35.235  37.090  1.00  0.00     0.131 A 
ATOM     72  C   UNL A   1      38.688  34.237  39.316  1.00  0.00     0.055 A 
ATOM     73  C   UNL A   1      39.790  36.059  38.201  1.00  0.00     0.041 A 
ATOM     74  F   UNL A   1      40.600  35.766  36.022  1.00  0.00    -0.206 F 
ATOM     75  C   UNL A   1      39.124  35.564  39.318  1.00  0.00     0.022 A 
BRANCH  72  76
ATOM     76  S   UNL A   1      37.701  33.606  40.701  1.00  0.00     0.124 S 
ATOM     77  O   UNL A   1      38.624  32.657  41.315  1.00  0.00    -0.237 OA
ATOM     78  O   UNL A   1      37.432  34.822  41.460  1.00  0.00    -0.237 OA
ATOM     79  O   UNL A   1      36.538  33.012  40.047  1.00  0.00    -0.744 OA
ENDBRANCH  72  76
ENDBRANCH  45  69
BRANCH  57  80
ATOM     80  C   UNL A   1      44.084  28.809  35.468  1.00  0.00     0.023 A 
ATOM     81  C   UNL A   1      43.964  27.727  36.357  1.00  0.00     0.031 A 
ATOM     82  C   UNL A   1      45.361  29.364  35.272  1.00  0.00     0.131 A 
ATOM     83  C   UNL A   1      45.090  27.274  37.062  1.00  0.00     0.055 A 
ATOM     84  C   UNL A   1      46.490  28.863  35.922  1.00  0.00     0.041 A 
ATOM     85  F   UNL A   1      45.537  30.401  34.437  1.00  0.00    -0.206 F 
ATOM     86  C   UNL A   1      46.356  27.820  36.834  1.00  0.00     0.022 A 
BRANCH  83  87
ATOM     87  S   UNL A   1      44.863  26.025  38.358  1.00  0.00     0.124 S 
ATOM     88  O   UNL A   1      46.232  25.575  38.588  1.00  0.00    -0.237 OA
ATOM     89  O   UNL A   1      44.258  26.801  39.436  1.00  0.00    -0.237 OA
ATOM     90  O   UNL A   1      43.982  25.039  37.735  1.00  0.00    -0.744 OA
ENDBRANCH  83  87
ENDBRANCH  57  80
ENDBRANCH  31  32
ENDBRANCH  23  26
ENDBRANCH  21  22
ENDBRANCH  20  21
ENDBRANCH   1  20
TORSDOF 17
ENDMDL
MODEL 3
REMARK VINA RESULT:     -11.4      1.379      7.800
REMARK SMILES C[C@H](C(=O)NCCCCNC(=O)c1ccc(-c2c3nc(c(-c4cc(S(=O)(=O)[O-])ccc4F)c4ccc([nH]4)c(-c4cc(S(=O)(=O)[O-])ccc4F)c4nc(c(-c5cc(S(=O)(=O)[O-])ccc5F)c5ccc2[nH]5)C=C4)C=C3)cc1)[C@@H](C)C(=O)[C@H]1CC[C@H](C)CC1
REMARK SMILES IDX 7 1 6 2 5 3 3 4 4 5 2 7 1 8 76 9 77 10 78 11 79 12 80 13
REMARK SMILES IDX 84 14 83 15 82 16 85 17 81 18 86 19 8 20 9 21 10 22 11 23
REMARK SMILES IDX 12 25 13 26 14 27 75 28 15 29 74 30 16 31 17 32 18 33 68 34
REMARK SMILES IDX 19 35 73 36 67 37 69 38 20 39 72 40 66 41 65 42 21 44 53 45
REMARK SMILES IDX 33 46 52 47 34 48 37 49 51 50 70 51 35 52 36 53 50 55 71 56
REMARK SMILES IDX 38 57 22 58 23 59 31 60 24 61 30 62 32 63 29 64 25 65 26 66
REMARK SMILES IDX 27 67 28 68 54 69 55 70 63 71 56 72 62 73 64 74 61 75 57 76
REMARK SMILES IDX 58 77 59 78 60 79 39 80 40 81 48 82 41 83 47 84 49 85 46 86
REMARK SMILES IDX 42 87 43 88 44 89 45 90
REMARK H PARENT 5 6 10 24 69 43 37 54
REMARK Flexibility Score: inf
ROOT
ATOM      1  C   UNL A   1      35.079  20.661  25.065  1.00  0.00     0.023 C 
ENDROOT
BRANCH   1   2
ATOM      2  C   UNL A   1      33.759  21.224  24.562  1.00  0.00     0.116 C 
BRANCH   2   3
ATOM      3  N   UNL A   1      33.926  22.208  23.510  1.00  0.00    -0.356 N 
ATOM      4  C   UNL A   1      33.832  23.561  23.548  1.00  0.00     0.223 C 
ATOM      5  O   UNL A   1      34.241  24.191  22.568  1.00  0.00    -0.275 OA
ATOM      6  H   UNL A   1      34.145  21.834  22.625  1.00  0.00     0.163 HD
BRANCH   4   7
ATOM      7  C   UNL A   1      33.218  24.312  24.720  1.00  0.00     0.085 C 
ATOM      8  C   UNL A   1      34.320  25.151  25.388  1.00  0.00     0.019 C 
BRANCH   7   9
ATOM      9  C   UNL A   1      31.800  24.931  24.544  1.00  0.00     0.065 C 
ATOM     10  C   UNL A   1      30.835  23.950  23.853  1.00  0.00     0.017 C 
BRANCH   9  11
ATOM     11  C   UNL A   1      31.065  25.524  25.756  1.00  0.00     0.139 C 
ATOM     12  O   UNL A   1      30.409  24.779  26.496  1.00  0.00    -0.299 OA
BRANCH  11  13
ATOM     13  C   UNL A   1      31.034  27.043  26.018  1.00  0.00     0.056 C 
ATOM     14  C   UNL A   1      31.985  31.297  26.504  1.00  0.00     0.007 C 
ATOM     15  C   UNL A   1      32.124  29.803  26.217  1.00  0.00    -0.014 C 
ATOM     16  C   UNL A   1      31.255  29.367  25.029  1.00  0.00     0.004 C 
ATOM     17  C   UNL A   1      31.760  28.999  27.463  1.00  0.00     0.004 C 
ATOM     18  C   UNL A   1      31.364  27.859  24.764  1.00  0.00     0.012 C 
ATOM     19  C   UNL A   1      31.872  27.502  27.206  1.00  0.00     0.012 C 
ENDBRANCH  11  13
ENDBRANCH   9  11
ENDBRANCH   7   9
ENDBRANCH   4   7
ENDBRANCH   2   3
ENDBRANCH   1   2
BRANCH   1  20
ATOM     20  C   UNL A   1      36.309  21.346  24.462  1.00  0.00     0.023 C 
BRANCH  20  21
ATOM     21  C   UNL A   1      37.311  21.905  25.472  1.00  0.00     0.116 C 
BRANCH  21  22
ATOM     22  N   UNL A   1      38.339  20.943  25.838  1.00  0.00    -0.352 N 
ATOM     23  C   UNL A   1      39.598  21.161  26.350  1.00  0.00     0.251 C 
ATOM     24  H   UNL A   1      38.098  19.998  25.701  1.00  0.00     0.163 HD
ATOM     25  O   UNL A   1      40.406  20.244  26.406  1.00  0.00    -0.269 OA
BRANCH  23  26
ATOM     26  C   UNL A   1      39.973  22.518  26.807  1.00  0.00     0.039 A 
ATOM     27  C   UNL A   1      40.913  22.655  27.830  1.00  0.00     0.014 A 
ATOM     28  C   UNL A   1      39.410  23.651  26.212  1.00  0.00     0.014 A 
ATOM     29  C   UNL A   1      41.347  23.930  28.200  1.00  0.00     0.010 A 
ATOM     30  C   UNL A   1      39.906  24.913  26.523  1.00  0.00     0.010 A 
ATOM     31  C   UNL A   1      40.883  25.069  27.519  1.00  0.00    -0.014 A 
BRANCH  31  32
ATOM     32  C   UNL A   1      41.413  26.424  27.829  1.00  0.00     0.031 A 
ATOM     33  C   UNL A   1      42.814  26.800  27.425  1.00  0.00     0.074 A 
ATOM     34  C   UNL A   1      40.656  27.294  28.528  1.00  0.00     0.049 A 
ATOM     35  N   UNL A   1      43.477  27.901  27.666  1.00  0.00    -0.248 NA
ATOM     36  C   UNL A   1      43.579  25.791  26.676  1.00  0.00     0.031 C 
ATOM     37  C   UNL A   1      39.298  27.032  29.012  1.00  0.00     0.029 A 
ATOM     38  N   UNL A   1      40.918  28.571  28.960  1.00  0.00    -0.354 N 
ATOM     39  C   UNL A   1      44.740  27.714  27.111  1.00  0.00     0.074 A 
ATOM     40  C   UNL A   1      44.766  26.369  26.578  1.00  0.00     0.031 C 
ATOM     41  C   UNL A   1      38.839  28.121  29.648  1.00  0.00     0.029 A 
ATOM     42  C   UNL A   1      39.882  29.141  29.666  1.00  0.00     0.049 A 
ATOM     43  H   UNL A   1      41.767  29.036  28.781  1.00  0.00     0.167 HD
ATOM     44  C   UNL A   1      45.771  28.591  27.034  1.00  0.00     0.034 A 
ATOM     45  C   UNL A   1      39.789  30.341  30.276  1.00  0.00     0.034 A 
ATOM     46  C   UNL A   1      45.723  29.934  27.563  1.00  0.00     0.049 A 
ATOM     47  C   UNL A   1      40.961  31.287  30.203  1.00  0.00     0.074 A 
ATOM     48  C   UNL A   1      46.688  30.923  27.486  1.00  0.00     0.029 A 
ATOM     49  N   UNL A   1      44.660  30.473  28.277  1.00  0.00    -0.354 N 
ATOM     50  N   UNL A   1      42.128  31.115  29.626  1.00  0.00    -0.248 NA
ATOM     51  C   UNL A   1      40.799  32.594  30.853  1.00  0.00     0.031 C 
ATOM     52  C   UNL A   1      46.245  32.026  28.222  1.00  0.00     0.029 A 
ATOM     53  C   UNL A   1      44.965  31.766  28.680  1.00  0.00     0.049 A 
ATOM     54  H   UNL A   1      43.815  30.007  28.469  1.00  0.00     0.167 HD
ATOM     55  C   UNL A   1      42.826  32.304  29.818  1.00  0.00     0.074 A 
ATOM     56  C   UNL A   1      41.942  33.189  30.549  1.00  0.00     0.031 C 
ATOM     57  C   UNL A   1      44.081  32.637  29.421  1.00  0.00     0.034 A 
BRANCH  44  58
ATOM     58  C   UNL A   1      47.047  28.113  26.382  1.00  0.00     0.023 A 
ATOM     59  C   UNL A   1      47.246  28.191  24.993  1.00  0.00     0.031 A 
ATOM     60  C   UNL A   1      48.079  27.558  27.161  1.00  0.00     0.131 A 
ATOM     61  C   UNL A   1      48.410  27.656  24.418  1.00  0.00     0.055 A 
ATOM     62  C   UNL A   1      49.272  27.107  26.593  1.00  0.00     0.041 A 
ATOM     63  F   UNL A   1      47.941  27.436  28.491  1.00  0.00    -0.206 F 
ATOM     64  C   UNL A   1      49.437  27.141  25.212  1.00  0.00     0.022 A 
BRANCH  61  65
ATOM     65  S   UNL A   1      48.497  27.510  22.613  1.00  0.00     0.124 S 
ATOM     66  O   UNL A   1      49.747  28.208  22.321  1.00  0.00    -0.237 OA
ATOM     67  O   UNL A   1      48.511  26.066  22.413  1.00  0.00    -0.237 OA
ATOM     68  O   UNL A   1      47.289  28.193  22.155  1.00  0.00    -0.744 OA
ENDBRANCH  61  65
ENDBRANCH  44  58
BRANCH  45  69
ATOM     69  C   UNL A   1      38.552  30.714  31.024  1.00  0.00     0.023 A 
ATOM     70  C   UNL A   1      37.472  31.338  30.379  1.00  0.00     0.031 A 
ATOM     71  C   UNL A   1      38.450  30.487  32.409  1.00  0.00     0.131 A 
ATOM     72  C   UNL A   1      36.359  31.758  31.125  1.00  0.00     0.055 A 
ATOM     73  C   UNL A   1      37.315  30.852  33.136  1.00  0.00     0.041 A 
ATOM     74  F   UNL A   1      39.452  29.893  33.075  1.00  0.00    -0.206 F 
ATOM     75  C   UNL A   1      36.266  31.505  32.496  1.00  0.00     0.022 A 
BRANCH  72  76
ATOM     76  S   UNL A   1      35.069  32.725  30.293  1.00  0.00     0.124 S 
ATOM     77  O   UNL A   1      34.036  32.787  31.322  1.00  0.00    -0.237 OA
ATOM     78  O   UNL A   1      35.765  33.974  30.005  1.00  0.00    -0.237 OA
ATOM     79  O   UNL A   1      34.738  31.915  29.123  1.00  0.00    -0.744 OA
ENDBRANCH  72  76
ENDBRANCH  45  69
BRANCH  57  80
ATOM     80  C   UNL A   1      44.554  34.038  29.729  1.00  0.00     0.023 A 
ATOM     81  C   UNL A   1      44.318  35.112  28.853  1.00  0.00     0.031 A 
ATOM     82  C   UNL A   1      45.256  34.300  30.919  1.00  0.00     0.131 A 
ATOM     83  C   UNL A   1      44.832  36.383  29.152  1.00  0.00     0.055 A 
ATOM     84  C   UNL A   1      45.704  35.581  31.244  1.00  0.00     0.041 A 
ATOM     85  F   UNL A   1      45.515  33.313  31.792  1.00  0.00    -0.206 F 
ATOM     86  C   UNL A   1      45.505  36.630  30.352  1.00  0.00     0.022 A 
BRANCH  83  87
ATOM     87  S   UNL A   1      44.698  37.693  27.903  1.00  0.00     0.124 S 
ATOM     88  O   UNL A   1      45.334  38.820  28.577  1.00  0.00    -0.237 OA
ATOM     89  O   UNL A   1      45.434  37.126  26.777  1.00  0.00    -0.237 OA
ATOM     90  O   UNL A   1      43.257  37.825  27.697  1.00  0.00    -0.744 OA
ENDBRANCH  83  87
ENDBRANCH  57  80
ENDBRANCH  31  32
ENDBRANCH  23  26
ENDBRANCH  21  22
ENDBRANCH  20  21
ENDBRANCH   1  20
TORSDOF 17
ENDMDL
