MODEL 1
REMARK VINA RESULT:     -12.3      0.000      0.000
REMARK SMILES O=C(NCCCCNC(=O)c1cccc2c1ccn2Cc1ccncc1)c1ccc(-c2c3nc(c(-c4cc(S(=O)(=O)[O-])ccc4F)c4ccc([nH]4)c(-c4cc(S(=O)(=O)[O-])ccc4F)c4nc(c(-c5cc(S(=O)(=O)[O-])ccc5F)c5ccc2[nH]5)C=C4)C=C3)cc1
REMARK SMILES IDX 5 1 4 2 3 3 1 4 2 5 27 7 28 8 89 9 29 10 88 11 30 12 31 13
REMARK SMILES IDX 32 14 82 15 33 16 87 17 81 18 83 19 34 20 86 21 80 22 79 23
REMARK SMILES IDX 35 25 67 26 47 27 66 28 48 29 51 30 65 31 84 32 49 33 50 34
REMARK SMILES IDX 64 36 85 37 52 38 36 39 37 40 45 41 38 42 44 43 46 44 43 45
REMARK SMILES IDX 39 46 40 47 41 48 42 49 68 50 69 51 77 52 70 53 76 54 78 55
REMARK SMILES IDX 75 56 71 57 72 58 73 59 74 60 53 61 54 62 62 63 55 64 61 65
REMARK SMILES IDX 63 66 60 67 56 68 57 69 58 70 59 71 6 72 7 73 8 74 9 75
REMARK SMILES IDX 10 77 11 78 12 79 16 80 13 81 15 82 17 83 14 84 19 85 18 86
REMARK SMILES IDX 20 87 21 88 22 89 26 90 23 91 25 92 24 93
REMARK H PARENT 3 6 83 24 51 35 8 76
REMARK Flexibility Score: inf
ROOT
ATOM      1  C   UNL A   1      31.575  31.578  26.479  1.00  0.00     0.023 C 
ENDROOT
BRANCH   1   2
ATOM      2  C   UNL A   1      32.702  32.261  27.234  1.00  0.00     0.116 C 
BRANCH   2   3
ATOM      3  N   UNL A   1      32.445  33.671  27.577  1.00  0.00    -0.352 N 
ATOM      4  O   UNL A   1      32.516  35.425  29.042  1.00  0.00    -0.269 OA
ATOM      5  C   UNL A   1      33.031  34.413  28.607  1.00  0.00     0.251 C 
ATOM      6  H   UNL A   1      31.789  34.143  27.015  1.00  0.00     0.163 HD
BRANCH   5   7
ATOM      7  C   UNL A   1      34.332  33.936  29.118  1.00  0.00     0.039 A 
ATOM      8  C   UNL A   1      34.499  33.106  30.227  1.00  0.00     0.014 A 
ATOM      9  C   UNL A   1      35.411  34.270  28.320  1.00  0.00     0.014 A 
ATOM     10  C   UNL A   1      35.768  32.566  30.455  1.00  0.00     0.010 A 
ATOM     11  C   UNL A   1      36.494  33.453  28.332  1.00  0.00     0.010 A 
ATOM     12  C   UNL A   1      36.764  32.739  29.478  1.00  0.00    -0.014 A 
BRANCH  12  13
ATOM     13  C   UNL A   1      38.103  32.173  29.565  1.00  0.00     0.031 A 
ATOM     14  C   UNL A   1      38.207  30.788  29.053  1.00  0.00     0.074 A 
ATOM     15  C   UNL A   1      39.192  32.912  29.889  1.00  0.00     0.049 A 
ATOM     16  N   UNL A   1      38.291  29.711  29.758  1.00  0.00    -0.248 NA
ATOM     17  C   UNL A   1      37.987  30.550  27.619  1.00  0.00     0.031 C 
ATOM     18  C   UNL A   1      39.307  34.368  30.097  1.00  0.00     0.029 A 
ATOM     19  N   UNL A   1      40.484  32.515  30.017  1.00  0.00    -0.354 N 
ATOM     20  C   UNL A   1      38.394  28.670  28.843  1.00  0.00     0.074 A 
ATOM     21  C   UNL A   1      37.971  29.215  27.577  1.00  0.00     0.031 C 
ATOM     22  C   UNL A   1      40.605  34.743  30.066  1.00  0.00     0.029 A 
ATOM     23  C   UNL A   1      41.417  33.545  30.057  1.00  0.00     0.049 A 
ATOM     24  H   UNL A   1      40.742  31.566  30.076  1.00  0.00     0.167 HD
ATOM     25  C   UNL A   1      39.063  27.524  29.160  1.00  0.00     0.034 A 
ATOM     26  C   UNL A   1      42.770  33.426  30.086  1.00  0.00     0.034 A 
ATOM     27  C   UNL A   1      39.356  27.483  30.573  1.00  0.00     0.049 A 
ATOM     28  C   UNL A   1      43.079  32.042  30.517  1.00  0.00     0.074 A 
ATOM     29  C   UNL A   1      38.589  27.463  31.720  1.00  0.00     0.029 A 
ATOM     30  N   UNL A   1      40.611  27.895  30.960  1.00  0.00    -0.354 N 
ATOM     31  N   UNL A   1      42.841  31.592  31.719  1.00  0.00    -0.248 NA
ATOM     32  C   UNL A   1      43.183  31.033  29.476  1.00  0.00     0.031 C 
ATOM     33  C   UNL A   1      39.281  28.302  32.639  1.00  0.00     0.029 A 
ATOM     34  C   UNL A   1      40.478  28.718  32.049  1.00  0.00     0.049 A 
ATOM     35  H   UNL A   1      41.459  27.642  30.529  1.00  0.00     0.167 HD
ATOM     36  C   UNL A   1      42.303  30.331  31.510  1.00  0.00     0.074 A 
ATOM     37  C   UNL A   1      42.623  30.005  30.119  1.00  0.00     0.031 C 
ATOM     38  C   UNL A   1      41.390  29.799  32.376  1.00  0.00     0.034 A 
BRANCH  25  39
ATOM     39  C   UNL A   1      39.773  26.641  28.163  1.00  0.00     0.023 A 
ATOM     40  C   UNL A   1      40.862  27.072  27.384  1.00  0.00     0.031 A 
ATOM     41  C   UNL A   1      39.505  25.257  28.128  1.00  0.00     0.131 A 
ATOM     42  C   UNL A   1      41.626  26.176  26.626  1.00  0.00     0.055 A 
ATOM     43  C   UNL A   1      40.308  24.351  27.425  1.00  0.00     0.041 A 
ATOM     44  F   UNL A   1      38.486  24.732  28.827  1.00  0.00    -0.206 F 
ATOM     45  C   UNL A   1      41.380  24.809  26.670  1.00  0.00     0.022 A 
BRANCH  42  46
ATOM     46  S   UNL A   1      42.975  26.785  25.575  1.00  0.00     0.124 S 
ATOM     47  O   UNL A   1      42.279  27.734  24.712  1.00  0.00    -0.237 OA
ATOM     48  O   UNL A   1      43.876  27.372  26.565  1.00  0.00    -0.237 OA
ATOM     49  O   UNL A   1      43.474  25.577  24.926  1.00  0.00    -0.744 OA
ENDBRANCH  42  46
ENDBRANCH  25  39
BRANCH  26  50
ATOM     50  C   UNL A   1      43.740  34.223  29.299  1.00  0.00     0.023 A 
ATOM     51  C   UNL A   1      43.803  34.055  27.904  1.00  0.00     0.031 A 
ATOM     52  C   UNL A   1      44.823  34.870  29.921  1.00  0.00     0.131 A 
ATOM     53  C   UNL A   1      44.944  34.448  27.192  1.00  0.00     0.055 A 
ATOM     54  C   UNL A   1      45.950  35.289  29.201  1.00  0.00     0.041 A 
ATOM     55  F   UNL A   1      44.842  35.034  31.252  1.00  0.00    -0.206 F 
ATOM     56  C   UNL A   1      46.023  35.060  27.831  1.00  0.00     0.022 A 
BRANCH  53  57
ATOM     57  S   UNL A   1      45.095  34.058  25.428  1.00  0.00     0.124 S 
ATOM     58  O   UNL A   1      43.884  34.661  24.877  1.00  0.00    -0.237 OA
ATOM     59  O   UNL A   1      46.345  34.729  25.086  1.00  0.00    -0.237 OA
ATOM     60  O   UNL A   1      45.129  32.599  25.412  1.00  0.00    -0.744 OA
ENDBRANCH  53  57
ENDBRANCH  26  50
BRANCH  38  61
ATOM     61  C   UNL A   1      41.137  30.500  33.698  1.00  0.00     0.023 A 
ATOM     62  C   UNL A   1      40.253  31.592  33.673  1.00  0.00     0.031 A 
ATOM     63  C   UNL A   1      41.880  30.299  34.878  1.00  0.00     0.131 A 
ATOM     64  C   UNL A   1      40.176  32.470  34.759  1.00  0.00     0.055 A 
ATOM     65  C   UNL A   1      41.745  31.136  35.992  1.00  0.00     0.041 A 
ATOM     66  F   UNL A   1      42.815  29.346  34.967  1.00  0.00    -0.206 F 
ATOM     67  C   UNL A   1      40.904  32.242  35.928  1.00  0.00     0.022 A 
BRANCH  64  68
ATOM     68  S   UNL A   1      39.253  34.019  34.605  1.00  0.00     0.124 S 
ATOM     69  O   UNL A   1      39.330  34.559  35.959  1.00  0.00    -0.237 OA
ATOM     70  O   UNL A   1      40.026  34.742  33.597  1.00  0.00    -0.237 OA
ATOM     71  O   UNL A   1      37.922  33.597  34.176  1.00  0.00    -0.744 OA
ENDBRANCH  64  68
ENDBRANCH  38  61
ENDBRANCH  12  13
ENDBRANCH   5   7
ENDBRANCH   2   3
ENDBRANCH   1   2
BRANCH   1  72
ATOM     72  C   UNL A   1      31.734  30.061  26.314  1.00  0.00     0.023 C 
BRANCH  72  73
ATOM     73  C   UNL A   1      32.281  29.557  24.972  1.00  0.00     0.116 C 
BRANCH  73  74
ATOM     74  N   UNL A   1      31.328  29.662  23.885  1.00  0.00    -0.352 N 
ATOM     75  C   UNL A   1      30.690  28.665  23.184  1.00  0.00     0.251 C 
ATOM     76  H   UNL A   1      31.105  30.581  23.607  1.00  0.00     0.163 HD
ATOM     77  O   UNL A   1      30.098  28.929  22.145  1.00  0.00    -0.269 OA
BRANCH  75  78
ATOM     78  C   UNL A   1      30.783  27.267  23.647  1.00  0.00     0.049 A 
ATOM     79  C   UNL A   1      29.934  26.770  24.646  1.00  0.00     0.014 A 
ATOM     80  C   UNL A   1      31.760  26.426  23.073  1.00  0.00     0.012 A 
ATOM     81  C   UNL A   1      30.120  25.485  25.146  1.00  0.00     0.003 A 
ATOM     82  C   UNL A   1      31.911  25.123  23.569  1.00  0.00     0.049 A 
ATOM     83  C   UNL A   1      32.730  26.606  22.051  1.00  0.00     0.029 A 
ATOM     84  C   UNL A   1      31.114  24.645  24.626  1.00  0.00     0.027 A 
ATOM     85  N   UNL A   1      32.921  24.532  22.828  1.00  0.00    -0.343 N 
ATOM     86  C   UNL A   1      33.477  25.460  21.980  1.00  0.00     0.087 A 
BRANCH  85  87
ATOM     87  C   UNL A   1      33.405  23.160  22.958  1.00  0.00     0.157 C 
BRANCH  87  88
ATOM     88  C   UNL A   1      34.587  23.039  23.891  1.00  0.00    -0.025 A 
ATOM     89  C   UNL A   1      35.903  23.064  23.414  1.00  0.00     0.025 A 
ATOM     90  C   UNL A   1      34.400  22.915  25.271  1.00  0.00     0.025 A 
ATOM     91  C   UNL A   1      36.953  22.948  24.311  1.00  0.00     0.111 A 
ATOM     92  C   UNL A   1      35.517  22.824  26.092  1.00  0.00     0.111 A 
ATOM     93  N   UNL A   1      36.790  22.849  25.644  1.00  0.00    -0.265 NA
ENDBRANCH  87  88
ENDBRANCH  85  87
ENDBRANCH  75  78
ENDBRANCH  73  74
ENDBRANCH  72  73
ENDBRANCH   1  72
TORSDOF 16
ENDMDL
MODEL 2
REMARK VINA RESULT:     -12.1      3.094      7.912
REMARK SMILES O=C(NCCCCNC(=O)c1cccc2c1ccn2Cc1ccncc1)c1ccc(-c2c3nc(c(-c4cc(S(=O)(=O)[O-])ccc4F)c4ccc([nH]4)c(-c4cc(S(=O)(=O)[O-])ccc4F)c4nc(c(-c5cc(S(=O)(=O)[O-])ccc5F)c5ccc2[nH]5)C=C4)C=C3)cc1
REMARK SMILES IDX 5 1 4 2 3 3 1 4 2 5 27 7 28 8 89 9 29 10 88 11 30 12 31 13
REMARK SMILES IDX 32 14 82 15 33 16 87 17 81 18 83 19 34 20 86 21 80 22 79 23
REMARK SMILES IDX 35 25 67 26 47 27 66 28 48 29 51 30 65 31 84 32 49 33 50 34
REMARK SMILES IDX 64 36 85 37 52 38 36 39 37 40 45 41 38 42 44 43 46 44 43 45
REMARK SMILES IDX 39 46 40 47 41 48 42 49 68 50 69 51 77 52 70 53 76 54 78 55
REMARK SMILES IDX 75 56 71 57 72 58 73 59 74 60 53 61 54 62 62 63 55 64 61 65
REMARK SMILES IDX 63 66 60 67 56 68 57 69 58 70 59 71 6 72 7 73 8 74 9 75
REMARK SMILES IDX 10 77 11 78 12 79 16 80 13 81 15 82 17 83 14 84 19 85 18 86
REMARK SMILES IDX 20 87 21 88 22 89 26 90 23 91 25 92 24 93
REMARK H PARENT 3 6 83 24 51 35 8 76
REMARK Flexibility Score: inf
ROOT
ATOM      1  C   UNL A   1      37.558  21.653  24.610  1.00  0.00     0.023 C 
ENDROOT
BRANCH   1   2
ATOM      2  C   UNL A   1      38.080  22.508  25.752  1.00  0.00     0.116 C 
BRANCH   2   3
ATOM      3  N   UNL A   1      39.056  21.835  26.626  1.00  0.00    -0.352 N 
ATOM      4  O   UNL A   1      41.107  21.724  27.631  1.00  0.00    -0.269 OA
ATOM      5  C   UNL A   1      40.179  22.403  27.237  1.00  0.00     0.251 C 
ATOM      6  H   UNL A   1      38.899  20.880  26.801  1.00  0.00     0.163 HD
BRANCH   5   7
ATOM      7  C   UNL A   1      40.169  23.868  27.425  1.00  0.00     0.039 A 
ATOM      8  C   UNL A   1      39.020  24.659  27.467  1.00  0.00     0.014 A 
ATOM      9  C   UNL A   1      41.410  24.413  27.695  1.00  0.00     0.014 A 
ATOM     10  C   UNL A   1      39.159  25.992  27.867  1.00  0.00     0.010 A 
ATOM     11  C   UNL A   1      41.464  25.552  28.430  1.00  0.00     0.010 A 
ATOM     12  C   UNL A   1      40.400  26.425  28.365  1.00  0.00    -0.014 A 
BRANCH  12  13
ATOM     13  C   UNL A   1      40.657  27.766  28.873  1.00  0.00     0.031 A 
ATOM     14  C   UNL A   1      41.825  28.431  28.255  1.00  0.00     0.074 A 
ATOM     15  C   UNL A   1      39.789  28.422  29.682  1.00  0.00     0.049 A 
ATOM     16  N   UNL A   1      42.991  28.591  28.786  1.00  0.00    -0.248 NA
ATOM     17  C   UNL A   1      41.767  28.772  26.826  1.00  0.00     0.031 C 
ATOM     18  C   UNL A   1      38.435  28.031  30.114  1.00  0.00     0.029 A 
ATOM     19  N   UNL A   1      39.907  29.657  30.233  1.00  0.00    -0.354 N 
ATOM     20  C   UNL A   1      43.740  29.288  27.845  1.00  0.00     0.074 A 
ATOM     21  C   UNL A   1      43.024  29.162  26.600  1.00  0.00     0.031 C 
ATOM     22  C   UNL A   1      37.782  29.098  30.627  1.00  0.00     0.029 A 
ATOM     23  C   UNL A   1      38.733  30.181  30.762  1.00  0.00     0.049 A 
ATOM     24  H   UNL A   1      40.761  30.146  30.255  1.00  0.00     0.167 HD
ATOM     25  C   UNL A   1      44.749  30.120  28.233  1.00  0.00     0.034 A 
ATOM     26  C   UNL A   1      38.550  31.422  31.283  1.00  0.00     0.034 A 
ATOM     27  C   UNL A   1      45.051  29.933  29.632  1.00  0.00     0.049 A 
ATOM     28  C   UNL A   1      39.891  31.963  31.606  1.00  0.00     0.074 A 
ATOM     29  C   UNL A   1      45.508  28.875  30.390  1.00  0.00     0.029 A 
ATOM     30  N   UNL A   1      44.470  30.814  30.516  1.00  0.00    -0.354 N 
ATOM     31  N   UNL A   1      40.650  31.489  32.556  1.00  0.00    -0.248 NA
ATOM     32  C   UNL A   1      40.581  32.693  30.555  1.00  0.00     0.031 C 
ATOM     33  C   UNL A   1      44.773  28.951  31.607  1.00  0.00     0.029 A 
ATOM     34  C   UNL A   1      43.975  30.097  31.575  1.00  0.00     0.049 A 
ATOM     35  H   UNL A   1      44.420  31.791  30.407  1.00  0.00     0.167 HD
ATOM     36  C   UNL A   1      41.915  31.442  31.991  1.00  0.00     0.074 A 
ATOM     37  C   UNL A   1      41.828  32.280  30.793  1.00  0.00     0.031 C 
ATOM     38  C   UNL A   1      42.824  30.493  32.366  1.00  0.00     0.034 A 
BRANCH  25  39
ATOM     39  C   UNL A   1      45.194  31.343  27.468  1.00  0.00     0.023 A 
ATOM     40  C   UNL A   1      44.414  32.507  27.345  1.00  0.00     0.031 A 
ATOM     41  C   UNL A   1      46.527  31.449  27.017  1.00  0.00     0.131 A 
ATOM     42  C   UNL A   1      44.936  33.691  26.810  1.00  0.00     0.055 A 
ATOM     43  C   UNL A   1      47.069  32.649  26.545  1.00  0.00     0.041 A 
ATOM     44  F   UNL A   1      47.362  30.400  27.078  1.00  0.00    -0.206 F 
ATOM     45  C   UNL A   1      46.273  33.782  26.441  1.00  0.00     0.022 A 
BRANCH  42  46
ATOM     46  S   UNL A   1      43.873  35.146  26.599  1.00  0.00     0.124 S 
ATOM     47  O   UNL A   1      43.179  34.835  25.354  1.00  0.00    -0.237 OA
ATOM     48  O   UNL A   1      43.057  35.091  27.810  1.00  0.00    -0.237 OA
ATOM     49  O   UNL A   1      44.820  36.255  26.543  1.00  0.00    -0.744 OA
ENDBRANCH  42  46
ENDBRANCH  25  39
BRANCH  26  50
ATOM     50  C   UNL A   1      37.395  32.318  31.037  1.00  0.00     0.023 A 
ATOM     51  C   UNL A   1      36.669  32.826  32.129  1.00  0.00     0.031 A 
ATOM     52  C   UNL A   1      36.793  32.394  29.768  1.00  0.00     0.131 A 
ATOM     53  C   UNL A   1      35.365  33.309  31.951  1.00  0.00     0.055 A 
ATOM     54  C   UNL A   1      35.500  32.905  29.590  1.00  0.00     0.041 A 
ATOM     55  F   UNL A   1      37.417  31.899  28.689  1.00  0.00    -0.206 F 
ATOM     56  C   UNL A   1      34.771  33.346  30.689  1.00  0.00     0.022 A 
BRANCH  53  57
ATOM     57  S   UNL A   1      34.368  33.785  33.389  1.00  0.00     0.124 S 
ATOM     58  O   UNL A   1      35.221  33.376  34.501  1.00  0.00    -0.237 OA
ATOM     59  O   UNL A   1      34.239  35.225  33.191  1.00  0.00    -0.237 OA
ATOM     60  O   UNL A   1      33.146  33.005  33.219  1.00  0.00    -0.744 OA
ENDBRANCH  53  57
ENDBRANCH  26  50
BRANCH  38  61
ATOM     61  C   UNL A   1      42.525  29.629  33.576  1.00  0.00     0.023 A 
ATOM     62  C   UNL A   1      43.173  29.975  34.774  1.00  0.00     0.031 A 
ATOM     63  C   UNL A   1      41.849  28.393  33.543  1.00  0.00     0.131 A 
ATOM     64  C   UNL A   1      43.191  29.088  35.855  1.00  0.00     0.055 A 
ATOM     65  C   UNL A   1      41.806  27.540  34.653  1.00  0.00     0.041 A 
ATOM     66  F   UNL A   1      41.283  27.930  32.422  1.00  0.00    -0.206 F 
ATOM     67  C   UNL A   1      42.498  27.877  35.811  1.00  0.00     0.022 A 
BRANCH  64  68
ATOM     68  S   UNL A   1      44.258  29.420  37.279  1.00  0.00     0.124 S 
ATOM     69  O   UNL A   1      45.471  29.927  36.643  1.00  0.00    -0.237 OA
ATOM     70  O   UNL A   1      43.482  30.408  38.026  1.00  0.00    -0.237 OA
ATOM     71  O   UNL A   1      44.392  28.120  37.931  1.00  0.00    -0.744 OA
ENDBRANCH  64  68
ENDBRANCH  38  61
ENDBRANCH  12  13
ENDBRANCH   5   7
ENDBRANCH   2   3
ENDBRANCH   1   2
BRANCH   1  72
ATOM     72  C   UNL A   1      36.524  20.594  25.015  1.00  0.00     0.023 C 
BRANCH  72  73
ATOM     73  C   UNL A   1      35.179  21.100  25.552  1.00  0.00     0.116 C 
BRANCH  73  74
ATOM     74  N   UNL A   1      34.094  20.157  25.364  1.00  0.00    -0.352 N 
ATOM     75  C   UNL A   1      32.816  20.378  24.905  1.00  0.00     0.251 C 
ATOM     76  H   UNL A   1      34.300  19.224  25.601  1.00  0.00     0.163 HD
ATOM     77  O   UNL A   1      31.960  19.511  25.033  1.00  0.00    -0.269 OA
BRANCH  75  78
ATOM     78  C   UNL A   1      32.460  21.688  24.326  1.00  0.00     0.049 A 
ATOM     79  C   UNL A   1      32.884  22.059  23.043  1.00  0.00     0.014 A 
ATOM     80  C   UNL A   1      31.687  22.583  25.096  1.00  0.00     0.012 A 
ATOM     81  C   UNL A   1      32.634  23.343  22.567  1.00  0.00     0.003 A 
ATOM     82  C   UNL A   1      31.418  23.861  24.587  1.00  0.00     0.049 A 
ATOM     83  C   UNL A   1      31.092  22.506  26.384  1.00  0.00     0.029 A 
ATOM     84  C   UNL A   1      31.908  24.267  23.332  1.00  0.00     0.027 A 
ATOM     85  N   UNL A   1      30.647  24.512  25.536  1.00  0.00    -0.343 N 
ATOM     86  C   UNL A   1      30.533  23.727  26.658  1.00  0.00     0.087 A 
BRANCH  85  87
ATOM     87  C   UNL A   1      30.091  25.858  25.429  1.00  0.00     0.157 C 
BRANCH  87  88
ATOM     88  C   UNL A   1      31.141  26.939  25.544  1.00  0.00    -0.025 A 
ATOM     89  C   UNL A   1      31.280  27.932  24.566  1.00  0.00     0.025 A 
ATOM     90  C   UNL A   1      32.000  26.989  26.645  1.00  0.00     0.025 A 
ATOM     91  C   UNL A   1      32.260  28.901  24.717  1.00  0.00     0.111 A 
ATOM     92  C   UNL A   1      32.939  28.011  26.717  1.00  0.00     0.111 A 
ATOM     93  N   UNL A   1      33.081  28.974  25.782  1.00  0.00    -0.265 NA
ENDBRANCH  87  88
ENDBRANCH  85  87
ENDBRANCH  75  78
ENDBRANCH  73  74
ENDBRANCH  72  73
ENDBRANCH   1  72
TORSDOF 16
ENDMDL
MODEL 3
REMARK VINA RESULT:     -12.0      3.126      7.752
REMARK SMILES O=C(NCCCCNC(=O)c1cccc2c1ccn2Cc1ccncc1)c1ccc(-c2c3nc(c(-c4cc(S(=O)(=O)[O-])ccc4F)c4ccc([nH]4)c(-c4cc(S(=O)(=O)[O-])ccc4F)c4nc(c(-c5cc(S(=O)(=O)[O-])ccc5F)c5ccc2[nH]5)C=C4)C=C3)cc1
REMARK SMILES IDX 5 1 4 2 3 3 1 4 2 5 27 7 28 8 89 9 29 10 88 11 30 12 31 13
REMARK SMILES IDX 32 14 82 15 33 16 87 17 81 18 83 19 34 20 86 21 80 22 79 23
REMARK SMILES IDX 35 25 67 26 47 27 66 28 48 29 51 30 65 31 84 32 49 33 50 34
REMARK SMILES IDX 64 36 85 37 52 38 36 39 37 40 45 41 38 42 44 43 46 44 43 45
REMARK SMILES IDX 39 46 40 47 41 48 42 49 68 50 69 51 77 52 70 53 76 54 78 55
REMARK SMILES IDX 75 56 71 57 72 58 73 59 74 60 53 61 54 62 62 63 55 64 61 65
REMARK SMILES IDX 63 66 60 67 56 68 57 69 58 70 59 71 6 72 7 73 8 74 9 75
REMARK SMILES IDX 10 77 11 78 12 79 16 80 13 81 15 82 17 83 14 84 19 85 18 86
REMARK SMILES IDX 20 87 21 88 22 89 26 90 23 91 25 92 24 93
REMARK H PARENT 3 6 83 24 51 35 8 76
REMARK Flexibility Score: inf
ROOT
ATOM      1  C   UNL A   1      36.390  23.382  25.610  1.00  0.00     0.023 C 
ENDROOT
BRANCH   1   2
ATOM      2  C   UNL A   1      37.867  23.716  25.736  1.00  0.00     0.116 C 
BRANCH   2   3
ATOM      3  N   UNL A   1      38.730  22.567  26.061  1.00  0.00    -0.352 N 
ATOM      4  O   UNL A   1      40.768  21.675  26.591  1.00  0.00    -0.269 OA
ATOM      5  C   UNL A   1      39.981  22.597  26.685  1.00  0.00     0.251 C 
ATOM      6  H   UNL A   1      38.386  21.679  25.814  1.00  0.00     0.163 HD
BRANCH   5   7
ATOM      7  C   UNL A   1      40.291  23.787  27.504  1.00  0.00     0.039 A 
ATOM      8  C   UNL A   1      41.577  24.209  27.846  1.00  0.00     0.014 A 
ATOM      9  C   UNL A   1      39.189  24.562  27.816  1.00  0.00     0.014 A 
ATOM     10  C   UNL A   1      41.716  25.467  28.438  1.00  0.00     0.010 A 
ATOM     11  C   UNL A   1      39.377  25.890  28.021  1.00  0.00     0.010 A 
ATOM     12  C   UNL A   1      40.595  26.313  28.507  1.00  0.00    -0.014 A 
BRANCH  12  13
ATOM     13  C   UNL A   1      40.622  27.668  29.039  1.00  0.00     0.031 A 
ATOM     14  C   UNL A   1      41.593  28.560  28.367  1.00  0.00     0.074 A 
ATOM     15  C   UNL A   1      39.703  28.127  29.923  1.00  0.00     0.049 A 
ATOM     16  N   UNL A   1      42.739  28.936  28.825  1.00  0.00    -0.248 NA
ATOM     17  C   UNL A   1      41.368  28.910  26.957  1.00  0.00     0.031 C 
ATOM     18  C   UNL A   1      38.484  27.471  30.431  1.00  0.00     0.029 A 
ATOM     19  N   UNL A   1      39.617  29.351  30.505  1.00  0.00    -0.354 N 
ATOM     20  C   UNL A   1      43.271  29.783  27.860  1.00  0.00     0.074 A 
ATOM     21  C   UNL A   1      42.507  29.542  26.661  1.00  0.00     0.031 C 
ATOM     22  C   UNL A   1      37.675  28.380  31.019  1.00  0.00     0.029 A 
ATOM     23  C   UNL A   1      38.404  29.626  31.126  1.00  0.00     0.049 A 
ATOM     24  H   UNL A   1      40.360  29.998  30.486  1.00  0.00     0.167 HD
ATOM     25  C   UNL A   1      44.124  30.789  28.207  1.00  0.00     0.034 A 
ATOM     26  C   UNL A   1      38.022  30.797  31.697  1.00  0.00     0.034 A 
ATOM     27  C   UNL A   1      44.555  30.639  29.576  1.00  0.00     0.049 A 
ATOM     28  C   UNL A   1      39.252  31.584  31.949  1.00  0.00     0.074 A 
ATOM     29  C   UNL A   1      45.261  29.677  30.268  1.00  0.00     0.029 A 
ATOM     30  N   UNL A   1      43.878  31.373  30.524  1.00  0.00    -0.354 N 
ATOM     31  N   UNL A   1      40.153  31.250  32.831  1.00  0.00    -0.248 NA
ATOM     32  C   UNL A   1      39.711  32.454  30.878  1.00  0.00     0.031 C 
ATOM     33  C   UNL A   1      44.613  29.585  31.533  1.00  0.00     0.029 A 
ATOM     34  C   UNL A   1      43.607  30.554  31.590  1.00  0.00     0.049 A 
ATOM     35  H   UNL A   1      43.632  32.323  30.450  1.00  0.00     0.167 HD
ATOM     36  C   UNL A   1      41.360  31.462  32.183  1.00  0.00     0.074 A 
ATOM     37  C   UNL A   1      41.029  32.289  31.020  1.00  0.00     0.031 C 
ATOM     38  C   UNL A   1      42.460  30.702  32.467  1.00  0.00     0.034 A 
BRANCH  25  39
ATOM     39  C   UNL A   1      44.269  32.089  27.453  1.00  0.00     0.023 A 
ATOM     40  C   UNL A   1      43.592  33.270  27.809  1.00  0.00     0.031 A 
ATOM     41  C   UNL A   1      45.273  32.230  26.473  1.00  0.00     0.131 A 
ATOM     42  C   UNL A   1      43.903  34.502  27.222  1.00  0.00     0.055 A 
ATOM     43  C   UNL A   1      45.631  33.471  25.935  1.00  0.00     0.041 A 
ATOM     44  F   UNL A   1      45.980  31.170  26.050  1.00  0.00    -0.206 F 
ATOM     45  C   UNL A   1      44.947  34.619  26.311  1.00  0.00     0.022 A 
BRANCH  42  46
ATOM     46  S   UNL A   1      42.954  35.987  27.654  1.00  0.00     0.124 S 
ATOM     47  O   UNL A   1      41.823  35.421  28.380  1.00  0.00    -0.237 OA
ATOM     48  O   UNL A   1      43.920  36.728  28.463  1.00  0.00    -0.237 OA
ATOM     49  O   UNL A   1      42.647  36.585  26.358  1.00  0.00    -0.744 OA
ENDBRANCH  42  46
ENDBRANCH  25  39
BRANCH  26  50
ATOM     50  C   UNL A   1      36.700  31.454  31.556  1.00  0.00     0.023 A 
ATOM     51  C   UNL A   1      36.138  31.607  30.276  1.00  0.00     0.031 A 
ATOM     52  C   UNL A   1      36.161  32.232  32.596  1.00  0.00     0.131 A 
ATOM     53  C   UNL A   1      35.137  32.562  30.050  1.00  0.00     0.055 A 
ATOM     54  C   UNL A   1      35.140  33.165  32.372  1.00  0.00     0.041 A 
ATOM     55  F   UNL A   1      36.673  32.159  33.834  1.00  0.00    -0.206 F 
ATOM     56  C   UNL A   1      34.637  33.348  31.089  1.00  0.00     0.022 A 
BRANCH  53  57
ATOM     57  S   UNL A   1      34.551  32.884  28.365  1.00  0.00     0.124 S 
ATOM     58  O   UNL A   1      33.929  31.611  28.010  1.00  0.00    -0.237 OA
ATOM     59  O   UNL A   1      33.631  33.996  28.583  1.00  0.00    -0.237 OA
ATOM     60  O   UNL A   1      35.778  33.203  27.642  1.00  0.00    -0.744 OA
ENDBRANCH  53  57
ENDBRANCH  26  50
BRANCH  38  61
ATOM     61  C   UNL A   1      42.420  29.774  33.666  1.00  0.00     0.023 A 
ATOM     62  C   UNL A   1      43.009  30.249  34.850  1.00  0.00     0.031 A 
ATOM     63  C   UNL A   1      42.061  28.412  33.626  1.00  0.00     0.131 A 
ATOM     64  C   UNL A   1      43.277  29.377  35.911  1.00  0.00     0.055 A 
ATOM     65  C   UNL A   1      42.263  27.558  34.717  1.00  0.00     0.041 A 
ATOM     66  F   UNL A   1      41.583  27.843  32.513  1.00  0.00    -0.206 F 
ATOM     67  C   UNL A   1      42.894  28.036  35.861  1.00  0.00     0.022 A 
BRANCH  64  68
ATOM     68  S   UNL A   1      44.284  29.935  37.307  1.00  0.00     0.124 S 
ATOM     69  O   UNL A   1      44.538  28.688  38.023  1.00  0.00    -0.237 OA
ATOM     70  O   UNL A   1      45.444  30.522  36.639  1.00  0.00    -0.237 OA
ATOM     71  O   UNL A   1      43.425  30.890  38.003  1.00  0.00    -0.744 OA
ENDBRANCH  64  68
ENDBRANCH  38  61
ENDBRANCH  12  13
ENDBRANCH   5   7
ENDBRANCH   2   3
ENDBRANCH   1   2
BRANCH   1  72
ATOM     72  C   UNL A   1      36.040  21.905  25.831  1.00  0.00     0.023 C 
BRANCH  72  73
ATOM     73  C   UNL A   1      34.767  21.600  26.631  1.00  0.00     0.116 C 
BRANCH  73  74
ATOM     74  N   UNL A   1      33.960  20.545  26.050  1.00  0.00    -0.352 N 
ATOM     75  C   UNL A   1      32.911  20.635  25.166  1.00  0.00     0.251 C 
ATOM     76  H   UNL A   1      34.198  19.630  26.329  1.00  0.00     0.163 HD
ATOM     77  O   UNL A   1      32.195  19.662  24.963  1.00  0.00    -0.269 OA
BRANCH  75  78
ATOM     78  C   UNL A   1      32.603  21.925  24.519  1.00  0.00     0.049 A 
ATOM     79  C   UNL A   1      33.173  22.280  23.289  1.00  0.00     0.014 A 
ATOM     80  C   UNL A   1      31.726  22.819  25.170  1.00  0.00     0.012 A 
ATOM     81  C   UNL A   1      32.959  23.549  22.758  1.00  0.00     0.003 A 
ATOM     82  C   UNL A   1      31.498  24.081  24.604  1.00  0.00     0.049 A 
ATOM     83  C   UNL A   1      30.980  22.754  26.378  1.00  0.00     0.029 A 
ATOM     84  C   UNL A   1      32.129  24.472  23.409  1.00  0.00     0.027 A 
ATOM     85  N   UNL A   1      30.605  24.733  25.438  1.00  0.00    -0.343 N 
ATOM     86  C   UNL A   1      30.370  23.968  26.555  1.00  0.00     0.087 A 
BRANCH  85  87
ATOM     87  C   UNL A   1      30.041  26.066  25.235  1.00  0.00     0.157 C 
BRANCH  87  88
ATOM     88  C   UNL A   1      31.050  27.170  25.452  1.00  0.00    -0.025 A 
ATOM     89  C   UNL A   1      31.852  27.215  26.600  1.00  0.00     0.025 A 
ATOM     90  C   UNL A   1      31.225  28.177  24.499  1.00  0.00     0.025 A 
ATOM     91  C   UNL A   1      32.761  28.249  26.752  1.00  0.00     0.111 A 
ATOM     92  C   UNL A   1      32.177  29.162  24.733  1.00  0.00     0.111 A 
ATOM     93  N   UNL A   1      32.956  29.215  25.833  1.00  0.00    -0.265 NA
ENDBRANCH  87  88
ENDBRANCH  85  87
ENDBRANCH  75  78
ENDBRANCH  73  74
ENDBRANCH  72  73
ENDBRANCH   1  72
TORSDOF 16
ENDMDL
