MODEL 1
REMARK VINA RESULT:     -13.1      0.000      0.000
REMARK SMILES Cc1cc2nc(NC(=O)[C@H]3[C@@H](C(=O)NCCCCNC(=O)c4ccc(-c5c6nc(c(-c7cc(S(=O)(=O)[O-])ccc7F)c7ccc([nH]7)c(-c7cc(S(=O)(=O)[O-])ccc7F)c7nc(c(-c8cc(S(=O)(=O)[O-])ccc8F)c8ccc5[nH]8)C=C7)C=C6)cc4)[C@@H]4C=C[C@H]3C4)sc2cc1C
REMARK SMILES IDX 17 1 16 2 15 3 14 4 12 5 13 6 11 8 10 9 88 10 85 11 87 12
REMARK SMILES IDX 89 13 86 14 8 15 7 16 9 18 6 19 1 20 2 21 3 22 93 23 4 24
REMARK SMILES IDX 92 25 94 26 5 27 91 28 90 29 18 30 19 31 20 32 21 34 22 35
REMARK SMILES IDX 23 36 84 37 24 38 83 39 25 40 26 41 27 42 77 43 28 44 82 45
REMARK SMILES IDX 76 46 78 47 29 48 81 49 75 50 74 51 30 53 62 54 42 55 61 56
REMARK SMILES IDX 43 57 46 58 60 59 79 60 44 61 45 62 59 64 80 65 47 66 31 67
REMARK SMILES IDX 32 68 40 69 33 70 39 71 41 72 38 73 34 74 35 75 36 76 37 77
REMARK SMILES IDX 63 78 64 79 72 80 65 81 71 82 73 83 70 84 66 85 67 86 68 87
REMARK SMILES IDX 69 88 48 89 49 90 57 91 50 92 56 93 58 94 55 95 51 96 52 97
REMARK SMILES IDX 53 98 54 99
REMARK H PARENT 14 7 7 17 19 33 78 52 46 63
REMARK Flexibility Score: inf
ROOT
ATOM      1  C   UNL A   1      38.774  22.193  26.138  1.00  0.00     0.023 C 
ENDROOT
BRANCH   1   2
ATOM      2  C   UNL A   1      38.366  23.663  26.127  1.00  0.00     0.023 C 
BRANCH   2   3
ATOM      3  C   UNL A   1      36.878  23.889  25.881  1.00  0.00     0.116 C 
BRANCH   3   4
ATOM      4  N   UNL A   1      36.061  22.919  26.581  1.00  0.00    -0.356 N 
ATOM      5  C   UNL A   1      34.883  22.325  26.296  1.00  0.00     0.224 C 
ATOM      6  O   UNL A   1      34.540  21.418  27.068  1.00  0.00    -0.275 OA
ATOM      7  H   UNL A   1      36.444  22.634  27.441  1.00  0.00     0.163 HD
BRANCH   5   8
ATOM      8  C   UNL A   1      33.952  22.686  25.149  1.00  0.00     0.098 C 
ATOM      9  C   UNL A   1      32.480  23.025  25.433  1.00  0.00     0.099 C 
ATOM     10  C   UNL A   1      31.695  21.930  24.642  1.00  0.00     0.025 C 
ATOM     11  C   UNL A   1      33.826  21.687  23.961  1.00  0.00     0.025 C 
ATOM     12  C   UNL A   1      31.752  22.417  23.196  1.00  0.00    -0.027 C 
ATOM     13  C   UNL A   1      32.686  20.780  24.407  1.00  0.00     0.017 C 
ATOM     14  C   UNL A   1      33.043  22.337  22.815  1.00  0.00    -0.027 C 
BRANCH   9  15
ATOM     15  C   UNL A   1      32.022  23.585  26.796  1.00  0.00     0.230 C 
ATOM     16  N   UNL A   1      31.642  24.910  26.933  1.00  0.00    -0.302 N 
ATOM     17  H   UNL A   1      31.671  25.297  27.838  1.00  0.00     0.172 HD
ATOM     18  O   UNL A   1      32.006  22.900  27.821  1.00  0.00    -0.274 OA
BRANCH  16  19
ATOM     19  C   UNL A   1      31.230  25.724  25.911  1.00  0.00     0.190 A 
ATOM     20  C   UNL A   1      27.239  28.729  22.680  1.00  0.00     0.044 C 
ATOM     21  C   UNL A   1      28.604  28.315  23.156  1.00  0.00    -0.046 A 
ATOM     22  C   UNL A   1      28.666  27.222  24.017  1.00  0.00     0.033 A 
ATOM     23  C   UNL A   1      29.800  28.955  22.780  1.00  0.00    -0.047 A 
ATOM     24  C   UNL A   1      29.889  26.836  24.574  1.00  0.00     0.084 A 
ATOM     25  C   UNL A   1      31.050  28.540  23.318  1.00  0.00     0.025 A 
ATOM     26  C   UNL A   1      29.807  30.116  21.824  1.00  0.00     0.044 C 
ATOM     27  N   UNL A   1      30.008  25.859  25.500  1.00  0.00    -0.220 NA
ATOM     28  C   UNL A   1      31.070  27.483  24.239  1.00  0.00     0.057 A 
ATOM     29  S   UNL A   1      32.364  26.751  25.154  1.00  0.00    -0.097 S 
ENDBRANCH  16  19
ENDBRANCH   9  15
ENDBRANCH   5   8
ENDBRANCH   3   4
ENDBRANCH   2   3
ENDBRANCH   1   2
BRANCH   1  30
ATOM     30  C   UNL A   1      40.173  21.937  26.712  1.00  0.00     0.116 C 
BRANCH  30  31
ATOM     31  N   UNL A   1      41.241  22.158  25.758  1.00  0.00    -0.352 N 
ATOM     32  C   UNL A   1      42.174  23.145  25.586  1.00  0.00     0.251 C 
ATOM     33  H   UNL A   1      41.311  21.442  25.085  1.00  0.00     0.163 HD
ATOM     34  O   UNL A   1      43.033  22.935  24.725  1.00  0.00    -0.269 OA
BRANCH  32  35
ATOM     35  C   UNL A   1      42.177  24.444  26.313  1.00  0.00     0.039 A 
ATOM     36  C   UNL A   1      42.807  24.673  27.534  1.00  0.00     0.014 A 
ATOM     37  C   UNL A   1      41.408  25.480  25.750  1.00  0.00     0.014 A 
ATOM     38  C   UNL A   1      42.591  25.851  28.230  1.00  0.00     0.010 A 
ATOM     39  C   UNL A   1      41.209  26.677  26.431  1.00  0.00     0.010 A 
ATOM     40  C   UNL A   1      41.759  26.833  27.697  1.00  0.00    -0.014 A 
BRANCH  40  41
ATOM     41  C   UNL A   1      41.562  28.023  28.513  1.00  0.00     0.031 A 
ATOM     42  C   UNL A   1      42.542  29.121  28.271  1.00  0.00     0.074 A 
ATOM     43  C   UNL A   1      40.558  28.149  29.399  1.00  0.00     0.049 A 
ATOM     44  N   UNL A   1      43.437  29.597  29.075  1.00  0.00    -0.248 NA
ATOM     45  C   UNL A   1      42.618  29.653  26.903  1.00  0.00     0.031 C 
ATOM     46  C   UNL A   1      39.364  27.311  29.542  1.00  0.00     0.029 A 
ATOM     47  N   UNL A   1      40.351  29.141  30.305  1.00  0.00    -0.354 N 
ATOM     48  C   UNL A   1      44.082  30.618  28.373  1.00  0.00     0.074 A 
ATOM     49  C   UNL A   1      43.640  30.503  27.006  1.00  0.00     0.031 C 
ATOM     50  C   UNL A   1      38.454  27.969  30.295  1.00  0.00     0.029 A 
ATOM     51  C   UNL A   1      39.061  29.185  30.809  1.00  0.00     0.049 A 
ATOM     52  H   UNL A   1      41.054  29.774  30.578  1.00  0.00     0.167 HD
ATOM     53  C   UNL A   1      44.801  31.595  28.998  1.00  0.00     0.034 A 
ATOM     54  C   UNL A   1      38.507  30.202  31.513  1.00  0.00     0.034 A 
ATOM     55  C   UNL A   1      45.115  31.233  30.351  1.00  0.00     0.049 A 
ATOM     56  C   UNL A   1      39.601  31.043  32.056  1.00  0.00     0.074 A 
ATOM     57  C   UNL A   1      45.892  30.263  30.946  1.00  0.00     0.029 A 
ATOM     58  N   UNL A   1      44.316  31.741  31.346  1.00  0.00    -0.354 N 
ATOM     59  N   UNL A   1      40.421  30.667  32.997  1.00  0.00    -0.248 NA
ATOM     60  C   UNL A   1      40.055  32.163  31.245  1.00  0.00     0.031 C 
ATOM     61  C   UNL A   1      45.202  29.918  32.141  1.00  0.00     0.029 A 
ATOM     62  C   UNL A   1      44.065  30.726  32.231  1.00  0.00     0.049 A 
ATOM     63  H   UNL A   1      43.982  32.666  31.410  1.00  0.00     0.167 HD
ATOM     64  C   UNL A   1      41.650  31.183  32.616  1.00  0.00     0.074 A 
ATOM     65  C   UNL A   1      41.342  32.183  31.596  1.00  0.00     0.031 C 
ATOM     66  C   UNL A   1      42.819  30.563  32.954  1.00  0.00     0.034 A 
BRANCH  53  67
ATOM     67  C   UNL A   1      44.943  33.011  28.486  1.00  0.00     0.023 A 
ATOM     68  C   UNL A   1      46.097  33.471  27.827  1.00  0.00     0.031 A 
ATOM     69  C   UNL A   1      43.827  33.873  28.433  1.00  0.00     0.131 A 
ATOM     70  C   UNL A   1      46.127  34.704  27.163  1.00  0.00     0.055 A 
ATOM     71  C   UNL A   1      43.833  35.075  27.714  1.00  0.00     0.041 A 
ATOM     72  F   UNL A   1      42.668  33.543  29.026  1.00  0.00    -0.206 F 
ATOM     73  C   UNL A   1      44.989  35.496  27.070  1.00  0.00     0.022 A 
BRANCH  70  74
ATOM     74  S   UNL A   1      47.659  35.285  26.386  1.00  0.00     0.124 S 
ATOM     75  O   UNL A   1      47.413  36.717  26.268  1.00  0.00    -0.237 OA
ATOM     76  O   UNL A   1      48.661  34.891  27.373  1.00  0.00    -0.237 OA
ATOM     77  O   UNL A   1      47.707  34.541  25.129  1.00  0.00    -0.744 OA
ENDBRANCH  70  74
ENDBRANCH  53  67
BRANCH  54  78
ATOM     78  C   UNL A   1      37.146  30.742  31.297  1.00  0.00     0.023 A 
ATOM     79  C   UNL A   1      36.688  30.966  29.984  1.00  0.00     0.031 A 
ATOM     80  C   UNL A   1      36.420  31.326  32.346  1.00  0.00     0.131 A 
ATOM     81  C   UNL A   1      35.574  31.781  29.747  1.00  0.00     0.055 A 
ATOM     82  C   UNL A   1      35.297  32.127  32.108  1.00  0.00     0.041 A 
ATOM     83  F   UNL A   1      36.827  31.185  33.617  1.00  0.00    -0.206 F 
ATOM     84  C   UNL A   1      34.877  32.369  30.803  1.00  0.00     0.022 A 
BRANCH  81  85
ATOM     85  S   UNL A   1      35.063  32.162  28.049  1.00  0.00     0.124 S 
ATOM     86  O   UNL A   1      35.183  30.862  27.394  1.00  0.00    -0.237 OA
ATOM     87  O   UNL A   1      33.700  32.642  28.251  1.00  0.00    -0.237 OA
ATOM     88  O   UNL A   1      36.033  33.164  27.616  1.00  0.00    -0.744 OA
ENDBRANCH  81  85
ENDBRANCH  54  78
BRANCH  66  89
ATOM     89  C   UNL A   1      42.792  29.439  33.964  1.00  0.00     0.023 A 
ATOM     90  C   UNL A   1      43.401  29.681  35.209  1.00  0.00     0.031 A 
ATOM     91  C   UNL A   1      42.428  28.112  33.666  1.00  0.00     0.131 A 
ATOM     92  C   UNL A   1      43.678  28.622  36.080  1.00  0.00     0.055 A 
ATOM     93  C   UNL A   1      42.638  27.066  34.573  1.00  0.00     0.041 A 
ATOM     94  F   UNL A   1      41.949  27.768  32.463  1.00  0.00    -0.206 F 
ATOM     95  C   UNL A   1      43.284  27.316  35.779  1.00  0.00     0.022 A 
BRANCH  92  96
ATOM     96  S   UNL A   1      44.716  28.891  37.540  1.00  0.00     0.124 S 
ATOM     97  O   UNL A   1      44.253  30.192  38.012  1.00  0.00    -0.237 OA
ATOM     98  O   UNL A   1      44.361  27.754  38.387  1.00  0.00    -0.237 OA
ATOM     99  O   UNL A   1      46.079  28.866  37.015  1.00  0.00    -0.744 OA
ENDBRANCH  92  96
ENDBRANCH  66  89
ENDBRANCH  40  41
ENDBRANCH  32  35
ENDBRANCH  30  31
ENDBRANCH   1  30
TORSDOF 16
ENDMDL
MODEL 2
REMARK VINA RESULT:     -12.9      3.160      8.931
REMARK SMILES Cc1cc2nc(NC(=O)[C@H]3[C@@H](C(=O)NCCCCNC(=O)c4ccc(-c5c6nc(c(-c7cc(S(=O)(=O)[O-])ccc7F)c7ccc([nH]7)c(-c7cc(S(=O)(=O)[O-])ccc7F)c7nc(c(-c8cc(S(=O)(=O)[O-])ccc8F)c8ccc5[nH]8)C=C7)C=C6)cc4)[C@@H]4C=C[C@H]3C4)sc2cc1C
REMARK SMILES IDX 17 1 16 2 15 3 14 4 12 5 13 6 11 8 10 9 88 10 85 11 87 12
REMARK SMILES IDX 89 13 86 14 8 15 7 16 9 18 6 19 1 20 2 21 3 22 93 23 4 24
REMARK SMILES IDX 92 25 94 26 5 27 91 28 90 29 18 30 19 31 20 32 21 34 22 35
REMARK SMILES IDX 23 36 84 37 24 38 83 39 25 40 26 41 27 42 77 43 28 44 82 45
REMARK SMILES IDX 76 46 78 47 29 48 81 49 75 50 74 51 30 53 62 54 42 55 61 56
REMARK SMILES IDX 43 57 46 58 60 59 79 60 44 61 45 62 59 64 80 65 47 66 31 67
REMARK SMILES IDX 32 68 40 69 33 70 39 71 41 72 38 73 34 74 35 75 36 76 37 77
REMARK SMILES IDX 63 78 64 79 72 80 65 81 71 82 73 83 70 84 66 85 67 86 68 87
REMARK SMILES IDX 69 88 48 89 49 90 57 91 50 92 56 93 58 94 55 95 51 96 52 97
REMARK SMILES IDX 53 98 54 99
REMARK H PARENT 14 7 7 17 19 33 78 52 46 63
REMARK Flexibility Score: inf
ROOT
ATOM      1  C   UNL A   1      33.071  30.140  27.359  1.00  0.00     0.023 C 
ENDROOT
BRANCH   1   2
ATOM      2  C   UNL A   1      31.847  30.179  26.449  1.00  0.00     0.023 C 
BRANCH   2   3
ATOM      3  C   UNL A   1      32.099  29.623  25.051  1.00  0.00     0.116 C 
BRANCH   3   4
ATOM      4  N   UNL A   1      30.885  29.118  24.444  1.00  0.00    -0.356 N 
ATOM      5  C   UNL A   1      30.549  27.928  23.903  1.00  0.00     0.224 C 
ATOM      6  O   UNL A   1      29.354  27.795  23.603  1.00  0.00    -0.275 OA
ATOM      7  H   UNL A   1      30.156  29.778  24.420  1.00  0.00     0.163 HD
BRANCH   5   8
ATOM      8  C   UNL A   1      31.496  26.773  23.617  1.00  0.00     0.098 C 
ATOM      9  C   UNL A   1      32.115  25.982  24.781  1.00  0.00     0.099 C 
ATOM     10  C   UNL A   1      33.650  26.210  24.599  1.00  0.00     0.025 C 
ATOM     11  C   UNL A   1      32.739  27.046  22.720  1.00  0.00     0.025 C 
ATOM     12  C   UNL A   1      34.026  25.256  23.468  1.00  0.00    -0.027 C 
ATOM     13  C   UNL A   1      33.796  27.469  23.732  1.00  0.00     0.017 C 
ATOM     14  C   UNL A   1      33.419  25.721  22.357  1.00  0.00    -0.027 C 
BRANCH   9  15
ATOM     15  C   UNL A   1      31.424  25.884  26.157  1.00  0.00     0.230 C 
ATOM     16  N   UNL A   1      31.129  24.655  26.723  1.00  0.00    -0.302 N 
ATOM     17  H   UNL A   1      30.428  24.631  27.413  1.00  0.00     0.172 HD
ATOM     18  O   UNL A   1      31.075  26.881  26.794  1.00  0.00    -0.274 OA
BRANCH  16  19
ATOM     19  C   UNL A   1      31.736  23.470  26.399  1.00  0.00     0.190 A 
ATOM     20  C   UNL A   1      32.532  18.509  23.213  1.00  0.00     0.044 C 
ATOM     21  C   UNL A   1      32.865  19.573  24.221  1.00  0.00    -0.046 A 
ATOM     22  C   UNL A   1      31.863  20.494  24.519  1.00  0.00     0.033 A 
ATOM     23  C   UNL A   1      34.108  19.684  24.874  1.00  0.00    -0.047 A 
ATOM     24  C   UNL A   1      32.128  21.566  25.376  1.00  0.00     0.084 A 
ATOM     25  C   UNL A   1      34.366  20.754  25.774  1.00  0.00     0.025 A 
ATOM     26  C   UNL A   1      35.219  18.700  24.626  1.00  0.00     0.044 C 
ATOM     27  N   UNL A   1      31.242  22.557  25.622  1.00  0.00    -0.220 NA
ATOM     28  C   UNL A   1      33.362  21.706  25.996  1.00  0.00     0.057 A 
ATOM     29  S   UNL A   1      33.324  23.168  26.949  1.00  0.00    -0.097 S 
ENDBRANCH  16  19
ENDBRANCH   9  15
ENDBRANCH   5   8
ENDBRANCH   3   4
ENDBRANCH   2   3
ENDBRANCH   1   2
BRANCH   1  30
ATOM     30  C   UNL A   1      33.971  31.378  27.248  1.00  0.00     0.116 C 
BRANCH  30  31
ATOM     31  N   UNL A   1      34.191  32.051  28.513  1.00  0.00    -0.352 N 
ATOM     32  C   UNL A   1      35.253  32.140  29.371  1.00  0.00     0.251 C 
ATOM     33  H   UNL A   1      33.402  32.553  28.824  1.00  0.00     0.163 HD
ATOM     34  O   UNL A   1      35.124  32.927  30.313  1.00  0.00    -0.269 OA
BRANCH  32  35
ATOM     35  C   UNL A   1      36.493  31.324  29.271  1.00  0.00     0.039 A 
ATOM     36  C   UNL A   1      36.529  29.949  29.052  1.00  0.00     0.014 A 
ATOM     37  C   UNL A   1      37.708  31.997  29.505  1.00  0.00     0.014 A 
ATOM     38  C   UNL A   1      37.715  29.244  29.173  1.00  0.00     0.010 A 
ATOM     39  C   UNL A   1      38.908  31.300  29.599  1.00  0.00     0.010 A 
ATOM     40  C   UNL A   1      38.895  29.914  29.487  1.00  0.00    -0.014 A 
BRANCH  40  41
ATOM     41  C   UNL A   1      40.087  29.090  29.627  1.00  0.00     0.031 A 
ATOM     42  C   UNL A   1      40.409  28.682  31.025  1.00  0.00     0.074 A 
ATOM     43  C   UNL A   1      40.834  28.693  28.581  1.00  0.00     0.049 A 
ATOM     44  N   UNL A   1      41.428  29.012  31.749  1.00  0.00    -0.248 NA
ATOM     45  C   UNL A   1      39.380  27.921  31.748  1.00  0.00     0.031 C 
ATOM     46  C   UNL A   1      40.501  28.752  27.156  1.00  0.00     0.029 A 
ATOM     47  N   UNL A   1      42.029  28.045  28.594  1.00  0.00    -0.354 N 
ATOM     48  C   UNL A   1      41.263  28.356  32.971  1.00  0.00     0.074 A 
ATOM     49  C   UNL A   1      39.922  27.828  32.961  1.00  0.00     0.031 C 
ATOM     50  C   UNL A   1      41.347  27.946  26.474  1.00  0.00     0.029 A 
ATOM     51  C   UNL A   1      42.363  27.452  27.388  1.00  0.00     0.049 A 
ATOM     52  H   UNL A   1      42.606  28.000  29.391  1.00  0.00     0.167 HD
ATOM     53  C   UNL A   1      42.299  28.143  33.834  1.00  0.00     0.034 A 
ATOM     54  C   UNL A   1      43.345  26.542  27.184  1.00  0.00     0.034 A 
ATOM     55  C   UNL A   1      43.425  28.976  33.520  1.00  0.00     0.049 A 
ATOM     56  C   UNL A   1      44.293  26.617  28.322  1.00  0.00     0.074 A 
ATOM     57  C   UNL A   1      43.671  30.332  33.540  1.00  0.00     0.029 A 
ATOM     58  N   UNL A   1      44.444  28.417  32.789  1.00  0.00    -0.354 N 
ATOM     59  N   UNL A   1      45.094  27.621  28.547  1.00  0.00    -0.248 NA
ATOM     60  C   UNL A   1      44.046  25.748  29.463  1.00  0.00     0.031 C 
ATOM     61  C   UNL A   1      44.547  30.564  32.444  1.00  0.00     0.029 A 
ATOM     62  C   UNL A   1      44.823  29.333  31.844  1.00  0.00     0.049 A 
ATOM     63  H   UNL A   1      44.831  27.521  32.920  1.00  0.00     0.167 HD
ATOM     64  C   UNL A   1      45.087  27.770  29.925  1.00  0.00     0.074 A 
ATOM     65  C   UNL A   1      44.517  26.526  30.439  1.00  0.00     0.031 C 
ATOM     66  C   UNL A   1      45.280  28.989  30.511  1.00  0.00     0.034 A 
BRANCH  53  67
ATOM     67  C   UNL A   1      42.406  26.954  34.763  1.00  0.00     0.023 A 
ATOM     68  C   UNL A   1      43.189  25.824  34.466  1.00  0.00     0.031 A 
ATOM     69  C   UNL A   1      41.914  27.026  36.084  1.00  0.00     0.131 A 
ATOM     70  C   UNL A   1      43.458  24.840  35.426  1.00  0.00     0.055 A 
ATOM     71  C   UNL A   1      42.237  26.077  37.063  1.00  0.00     0.041 A 
ATOM     72  F   UNL A   1      41.154  28.057  36.486  1.00  0.00    -0.206 F 
ATOM     73  C   UNL A   1      43.017  24.976  36.737  1.00  0.00     0.022 A 
BRANCH  70  74
ATOM     74  S   UNL A   1      44.416  23.366  34.977  1.00  0.00     0.124 S 
ATOM     75  O   UNL A   1      43.404  22.532  34.340  1.00  0.00    -0.237 OA
ATOM     76  O   UNL A   1      45.428  23.930  34.087  1.00  0.00    -0.237 OA
ATOM     77  O   UNL A   1      44.923  22.885  36.261  1.00  0.00    -0.744 OA
ENDBRANCH  70  74
ENDBRANCH  53  67
BRANCH  54  78
ATOM     78  C   UNL A   1      43.211  25.316  26.365  1.00  0.00     0.023 A 
ATOM     79  C   UNL A   1      42.320  24.303  26.771  1.00  0.00     0.031 A 
ATOM     80  C   UNL A   1      44.155  24.992  25.379  1.00  0.00     0.131 A 
ATOM     81  C   UNL A   1      42.415  23.013  26.235  1.00  0.00     0.055 A 
ATOM     82  C   UNL A   1      44.239  23.706  24.832  1.00  0.00     0.041 A 
ATOM     83  F   UNL A   1      45.058  25.900  24.978  1.00  0.00    -0.206 F 
ATOM     84  C   UNL A   1      43.375  22.706  25.270  1.00  0.00     0.022 A 
BRANCH  81  85
ATOM     85  S   UNL A   1      41.345  21.684  26.849  1.00  0.00     0.124 S 
ATOM     86  O   UNL A   1      42.302  20.604  27.083  1.00  0.00    -0.237 OA
ATOM     87  O   UNL A   1      40.778  22.291  28.048  1.00  0.00    -0.237 OA
ATOM     88  O   UNL A   1      40.414  21.456  25.749  1.00  0.00    -0.744 OA
ENDBRANCH  81  85
ENDBRANCH  54  78
BRANCH  66  89
ATOM     89  C   UNL A   1      45.754  30.147  29.663  1.00  0.00     0.023 A 
ATOM     90  C   UNL A   1      44.837  30.683  28.742  1.00  0.00     0.031 A 
ATOM     91  C   UNL A   1      47.097  30.556  29.557  1.00  0.00     0.131 A 
ATOM     92  C   UNL A   1      45.272  31.545  27.729  1.00  0.00     0.055 A 
ATOM     93  C   UNL A   1      47.514  31.478  28.589  1.00  0.00     0.041 A 
ATOM     94  F   UNL A   1      48.059  30.013  30.314  1.00  0.00    -0.206 F 
ATOM     95  C   UNL A   1      46.603  31.962  27.656  1.00  0.00     0.022 A 
BRANCH  92  96
ATOM     96  S   UNL A   1      44.155  32.000  26.377  1.00  0.00     0.124 S 
ATOM     97  O   UNL A   1      43.380  30.776  26.192  1.00  0.00    -0.237 OA
ATOM     98  O   UNL A   1      43.419  33.126  26.948  1.00  0.00    -0.237 OA
ATOM     99  O   UNL A   1      45.051  32.344  25.277  1.00  0.00    -0.744 OA
ENDBRANCH  92  96
ENDBRANCH  66  89
ENDBRANCH  40  41
ENDBRANCH  32  35
ENDBRANCH  30  31
ENDBRANCH   1  30
TORSDOF 16
ENDMDL
MODEL 3
REMARK VINA RESULT:     -12.9      1.892      2.451
REMARK SMILES Cc1cc2nc(NC(=O)[C@H]3[C@@H](C(=O)NCCCCNC(=O)c4ccc(-c5c6nc(c(-c7cc(S(=O)(=O)[O-])ccc7F)c7ccc([nH]7)c(-c7cc(S(=O)(=O)[O-])ccc7F)c7nc(c(-c8cc(S(=O)(=O)[O-])ccc8F)c8ccc5[nH]8)C=C7)C=C6)cc4)[C@@H]4C=C[C@H]3C4)sc2cc1C
REMARK SMILES IDX 17 1 16 2 15 3 14 4 12 5 13 6 11 8 10 9 88 10 85 11 87 12
REMARK SMILES IDX 89 13 86 14 8 15 7 16 9 18 6 19 1 20 2 21 3 22 93 23 4 24
REMARK SMILES IDX 92 25 94 26 5 27 91 28 90 29 18 30 19 31 20 32 21 34 22 35
REMARK SMILES IDX 23 36 84 37 24 38 83 39 25 40 26 41 27 42 77 43 28 44 82 45
REMARK SMILES IDX 76 46 78 47 29 48 81 49 75 50 74 51 30 53 62 54 42 55 61 56
REMARK SMILES IDX 43 57 46 58 60 59 79 60 44 61 45 62 59 64 80 65 47 66 31 67
REMARK SMILES IDX 32 68 40 69 33 70 39 71 41 72 38 73 34 74 35 75 36 76 37 77
REMARK SMILES IDX 63 78 64 79 72 80 65 81 71 82 73 83 70 84 66 85 67 86 68 87
REMARK SMILES IDX 69 88 48 89 49 90 57 91 50 92 56 93 58 94 55 95 51 96 52 97
REMARK SMILES IDX 53 98 54 99
REMARK H PARENT 14 7 7 17 19 33 78 52 46 63
REMARK Flexibility Score: inf
ROOT
ATOM      1  C   UNL A   1      37.437  21.535  24.691  1.00  0.00     0.023 C 
ENDROOT
BRANCH   1   2
ATOM      2  C   UNL A   1      36.301  20.563  24.997  1.00  0.00     0.023 C 
BRANCH   2   3
ATOM      3  C   UNL A   1      34.982  21.245  25.343  1.00  0.00     0.116 C 
BRANCH   3   4
ATOM      4  N   UNL A   1      33.931  20.891  24.412  1.00  0.00    -0.356 N 
ATOM      5  C   UNL A   1      32.809  21.519  24.002  1.00  0.00     0.224 C 
ATOM      6  O   UNL A   1      32.202  20.977  23.066  1.00  0.00    -0.275 OA
ATOM      7  H   UNL A   1      34.061  20.011  23.991  1.00  0.00     0.163 HD
BRANCH   5   8
ATOM      8  C   UNL A   1      32.227  22.793  24.595  1.00  0.00     0.098 C 
ATOM      9  C   UNL A   1      32.970  24.127  24.424  1.00  0.00     0.099 C 
ATOM     10  C   UNL A   1      33.281  24.561  25.893  1.00  0.00     0.025 C 
ATOM     11  C   UNL A   1      31.887  22.809  26.114  1.00  0.00     0.025 C 
ATOM     12  C   UNL A   1      31.951  25.120  26.394  1.00  0.00    -0.027 C 
ATOM     13  C   UNL A   1      33.190  23.286  26.743  1.00  0.00     0.017 C 
ATOM     14  C   UNL A   1      31.098  24.078  26.457  1.00  0.00    -0.027 C 
BRANCH   9  15
ATOM     15  C   UNL A   1      33.926  24.381  23.240  1.00  0.00     0.230 C 
ATOM     16  N   UNL A   1      33.622  25.314  22.263  1.00  0.00    -0.302 N 
ATOM     17  H   UNL A   1      34.071  25.220  21.392  1.00  0.00     0.172 HD
ATOM     18  O   UNL A   1      34.976  23.750  23.090  1.00  0.00    -0.274 OA
BRANCH  16  19
ATOM     19  C   UNL A   1      32.747  26.358  22.412  1.00  0.00     0.190 A 
ATOM     20  C   UNL A   1      27.391  28.847  23.133  1.00  0.00     0.044 C 
ATOM     21  C   UNL A   1      28.892  28.786  23.086  1.00  0.00    -0.046 A 
ATOM     22  C   UNL A   1      29.460  27.610  22.600  1.00  0.00     0.033 A 
ATOM     23  C   UNL A   1      29.740  29.834  23.491  1.00  0.00    -0.047 A 
ATOM     24  C   UNL A   1      30.848  27.443  22.611  1.00  0.00     0.084 A 
ATOM     25  C   UNL A   1      31.154  29.679  23.469  1.00  0.00     0.025 A 
ATOM     26  C   UNL A   1      29.193  31.143  23.990  1.00  0.00     0.044 C 
ATOM     27  N   UNL A   1      31.461  26.291  22.261  1.00  0.00    -0.220 NA
ATOM     28  C   UNL A   1      31.692  28.456  23.044  1.00  0.00     0.057 A 
ATOM     29  S   UNL A   1      33.333  27.869  22.948  1.00  0.00    -0.097 S 
ENDBRANCH  16  19
ENDBRANCH   9  15
ENDBRANCH   5   8
ENDBRANCH   3   4
ENDBRANCH   2   3
ENDBRANCH   1   2
BRANCH   1  30
ATOM     30  C   UNL A   1      38.209  22.003  25.931  1.00  0.00     0.116 C 
BRANCH  30  31
ATOM     31  N   UNL A   1      39.649  21.939  25.776  1.00  0.00    -0.352 N 
ATOM     32  C   UNL A   1      40.694  22.654  26.294  1.00  0.00     0.251 C 
ATOM     33  H   UNL A   1      39.938  21.225  25.163  1.00  0.00     0.163 HD
ATOM     34  O   UNL A   1      41.823  22.226  26.038  1.00  0.00    -0.269 OA
BRANCH  32  35
ATOM     35  C   UNL A   1      40.555  23.914  27.075  1.00  0.00     0.039 A 
ATOM     36  C   UNL A   1      39.508  24.823  26.943  1.00  0.00     0.014 A 
ATOM     37  C   UNL A   1      41.616  24.233  27.944  1.00  0.00     0.014 A 
ATOM     38  C   UNL A   1      39.564  26.059  27.564  1.00  0.00     0.010 A 
ATOM     39  C   UNL A   1      41.665  25.462  28.594  1.00  0.00     0.010 A 
ATOM     40  C   UNL A   1      40.661  26.394  28.355  1.00  0.00    -0.014 A 
BRANCH  40  41
ATOM     41  C   UNL A   1      40.651  27.727  28.942  1.00  0.00     0.031 A 
ATOM     42  C   UNL A   1      41.663  28.668  28.381  1.00  0.00     0.074 A 
ATOM     43  C   UNL A   1      39.780  28.104  29.895  1.00  0.00     0.049 A 
ATOM     44  N   UNL A   1      42.684  29.201  28.970  1.00  0.00    -0.248 NA
ATOM     45  C   UNL A   1      41.598  28.929  26.937  1.00  0.00     0.031 C 
ATOM     46  C   UNL A   1      38.562  27.419  30.333  1.00  0.00     0.029 A 
ATOM     47  N   UNL A   1      39.759  29.261  30.609  1.00  0.00    -0.354 N 
ATOM     48  C   UNL A   1      43.301  30.012  28.015  1.00  0.00     0.074 A 
ATOM     49  C   UNL A   1      42.680  29.687  26.756  1.00  0.00     0.031 C 
ATOM     50  C   UNL A   1      37.802  28.284  31.042  1.00  0.00     0.029 A 
ATOM     51  C   UNL A   1      38.551  29.514  31.237  1.00  0.00     0.049 A 
ATOM     52  H   UNL A   1      40.532  29.866  30.672  1.00  0.00     0.167 HD
ATOM     53  C   UNL A   1      44.158  31.018  28.352  1.00  0.00     0.034 A 
ATOM     54  C   UNL A   1      38.162  30.688  31.789  1.00  0.00     0.034 A 
ATOM     55  C   UNL A   1      44.619  30.885  29.705  1.00  0.00     0.049 A 
ATOM     56  C   UNL A   1      39.371  31.512  32.030  1.00  0.00     0.074 A 
ATOM     57  C   UNL A   1      45.400  29.976  30.385  1.00  0.00     0.029 A 
ATOM     58  N   UNL A   1      43.991  31.638  30.667  1.00  0.00    -0.354 N 
ATOM     59  N   UNL A   1      40.278  31.244  32.928  1.00  0.00    -0.248 NA
ATOM     60  C   UNL A   1      39.791  32.418  30.971  1.00  0.00     0.031 C 
ATOM     61  C   UNL A   1      44.847  29.920  31.694  1.00  0.00     0.029 A 
ATOM     62  C   UNL A   1      43.789  30.831  31.755  1.00  0.00     0.049 A 
ATOM     63  H   UNL A   1      43.732  32.585  30.588  1.00  0.00     0.167 HD
ATOM     64  C   UNL A   1      41.479  31.567  32.316  1.00  0.00     0.074 A 
ATOM     65  C   UNL A   1      41.110  32.386  31.163  1.00  0.00     0.031 C 
ATOM     66  C   UNL A   1      42.639  30.917  32.633  1.00  0.00     0.034 A 
BRANCH  53  67
ATOM     67  C   UNL A   1      44.329  32.297  27.562  1.00  0.00     0.023 A 
ATOM     68  C   UNL A   1      43.687  33.498  27.909  1.00  0.00     0.031 A 
ATOM     69  C   UNL A   1      45.331  32.404  26.574  1.00  0.00     0.131 A 
ATOM     70  C   UNL A   1      44.028  34.718  27.310  1.00  0.00     0.055 A 
ATOM     71  C   UNL A   1      45.720  33.631  26.022  1.00  0.00     0.041 A 
ATOM     72  F   UNL A   1      46.014  31.325  26.159  1.00  0.00    -0.206 F 
ATOM     73  C   UNL A   1      45.068  34.800  26.392  1.00  0.00     0.022 A 
BRANCH  70  74
ATOM     74  S   UNL A   1      43.125  36.231  27.742  1.00  0.00     0.124 S 
ATOM     75  O   UNL A   1      41.920  35.695  28.363  1.00  0.00    -0.237 OA
ATOM     76  O   UNL A   1      44.066  36.890  28.644  1.00  0.00    -0.237 OA
ATOM     77  O   UNL A   1      42.937  36.895  26.454  1.00  0.00    -0.744 OA
ENDBRANCH  70  74
ENDBRANCH  53  67
BRANCH  54  78
ATOM     78  C   UNL A   1      36.824  31.301  31.629  1.00  0.00     0.023 A 
ATOM     79  C   UNL A   1      36.291  31.478  30.336  1.00  0.00     0.031 A 
ATOM     80  C   UNL A   1      36.207  31.988  32.685  1.00  0.00     0.131 A 
ATOM     81  C   UNL A   1      35.215  32.347  30.123  1.00  0.00     0.055 A 
ATOM     82  C   UNL A   1      35.120  32.844  32.472  1.00  0.00     0.041 A 
ATOM     83  F   UNL A   1      36.690  31.893  33.933  1.00  0.00    -0.206 F 
ATOM     84  C   UNL A   1      34.627  33.037  31.183  1.00  0.00     0.022 A 
BRANCH  81  85
ATOM     85  S   UNL A   1      34.613  32.664  28.442  1.00  0.00     0.124 S 
ATOM     86  O   UNL A   1      34.043  31.370  28.071  1.00  0.00    -0.237 OA
ATOM     87  O   UNL A   1      33.648  33.734  28.669  1.00  0.00    -0.237 OA
ATOM     88  O   UNL A   1      35.820  33.038  27.710  1.00  0.00    -0.744 OA
ENDBRANCH  81  85
ENDBRANCH  54  78
BRANCH  66  89
ATOM     89  C   UNL A   1      42.666  30.006  33.838  1.00  0.00     0.023 A 
ATOM     90  C   UNL A   1      43.240  30.518  35.015  1.00  0.00     0.031 A 
ATOM     91  C   UNL A   1      42.390  28.625  33.797  1.00  0.00     0.131 A 
ATOM     92  C   UNL A   1      43.570  29.663  36.073  1.00  0.00     0.055 A 
ATOM     93  C   UNL A   1      42.651  27.787  34.887  1.00  0.00     0.041 A 
ATOM     94  F   UNL A   1      41.951  28.030  32.680  1.00  0.00    -0.206 F 
ATOM     95  C   UNL A   1      43.262  28.301  36.025  1.00  0.00     0.022 A 
BRANCH  92  96
ATOM     96  S   UNL A   1      44.567  30.270  37.458  1.00  0.00     0.124 S 
ATOM     97  O   UNL A   1      45.163  29.040  37.972  1.00  0.00    -0.237 OA
ATOM     98  O   UNL A   1      45.493  31.186  36.797  1.00  0.00    -0.237 OA
ATOM     99  O   UNL A   1      43.595  30.909  38.342  1.00  0.00    -0.744 OA
ENDBRANCH  92  96
ENDBRANCH  66  89
ENDBRANCH  40  41
ENDBRANCH  32  35
ENDBRANCH  30  31
ENDBRANCH   1  30
TORSDOF 16
ENDMDL
