MODEL 1
REMARK VINA RESULT:     -11.6      0.000      0.000
REMARK SMILES CC(C)C[C@H](NC(=O)c1cc(Cl)nnc1Cl)C(=O)NCCCCNC(=O)c1ccc(-c2c3nc(c(-c4cc(S(=O)(=O)[O-])ccc4F)c4ccc([nH]4)c(-c4cc(S(=O)(=O)[O-])ccc4F)c4nc(c(-c5cc(S(=O)(=O)[O-])ccc5F)c5ccc2[nH]5)C=C4)C=C3)cc1
REMARK SMILES IDX 22 1 21 2 20 3 19 4 17 5 18 6 5 8 4 9 2 10 1 11 3 12 6 13
REMARK SMILES IDX 7 14 8 16 9 17 10 18 15 19 11 20 14 21 16 22 12 23 13 24
REMARK SMILES IDX 23 25 24 26 25 27 26 29 27 30 28 31 89 32 29 33 88 34 30 35
REMARK SMILES IDX 31 36 32 37 82 38 33 39 87 40 81 41 83 42 34 43 86 44 80 45
REMARK SMILES IDX 79 46 35 48 67 49 47 50 66 51 48 52 51 53 65 54 84 55 49 56
REMARK SMILES IDX 50 57 64 59 85 60 52 61 36 62 37 63 45 64 38 65 44 66 46 67
REMARK SMILES IDX 43 68 39 69 40 70 41 71 42 72 68 73 69 74 77 75 70 76 76 77
REMARK SMILES IDX 78 78 75 79 71 80 72 81 73 82 74 83 53 84 54 85 62 86 55 87
REMARK SMILES IDX 61 88 63 89 60 90 56 91 57 92 58 93 59 94
REMARK H PARENT 19 7 6 15 24 28 83 47 51 58
REMARK Flexibility Score: inf
ROOT
ATOM      1  C   UNL A   1      31.738  31.937  26.811  1.00  0.00     0.023 C 
ENDROOT
BRANCH   1   2
ATOM      2  C   UNL A   1      31.867  30.416  26.724  1.00  0.00     0.023 C 
BRANCH   2   3
ATOM      3  C   UNL A   1      32.260  29.879  25.351  1.00  0.00     0.116 C 
BRANCH   3   4
ATOM      4  N   UNL A   1      31.159  29.918  24.404  1.00  0.00    -0.354 N 
ATOM      5  C   UNL A   1      30.510  28.900  23.765  1.00  0.00     0.242 C 
ATOM      6  O   UNL A   1      29.471  29.162  23.159  1.00  0.00    -0.273 OA
ATOM      7  H   UNL A   1      30.827  30.820  24.190  1.00  0.00     0.163 HD
BRANCH   5   8
ATOM      8  C   UNL A   1      31.018  27.447  23.869  1.00  0.00     0.171 C 
BRANCH   8   9
ATOM      9  C   UNL A   1      30.994  26.743  22.500  1.00  0.00     0.038 C 
BRANCH   9  10
ATOM     10  C   UNL A   1      32.371  26.573  21.821  1.00  0.00    -0.015 C 
ATOM     11  C   UNL A   1      33.486  27.287  22.589  1.00  0.00     0.007 C 
ATOM     12  C   UNL A   1      32.701  25.083  21.701  1.00  0.00     0.007 C 
ENDBRANCH   9  10
ENDBRANCH   8   9
BRANCH   8  13
ATOM     13  N   UNL A   1      30.240  26.765  24.919  1.00  0.00    -0.340 N 
ATOM     14  C   UNL A   1      30.485  25.633  25.643  1.00  0.00     0.255 C 
ATOM     15  H   UNL A   1      29.388  27.207  25.139  1.00  0.00     0.164 HD
ATOM     16  O   UNL A   1      29.703  25.242  26.498  1.00  0.00    -0.269 OA
BRANCH  14  17
ATOM     17  C   UNL A   1      31.642  24.801  25.334  1.00  0.00     0.082 A 
ATOM     18  C   UNL A   1      31.402  23.534  24.801  1.00  0.00     0.060 A 
ATOM     19  C   UNL A   1      32.936  25.206  25.584  1.00  0.00     0.164 A 
ATOM     20  C   UNL A   1      32.498  22.766  24.487  1.00  0.00     0.152 A 
ATOM     21  N   UNL A   1      33.985  24.421  25.261  1.00  0.00    -0.136 NA
ATOM     22  Cl  UNL A   1      33.368  26.689  26.324  1.00  0.00    -0.059 Cl
ATOM     23  Cl  UNL A   1      32.338  21.217  23.783  1.00  0.00    -0.060 Cl
ATOM     24  N   UNL A   1      33.762  23.187  24.693  1.00  0.00    -0.137 NA
ENDBRANCH  14  17
ENDBRANCH   8  13
ENDBRANCH   5   8
ENDBRANCH   3   4
ENDBRANCH   2   3
ENDBRANCH   1   2
BRANCH   1  25
ATOM     25  C   UNL A   1      32.948  32.655  27.402  1.00  0.00     0.116 C 
BRANCH  25  26
ATOM     26  N   UNL A   1      32.658  34.044  27.730  1.00  0.00    -0.352 N 
ATOM     27  C   UNL A   1      33.196  34.814  28.733  1.00  0.00     0.251 C 
ATOM     28  H   UNL A   1      31.991  34.488  27.160  1.00  0.00     0.163 HD
ATOM     29  O   UNL A   1      32.725  35.916  28.992  1.00  0.00    -0.269 OA
BRANCH  27  30
ATOM     30  C   UNL A   1      34.337  34.285  29.504  1.00  0.00     0.039 A 
ATOM     31  C   UNL A   1      34.095  33.583  30.687  1.00  0.00     0.014 A 
ATOM     32  C   UNL A   1      35.641  34.456  29.028  1.00  0.00     0.014 A 
ATOM     33  C   UNL A   1      35.164  32.997  31.367  1.00  0.00     0.010 A 
ATOM     34  C   UNL A   1      36.698  33.829  29.680  1.00  0.00     0.010 A 
ATOM     35  C   UNL A   1      36.467  33.098  30.855  1.00  0.00    -0.014 A 
BRANCH  35  36
ATOM     36  C   UNL A   1      37.612  32.454  31.543  1.00  0.00     0.031 A 
ATOM     37  C   UNL A   1      38.327  31.309  30.885  1.00  0.00     0.074 A 
ATOM     38  C   UNL A   1      37.962  32.857  32.779  1.00  0.00     0.049 A 
ATOM     39  N   UNL A   1      39.322  30.593  31.337  1.00  0.00    -0.248 NA
ATOM     40  C   UNL A   1      37.846  30.903  29.554  1.00  0.00     0.031 C 
ATOM     41  C   UNL A   1      37.309  33.928  33.532  1.00  0.00     0.029 A 
ATOM     42  N   UNL A   1      38.945  32.405  33.625  1.00  0.00    -0.354 N 
ATOM     43  C   UNL A   1      39.584  29.651  30.351  1.00  0.00     0.074 A 
ATOM     44  C   UNL A   1      38.613  29.852  29.300  1.00  0.00     0.031 C 
ATOM     45  C   UNL A   1      37.916  34.059  34.723  1.00  0.00     0.029 A 
ATOM     46  C   UNL A   1      38.985  33.067  34.829  1.00  0.00     0.049 A 
ATOM     47  H   UNL A   1      39.563  31.676  33.391  1.00  0.00     0.167 HD
ATOM     48  C   UNL A   1      40.565  28.718  30.316  1.00  0.00     0.034 A 
ATOM     49  C   UNL A   1      39.791  32.897  35.897  1.00  0.00     0.034 A 
ATOM     50  C   UNL A   1      41.540  28.542  31.357  1.00  0.00     0.049 A 
ATOM     51  C   UNL A   1      40.878  31.855  35.833  1.00  0.00     0.074 A 
ATOM     52  C   UNL A   1      42.611  27.666  31.385  1.00  0.00     0.029 A 
ATOM     53  N   UNL A   1      41.569  29.250  32.549  1.00  0.00    -0.354 N 
ATOM     54  N   UNL A   1      41.177  31.036  34.852  1.00  0.00    -0.248 NA
ATOM     55  C   UNL A   1      41.746  31.717  37.011  1.00  0.00     0.031 C 
ATOM     56  C   UNL A   1      43.266  27.820  32.608  1.00  0.00     0.029 A 
ATOM     57  C   UNL A   1      42.630  28.821  33.326  1.00  0.00     0.049 A 
ATOM     58  H   UNL A   1      40.930  29.955  32.803  1.00  0.00     0.167 HD
ATOM     59  C   UNL A   1      42.283  30.308  35.281  1.00  0.00     0.074 A 
ATOM     60  C   UNL A   1      42.609  30.792  36.607  1.00  0.00     0.031 C 
ATOM     61  C   UNL A   1      42.963  29.330  34.634  1.00  0.00     0.034 A 
BRANCH  48  62
ATOM     62  C   UNL A   1      40.662  27.835  29.103  1.00  0.00     0.023 A 
ATOM     63  C   UNL A   1      41.571  28.140  28.075  1.00  0.00     0.031 A 
ATOM     64  C   UNL A   1      39.786  26.750  28.923  1.00  0.00     0.131 A 
ATOM     65  C   UNL A   1      41.569  27.377  26.901  1.00  0.00     0.055 A 
ATOM     66  C   UNL A   1      39.809  25.976  27.765  1.00  0.00     0.041 A 
ATOM     67  F   UNL A   1      38.905  26.420  29.882  1.00  0.00    -0.206 F 
ATOM     68  C   UNL A   1      40.699  26.293  26.743  1.00  0.00     0.022 A 
BRANCH  65  69
ATOM     69  S   UNL A   1      42.682  27.774  25.526  1.00  0.00     0.124 S 
ATOM     70  O   UNL A   1      42.841  26.472  24.880  1.00  0.00    -0.237 OA
ATOM     71  O   UNL A   1      41.901  28.752  24.775  1.00  0.00    -0.237 OA
ATOM     72  O   UNL A   1      43.880  28.287  26.181  1.00  0.00    -0.744 OA
ENDBRANCH  65  69
ENDBRANCH  48  62
BRANCH  49  73
ATOM     73  C   UNL A   1      39.637  33.793  37.077  1.00  0.00     0.023 A 
ATOM     74  C   UNL A   1      39.023  33.343  38.259  1.00  0.00     0.031 A 
ATOM     75  C   UNL A   1      40.026  35.141  37.002  1.00  0.00     0.131 A 
ATOM     76  C   UNL A   1      38.773  34.249  39.299  1.00  0.00     0.055 A 
ATOM     77  C   UNL A   1      39.824  36.027  38.061  1.00  0.00     0.041 A 
ATOM     78  F   UNL A   1      40.604  35.614  35.886  1.00  0.00    -0.206 F 
ATOM     79  C   UNL A   1      39.184  35.583  39.214  1.00  0.00     0.022 A 
BRANCH  76  80
ATOM     80  S   UNL A   1      37.827  33.748  40.764  1.00  0.00     0.124 S 
ATOM     81  O   UNL A   1      37.521  35.033  41.386  1.00  0.00    -0.237 OA
ATOM     82  O   UNL A   1      36.693  33.055  40.159  1.00  0.00    -0.237 OA
ATOM     83  O   UNL A   1      38.757  32.899  41.500  1.00  0.00    -0.744 OA
ENDBRANCH  76  80
ENDBRANCH  49  73
BRANCH  61  84
ATOM     84  C   UNL A   1      44.150  28.703  35.318  1.00  0.00     0.023 A 
ATOM     85  C   UNL A   1      43.958  27.644  36.225  1.00  0.00     0.031 A 
ATOM     86  C   UNL A   1      45.435  29.258  35.197  1.00  0.00     0.131 A 
ATOM     87  C   UNL A   1      45.028  27.201  37.011  1.00  0.00     0.055 A 
ATOM     88  C   UNL A   1      46.507  28.785  35.955  1.00  0.00     0.041 A 
ATOM     89  F   UNL A   1      45.661  30.274  34.350  1.00  0.00    -0.206 F 
ATOM     90  C   UNL A   1      46.302  27.761  36.876  1.00  0.00     0.022 A 
BRANCH  87  91
ATOM     91  S   UNL A   1      44.789  25.931  38.284  1.00  0.00     0.124 S 
ATOM     92  O   UNL A   1      44.128  26.686  39.347  1.00  0.00    -0.237 OA
ATOM     93  O   UNL A   1      43.947  24.959  37.593  1.00  0.00    -0.237 OA
ATOM     94  O   UNL A   1      46.143  25.483  38.592  1.00  0.00    -0.744 OA
ENDBRANCH  87  91
ENDBRANCH  61  84
ENDBRANCH  35  36
ENDBRANCH  27  30
ENDBRANCH  25  26
ENDBRANCH   1  25
TORSDOF 18
ENDMDL
MODEL 2
REMARK VINA RESULT:     -11.6      5.584     10.599
REMARK SMILES CC(C)C[C@H](NC(=O)c1cc(Cl)nnc1Cl)C(=O)NCCCCNC(=O)c1ccc(-c2c3nc(c(-c4cc(S(=O)(=O)[O-])ccc4F)c4ccc([nH]4)c(-c4cc(S(=O)(=O)[O-])ccc4F)c4nc(c(-c5cc(S(=O)(=O)[O-])ccc5F)c5ccc2[nH]5)C=C4)C=C3)cc1
REMARK SMILES IDX 22 1 21 2 20 3 19 4 17 5 18 6 5 8 4 9 2 10 1 11 3 12 6 13
REMARK SMILES IDX 7 14 8 16 9 17 10 18 15 19 11 20 14 21 16 22 12 23 13 24
REMARK SMILES IDX 23 25 24 26 25 27 26 29 27 30 28 31 89 32 29 33 88 34 30 35
REMARK SMILES IDX 31 36 32 37 82 38 33 39 87 40 81 41 83 42 34 43 86 44 80 45
REMARK SMILES IDX 79 46 35 48 67 49 47 50 66 51 48 52 51 53 65 54 84 55 49 56
REMARK SMILES IDX 50 57 64 59 85 60 52 61 36 62 37 63 45 64 38 65 44 66 46 67
REMARK SMILES IDX 43 68 39 69 40 70 41 71 42 72 68 73 69 74 77 75 70 76 76 77
REMARK SMILES IDX 78 78 75 79 71 80 72 81 73 82 74 83 53 84 54 85 62 86 55 87
REMARK SMILES IDX 61 88 63 89 60 90 56 91 57 92 58 93 59 94
REMARK H PARENT 19 7 6 15 24 28 83 47 51 58
REMARK Flexibility Score: inf
ROOT
ATOM      1  C   UNL A   1      34.820  22.199  26.445  1.00  0.00     0.023 C 
ENDROOT
BRANCH   1   2
ATOM      2  C   UNL A   1      33.519  22.755  25.866  1.00  0.00     0.023 C 
BRANCH   2   3
ATOM      3  C   UNL A   1      33.175  24.177  26.301  1.00  0.00     0.116 C 
BRANCH   3   4
ATOM      4  N   UNL A   1      31.766  24.335  26.617  1.00  0.00    -0.354 N 
ATOM      5  C   UNL A   1      30.939  25.409  26.449  1.00  0.00     0.242 C 
ATOM      6  O   UNL A   1      29.729  25.243  26.607  1.00  0.00    -0.273 OA
ATOM      7  H   UNL A   1      31.338  23.541  27.015  1.00  0.00     0.163 HD
BRANCH   5   8
ATOM      8  C   UNL A   1      31.496  26.773  25.993  1.00  0.00     0.171 C 
BRANCH   8   9
ATOM      9  C   UNL A   1      31.600  27.761  27.170  1.00  0.00     0.038 C 
BRANCH   9  10
ATOM     10  C   UNL A   1      32.792  28.740  27.105  1.00  0.00    -0.015 C 
ATOM     11  C   UNL A   1      33.971  28.166  26.318  1.00  0.00     0.007 C 
ATOM     12  C   UNL A   1      32.338  30.056  26.465  1.00  0.00     0.007 C 
ENDBRANCH   9  10
ENDBRANCH   8   9
BRANCH   8  13
ATOM     13  N   UNL A   1      30.671  27.250  24.868  1.00  0.00    -0.340 N 
ATOM     14  C   UNL A   1      30.714  26.980  23.529  1.00  0.00     0.255 C 
ATOM     15  H   UNL A   1      29.958  27.877  25.129  1.00  0.00     0.164 HD
ATOM     16  O   UNL A   1      29.909  27.474  22.754  1.00  0.00    -0.269 OA
BRANCH  14  17
ATOM     17  C   UNL A   1      31.796  26.173  22.979  1.00  0.00     0.082 A 
ATOM     18  C   UNL A   1      31.628  24.788  22.968  1.00  0.00     0.060 A 
ATOM     19  C   UNL A   1      32.971  26.724  22.512  1.00  0.00     0.164 A 
ATOM     20  C   UNL A   1      32.641  24.035  22.423  1.00  0.00     0.152 A 
ATOM     21  N   UNL A   1      33.942  25.950  21.983  1.00  0.00    -0.136 NA
ATOM     22  Cl  UNL A   1      33.349  28.394  22.555  1.00  0.00    -0.059 Cl
ATOM     23  Cl  UNL A   1      32.534  22.333  22.308  1.00  0.00    -0.060 Cl
ATOM     24  N   UNL A   1      33.768  24.585  21.928  1.00  0.00    -0.137 NA
ENDBRANCH  14  17
ENDBRANCH   8  13
ENDBRANCH   5   8
ENDBRANCH   3   4
ENDBRANCH   2   3
ENDBRANCH   1   2
BRANCH   1  25
ATOM     25  C   UNL A   1      36.070  22.493  25.621  1.00  0.00     0.116 C 
BRANCH  25  26
ATOM     26  N   UNL A   1      36.971  21.351  25.559  1.00  0.00    -0.352 N 
ATOM     27  C   UNL A   1      38.332  21.325  25.750  1.00  0.00     0.251 C 
ATOM     28  H   UNL A   1      36.550  20.485  25.353  1.00  0.00     0.163 HD
ATOM     29  O   UNL A   1      38.976  20.313  25.495  1.00  0.00    -0.269 OA
BRANCH  27  30
ATOM     30  C   UNL A   1      39.005  22.538  26.250  1.00  0.00     0.039 A 
ATOM     31  C   UNL A   1      40.195  22.410  26.970  1.00  0.00     0.014 A 
ATOM     32  C   UNL A   1      38.472  23.799  25.967  1.00  0.00     0.014 A 
ATOM     33  C   UNL A   1      40.887  23.559  27.359  1.00  0.00     0.010 A 
ATOM     34  C   UNL A   1      39.188  24.941  26.312  1.00  0.00     0.010 A 
ATOM     35  C   UNL A   1      40.399  24.829  27.013  1.00  0.00    -0.014 A 
BRANCH  35  36
ATOM     36  C   UNL A   1      41.135  26.060  27.386  1.00  0.00     0.031 A 
ATOM     37  C   UNL A   1      40.453  27.116  28.207  1.00  0.00     0.074 A 
ATOM     38  C   UNL A   1      42.388  26.253  26.934  1.00  0.00     0.049 A 
ATOM     39  N   UNL A   1      40.911  28.273  28.603  1.00  0.00    -0.248 NA
ATOM     40  C   UNL A   1      39.065  26.843  28.618  1.00  0.00     0.031 C 
ATOM     41  C   UNL A   1      43.134  25.315  26.092  1.00  0.00     0.029 A 
ATOM     42  N   UNL A   1      43.253  27.305  27.107  1.00  0.00    -0.354 N 
ATOM     43  C   UNL A   1      39.871  28.869  29.304  1.00  0.00     0.074 A 
ATOM     44  C   UNL A   1      38.741  27.970  29.237  1.00  0.00     0.031 C 
ATOM     45  C   UNL A   1      44.347  25.829  25.832  1.00  0.00     0.029 A 
ATOM     46  C   UNL A   1      44.459  27.141  26.467  1.00  0.00     0.049 A 
ATOM     47  H   UNL A   1      43.031  28.102  27.639  1.00  0.00     0.167 HD
ATOM     48  C   UNL A   1      39.868  30.049  29.967  1.00  0.00     0.034 A 
ATOM     49  C   UNL A   1      45.534  27.954  26.400  1.00  0.00     0.034 A 
ATOM     50  C   UNL A   1      41.005  30.926  30.046  1.00  0.00     0.049 A 
ATOM     51  C   UNL A   1      45.509  29.261  27.150  1.00  0.00     0.074 A 
ATOM     52  C   UNL A   1      41.120  32.114  30.746  1.00  0.00     0.029 A 
ATOM     53  N   UNL A   1      42.220  30.713  29.412  1.00  0.00    -0.354 N 
ATOM     54  N   UNL A   1      44.552  29.766  27.891  1.00  0.00    -0.248 NA
ATOM     55  C   UNL A   1      46.709  30.106  27.065  1.00  0.00     0.031 C 
ATOM     56  C   UNL A   1      42.392  32.638  30.505  1.00  0.00     0.029 A 
ATOM     57  C   UNL A   1      43.085  31.756  29.691  1.00  0.00     0.049 A 
ATOM     58  H   UNL A   1      42.434  29.936  28.848  1.00  0.00     0.167 HD
ATOM     59  C   UNL A   1      45.044  30.971  28.385  1.00  0.00     0.074 A 
ATOM     60  C   UNL A   1      46.389  31.114  27.868  1.00  0.00     0.031 C 
ATOM     61  C   UNL A   1      44.434  31.874  29.193  1.00  0.00     0.034 A 
BRANCH  48  62
ATOM     62  C   UNL A   1      38.614  30.455  30.690  1.00  0.00     0.023 A 
ATOM     63  C   UNL A   1      37.613  31.180  30.021  1.00  0.00     0.031 A 
ATOM     64  C   UNL A   1      38.458  30.207  32.065  1.00  0.00     0.131 A 
ATOM     65  C   UNL A   1      36.506  31.652  30.736  1.00  0.00     0.055 A 
ATOM     66  C   UNL A   1      37.338  30.654  32.766  1.00  0.00     0.041 A 
ATOM     67  F   UNL A   1      39.388  29.514  32.743  1.00  0.00    -0.206 F 
ATOM     68  C   UNL A   1      36.359  31.387  32.102  1.00  0.00     0.022 A 
BRANCH  65  69
ATOM     69  S   UNL A   1      35.222  32.644  29.926  1.00  0.00     0.124 S 
ATOM     70  O   UNL A   1      35.998  33.758  29.385  1.00  0.00    -0.237 OA
ATOM     71  O   UNL A   1      34.697  31.709  28.936  1.00  0.00    -0.237 OA
ATOM     72  O   UNL A   1      34.314  32.995  31.012  1.00  0.00    -0.744 OA
ENDBRANCH  65  69
ENDBRANCH  48  62
BRANCH  49  73
ATOM     73  C   UNL A   1      46.743  27.503  25.655  1.00  0.00     0.023 A 
ATOM     74  C   UNL A   1      46.970  27.901  24.326  1.00  0.00     0.031 A 
ATOM     75  C   UNL A   1      47.641  26.595  26.240  1.00  0.00     0.131 A 
ATOM     76  C   UNL A   1      48.044  27.352  23.611  1.00  0.00     0.055 A 
ATOM     77  C   UNL A   1      48.740  26.093  25.542  1.00  0.00     0.041 A 
ATOM     78  F   UNL A   1      47.453  26.179  27.502  1.00  0.00    -0.206 F 
ATOM     79  C   UNL A   1      48.939  26.463  24.216  1.00  0.00     0.022 A 
BRANCH  76  80
ATOM     80  S   UNL A   1      48.266  27.704  21.846  1.00  0.00     0.124 S 
ATOM     81  O   UNL A   1      47.003  28.348  21.500  1.00  0.00    -0.237 OA
ATOM     82  O   UNL A   1      49.436  28.579  21.865  1.00  0.00    -0.237 OA
ATOM     83  O   UNL A   1      48.482  26.387  21.256  1.00  0.00    -0.744 OA
ENDBRANCH  76  80
ENDBRANCH  49  73
BRANCH  61  84
ATOM     84  C   UNL A   1      45.197  33.106  29.603  1.00  0.00     0.023 A 
ATOM     85  C   UNL A   1      45.195  34.242  28.771  1.00  0.00     0.031 A 
ATOM     86  C   UNL A   1      46.049  33.096  30.721  1.00  0.00     0.131 A 
ATOM     87  C   UNL A   1      46.063  35.305  29.045  1.00  0.00     0.055 A 
ATOM     88  C   UNL A   1      46.883  34.176  31.012  1.00  0.00     0.041 A 
ATOM     89  F   UNL A   1      46.089  32.030  31.535  1.00  0.00    -0.206 F 
ATOM     90  C   UNL A   1      46.902  35.281  30.164  1.00  0.00     0.022 A 
BRANCH  87  91
ATOM     91  S   UNL A   1      46.185  36.725  27.924  1.00  0.00     0.124 S 
ATOM     92  O   UNL A   1      47.344  36.370  27.108  1.00  0.00    -0.237 OA
ATOM     93  O   UNL A   1      44.899  36.681  27.233  1.00  0.00    -0.237 OA
ATOM     94  O   UNL A   1      46.380  37.863  28.816  1.00  0.00    -0.744 OA
ENDBRANCH  87  91
ENDBRANCH  61  84
ENDBRANCH  35  36
ENDBRANCH  27  30
ENDBRANCH  25  26
ENDBRANCH   1  25
TORSDOF 18
ENDMDL
MODEL 3
REMARK VINA RESULT:     -11.5      2.622      3.769
REMARK SMILES CC(C)C[C@H](NC(=O)c1cc(Cl)nnc1Cl)C(=O)NCCCCNC(=O)c1ccc(-c2c3nc(c(-c4cc(S(=O)(=O)[O-])ccc4F)c4ccc([nH]4)c(-c4cc(S(=O)(=O)[O-])ccc4F)c4nc(c(-c5cc(S(=O)(=O)[O-])ccc5F)c5ccc2[nH]5)C=C4)C=C3)cc1
REMARK SMILES IDX 22 1 21 2 20 3 19 4 17 5 18 6 5 8 4 9 2 10 1 11 3 12 6 13
REMARK SMILES IDX 7 14 8 16 9 17 10 18 15 19 11 20 14 21 16 22 12 23 13 24
REMARK SMILES IDX 23 25 24 26 25 27 26 29 27 30 28 31 89 32 29 33 88 34 30 35
REMARK SMILES IDX 31 36 32 37 82 38 33 39 87 40 81 41 83 42 34 43 86 44 80 45
REMARK SMILES IDX 79 46 35 48 67 49 47 50 66 51 48 52 51 53 65 54 84 55 49 56
REMARK SMILES IDX 50 57 64 59 85 60 52 61 36 62 37 63 45 64 38 65 44 66 46 67
REMARK SMILES IDX 43 68 39 69 40 70 41 71 42 72 68 73 69 74 77 75 70 76 76 77
REMARK SMILES IDX 78 78 75 79 71 80 72 81 73 82 74 83 53 84 54 85 62 86 55 87
REMARK SMILES IDX 61 88 63 89 60 90 56 91 57 92 58 93 59 94
REMARK H PARENT 19 7 6 15 24 28 83 47 51 58
REMARK Flexibility Score: inf
ROOT
ATOM      1  C   UNL A   1      33.221  28.637  24.957  1.00  0.00     0.023 C 
ENDROOT
BRANCH   1   2
ATOM      2  C   UNL A   1      32.732  27.261  24.500  1.00  0.00     0.023 C 
BRANCH   2   3
ATOM      3  C   UNL A   1      33.835  26.240  24.234  1.00  0.00     0.116 C 
BRANCH   3   4
ATOM      4  N   UNL A   1      33.666  25.561  22.961  1.00  0.00    -0.354 N 
ATOM      5  C   UNL A   1      33.893  24.258  22.620  1.00  0.00     0.242 C 
ATOM      6  O   UNL A   1      33.486  23.863  21.527  1.00  0.00    -0.273 OA
ATOM      7  H   UNL A   1      33.334  26.130  22.228  1.00  0.00     0.163 HD
BRANCH   5   8
ATOM      8  C   UNL A   1      34.567  23.286  23.609  1.00  0.00     0.171 C 
BRANCH   8   9
ATOM      9  C   UNL A   1      36.056  23.083  23.274  1.00  0.00     0.038 C 
BRANCH   9  10
ATOM     10  C   UNL A   1      36.996  22.963  24.493  1.00  0.00    -0.015 C 
ATOM     11  C   UNL A   1      36.397  23.596  25.750  1.00  0.00     0.007 C 
ATOM     12  C   UNL A   1      37.305  21.486  24.756  1.00  0.00     0.007 C 
ENDBRANCH   9  10
ENDBRANCH   8   9
BRANCH   8  13
ATOM     13  N   UNL A   1      33.773  22.044  23.641  1.00  0.00    -0.340 N 
ATOM     14  C   UNL A   1      32.661  21.693  24.352  1.00  0.00     0.255 C 
ATOM     15  H   UNL A   1      34.105  21.339  23.039  1.00  0.00     0.164 HD
ATOM     16  O   UNL A   1      32.136  20.597  24.212  1.00  0.00    -0.269 OA
BRANCH  14  17
ATOM     17  C   UNL A   1      32.134  22.584  25.378  1.00  0.00     0.082 A 
ATOM     18  C   UNL A   1      31.217  23.557  24.979  1.00  0.00     0.060 A 
ATOM     19  C   UNL A   1      32.535  22.520  26.696  1.00  0.00     0.164 A 
ATOM     20  C   UNL A   1      30.704  24.376  25.957  1.00  0.00     0.152 A 
ATOM     21  N   UNL A   1      32.007  23.343  27.626  1.00  0.00    -0.136 NA
ATOM     22  Cl  UNL A   1      33.722  21.443  27.302  1.00  0.00    -0.059 Cl
ATOM     23  Cl  UNL A   1      29.537  25.574  25.604  1.00  0.00    -0.060 Cl
ATOM     24  N   UNL A   1      31.068  24.277  27.251  1.00  0.00    -0.137 NA
ENDBRANCH  14  17
ENDBRANCH   8  13
ENDBRANCH   5   8
ENDBRANCH   3   4
ENDBRANCH   2   3
ENDBRANCH   1   2
BRANCH   1  25
ATOM     25  C   UNL A   1      32.760  29.055  26.351  1.00  0.00     0.116 C 
BRANCH  25  26
ATOM     26  N   UNL A   1      32.509  30.486  26.441  1.00  0.00    -0.352 N 
ATOM     27  C   UNL A   1      33.228  31.437  27.126  1.00  0.00     0.251 C 
ATOM     28  H   UNL A   1      31.723  30.815  25.949  1.00  0.00     0.163 HD
ATOM     29  O   UNL A   1      32.793  32.577  27.248  1.00  0.00    -0.269 OA
BRANCH  27  30
ATOM     30  C   UNL A   1      34.522  31.060  27.725  1.00  0.00     0.039 A 
ATOM     31  C   UNL A   1      35.515  32.030  27.872  1.00  0.00     0.014 A 
ATOM     32  C   UNL A   1      34.727  29.752  28.175  1.00  0.00     0.014 A 
ATOM     33  C   UNL A   1      36.703  31.701  28.527  1.00  0.00     0.010 A 
ATOM     34  C   UNL A   1      35.890  29.440  28.872  1.00  0.00     0.010 A 
ATOM     35  C   UNL A   1      36.888  30.412  29.051  1.00  0.00    -0.014 A 
BRANCH  35  36
ATOM     36  C   UNL A   1      38.126  30.051  29.781  1.00  0.00     0.031 A 
ATOM     37  C   UNL A   1      39.090  29.074  29.173  1.00  0.00     0.074 A 
ATOM     38  C   UNL A   1      38.348  30.553  31.010  1.00  0.00     0.049 A 
ATOM     39  N   UNL A   1      40.205  28.604  29.667  1.00  0.00    -0.248 NA
ATOM     40  C   UNL A   1      38.745  28.538  27.846  1.00  0.00     0.031 C 
ATOM     41  C   UNL A   1      37.457  31.475  31.717  1.00  0.00     0.029 A 
ATOM     42  N   UNL A   1      39.382  30.349  31.890  1.00  0.00    -0.354 N 
ATOM     43  C   UNL A   1      40.692  27.716  28.717  1.00  0.00     0.074 A 
ATOM     44  C   UNL A   1      39.728  27.673  27.640  1.00  0.00     0.031 C 
ATOM     45  C   UNL A   1      37.990  31.767  32.915  1.00  0.00     0.029 A 
ATOM     46  C   UNL A   1      39.245  31.035  33.073  1.00  0.00     0.049 A 
ATOM     47  H   UNL A   1      40.150  29.766  31.691  1.00  0.00     0.167 HD
ATOM     48  C   UNL A   1      41.852  27.019  28.730  1.00  0.00     0.034 A 
ATOM     49  C   UNL A   1      40.041  31.072  34.162  1.00  0.00     0.034 A 
ATOM     50  C   UNL A   1      42.814  27.087  29.796  1.00  0.00     0.049 A 
ATOM     51  C   UNL A   1      41.330  30.292  34.152  1.00  0.00     0.074 A 
ATOM     52  C   UNL A   1      44.049  26.467  29.872  1.00  0.00     0.029 A 
ATOM     53  N   UNL A   1      42.658  27.816  30.965  1.00  0.00    -0.354 N 
ATOM     54  N   UNL A   1      41.825  29.532  33.203  1.00  0.00    -0.248 NA
ATOM     55  C   UNL A   1      42.176  30.377  35.351  1.00  0.00     0.031 C 
ATOM     56  C   UNL A   1      44.622  26.792  31.104  1.00  0.00     0.029 A 
ATOM     57  C   UNL A   1      43.766  27.648  31.777  1.00  0.00     0.049 A 
ATOM     58  H   UNL A   1      41.874  28.370  31.184  1.00  0.00     0.167 HD
ATOM     59  C   UNL A   1      43.051  29.075  33.677  1.00  0.00     0.074 A 
ATOM     60  C   UNL A   1      43.229  29.652  34.993  1.00  0.00     0.031 C 
ATOM     61  C   UNL A   1      43.945  28.252  33.075  1.00  0.00     0.034 A 
BRANCH  48  62
ATOM     62  C   UNL A   1      42.171  26.148  27.548  1.00  0.00     0.023 A 
ATOM     63  C   UNL A   1      41.824  24.785  27.557  1.00  0.00     0.031 A 
ATOM     64  C   UNL A   1      42.904  26.645  26.456  1.00  0.00     0.131 A 
ATOM     65  C   UNL A   1      42.231  23.961  26.501  1.00  0.00     0.055 A 
ATOM     66  C   UNL A   1      43.280  25.826  25.393  1.00  0.00     0.041 A 
ATOM     67  F   UNL A   1      43.252  27.942  26.403  1.00  0.00    -0.206 F 
ATOM     68  C   UNL A   1      42.950  24.474  25.416  1.00  0.00     0.022 A 
BRANCH  65  69
ATOM     69  S   UNL A   1      41.859  22.186  26.503  1.00  0.00     0.124 S 
ATOM     70  O   UNL A   1      42.659  21.709  25.377  1.00  0.00    -0.237 OA
ATOM     71  O   UNL A   1      42.332  21.779  27.822  1.00  0.00    -0.237 OA
ATOM     72  O   UNL A   1      40.416  22.130  26.301  1.00  0.00    -0.744 OA
ENDBRANCH  65  69
ENDBRANCH  48  62
BRANCH  49  73
ATOM     73  C   UNL A   1      39.665  31.943  35.310  1.00  0.00     0.023 A 
ATOM     74  C   UNL A   1      38.888  31.453  36.375  1.00  0.00     0.031 A 
ATOM     75  C   UNL A   1      40.005  33.306  35.310  1.00  0.00     0.131 A 
ATOM     76  C   UNL A   1      38.439  32.332  37.369  1.00  0.00     0.055 A 
ATOM     77  C   UNL A   1      39.602  34.167  36.331  1.00  0.00     0.041 A 
ATOM     78  F   UNL A   1      40.734  33.819  34.306  1.00  0.00    -0.206 F 
ATOM     79  C   UNL A   1      38.804  33.682  37.363  1.00  0.00     0.022 A 
BRANCH  76  80
ATOM     80  S   UNL A   1      37.292  31.773  38.659  1.00  0.00     0.124 S 
ATOM     81  O   UNL A   1      36.180  32.706  38.508  1.00  0.00    -0.237 OA
ATOM     82  O   UNL A   1      37.025  30.400  38.240  1.00  0.00    -0.237 OA
ATOM     83  O   UNL A   1      38.065  31.910  39.889  1.00  0.00    -0.744 OA
ENDBRANCH  76  80
ENDBRANCH  49  73
BRANCH  61  84
ATOM     84  C   UNL A   1      45.222  27.917  33.801  1.00  0.00     0.023 A 
ATOM     85  C   UNL A   1      45.256  26.830  34.694  1.00  0.00     0.031 A 
ATOM     86  C   UNL A   1      46.340  28.765  33.735  1.00  0.00     0.131 A 
ATOM     87  C   UNL A   1      46.370  26.644  35.520  1.00  0.00     0.055 A 
ATOM     88  C   UNL A   1      47.465  28.551  34.532  1.00  0.00     0.041 A 
ATOM     89  F   UNL A   1      46.346  29.818  32.903  1.00  0.00    -0.206 F 
ATOM     90  C   UNL A   1      47.477  27.494  35.439  1.00  0.00     0.022 A 
BRANCH  87  91
ATOM     91  S   UNL A   1      46.396  25.335  36.775  1.00  0.00     0.124 S 
ATOM     92  O   UNL A   1      44.993  25.272  37.178  1.00  0.00    -0.237 OA
ATOM     93  O   UNL A   1      46.878  24.187  36.011  1.00  0.00    -0.237 OA
ATOM     94  O   UNL A   1      47.310  25.841  37.793  1.00  0.00    -0.744 OA
ENDBRANCH  87  91
ENDBRANCH  61  84
ENDBRANCH  35  36
ENDBRANCH  27  30
ENDBRANCH  25  26
ENDBRANCH   1  25
TORSDOF 18
ENDMDL
