MODEL 1
REMARK VINA RESULT:     -12.4      0.000      0.000
REMARK SMILES CC[C@H](C)N1C(=O)c2ccccc2[C@@H](C(=O)NCCCCNC(=O)c2ccc(-c3c4nc(c(-c5cc(S(=O)(=O)[O-])ccc5F)c5ccc([nH]5)c(-c5cc(S(=O)(=O)[O-])ccc5F)c5nc(c(-c6cc(S(=O)(=O)[O-])ccc6F)c6ccc3[nH]6)C=C5)C=C4)cc2)C12CCCCC2
REMARK SMILES IDX 20 1 19 2 18 3 17 4 15 5 16 6 14 8 5 9 6 10 88 11 7 12 8 13
REMARK SMILES IDX 89 14 93 15 9 16 13 17 90 18 92 19 10 20 12 21 91 22 11 23
REMARK SMILES IDX 3 24 4 25 2 26 1 27 21 28 22 29 23 30 24 32 25 33 26 34
REMARK SMILES IDX 87 35 27 36 86 37 28 38 29 39 30 40 80 41 31 42 85 43 79 44
REMARK SMILES IDX 81 45 32 46 84 47 78 48 77 49 33 51 65 52 45 53 64 54 46 55
REMARK SMILES IDX 49 56 63 57 82 58 47 59 48 60 62 62 83 63 50 64 34 65 35 66
REMARK SMILES IDX 43 67 36 68 42 69 44 70 41 71 37 72 38 73 39 74 40 75 66 76
REMARK SMILES IDX 67 77 75 78 68 79 74 80 76 81 73 82 69 83 70 84 71 85 72 86
REMARK SMILES IDX 51 87 52 88 60 89 53 90 59 91 61 92 58 93 54 94 55 95 56 96
REMARK SMILES IDX 57 97
REMARK H PARENT 17 7 22 31 81 50 49 61
REMARK Flexibility Score: inf
ROOT
ATOM      1  C   UNL A   1      32.693  28.399  26.888  1.00  0.00     0.023 C 
ENDROOT
BRANCH   1   2
ATOM      2  C   UNL A   1      32.222  27.215  26.063  1.00  0.00     0.023 C 
BRANCH   2   3
ATOM      3  C   UNL A   1      33.127  25.983  26.130  1.00  0.00     0.116 C 
BRANCH   3   4
ATOM      4  N   UNL A   1      33.795  25.684  24.874  1.00  0.00    -0.355 N 
ATOM      5  C   UNL A   1      34.249  24.516  24.337  1.00  0.00     0.229 C 
ATOM      6  O   UNL A   1      34.704  24.574  23.190  1.00  0.00    -0.274 OA
ATOM      7  H   UNL A   1      33.949  26.473  24.305  1.00  0.00     0.163 HD
BRANCH   5   8
ATOM      8  C   UNL A   1      34.156  23.163  25.067  1.00  0.00     0.135 C 
ATOM      9  N   UNL A   1      33.591  20.679  24.723  1.00  0.00    -0.329 N 
ATOM     10  C   UNL A   1      34.950  20.339  24.715  1.00  0.00     0.254 C 
ATOM     11  C   UNL A   1      33.094  22.116  24.510  1.00  0.00     0.059 C 
ATOM     12  O   UNL A   1      35.374  19.199  24.545  1.00  0.00    -0.269 OA
ATOM     13  C   UNL A   1      35.945  21.373  25.055  1.00  0.00     0.044 A 
ATOM     14  C   UNL A   1      32.760  22.190  22.998  1.00  0.00     0.030 C 
ATOM     15  C   UNL A   1      31.735  22.389  25.262  1.00  0.00     0.030 C 
ATOM     16  C   UNL A   1      37.299  21.008  25.152  1.00  0.00     0.014 A 
ATOM     17  C   UNL A   1      35.555  22.665  25.370  1.00  0.00    -0.020 A 
ATOM     18  C   UNL A   1      31.988  23.415  22.503  1.00  0.00     0.002 C 
ATOM     19  C   UNL A   1      31.011  23.666  24.830  1.00  0.00     0.002 C 
ATOM     20  C   UNL A   1      38.249  21.908  25.634  1.00  0.00     0.001 A 
ATOM     21  C   UNL A   1      36.510  23.544  25.928  1.00  0.00     0.005 A 
ATOM     22  C   UNL A   1      30.744  23.698  23.330  1.00  0.00     0.000 C 
ATOM     23  C   UNL A   1      37.846  23.168  26.056  1.00  0.00     0.000 A 
BRANCH   9  24
ATOM     24  C   UNL A   1      32.610  19.565  24.825  1.00  0.00     0.082 C 
ATOM     25  C   UNL A   1      32.442  18.699  23.565  1.00  0.00     0.031 C 
BRANCH  24  26
ATOM     26  C   UNL A   1      32.951  18.727  26.069  1.00  0.00     0.021 C 
ATOM     27  C   UNL A   1      32.748  17.237  25.857  1.00  0.00     0.006 C 
ENDBRANCH  24  26
ENDBRANCH   9  24
ENDBRANCH   5   8
ENDBRANCH   3   4
ENDBRANCH   2   3
ENDBRANCH   1   2
BRANCH   1  28
ATOM     28  C   UNL A   1      33.713  29.247  26.160  1.00  0.00     0.116 C 
BRANCH  28  29
ATOM     29  N   UNL A   1      33.753  30.609  26.682  1.00  0.00    -0.352 N 
ATOM     30  C   UNL A   1      34.611  31.145  27.613  1.00  0.00     0.251 C 
ATOM     31  H   UNL A   1      33.076  31.225  26.320  1.00  0.00     0.163 HD
ATOM     32  O   UNL A   1      34.375  32.233  28.128  1.00  0.00    -0.269 OA
BRANCH  30  33
ATOM     33  C   UNL A   1      35.802  30.362  27.992  1.00  0.00     0.039 A 
ATOM     34  C   UNL A   1      35.775  29.627  29.177  1.00  0.00     0.014 A 
ATOM     35  C   UNL A   1      36.970  30.449  27.233  1.00  0.00     0.014 A 
ATOM     36  C   UNL A   1      36.965  29.177  29.718  1.00  0.00     0.010 A 
ATOM     37  C   UNL A   1      38.142  29.861  27.716  1.00  0.00     0.010 A 
ATOM     38  C   UNL A   1      38.160  29.264  28.986  1.00  0.00    -0.014 A 
BRANCH  38  39
ATOM     39  C   UNL A   1      39.393  28.674  29.567  1.00  0.00     0.031 A 
ATOM     40  C   UNL A   1      40.081  27.505  28.921  1.00  0.00     0.074 A 
ATOM     41  C   UNL A   1      39.920  29.261  30.660  1.00  0.00     0.049 A 
ATOM     42  N   UNL A   1      41.165  26.881  29.304  1.00  0.00    -0.248 NA
ATOM     43  C   UNL A   1      39.479  26.956  27.695  1.00  0.00     0.031 C 
ATOM     44  C   UNL A   1      39.330  30.411  31.352  1.00  0.00     0.029 A 
ATOM     45  N   UNL A   1      41.075  29.016  31.357  1.00  0.00    -0.354 N 
ATOM     46  C   UNL A   1      41.356  25.849  28.393  1.00  0.00     0.074 A 
ATOM     47  C   UNL A   1      40.265  25.916  27.446  1.00  0.00     0.031 C 
ATOM     48  C   UNL A   1      40.165  30.826  32.309  1.00  0.00     0.029 A 
ATOM     49  C   UNL A   1      41.294  29.906  32.384  1.00  0.00     0.049 A 
ATOM     50  H   UNL A   1      41.686  28.275  31.144  1.00  0.00     0.167 HD
ATOM     51  C   UNL A   1      42.357  24.937  28.355  1.00  0.00     0.034 A 
ATOM     52  C   UNL A   1      42.277  29.967  33.303  1.00  0.00     0.034 A 
ATOM     53  C   UNL A   1      43.450  24.915  29.296  1.00  0.00     0.049 A 
ATOM     54  C   UNL A   1      43.365  28.933  33.246  1.00  0.00     0.074 A 
ATOM     55  C   UNL A   1      44.526  24.047  29.335  1.00  0.00     0.029 A 
ATOM     56  N   UNL A   1      43.616  25.803  30.351  1.00  0.00    -0.354 N 
ATOM     57  N   UNL A   1      43.534  27.967  32.373  1.00  0.00    -0.248 NA
ATOM     58  C   UNL A   1      44.389  28.981  34.297  1.00  0.00     0.031 C 
ATOM     59  C   UNL A   1      45.309  24.372  30.443  1.00  0.00     0.029 A 
ATOM     60  C   UNL A   1      44.763  25.487  31.061  1.00  0.00     0.049 A 
ATOM     61  H   UNL A   1      43.008  26.547  30.564  1.00  0.00     0.167 HD
ATOM     62  C   UNL A   1      44.683  27.292  32.766  1.00  0.00     0.074 A 
ATOM     63  C   UNL A   1      45.189  27.985  33.935  1.00  0.00     0.031 C 
ATOM     64  C   UNL A   1      45.257  26.192  32.221  1.00  0.00     0.034 A 
BRANCH  51  65
ATOM     65  C   UNL A   1      42.342  23.879  27.278  1.00  0.00     0.023 A 
ATOM     66  C   UNL A   1      41.845  22.593  27.564  1.00  0.00     0.031 A 
ATOM     67  C   UNL A   1      42.931  24.098  26.020  1.00  0.00     0.131 A 
ATOM     68  C   UNL A   1      41.980  21.566  26.620  1.00  0.00     0.055 A 
ATOM     69  C   UNL A   1      43.028  23.081  25.069  1.00  0.00     0.041 A 
ATOM     70  F   UNL A   1      43.419  25.306  25.697  1.00  0.00    -0.206 F 
ATOM     71  C   UNL A   1      42.562  21.805  25.372  1.00  0.00     0.022 A 
BRANCH  68  72
ATOM     72  S   UNL A   1      41.461  19.869  26.997  1.00  0.00     0.124 S 
ATOM     73  O   UNL A   1      40.621  19.550  25.844  1.00  0.00    -0.237 OA
ATOM     74  O   UNL A   1      42.739  19.164  27.051  1.00  0.00    -0.237 OA
ATOM     75  O   UNL A   1      40.753  19.991  28.266  1.00  0.00    -0.744 OA
ENDBRANCH  68  72
ENDBRANCH  51  65
BRANCH  52  76
ATOM     76  C   UNL A   1      42.255  31.064  34.314  1.00  0.00     0.023 A 
ATOM     77  C   UNL A   1      41.271  31.095  35.321  1.00  0.00     0.031 A 
ATOM     78  C   UNL A   1      43.115  32.167  34.200  1.00  0.00     0.131 A 
ATOM     79  C   UNL A   1      41.106  32.246  36.103  1.00  0.00     0.055 A 
ATOM     80  C   UNL A   1      43.002  33.278  35.039  1.00  0.00     0.041 A 
ATOM     81  F   UNL A   1      44.061  32.191  33.248  1.00  0.00    -0.206 F 
ATOM     82  C   UNL A   1      41.977  33.331  35.980  1.00  0.00     0.022 A 
BRANCH  79  83
ATOM     83  S   UNL A   1      39.651  32.438  37.171  1.00  0.00     0.124 S 
ATOM     84  O   UNL A   1      38.880  31.242  36.851  1.00  0.00    -0.237 OA
ATOM     85  O   UNL A   1      40.257  32.462  38.501  1.00  0.00    -0.237 OA
ATOM     86  O   UNL A   1      39.069  33.703  36.736  1.00  0.00    -0.744 OA
ENDBRANCH  79  83
ENDBRANCH  52  76
BRANCH  64  87
ATOM     87  C   UNL A   1      46.501  25.641  32.870  1.00  0.00     0.023 A 
ATOM     88  C   UNL A   1      47.761  25.876  32.290  1.00  0.00     0.031 A 
ATOM     89  C   UNL A   1      46.422  24.766  33.967  1.00  0.00     0.131 A 
ATOM     90  C   UNL A   1      48.888  25.208  32.783  1.00  0.00     0.055 A 
ATOM     91  C   UNL A   1      47.555  24.138  34.483  1.00  0.00     0.041 A 
ATOM     92  F   UNL A   1      45.240  24.506  34.547  1.00  0.00    -0.206 F 
ATOM     93  C   UNL A   1      48.793  24.346  33.881  1.00  0.00     0.022 A 
BRANCH  90  94
ATOM     94  S   UNL A   1      50.497  25.359  31.961  1.00  0.00     0.124 S 
ATOM     95  O   UNL A   1      50.162  26.171  30.792  1.00  0.00    -0.237 OA
ATOM     96  O   UNL A   1      51.300  26.032  32.978  1.00  0.00    -0.237 OA
ATOM     97  O   UNL A   1      50.877  23.981  31.671  1.00  0.00    -0.744 OA
ENDBRANCH  90  94
ENDBRANCH  64  87
ENDBRANCH  38  39
ENDBRANCH  30  33
ENDBRANCH  28  29
ENDBRANCH   1  28
TORSDOF 16
ENDMDL
MODEL 2
REMARK VINA RESULT:     -12.2      4.695      7.859
REMARK SMILES CC[C@H](C)N1C(=O)c2ccccc2[C@@H](C(=O)NCCCCNC(=O)c2ccc(-c3c4nc(c(-c5cc(S(=O)(=O)[O-])ccc5F)c5ccc([nH]5)c(-c5cc(S(=O)(=O)[O-])ccc5F)c5nc(c(-c6cc(S(=O)(=O)[O-])ccc6F)c6ccc3[nH]6)C=C5)C=C4)cc2)C12CCCCC2
REMARK SMILES IDX 20 1 19 2 18 3 17 4 15 5 16 6 14 8 5 9 6 10 88 11 7 12 8 13
REMARK SMILES IDX 89 14 93 15 9 16 13 17 90 18 92 19 10 20 12 21 91 22 11 23
REMARK SMILES IDX 3 24 4 25 2 26 1 27 21 28 22 29 23 30 24 32 25 33 26 34
REMARK SMILES IDX 87 35 27 36 86 37 28 38 29 39 30 40 80 41 31 42 85 43 79 44
REMARK SMILES IDX 81 45 32 46 84 47 78 48 77 49 33 51 65 52 45 53 64 54 46 55
REMARK SMILES IDX 49 56 63 57 82 58 47 59 48 60 62 62 83 63 50 64 34 65 35 66
REMARK SMILES IDX 43 67 36 68 42 69 44 70 41 71 37 72 38 73 39 74 40 75 66 76
REMARK SMILES IDX 67 77 75 78 68 79 74 80 76 81 73 82 69 83 70 84 71 85 72 86
REMARK SMILES IDX 51 87 52 88 60 89 53 90 59 91 61 92 58 93 54 94 55 95 56 96
REMARK SMILES IDX 57 97
REMARK H PARENT 17 7 22 31 81 50 49 61
REMARK Flexibility Score: inf
ROOT
ATOM      1  C   UNL A   1      36.228  22.391  23.932  1.00  0.00     0.023 C 
ENDROOT
BRANCH   1   2
ATOM      2  C   UNL A   1      34.904  23.123  23.810  1.00  0.00     0.023 C 
BRANCH   2   3
ATOM      3  C   UNL A   1      34.899  24.543  24.380  1.00  0.00     0.116 C 
BRANCH   3   4
ATOM      4  N   UNL A   1      33.985  24.717  25.498  1.00  0.00    -0.355 N 
ATOM      5  C   UNL A   1      33.021  25.646  25.753  1.00  0.00     0.229 C 
ATOM      6  O   UNL A   1      32.340  25.474  26.768  1.00  0.00    -0.274 OA
ATOM      7  H   UNL A   1      34.081  24.036  26.203  1.00  0.00     0.163 HD
BRANCH   5   8
ATOM      8  C   UNL A   1      32.726  26.830  24.812  1.00  0.00     0.135 C 
ATOM      9  N   UNL A   1      30.814  28.200  23.775  1.00  0.00    -0.329 N 
ATOM     10  C   UNL A   1      31.034  29.249  24.677  1.00  0.00     0.254 C 
ATOM     11  C   UNL A   1      31.356  26.782  24.003  1.00  0.00     0.059 C 
ATOM     12  O   UNL A   1      30.363  30.277  24.715  1.00  0.00    -0.269 OA
ATOM     13  C   UNL A   1      32.214  29.194  25.558  1.00  0.00     0.044 A 
ATOM     14  C   UNL A   1      30.177  26.018  24.661  1.00  0.00     0.030 C 
ATOM     15  C   UNL A   1      31.645  26.033  22.646  1.00  0.00     0.030 C 
ATOM     16  C   UNL A   1      32.496  30.294  26.387  1.00  0.00     0.014 A 
ATOM     17  C   UNL A   1      33.094  28.123  25.511  1.00  0.00    -0.020 A 
ATOM     18  C   UNL A   1      30.298  24.497  24.779  1.00  0.00     0.002 C 
ATOM     19  C   UNL A   1      31.858  24.524  22.780  1.00  0.00     0.002 C 
ATOM     20  C   UNL A   1      33.688  30.358  27.109  1.00  0.00     0.001 A 
ATOM     21  C   UNL A   1      34.331  28.233  26.184  1.00  0.00     0.005 A 
ATOM     22  C   UNL A   1      30.685  23.836  23.467  1.00  0.00     0.000 C 
ATOM     23  C   UNL A   1      34.623  29.340  26.978  1.00  0.00     0.000 A 
BRANCH   9  24
ATOM     24  C   UNL A   1      29.916  28.471  22.620  1.00  0.00     0.082 C 
ATOM     25  C   UNL A   1      28.410  28.505  22.931  1.00  0.00     0.031 C 
BRANCH  24  26
ATOM     26  C   UNL A   1      30.396  29.753  21.919  1.00  0.00     0.021 C 
ATOM     27  C   UNL A   1      29.259  30.679  21.526  1.00  0.00     0.006 C 
ENDBRANCH  24  26
ENDBRANCH   9  24
ENDBRANCH   5   8
ENDBRANCH   3   4
ENDBRANCH   2   3
ENDBRANCH   1   2
BRANCH   1  28
ATOM     28  C   UNL A   1      36.631  22.152  25.371  1.00  0.00     0.116 C 
BRANCH  28  29
ATOM     29  N   UNL A   1      37.542  21.019  25.495  1.00  0.00    -0.352 N 
ATOM     30  C   UNL A   1      38.858  21.017  25.893  1.00  0.00     0.251 C 
ATOM     31  H   UNL A   1      37.164  20.140  25.262  1.00  0.00     0.163 HD
ATOM     32  O   UNL A   1      39.563  20.028  25.720  1.00  0.00    -0.269 OA
BRANCH  30  33
ATOM     33  C   UNL A   1      39.400  22.245  26.505  1.00  0.00     0.039 A 
ATOM     34  C   UNL A   1      38.940  23.481  26.052  1.00  0.00     0.014 A 
ATOM     35  C   UNL A   1      40.434  22.167  27.439  1.00  0.00     0.014 A 
ATOM     36  C   UNL A   1      39.662  24.621  26.353  1.00  0.00     0.010 A 
ATOM     37  C   UNL A   1      41.066  23.341  27.855  1.00  0.00     0.010 A 
ATOM     38  C   UNL A   1      40.718  24.572  27.277  1.00  0.00    -0.014 A 
BRANCH  38  39
ATOM     39  C   UNL A   1      41.398  25.841  27.645  1.00  0.00     0.031 A 
ATOM     40  C   UNL A   1      42.763  26.179  27.116  1.00  0.00     0.074 A 
ATOM     41  C   UNL A   1      40.726  26.717  28.418  1.00  0.00     0.049 A 
ATOM     42  N   UNL A   1      43.485  27.246  27.341  1.00  0.00    -0.248 NA
ATOM     43  C   UNL A   1      43.409  25.199  26.228  1.00  0.00     0.031 C 
ATOM     44  C   UNL A   1      39.389  26.483  28.970  1.00  0.00     0.029 A 
ATOM     45  N   UNL A   1      41.038  27.984  28.840  1.00  0.00    -0.354 N 
ATOM     46  C   UNL A   1      44.680  27.053  26.656  1.00  0.00     0.074 A 
ATOM     47  C   UNL A   1      44.595  25.756  26.021  1.00  0.00     0.031 C 
ATOM     48  C   UNL A   1      38.960  27.595  29.574  1.00  0.00     0.029 A 
ATOM     49  C   UNL A   1      40.032  28.584  29.561  1.00  0.00     0.049 A 
ATOM     50  H   UNL A   1      41.898  28.420  28.646  1.00  0.00     0.167 HD
ATOM     51  C   UNL A   1      45.741  27.889  26.567  1.00  0.00     0.034 A 
ATOM     52  C   UNL A   1      39.978  29.785  30.170  1.00  0.00     0.034 A 
ATOM     53  C   UNL A   1      45.783  29.191  27.186  1.00  0.00     0.049 A 
ATOM     54  C   UNL A   1      41.176  30.685  30.067  1.00  0.00     0.074 A 
ATOM     55  C   UNL A   1      46.802  30.126  27.141  1.00  0.00     0.029 A 
ATOM     56  N   UNL A   1      44.765  29.748  27.949  1.00  0.00    -0.354 N 
ATOM     57  N   UNL A   1      42.296  30.488  29.410  1.00  0.00    -0.248 NA
ATOM     58  C   UNL A   1      41.119  31.960  30.792  1.00  0.00     0.031 C 
ATOM     59  C   UNL A   1      46.425  31.220  27.921  1.00  0.00     0.029 A 
ATOM     60  C   UNL A   1      45.142  31.002  28.400  1.00  0.00     0.049 A 
ATOM     61  H   UNL A   1      43.902  29.315  28.141  1.00  0.00     0.167 HD
ATOM     62  C   UNL A   1      43.077  31.614  29.640  1.00  0.00     0.074 A 
ATOM     63  C   UNL A   1      42.285  32.505  30.466  1.00  0.00     0.031 C 
ATOM     64  C   UNL A   1      44.338  31.880  29.219  1.00  0.00     0.034 A 
BRANCH  51  65
ATOM     65  C   UNL A   1      46.954  27.450  25.782  1.00  0.00     0.023 A 
ATOM     66  C   UNL A   1      47.104  27.849  24.440  1.00  0.00     0.031 A 
ATOM     67  C   UNL A   1      47.887  26.540  26.311  1.00  0.00     0.131 A 
ATOM     68  C   UNL A   1      48.138  27.313  23.662  1.00  0.00     0.055 A 
ATOM     69  C   UNL A   1      48.939  26.039  25.543  1.00  0.00     0.041 A 
ATOM     70  F   UNL A   1      47.790  26.129  27.585  1.00  0.00    -0.206 F 
ATOM     71  C   UNL A   1      49.060  26.416  24.208  1.00  0.00     0.022 A 
BRANCH  68  72
ATOM     72  S   UNL A   1      48.292  27.711  21.899  1.00  0.00     0.124 S 
ATOM     73  O   UNL A   1      49.445  28.610  21.895  1.00  0.00    -0.237 OA
ATOM     74  O   UNL A   1      48.525  26.396  21.309  1.00  0.00    -0.237 OA
ATOM     75  O   UNL A   1      47.017  28.336  21.567  1.00  0.00    -0.744 OA
ENDBRANCH  68  72
ENDBRANCH  51  65
BRANCH  52  76
ATOM     76  C   UNL A   1      38.733  30.174  30.893  1.00  0.00     0.023 A 
ATOM     77  C   UNL A   1      37.769  30.996  30.275  1.00  0.00     0.031 A 
ATOM     78  C   UNL A   1      38.557  29.860  32.250  1.00  0.00     0.131 A 
ATOM     79  C   UNL A   1      36.736  31.556  31.038  1.00  0.00     0.055 A 
ATOM     80  C   UNL A   1      37.477  30.352  32.985  1.00  0.00     0.041 A 
ATOM     81  F   UNL A   1      39.454  29.091  32.887  1.00  0.00    -0.206 F 
ATOM     82  C   UNL A   1      36.574  31.225  32.385  1.00  0.00     0.022 A 
BRANCH  79  83
ATOM     83  S   UNL A   1      35.685  32.866  30.350  1.00  0.00     0.124 S 
ATOM     84  O   UNL A   1      36.335  34.072  30.852  1.00  0.00    -0.237 OA
ATOM     85  O   UNL A   1      35.815  32.630  28.913  1.00  0.00    -0.237 OA
ATOM     86  O   UNL A   1      34.367  32.578  30.905  1.00  0.00    -0.744 OA
ENDBRANCH  79  83
ENDBRANCH  52  76
BRANCH  64  87
ATOM     87  C   UNL A   1      44.970  33.182  29.639  1.00  0.00     0.023 A 
ATOM     88  C   UNL A   1      44.964  34.283  28.763  1.00  0.00     0.031 A 
ATOM     89  C   UNL A   1      45.702  33.282  30.834  1.00  0.00     0.131 A 
ATOM     90  C   UNL A   1      45.714  35.423  29.075  1.00  0.00     0.055 A 
ATOM     91  C   UNL A   1      46.410  34.439  31.163  1.00  0.00     0.041 A 
ATOM     92  F   UNL A   1      45.743  32.255  31.697  1.00  0.00    -0.206 F 
ATOM     93  C   UNL A   1      46.430  35.510  30.274  1.00  0.00     0.022 A 
BRANCH  90  94
ATOM     94  S   UNL A   1      45.861  36.795  27.898  1.00  0.00     0.124 S 
ATOM     95  O   UNL A   1      45.269  37.900  28.650  1.00  0.00    -0.237 OA
ATOM     96  O   UNL A   1      47.306  36.877  27.701  1.00  0.00    -0.237 OA
ATOM     97  O   UNL A   1      45.093  36.350  26.740  1.00  0.00    -0.744 OA
ENDBRANCH  90  94
ENDBRANCH  64  87
ENDBRANCH  38  39
ENDBRANCH  30  33
ENDBRANCH  28  29
ENDBRANCH   1  28
TORSDOF 16
ENDMDL
MODEL 3
REMARK VINA RESULT:     -12.1      2.894      3.781
REMARK SMILES CC[C@H](C)N1C(=O)c2ccccc2[C@@H](C(=O)NCCCCNC(=O)c2ccc(-c3c4nc(c(-c5cc(S(=O)(=O)[O-])ccc5F)c5ccc([nH]5)c(-c5cc(S(=O)(=O)[O-])ccc5F)c5nc(c(-c6cc(S(=O)(=O)[O-])ccc6F)c6ccc3[nH]6)C=C5)C=C4)cc2)C12CCCCC2
REMARK SMILES IDX 20 1 19 2 18 3 17 4 15 5 16 6 14 8 5 9 6 10 88 11 7 12 8 13
REMARK SMILES IDX 89 14 93 15 9 16 13 17 90 18 92 19 10 20 12 21 91 22 11 23
REMARK SMILES IDX 3 24 4 25 2 26 1 27 21 28 22 29 23 30 24 32 25 33 26 34
REMARK SMILES IDX 87 35 27 36 86 37 28 38 29 39 30 40 80 41 31 42 85 43 79 44
REMARK SMILES IDX 81 45 32 46 84 47 78 48 77 49 33 51 65 52 45 53 64 54 46 55
REMARK SMILES IDX 49 56 63 57 82 58 47 59 48 60 62 62 83 63 50 64 34 65 35 66
REMARK SMILES IDX 43 67 36 68 42 69 44 70 41 71 37 72 38 73 39 74 40 75 66 76
REMARK SMILES IDX 67 77 75 78 68 79 74 80 76 81 73 82 69 83 70 84 71 85 72 86
REMARK SMILES IDX 51 87 52 88 60 89 53 90 59 91 61 92 58 93 54 94 55 95 56 96
REMARK SMILES IDX 57 97
REMARK H PARENT 17 7 22 31 81 50 49 61
REMARK Flexibility Score: inf
ROOT
ATOM      1  C   UNL A   1      32.493  28.336  25.124  1.00  0.00     0.023 C 
ENDROOT
BRANCH   1   2
ATOM      2  C   UNL A   1      32.169  27.120  25.972  1.00  0.00     0.023 C 
BRANCH   2   3
ATOM      3  C   UNL A   1      33.298  26.091  26.079  1.00  0.00     0.116 C 
BRANCH   3   4
ATOM      4  N   UNL A   1      33.893  25.746  24.799  1.00  0.00    -0.355 N 
ATOM      5  C   UNL A   1      34.279  24.553  24.264  1.00  0.00     0.229 C 
ATOM      6  O   UNL A   1      34.680  24.574  23.096  1.00  0.00    -0.274 OA
ATOM      7  H   UNL A   1      34.046  26.518  24.207  1.00  0.00     0.163 HD
BRANCH   5   8
ATOM      8  C   UNL A   1      34.176  23.218  25.026  1.00  0.00     0.135 C 
ATOM      9  N   UNL A   1      33.585  20.733  24.740  1.00  0.00    -0.329 N 
ATOM     10  C   UNL A   1      34.940  20.378  24.734  1.00  0.00     0.254 C 
ATOM     11  C   UNL A   1      33.101  22.170  24.497  1.00  0.00     0.059 C 
ATOM     12  O   UNL A   1      35.351  19.230  24.588  1.00  0.00    -0.269 OA
ATOM     13  C   UNL A   1      35.946  21.409  25.046  1.00  0.00     0.044 A 
ATOM     14  C   UNL A   1      32.761  22.213  22.984  1.00  0.00     0.030 C 
ATOM     15  C   UNL A   1      31.748  22.474  25.248  1.00  0.00     0.030 C 
ATOM     16  C   UNL A   1      37.297  21.033  25.146  1.00  0.00     0.014 A 
ATOM     17  C   UNL A   1      35.571  22.713  25.334  1.00  0.00    -0.020 A 
ATOM     18  C   UNL A   1      31.999  23.434  22.465  1.00  0.00     0.002 C 
ATOM     19  C   UNL A   1      31.035  23.748  24.790  1.00  0.00     0.002 C 
ATOM     20  C   UNL A   1      38.259  21.934  25.603  1.00  0.00     0.001 A 
ATOM     21  C   UNL A   1      36.537  23.594  25.868  1.00  0.00     0.005 A 
ATOM     22  C   UNL A   1      30.763  23.749  23.291  1.00  0.00     0.000 C 
ATOM     23  C   UNL A   1      37.870  23.207  25.998  1.00  0.00     0.000 A 
BRANCH   9  24
ATOM     24  C   UNL A   1      32.592  19.632  24.871  1.00  0.00     0.082 C 
ATOM     25  C   UNL A   1      32.360  18.781  23.610  1.00  0.00     0.031 C 
BRANCH  24  26
ATOM     26  C   UNL A   1      32.972  18.776  26.091  1.00  0.00     0.021 C 
ATOM     27  C   UNL A   1      32.679  17.298  25.897  1.00  0.00     0.006 C 
ENDBRANCH  24  26
ENDBRANCH   9  24
ENDBRANCH   5   8
ENDBRANCH   3   4
ENDBRANCH   2   3
ENDBRANCH   1   2
BRANCH   1  28
ATOM     28  C   UNL A   1      33.626  29.161  25.697  1.00  0.00     0.116 C 
BRANCH  28  29
ATOM     29  N   UNL A   1      33.176  30.490  26.098  1.00  0.00    -0.352 N 
ATOM     30  C   UNL A   1      33.668  31.296  27.097  1.00  0.00     0.251 C 
ATOM     31  H   UNL A   1      32.420  30.857  25.585  1.00  0.00     0.163 HD
ATOM     32  O   UNL A   1      33.040  32.281  27.473  1.00  0.00    -0.269 OA
BRANCH  30  33
ATOM     33  C   UNL A   1      34.954  30.927  27.717  1.00  0.00     0.039 A 
ATOM     34  C   UNL A   1      35.123  29.625  28.190  1.00  0.00     0.014 A 
ATOM     35  C   UNL A   1      35.937  31.895  27.927  1.00  0.00     0.014 A 
ATOM     36  C   UNL A   1      36.158  29.354  29.064  1.00  0.00     0.010 A 
ATOM     37  C   UNL A   1      37.060  31.571  28.691  1.00  0.00     0.010 A 
ATOM     38  C   UNL A   1      37.155  30.313  29.308  1.00  0.00    -0.014 A 
BRANCH  38  39
ATOM     39  C   UNL A   1      38.301  29.940  30.176  1.00  0.00     0.031 A 
ATOM     40  C   UNL A   1      39.407  29.056  29.672  1.00  0.00     0.074 A 
ATOM     41  C   UNL A   1      38.359  30.473  31.412  1.00  0.00     0.049 A 
ATOM     42  N   UNL A   1      40.476  28.644  30.305  1.00  0.00    -0.248 NA
ATOM     43  C   UNL A   1      39.306  28.561  28.290  1.00  0.00     0.031 C 
ATOM     44  C   UNL A   1      37.337  31.354  31.985  1.00  0.00     0.029 A 
ATOM     45  N   UNL A   1      39.315  30.399  32.392  1.00  0.00    -0.354 N 
ATOM     46  C   UNL A   1      41.153  27.817  29.416  1.00  0.00     0.074 A 
ATOM     47  C   UNL A   1      40.366  27.769  28.204  1.00  0.00     0.031 C 
ATOM     48  C   UNL A   1      37.760  31.809  33.168  1.00  0.00     0.029 A 
ATOM     49  C   UNL A   1      39.026  31.164  33.498  1.00  0.00     0.049 A 
ATOM     50  H   UNL A   1      40.128  29.850  32.311  1.00  0.00     0.167 HD
ATOM     51  C   UNL A   1      42.326  27.166  29.603  1.00  0.00     0.034 A 
ATOM     52  C   UNL A   1      39.686  31.316  34.663  1.00  0.00     0.034 A 
ATOM     53  C   UNL A   1      43.105  27.260  30.814  1.00  0.00     0.049 A 
ATOM     54  C   UNL A   1      40.977  30.570  34.847  1.00  0.00     0.074 A 
ATOM     55  C   UNL A   1      44.318  26.658  31.098  1.00  0.00     0.029 A 
ATOM     56  N   UNL A   1      42.760  28.007  31.932  1.00  0.00    -0.354 N 
ATOM     57  N   UNL A   1      41.607  29.797  33.993  1.00  0.00    -0.248 NA
ATOM     58  C   UNL A   1      41.645  30.701  36.148  1.00  0.00     0.031 C 
ATOM     59  C   UNL A   1      44.676  26.993  32.404  1.00  0.00     0.029 A 
ATOM     60  C   UNL A   1      43.723  27.861  32.916  1.00  0.00     0.049 A 
ATOM     61  H   UNL A   1      41.949  28.560  32.014  1.00  0.00     0.167 HD
ATOM     62  C   UNL A   1      42.746  29.349  34.651  1.00  0.00     0.074 A 
ATOM     63  C   UNL A   1      42.737  29.969  35.961  1.00  0.00     0.031 C 
ATOM     64  C   UNL A   1      43.702  28.491  34.216  1.00  0.00     0.034 A 
BRANCH  51  65
ATOM     65  C   UNL A   1      42.862  26.292  28.494  1.00  0.00     0.023 A 
ATOM     66  C   UNL A   1      43.935  26.743  27.701  1.00  0.00     0.031 A 
ATOM     67  C   UNL A   1      42.237  25.084  28.139  1.00  0.00     0.131 A 
ATOM     68  C   UNL A   1      44.326  26.011  26.573  1.00  0.00     0.055 A 
ATOM     69  C   UNL A   1      42.656  24.338  27.036  1.00  0.00     0.041 A 
ATOM     70  F   UNL A   1      41.211  24.609  28.863  1.00  0.00    -0.206 F 
ATOM     71  C   UNL A   1      43.697  24.808  26.240  1.00  0.00     0.022 A 
BRANCH  68  72
ATOM     72  S   UNL A   1      45.623  26.620  25.460  1.00  0.00     0.124 S 
ATOM     73  O   UNL A   1      46.705  26.918  26.396  1.00  0.00    -0.237 OA
ATOM     74  O   UNL A   1      45.848  25.466  24.594  1.00  0.00    -0.237 OA
ATOM     75  O   UNL A   1      45.019  27.782  24.819  1.00  0.00    -0.744 OA
ENDBRANCH  68  72
ENDBRANCH  51  65
BRANCH  52  76
ATOM     76  C   UNL A   1      39.124  32.229  35.700  1.00  0.00     0.023 A 
ATOM     77  C   UNL A   1      39.552  33.568  35.788  1.00  0.00     0.031 A 
ATOM     78  C   UNL A   1      38.271  31.743  36.703  1.00  0.00     0.131 A 
ATOM     79  C   UNL A   1      39.210  34.338  36.907  1.00  0.00     0.055 A 
ATOM     80  C   UNL A   1      37.863  32.542  37.773  1.00  0.00     0.041 A 
ATOM     81  F   UNL A   1      37.845  30.470  36.670  1.00  0.00    -0.206 F 
ATOM     82  C   UNL A   1      38.353  33.839  37.891  1.00  0.00     0.022 A 
BRANCH  79  83
ATOM     83  S   UNL A   1      40.010  35.940  37.206  1.00  0.00     0.124 S 
ATOM     84  O   UNL A   1      39.326  36.401  38.409  1.00  0.00    -0.237 OA
ATOM     85  O   UNL A   1      41.407  35.548  37.385  1.00  0.00    -0.237 OA
ATOM     86  O   UNL A   1      39.733  36.696  35.990  1.00  0.00    -0.744 OA
ENDBRANCH  79  83
ENDBRANCH  52  76
BRANCH  64  87
ATOM     87  C   UNL A   1      44.831  28.149  35.154  1.00  0.00     0.023 A 
ATOM     88  C   UNL A   1      44.633  27.207  36.180  1.00  0.00     0.031 A 
ATOM     89  C   UNL A   1      46.042  28.861  35.124  1.00  0.00     0.131 A 
ATOM     90  C   UNL A   1      45.615  27.033  37.163  1.00  0.00     0.055 A 
ATOM     91  C   UNL A   1      47.037  28.651  36.080  1.00  0.00     0.041 A 
ATOM     92  F   UNL A   1      46.272  29.776  34.169  1.00  0.00    -0.206 F 
ATOM     93  C   UNL A   1      46.818  27.744  37.113  1.00  0.00     0.022 A 
BRANCH  90  94
ATOM     94  S   UNL A   1      45.328  25.949  38.588  1.00  0.00     0.124 S 
ATOM     95  O   UNL A   1      44.973  24.688  37.940  1.00  0.00    -0.237 OA
ATOM     96  O   UNL A   1      46.628  25.965  39.253  1.00  0.00    -0.237 OA
ATOM     97  O   UNL A   1      44.243  26.601  39.314  1.00  0.00    -0.744 OA
ENDBRANCH  90  94
ENDBRANCH  64  87
ENDBRANCH  38  39
ENDBRANCH  30  33
ENDBRANCH  28  29
ENDBRANCH   1  28
TORSDOF 16
ENDMDL
